data_PCOD8137933
_publ_section_title
;
Structure prediction by ZEFSAII (Michael W. Deem and Ramdas Pophale) SiO2 
 PCOD8137933
Probable space group: C 2/C
;
_chemical_formula_sum "Si O2"
_cell_formula_units_Z 64
_cell_length_a 30.208658
_cell_length_b 10.183786
_cell_length_c 18.286510
_cell_angle_alpha 90.000000
_cell_angle_beta 143.834695
_cell_angle_gamma 90.000000
_cell_volume 3319.782148
_symmetry_space_group_name_H-M "C 2/C"
_symmetry_group_IT_number 15
_symmetry_cell_setting 'monoclinic'
loop_
_space_group_symop_operation_xyz
x,y,z
-x,y,1/2-z
-x,-y,-z
x,-y,1/2+z
1/2+x,1/2+y,z
1/2-x,1/2+y,1/2-z
1/2-x,1/2-y,-z
1/2+x,1/2-y,1/2+z
loop_
_atom_site_type_symbol
_atom_site_label
_atom_site_fract_x
_atom_site_fract_y
_atom_site_fract_z
Si Si1 0.084963 0.720413 0.386946
Si Si2 0.586524 0.522801 0.387635
Si Si3 0.306076 0.867278 0.587855
Si Si4 0.428326 0.858330 0.468731
Si Si5 0.096101 0.622349 0.141981
Si Si6 0.794554 0.116328 0.066406
Si Si7 0.432646 0.371990 0.482353
Si Si8 0.902897 0.889177 0.840696
O O1 0.129633 0.636728 0.387241
O O2 0.094852 0.647955 0.477593
O O3 0.000000 0.719755 0.250000
O O4 0.113118 0.871301 0.426153
O O5 0.500000 0.534587 0.250000
O O6 0.637567 0.604690 0.400305
O O7 0.601435 0.587157 0.486009
O O8 0.250000 0.750000 0.500000
O O9 0.338743 0.853709 0.712806
O O10 0.265631 0.004475 0.526272
O O11 0.517867 0.867598 0.580925
O O12 0.396027 0.726969 0.389767
O O13 0.390872 0.982585 0.379253
O O14 0.099797 0.730462 0.083045
O O15 0.829175 0.108119 0.193197
O O16 0.750000 0.250000 0.000000
O O17 0.522886 0.368394 0.609415
O O18 0.407201 0.471606 0.385844
#
# Coordination Sequence:
#
# PCOD8137933 Si02
#       8
#     8   8   8   8   8   8   8   8
#     4  11  22  40  69  98 124 166 229 270 305 376
#     4  11  22  41  67  99 125 163 231 271 304 373
#     4  12  24  43  64  95 132 171 212 256 329 391
#     4  10  20  40  64  92 127 162 215 265 316 371
#     4  10  22  38  61  95 130 165 202 266 327 377
#     4  12  26  43  62  94 138 174 200 259 336 392
#     4  10  20  36  67  95 120 155 223 273 302 364
#     4  10  20  38  63  95 121 166 211 260 322 369
#
# _framework density 19.278373999999999
#
# number of rings (size 3 to 8) (size 9 to 14) (size 15 to 20)
#    0.000    1.250    5.000    1.500    0.000    1.000 
#    0.000    8.750    0.000    0.000    0.000    0.000 
#    0.000    0.000    0.000    0.000    0.000    0.000 
#
# Total GULP energy -396932.250333 kJ/mol
# GULP energy per Si atom -12404.132823 kJ/mol
# Density = 1.923450 g / cm^3
# Si number density = 19.278374 Si / 1000 Ang^3
#
#
#
# Elastic Constant Matrix: (Units=GPa)
#
#
# Indices 1 2 3 4 5 6 
#
# 1 80.2339 26.5711 21.9180 0.0000 -6.7183 0.0000
# 2 26.5711 101.5836 29.3636 0.0000 10.4763 0.0000
# 3 21.9180 29.3636 105.4569 0.0000 -5.6395 0.0000
# 4 0.0000 0.0000 0.0000 21.3066 0.0000 3.8467
# 5 -6.7183 10.4763 -5.6395 0.0000 24.3044 0.0000
# 6 0.0000 0.0000 0.0000 3.8467 0.0000 30.8018
#
#
#
# Elastic Compliance Matrix: (Units=1/GPa)
#
#
# Indices 1 2 3 4 5 6 
#
# 1 0.014661 -0.003902 -0.001675 0.000000 0.005346 0.000000
# 2 -0.003902 0.012485 -0.003049 0.000000 -0.007168 0.000000
# 3 -0.001675 -0.003049 0.010860 0.000000 0.003371 0.000000
# 4 0.000000 0.000000 0.000000 0.048016 0.000000 -0.005996
# 5 0.005346 -0.007168 0.003371 0.000000 0.046494 0.000000
# 6 0.000000 0.000000 0.000000 -0.005996 0.000000 0.033215
#
#
# Mechanical properties :
#
#
# Convention : Reuss Voigt Hill
#
# Bulk Modulus (GPa) = 48.18131 49.21996 48.70064
# Shear Modulus (GPa) = 26.32956 29.24400 27.78678
#
# Velocity S-wave (km/s) = 3.69962 3.89901 3.80062
# Velocity P-wave (km/s) = 6.57999 6.77173 6.67655
#
# Compressibility (1/GPa) = 0.02075493
#
# Stress axis : x y z
#
# Youngs Moduli (GPa) = 68.20844 80.09463 92.08294
#
# Poissons Ratio (x) = 0.31254 0.15421
# Poissons Ratio (y) = 0.26615 0.28073
# Poissons Ratio (z) = 0.11423 0.24419
#
# Static dielectric constant tensor:
#      x y z
#    x 3.248040 0.000000 0.058340 
#    y 0.000000 3.563880 0.000000 
#    z 0.058340 0.000000 3.464440 
# 
# 
# High freq. dielectric constant tensor:
#      x y z
#    x 1.742610 0.000000 -0.011930 
#    y 0.000000 1.757990 0.000000 
#    z -0.011930 0.000000 1.755590 
# 
# From -- ./inp_files/224648.got.cif
#   From: 2010.06.25/outbox.cif.g09.slc.cpg/sg15_113_cif.got.tgz:224648.got - 2010.06.28 07:06:18.
