data_PCOD8137472
_publ_section_title
;
Structure prediction by ZEFSAII (Michael W. Deem and Ramdas Pophale) SiO2 
 PCOD8137472
Probable space group: C 2/C
;
_chemical_formula_sum "Si O2"
_cell_formula_units_Z 32
_cell_length_a 10.783276
_cell_length_b 23.134837
_cell_length_c 10.157131
_cell_angle_alpha 90.000000
_cell_angle_beta 150.041988
_cell_angle_gamma 90.000000
_cell_volume 1265.337875
_symmetry_space_group_name_H-M "C 2/C"
_symmetry_group_IT_number 15
_symmetry_cell_setting 'monoclinic'
loop_
_space_group_symop_operation_xyz
x,y,z
-x,y,1/2-z
-x,-y,-z
x,-y,1/2+z
1/2+x,1/2+y,z
1/2-x,1/2+y,1/2-z
1/2-x,1/2-y,-z
1/2+x,1/2-y,1/2+z
loop_
_atom_site_type_symbol
_atom_site_label
_atom_site_fract_x
_atom_site_fract_y
_atom_site_fract_z
Si Si1 0.234192 0.908919 0.547790
Si Si2 0.935218 0.268962 0.444183
Si Si3 0.626057 0.118490 0.047186
Si Si4 0.000000 0.805862 0.750000
Si Si5 0.000000 0.519226 0.750000
O O1 0.500000 0.879644 0.750000
O O2 0.191292 0.895691 0.662352
O O3 0.257752 0.978227 0.542938
O O4 0.000000 0.884437 0.250000
O O5 0.052763 0.234600 0.424848
O O6 0.178257 0.258276 0.763721
O O7 0.907732 0.337588 0.393856
O O8 0.770066 0.151092 0.063010
O O9 0.513084 0.058672 0.892328
#
# Coordination Sequence:
#
# PCOD8137472 Si02
#       5
#     8   8   8   4   4
#     4  10  26  44  61  89 132 169 217 252 301 380
#     4  10  20  36  58  94 124 147 196 258 316 369
#     4  11  21  40  68  94 128 168 202 265 324 363
#     4  10  21  36  66  98 124 152 209 264 322 364
#     4  10  23  40  64  98 120 166 215 264 310 368
#
# _framework density 25.289687000000001
#
# number of rings (size 3 to 8) (size 9 to 14) (size 15 to 20)
#    0.750    1.000    0.000    6.000    1.750    7.000 
#    0.000    0.000    0.000   18.000    0.000    0.000 
#    0.000    0.000    0.000    0.000    0.000    0.000 
#
# Total GULP energy -198225.200134 kJ/mol
# GULP energy per Si atom -12389.075008 kJ/mol
# Density = 2.523213 g / cm^3
# Si number density = 25.289687 Si / 1000 Ang^3
#
#
#
# Elastic Constant Matrix: (Units=GPa)
#
#
# Indices 1 2 3 4 5 6 
#
# 1 35.6530 10.5413 30.7389 0.0000 -4.9005 0.0000
# 2 10.5413 66.3030 -5.2745 0.0000 7.4517 0.0000
# 3 30.7389 -5.2745 145.1516 0.0000 8.4368 0.0000
# 4 0.0000 0.0000 0.0000 18.8212 0.0000 7.8974
# 5 -4.9005 7.4517 8.4368 0.0000 35.5016 0.0000
# 6 0.0000 0.0000 0.0000 7.8974 0.0000 5.0234
#
#
#
# Elastic Compliance Matrix: (Units=1/GPa)
#
#
# Indices 1 2 3 4 5 6 
#
# 1 0.039707 -0.008103 -0.009248 0.000000 0.009380 0.000000
# 2 -0.008103 0.017183 0.002652 0.000000 -0.005355 0.000000
# 3 -0.009248 0.002652 0.009178 0.000000 -0.004014 0.000000
# 4 0.000000 0.000000 0.000000 0.156114 0.000000 -0.245430
# 5 0.009380 -0.005355 -0.004014 0.000000 0.031541 0.000000
# 6 0.000000 0.000000 0.000000 -0.245430 0.000000 0.584914
#
#
# Mechanical properties :
#
#
# Convention : Reuss Voigt Hill
#
# Bulk Modulus (GPa) = 27.27126 35.45768 31.36447
# Shear Modulus (GPa) = 5.68015 25.94270 15.81143
#
# Velocity S-wave (km/s) = 1.50030 3.20632 2.50314
# Velocity P-wave (km/s) = 3.71594 5.26862 4.55887
#
# Compressibility (1/GPa) = 0.03666864
#
# Stress axis : x y z
#
# Youngs Moduli (GPa) = 25.18465 58.19600 108.96145
#
# Poissons Ratio (x) = 0.47155 1.00771
# Poissons Ratio (y) = 0.20406 -0.28892
# Poissons Ratio (z) = 0.23292 -0.15431
#
# Static dielectric constant tensor:
#      x y z
#    x 4.016820 0.000000 -0.059650 
#    y 0.000000 4.566380 0.000000 
#    z -0.059650 0.000000 4.554950 
# 
# 
# High freq. dielectric constant tensor:
#      x y z
#    x 1.964520 0.000000 -0.005560 
#    y 0.000000 2.014220 0.000000 
#    z -0.005560 0.000000 2.008860 
# 
# From -- ./inp_files/91069.got.cif
#   From: 2010.06.25/outbox.cif.g09.slc.cpg/sg15_46_cif.got.tgz:91069.got - 2010.06.28 07:06:18.
