data_PCOD8137598
_publ_section_title
;
Structure prediction by ZEFSAII (Michael W. Deem and Ramdas Pophale) SiO2 
 PCOD8137598
Probable space group: C 2/C
;
_chemical_formula_sum "Si O2"
_cell_formula_units_Z 60
_cell_length_a 16.939493
_cell_length_b 11.670160
_cell_length_c 14.747289
_cell_angle_alpha 90.000000
_cell_angle_beta 103.597526
_cell_angle_gamma 90.000000
_cell_volume 2833.627672
_symmetry_space_group_name_H-M "C 2/C"
_symmetry_group_IT_number 15
_symmetry_cell_setting 'monoclinic'
loop_
_space_group_symop_operation_xyz
x,y,z
-x,y,1/2-z
-x,-y,-z
x,-y,1/2+z
1/2+x,1/2+y,z
1/2-x,1/2+y,1/2-z
1/2-x,1/2-y,-z
1/2+x,1/2-y,1/2+z
loop_
_atom_site_type_symbol
_atom_site_label
_atom_site_fract_x
_atom_site_fract_y
_atom_site_fract_z
Si Si1 0.404427 0.882678 0.788755
Si Si2 0.510648 0.930897 0.093668
Si Si3 0.640601 0.215361 0.538877
Si Si4 0.276782 0.116258 0.110743
Si Si5 0.551765 0.432804 0.439003
Si Si6 0.500000 0.320375 0.250000
Si Si7 0.804467 0.921413 0.502983
Si Si8 0.140176 0.327173 0.521635
O O1 0.323441 0.919884 0.714931
O O2 0.425691 0.768762 0.737230
O O3 0.394041 0.852443 0.889879
O O4 0.472822 0.985526 0.814541
O O5 0.591136 0.852211 0.103183
O O6 0.425012 0.859875 0.076462
O O7 0.500000 0.000000 0.000000
O O8 0.664517 0.131436 0.461474
O O9 0.722137 0.268666 0.605968
O O10 0.581122 0.313165 0.487241
O O11 0.218318 0.006746 0.084808
O O12 0.500000 0.500000 0.500000
O O13 0.499780 0.402848 0.336634
O O14 0.626495 0.510580 0.422195
O O15 0.843712 0.806947 0.475838
O O16 0.723950 0.897017 0.538578
#
# Coordination Sequence:
#
# PCOD8137598 Si02
#       8
#     8   8   8   8   8   4   8   8
#     4  11  23  37  62  95 124 163 219 279 319 387
#     4  10  20  36  60  87 121 166 212 258 326 389
#     4  10  20  39  61  90 126 166 211 261 329 396
#     4  10  21  36  61  92 124 164 213 266 321 388
#     4  11  22  42  68  96 128 175 218 272 344 401
#     4  12  24  40  66  98 128 164 228 274 320 414
#     4  10  22  41  64  86 126 174 212 259 333 407
#     4  10  22  41  62  89 126 173 213 266 337 395
#
# _framework density 21.174271999999998
#
# number of rings (size 3 to 8) (size 9 to 14) (size 15 to 20)
#    0.000    1.600    1.333    4.800    1.867    1.067 
#    7.200    0.000    5.867    0.000    0.000    0.000 
#    0.000    0.000    0.000    0.000    0.000    0.000 
#
# Total GULP energy -371693.522627 kJ/mol
# GULP energy per Si atom -12389.784088 kJ/mol
# Density = 2.112608 g / cm^3
# Si number density = 21.174272 Si / 1000 Ang^3
#
#
#
# Elastic Constant Matrix: (Units=GPa)
#
#
# Indices 1 2 3 4 5 6 
#
# 1 94.7425 47.1690 36.4963 0.0000 13.7574 0.0000
# 2 47.1690 118.9454 37.0093 0.0000 4.9988 0.0000
# 3 36.4963 37.0093 74.4314 0.0000 5.9591 0.0000
# 4 0.0000 0.0000 0.0000 -1.8208 0.0000 8.8399
# 5 13.7574 4.9988 5.9591 0.0000 23.4508 0.0000
# 6 0.0000 0.0000 0.0000 8.8399 0.0000 42.0044
#
#
#
# Elastic Compliance Matrix: (Units=1/GPa)
#
#
# Indices 1 2 3 4 5 6 
#
# 1 0.015652 -0.004376 -0.004939 0.000000 -0.006994 0.000000
# 2 -0.004376 0.011187 -0.003503 0.000000 0.001073 0.000000
# 3 -0.004939 -0.003503 0.017666 0.000000 -0.000845 0.000000
# 4 0.000000 0.000000 0.000000 -0.271650 0.000000 0.057169
# 5 -0.006994 0.001073 -0.000845 0.000000 0.046732 0.000000
# 6 0.000000 0.000000 0.000000 0.057169 0.000000 0.011776
#
#
# Mechanical properties :
#
#
# Convention : Reuss Voigt Hill
#
# Bulk Modulus (GPa) = 52.99413 58.82986 55.91199
# Shear Modulus (GPa) = -36.57329 23.88985 -6.34172
#
# Velocity S-wave (km/s) = -4.16053 3.36259 -1.73249
# Velocity P-wave (km/s) = 1.41489 6.55133 4.73930
#
# Compressibility (1/GPa) = 0.01887002
#
# Stress axis : x y z
#
# Youngs Moduli (GPa) = 63.89042 89.38574 56.60557
#
# Poissons Ratio (x) = 0.39118 0.27955
# Poissons Ratio (y) = 0.27960 0.19827
# Poissons Ratio (z) = 0.31553 0.31309
#
# Static dielectric constant tensor:
#      x y z
#    x 4.487970 0.000000 0.334800 
#    y 0.000000 4.384430 0.000000 
#    z 0.334800 0.000000 3.498340 
# 
# 
# High freq. dielectric constant tensor:
#      x y z
#    x 1.843130 0.000000 0.014580 
#    y 0.000000 1.846270 0.000000 
#    z 0.014580 0.000000 1.792940 
# 
# From -- ./inp_files/160969.got.cif
#   From: 2010.06.25/outbox.cif.g09.slc.cpg/sg15_81_cif.got.tgz:160969.got - 2010.06.28 07:06:18.
