data_PCOD8137140
_publ_section_title
;
Structure prediction by ZEFSAII (Michael W. Deem and Ramdas Pophale) SiO2 
 PCOD8137140
Probable space group: C 2/C
;
_chemical_formula_sum "Si O2"
_cell_formula_units_Z 60
_cell_length_a 27.251140
_cell_length_b 18.741326
_cell_length_c 12.570556
_cell_angle_alpha 90.000000
_cell_angle_beta 27.473189
_cell_angle_gamma 90.000000
_cell_volume 2961.791377
_symmetry_space_group_name_H-M "C 2/C"
_symmetry_group_IT_number 15
_symmetry_cell_setting 'monoclinic'
loop_
_space_group_symop_operation_xyz
x,y,z
-x,y,1/2-z
-x,-y,-z
x,-y,1/2+z
1/2+x,1/2+y,z
1/2-x,1/2+y,1/2-z
1/2-x,1/2-y,-z
1/2+x,1/2-y,1/2+z
loop_
_atom_site_type_symbol
_atom_site_label
_atom_site_fract_x
_atom_site_fract_y
_atom_site_fract_z
Si Si1 0.974851 0.612960 0.084025
Si Si2 0.697950 0.722822 0.429773
Si Si3 0.991026 0.894832 0.521549
Si Si4 0.665303 0.978246 0.135271
Si Si5 0.500000 0.185665 0.250000
Si Si6 0.608929 0.262059 0.328612
Si Si7 0.680707 0.584642 0.328104
Si Si8 0.134279 0.994380 0.121578
O O1 0.879705 0.557890 0.288036
O O2 0.017719 0.636323 0.115234
O O3 0.932056 0.681100 0.101883
O O4 0.071222 0.577877 0.834898
O O5 0.605956 0.766878 0.549323
O O6 0.663254 0.707017 0.617180
O O7 0.809458 0.765912 0.228296
O O8 0.721644 0.651441 0.318125
O O9 0.906819 0.889240 0.587321
O O10 0.011672 0.816828 0.532603
O O11 0.099064 0.930222 0.268281
O O12 0.947387 0.940866 0.703684
O O13 0.721260 0.953777 0.918580
O O14 0.747506 0.979517 0.075117
O O15 0.628910 0.527867 0.508744
#
# Coordination Sequence:
#
# PCOD8137140 Si02
#       8
#     8   8   8   8   4   8   8   8
#     4  10  22  42  59  90 120 162 203 257 301 367
#     4  10  20  35  61  94 113 161 207 249 304 370
#     4  10  21  37  62  94 124 162 203 258 308 367
#     4  10  24  40  61  87 126 162 208 250 310 364
#     4  10  22  36  62  90 120 152 206 252 310 368
#     4  10  20  38  65  85 125 157 207 259 304 363
#     4  11  20  38  65  89 122 166 207 252 309 374
#     4  10  21  36  60  92 122 159 206 250 307 364
#
# _framework density 20.258009000000001
#
# number of rings (size 3 to 8) (size 9 to 14) (size 15 to 20)
#    0.000    1.867    1.333    2.800    5.600    0.000 
#    0.000    7.333    0.000    3.200    0.000    0.000 
#    0.000    0.000    0.000    0.000    0.000    0.000 
#
# Total GULP energy -371941.398865 kJ/mol
# GULP energy per Si atom -12398.046629 kJ/mol
# Density = 2.021190 g / cm^3
# Si number density = 20.258009 Si / 1000 Ang^3
#
#
#
# Elastic Constant Matrix: (Units=GPa)
#
#
# Indices 1 2 3 4 5 6 
#
# 1 93.2513 54.2731 46.8153 0.0000 -11.9622 0.0000
# 2 54.2731 157.9132 69.3251 0.0000 -7.9900 0.0000
# 3 46.8153 69.3251 108.8209 0.0000 -7.9409 0.0000
# 4 0.0000 0.0000 0.0000 25.0683 0.0000 4.2381
# 5 -11.9622 -7.9900 -7.9409 0.0000 30.2921 0.0000
# 6 0.0000 0.0000 0.0000 4.2381 0.0000 19.3489
#
#
#
# Elastic Compliance Matrix: (Units=1/GPa)
#
#
# Indices 1 2 3 4 5 6 
#
# 1 0.015211 -0.003165 -0.004231 0.000000 0.004063 0.000000
# 2 -0.003165 0.009472 -0.004671 0.000000 0.000024 0.000000
# 3 -0.004231 -0.004671 0.014042 0.000000 0.000778 0.000000
# 4 0.000000 0.000000 0.000000 0.041425 0.000000 -0.009073
# 5 0.004063 0.000024 0.000778 0.000000 0.034827 0.000000
# 6 0.000000 0.000000 0.000000 -0.009073 0.000000 0.053670
#
#
# Mechanical properties :
#
#
# Convention : Reuss Voigt Hill
#
# Bulk Modulus (GPa) = 68.53407 77.86805 73.20106
# Shear Modulus (GPa) = 25.29792 27.57999 26.43895
#
# Velocity S-wave (km/s) = 3.53765 3.69377 3.61655
# Velocity P-wave (km/s) = 7.11271 7.53084 7.32476
#
# Compressibility (1/GPa) = 0.01459128
#
# Stress axis : x y z
#
# Youngs Moduli (GPa) = 65.74173 105.57299 71.21381
#
# Poissons Ratio (x) = 0.33411 0.30133
# Poissons Ratio (y) = 0.20806 0.33264
# Poissons Ratio (z) = 0.27817 0.49313
#
# Static dielectric constant tensor:
#      x y z
#    x 3.668450 0.000000 -0.184670 
#    y 0.000000 3.749270 0.000000 
#    z -0.184670 0.000000 3.591050 
# 
# 
# High freq. dielectric constant tensor:
#      x y z
#    x 1.790890 0.000000 -0.017090 
#    y 0.000000 1.797730 0.000000 
#    z -0.017090 0.000000 1.776380 
# 
# From -- ./inp_files/123988.got.cif
#   From: 2010.06.25/outbox.cif.g09.slc.cpg/sg15_62_cif.got.tgz:123988.got - 2010.06.28 07:06:18.
