data_PCOD8137188
_publ_section_title
;
Structure prediction by ZEFSAII (Michael W. Deem and Ramdas Pophale) SiO2 
 PCOD8137188
Probable space group: C 2/C
;
_chemical_formula_sum "Si O2"
_cell_formula_units_Z 52
_cell_length_a 16.752725
_cell_length_b 9.078796
_cell_length_c 17.892699
_cell_angle_alpha 90.000000
_cell_angle_beta 56.907265
_cell_angle_gamma 90.000000
_cell_volume 2279.941402
_symmetry_space_group_name_H-M "C 2/C"
_symmetry_group_IT_number 15
_symmetry_cell_setting 'monoclinic'
loop_
_space_group_symop_operation_xyz
x,y,z
-x,y,1/2-z
-x,-y,-z
x,-y,1/2+z
1/2+x,1/2+y,z
1/2-x,1/2+y,1/2-z
1/2-x,1/2-y,-z
1/2+x,1/2-y,1/2+z
loop_
_atom_site_type_symbol
_atom_site_label
_atom_site_fract_x
_atom_site_fract_y
_atom_site_fract_z
Si Si1 0.000000 0.579136 0.750000
Si Si2 0.467618 0.468164 0.181397
Si Si3 0.634363 0.376569 0.513519
Si Si4 0.136909 0.252389 0.290939
Si Si5 0.341610 0.055253 0.938000
Si Si6 0.852197 0.241969 0.651755
Si Si7 0.107251 0.539526 0.931227
O O1 0.939072 0.677604 0.725541
O O2 0.922737 0.488237 0.840130
O O3 0.500000 0.463420 0.250000
O O4 0.558013 0.509410 0.084629
O O5 0.379663 0.578427 0.209070
O O6 0.422263 0.310081 0.182569
O O7 0.636021 0.229494 0.563531
O O8 0.736044 0.459380 0.458808
O O9 0.605677 0.330175 0.444932
O O10 0.242737 0.303832 0.217222
O O11 0.116715 0.301879 0.387012
O O12 0.338866 0.964934 0.017013
O O13 0.852495 0.418885 0.647597
O O14 0.000000 0.500000 0.000000
#
# Coordination Sequence:
#
# PCOD8137188 Si02
#       7
#     4   8   8   8   8   8   8
#     4  12  18  38  64 100 122 168 234 278 320 400
#     4  12  25  43  67  99 133 178 229 284 336 407
#     4  10  20  36  63  89 129 170 221 272 335 402
#     4  12  22  40  68  98 131 177 233 278 333 409
#     4  10  20  35  63  97 125 168 225 281 323 397
#     4  11  25  41  64  99 136 175 222 291 347 397
#     4  11  23  41  65  96 136 182 222 279 345 410
#
# _framework density 22.807603
#
# number of rings (size 3 to 8) (size 9 to 14) (size 15 to 20)
#    0.000    0.923    5.385    2.308    6.462    0.000 
#    1.385    0.000    0.000    1.846    0.000    0.000 
#    0.000    0.000    0.000    0.000    0.000    0.000 
#
# Total GULP energy -322365.038468 kJ/mol
# GULP energy per Si atom -12398.655326 kJ/mol
# Density = 2.275569 g / cm^3
# Si number density = 22.807603 Si / 1000 Ang^3
#
#
#
# Elastic Constant Matrix: (Units=GPa)
#
#
# Indices 1 2 3 4 5 6 
#
# 1 114.4445 24.8373 44.4428 0.0000 -11.2862 0.0000
# 2 24.8373 29.1901 25.1574 0.0000 13.3997 0.0001
# 3 44.4428 25.1574 123.8429 0.0000 -11.9247 0.0000
# 4 0.0000 0.0000 0.0000 21.7651 0.0000 -2.6987
# 5 -11.2862 13.3997 -11.9247 0.0000 43.0703 0.0000
# 6 0.0000 0.0001 0.0000 -2.6987 0.0000 18.4374
#
#
#
# Elastic Compliance Matrix: (Units=1/GPa)
#
#
# Indices 1 2 3 4 5 6 
#
# 1 0.012736 -0.012979 -0.001257 0.000000 0.007027 0.000000
# 2 -0.012979 0.068450 -0.011944 0.000000 -0.028003 0.000000
# 3 -0.001257 -0.011944 0.011587 0.000000 0.006594 0.000000
# 4 0.000000 0.000000 0.000000 0.046794 0.000000 0.006849
# 5 0.007027 -0.028003 0.006594 0.000000 0.035597 0.000000
# 6 0.000000 0.000000 0.000000 0.006849 0.000000 0.055240
#
#
# Mechanical properties :
#
#
# Convention : Reuss Voigt Hill
#
# Bulk Modulus (GPa) = 24.74422 50.70583 37.72502
# Shear Modulus (GPa) = 16.87844 28.19057 22.53450
#
# Velocity S-wave (km/s) = 2.72331 3.51952 3.14670
# Velocity P-wave (km/s) = 4.55645 6.22866 5.45699
#
# Compressibility (1/GPa) = 0.04041348
#
# Stress axis : x y z
#
# Youngs Moduli (GPa) = 78.51866 14.60916 86.30246
#
# Poissons Ratio (x) = 0.18961 0.10851
# Poissons Ratio (y) = 1.01908 1.03077
# Poissons Ratio (z) = 0.09872 0.17449
#
# Static dielectric constant tensor:
#      x y z
#    x 4.458260 0.000000 -0.172640 
#    y 0.000000 1.774560 0.000000 
#    z -0.172640 0.000000 3.710440 
# 
# 
# High freq. dielectric constant tensor:
#      x y z
#    x 1.912760 0.000000 -0.007860 
#    y 0.000000 1.852210 0.000000 
#    z -0.007860 0.000000 1.912900 
# 
# From -- ./inp_files/209487.got.cif
#   From: 2010.06.25/outbox.cif.g09.slc.cpg/sg15_105_cif.got.tgz:209487.got - 2010.06.28 07:06:18.
