data_PCOD8137453
_publ_section_title
;
Structure prediction by ZEFSAII (Michael W. Deem and Ramdas Pophale) SiO2 
 PCOD8137453
Probable space group: C 2/C
;
_chemical_formula_sum "Si O2"
_cell_formula_units_Z 52
_cell_length_a 9.651796
_cell_length_b 16.922437
_cell_length_c 20.414445
_cell_angle_alpha 90.000000
_cell_angle_beta 44.093514
_cell_angle_gamma 90.000000
_cell_volume 2320.132042
_symmetry_space_group_name_H-M "C 2/C"
_symmetry_group_IT_number 15
_symmetry_cell_setting 'monoclinic'
loop_
_space_group_symop_operation_xyz
x,y,z
-x,y,1/2-z
-x,-y,-z
x,-y,1/2+z
1/2+x,1/2+y,z
1/2-x,1/2+y,1/2-z
1/2-x,1/2-y,-z
1/2+x,1/2-y,1/2+z
loop_
_atom_site_type_symbol
_atom_site_label
_atom_site_fract_x
_atom_site_fract_y
_atom_site_fract_z
Si Si1 0.653312 0.055488 0.855424
Si Si2 0.287998 0.151731 0.788866
Si Si3 0.102241 0.850724 0.003595
Si Si4 0.219062 0.329699 0.795449
Si Si5 0.000000 0.053131 0.250000
Si Si6 0.571371 0.944346 0.658017
Si Si7 0.082230 0.324704 0.491986
O O1 0.752986 0.094914 0.758179
O O2 0.567323 0.120971 0.933022
O O3 0.476422 0.998968 0.888792
O O4 0.819645 0.002750 0.836115
O O5 0.500000 0.138646 0.750000
O O6 0.274109 0.239534 0.763082
O O7 0.124723 0.130364 0.899582
O O8 0.195093 0.919169 0.924880
O O9 0.109314 0.767164 0.962794
O O10 0.231197 0.848172 0.026298
O O11 0.411334 0.387688 0.724523
O O12 0.053029 0.361744 0.801703
O O13 0.127297 0.335158 0.899881
O O14 0.500000 0.986799 0.750000
#
# Coordination Sequence:
#
# PCOD8137453 Si02
#       7
#     8   8   8   8   4   8   8
#     4  11  23  36  61  95 126 159 202 259 309 366
#     4  11  22  40  61  88 129 163 206 256 308 367
#     4   9  20  39  63  90 124 165 206 258 304 365
#     4   9  20  39  62  85 122 165 202 254 302 369
#     4  10  20  36  58  90 116 160 202 238 312 360
#     4  10  22  39  61  92 129 161 205 253 314 366
#     4   9  19  38  60  95 121 155 215 255 303 363
#
# _framework density 22.412516
#
# number of rings (size 3 to 8) (size 9 to 14) (size 15 to 20)
#    0.000    2.154    0.769    2.308    2.154    6.769 
#    0.000    9.231    0.000    0.000    0.000    0.000 
#    0.000    0.000    0.000    0.000    0.000    0.000 
#
# Total GULP energy -322207.131425 kJ/mol
# GULP energy per Si atom -12392.581978 kJ/mol
# Density = 2.236150 g / cm^3
# Si number density = 22.412516 Si / 1000 Ang^3
#
#
#
# Elastic Constant Matrix: (Units=GPa)
#
#
# Indices 1 2 3 4 5 6 
#
# 1 68.4626 30.6125 37.5244 0.0075 -14.4551 -0.0047
# 2 30.6125 113.3010 44.1961 0.0058 -7.4002 -0.0037
# 3 37.5244 44.1961 97.2296 0.0051 -14.4720 -0.0103
# 4 0.0075 0.0058 0.0051 24.0605 -0.0034 11.6883
# 5 -14.4551 -7.4002 -14.4720 -0.0034 32.2392 0.0059
# 6 -0.0047 -0.0037 -0.0103 11.6883 0.0059 16.1554
#
#
#
# Elastic Compliance Matrix: (Units=1/GPa)
#
#
# Indices 1 2 3 4 5 6 
#
# 1 0.020217 -0.002888 -0.005614 -0.000005 0.005882 0.000003
# 2 -0.002888 0.011144 -0.004032 -0.000001 -0.000547 0.000000
# 3 -0.005614 -0.004032 0.014758 -0.000004 0.003182 0.000009
# 4 -0.000005 -0.000001 -0.000004 0.064086 0.000011 -0.046366
# 5 0.005882 -0.000547 0.003182 0.000011 0.034958 -0.000017
# 6 0.000003 0.000000 0.000009 -0.046366 -0.000017 0.095445
#
#
# Mechanical properties :
#
#
# Convention : Reuss Voigt Hill
#
# Bulk Modulus (GPa) = 47.50696 55.96214 51.73455
# Shear Modulus (GPa) = 18.33568 25.60170 21.96869
#
# Velocity S-wave (km/s) = 2.86335 3.38345 3.13421
# Velocity P-wave (km/s) = 5.67224 6.34721 6.01919
#
# Compressibility (1/GPa) = 0.02104955
#
# Stress axis : x y z
#
# Youngs Moduli (GPa) = 49.46356 89.73840 67.75967
#
# Poissons Ratio (x) = 0.25919 0.38041
# Poissons Ratio (y) = 0.14286 0.27321
# Poissons Ratio (z) = 0.27769 0.36183
#
# Static dielectric constant tensor:
#      x y z
#    x 3.742970 0.000000 -0.217960 
#    y 0.000000 4.327310 0.000010 
#    z -0.217960 0.000010 3.874540 
# 
# 
# High freq. dielectric constant tensor:
#      x y z
#    x 1.856400 0.000000 -0.020540 
#    y 0.000000 1.904900 0.000000 
#    z -0.020540 0.000000 1.859050 
# 
# From -- ./inp_files/232987.got.cif
#   From: 2010.06.25/outbox.cif.g09.slc.cpg/sg15_117_cif.got.tgz:232987.got - 2010.06.28 07:06:18.
