data_PCOD8137853
_publ_section_title
;
Structure prediction by ZEFSAII (Michael W. Deem and Ramdas Pophale) SiO2 
 PCOD8137853
Probable space group: C 2/C
;
_chemical_formula_sum "Si O2"
_cell_formula_units_Z 36
_cell_length_a 12.637483
_cell_length_b 10.092180
_cell_length_c 16.186261
_cell_angle_alpha 90.000000
_cell_angle_beta 124.110367
_cell_angle_gamma 90.000000
_cell_volume 1709.231467
_symmetry_space_group_name_H-M "C 2/C"
_symmetry_group_IT_number 15
_symmetry_cell_setting 'monoclinic'
loop_
_space_group_symop_operation_xyz
x,y,z
-x,y,1/2-z
-x,-y,-z
x,-y,1/2+z
1/2+x,1/2+y,z
1/2-x,1/2+y,1/2-z
1/2-x,1/2-y,-z
1/2+x,1/2-y,1/2+z
loop_
_atom_site_type_symbol
_atom_site_label
_atom_site_fract_x
_atom_site_fract_y
_atom_site_fract_z
Si Si1 0.248614 0.871424 0.439221
Si Si2 0.000000 0.201602 0.750000
Si Si3 0.631024 0.144105 0.674213
Si Si4 0.149481 0.645374 0.987765
Si Si5 0.836686 0.654267 0.314284
O O1 0.250000 0.750000 0.500000
O O2 0.110113 0.891536 0.335694
O O3 0.352377 0.835884 0.415971
O O4 0.287223 0.003551 0.504311
O O5 0.944585 0.290259 0.800309
O O6 0.479170 0.156929 0.623480
O O7 0.706110 0.260552 0.754402
O O8 0.686271 0.998643 0.723118
O O9 0.116494 0.659368 0.070480
O O10 0.250000 0.750000 0.000000
#
# Coordination Sequence:
#
# PCOD8137853 Si02
#       5
#     8   4   8   8   8
#     4  10  20  38  61  85 118 159 198 239 291 352
#     4  10  20  36  64  88 112 156 202 244 290 354
#     4  10  22  40  60  87 119 153 196 244 292 346
#     4  11  24  39  59  87 123 156 191 246 294 343
#     4  10  22  40  62  88 117 153 197 244 293 348
#
# _framework density 21.062097999999999
#
# number of rings (size 3 to 8) (size 9 to 14) (size 15 to 20)
#    0.000    1.778    0.000    5.333    0.000   11.556 
#    0.000    3.333    0.000    0.000    0.000    0.000 
#    0.000    0.000    0.000    0.000    0.000    0.000 
#
# Total GULP energy -223156.817757 kJ/mol
# GULP energy per Si atom -12397.600986 kJ/mol
# Density = 2.101416 g / cm^3
# Si number density = 21.062098 Si / 1000 Ang^3
#
#
#
# Elastic Constant Matrix: (Units=GPa)
#
#
# Indices 1 2 3 4 5 6 
#
# 1 95.1419 50.5138 33.7206 0.0000 20.2398 0.0000
# 2 50.5138 136.8175 53.9700 0.0000 25.0977 0.0000
# 3 33.7206 53.9700 85.5665 0.0000 33.3150 0.0000
# 4 0.0000 0.0000 0.0000 39.8637 0.0000 0.9505
# 5 20.2398 25.0977 33.3150 0.0000 47.7896 0.0000
# 6 0.0000 0.0000 0.0000 0.9505 0.0000 29.4679
#
#
#
# Elastic Compliance Matrix: (Units=1/GPa)
#
#
# Indices 1 2 3 4 5 6 
#
# 1 0.013791 -0.003830 -0.002097 0.000000 -0.002367 0.000000
# 2 -0.003830 0.010839 -0.005137 0.000000 -0.000489 0.000000
# 3 -0.002097 -0.005137 0.019706 0.000000 -0.010151 0.000000
# 4 0.000000 0.000000 0.000000 0.025105 0.000000 -0.000810
# 5 -0.002367 -0.000489 -0.010151 0.000000 0.029261 0.000000
# 6 0.000000 0.000000 0.000000 -0.000810 0.000000 0.033961
#
#
# Mechanical properties :
#
#
# Convention : Reuss Voigt Hill
#
# Bulk Modulus (GPa) = 45.03022 65.99277 55.51149
# Shear Modulus (GPa) = 30.82724 35.37902 33.10313
#
# Velocity S-wave (km/s) = 3.82990 4.10292 3.96876
# Velocity P-wave (km/s) = 6.40185 7.33797 6.88583
#
# Compressibility (1/GPa) = 0.02220731
#
# Stress axis : x y z
#
# Youngs Moduli (GPa) = 72.51048 92.25807 50.74691
#
# Poissons Ratio (x) = 0.35336 0.10644
# Poissons Ratio (y) = 0.27773 0.26067
# Poissons Ratio (z) = 0.15208 0.47390
#
# Static dielectric constant tensor:
#      x y z
#    x 4.218240 0.000000 0.238230 
#    y 0.000000 3.998420 0.000000 
#    z 0.238230 0.000000 4.008450 
# 
# 
# High freq. dielectric constant tensor:
#      x y z
#    x 1.831720 0.000000 0.008290 
#    y 0.000000 1.824640 0.000000 
#    z 0.008290 0.000000 1.823250 
# 
# From -- ./inp_files/84337.got.cif
#   From: 2010.06.25/outbox.cif.g09.slc.cpg/sg15_43_cif.got.tgz:84337.got - 2010.06.28 07:06:18.
