data_PCOD8137857
_publ_section_title
;
Structure prediction by ZEFSAII (Michael W. Deem and Ramdas Pophale) SiO2 
 PCOD8137857
Probable space group: C 2/C
;
_chemical_formula_sum "Si O2"
_cell_formula_units_Z 52
_cell_length_a 20.770152
_cell_length_b 15.937153
_cell_length_c 8.895709
_cell_angle_alpha 90.000000
_cell_angle_beta 61.145135
_cell_angle_gamma 90.000000
_cell_volume 2579.040851
_symmetry_space_group_name_H-M "C 2/C"
_symmetry_group_IT_number 15
_symmetry_cell_setting 'monoclinic'
loop_
_space_group_symop_operation_xyz
x,y,z
-x,y,1/2-z
-x,-y,-z
x,-y,1/2+z
1/2+x,1/2+y,z
1/2-x,1/2+y,1/2-z
1/2-x,1/2-y,-z
1/2+x,1/2-y,1/2+z
loop_
_atom_site_type_symbol
_atom_site_label
_atom_site_fract_x
_atom_site_fract_y
_atom_site_fract_z
Si Si1 0.651949 0.690536 0.727355
Si Si2 0.064261 0.608837 0.933135
Si Si3 0.911808 0.028519 0.845086
Si Si4 0.183894 0.730594 0.880067
Si Si5 0.483814 0.735038 0.443387
Si Si6 0.112497 0.115152 0.335354
Si Si7 0.000000 0.494225 0.250000
O O1 0.626658 0.596242 0.720164
O O2 0.733560 0.699388 0.698222
O O3 0.646119 0.746837 0.582799
O O4 0.601013 0.721621 0.921434
O O5 0.144057 0.651276 0.849906
O O6 0.056510 0.560355 0.784538
O O7 0.003242 0.681012 0.011534
O O8 0.053629 0.547795 0.085127
O O9 0.000000 0.035046 0.750000
O O10 0.885930 0.934641 0.824787
O O11 0.880243 0.043181 0.046840
O O12 0.175834 0.813337 0.780828
O O13 0.500000 0.747761 0.250000
O O14 0.533214 0.658689 0.448335
#
# Coordination Sequence:
#
# PCOD8137857 Si02
#       7
#     8   8   8   8   8   8   4
#     4  10  21  38  62  89 119 162 203 247 306 366
#     4  10  20  38  61  89 115 157 201 260 300 359
#     4  11  20  35  58  92 119 155 201 257 300 355
#     4   9  21  42  61  85 126 164 201 243 306 379
#     4  11  21  36  61  89 114 156 202 250 297 363
#     4  10  22  35  60  87 123 157 200 249 302 357
#     4  10  20  36  64  90 116 148 214 262 298 344
#
# _framework density 20.162533
#
# number of rings (size 3 to 8) (size 9 to 14) (size 15 to 20)
#    0.000    1.846    2.308    1.846    2.154    0.000 
#    0.000   10.769    0.000    0.000    0.000    0.000 
#    0.000    0.000    0.000    0.000    0.000    0.000 
#
# Total GULP energy -322292.401215 kJ/mol
# GULP energy per Si atom -12395.861585 kJ/mol
# Density = 2.011664 g / cm^3
# Si number density = 20.162533 Si / 1000 Ang^3
#
#
#
# Elastic Constant Matrix: (Units=GPa)
#
#
# Indices 1 2 3 4 5 6 
#
# 1 133.9142 71.1687 44.4935 0.0000 6.6979 0.0000
# 2 71.1687 130.9521 42.4837 0.0000 10.6087 0.0000
# 3 44.4935 42.4837 76.5748 0.0000 6.0939 0.0000
# 4 0.0000 0.0000 0.0000 -35.9387 0.0000 -39.4112
# 5 6.6979 10.6087 6.0939 0.0000 24.6664 0.0000
# 6 0.0000 0.0000 0.0000 -39.4112 0.0000 -17.5287
#
#
#
# Elastic Compliance Matrix: (Units=1/GPa)
#
#
# Indices 1 2 3 4 5 6 
#
# 1 0.011371 -0.004922 -0.003876 0.000000 -0.000014 0.000000
# 2 -0.004922 0.011634 -0.003369 0.000000 -0.002835 0.000000
# 3 -0.003876 -0.003369 0.017322 0.000000 -0.001778 0.000000
# 4 0.000000 0.000000 0.000000 0.018985 0.000000 -0.042686
# 5 -0.000014 -0.002835 -0.001778 0.000000 0.042203 0.000000
# 6 0.000000 0.000000 0.000000 -0.042686 0.000000 0.038925
#
#
# Mechanical properties :
#
#
# Convention : Reuss Voigt Hill
#
# Bulk Modulus (GPa) = 62.52324 73.08144 67.80234
# Shear Modulus (GPa) = 29.39368 6.45949 17.92659
#
# Velocity S-wave (km/s) = 3.82231 1.79183 2.98502
# Velocity P-wave (km/s) = 7.11034 6.37226 6.75140
#
# Compressibility (1/GPa) = 0.01599405
#
# Stress axis : x y z
#
# Youngs Moduli (GPa) = 87.93951 85.95649 57.73055
#
# Poissons Ratio (x) = 0.42304 0.22375
# Poissons Ratio (y) = 0.43280 0.19450
# Poissons Ratio (z) = 0.34083 0.28960
#
# Static dielectric constant tensor:
#      x y z
#    x 3.683400 0.000000 0.302610 
#    y 0.000000 3.836560 0.000000 
#    z 0.302610 0.000000 3.459010 
# 
# 
# High freq. dielectric constant tensor:
#      x y z
#    x 1.781680 0.000000 0.028250 
#    y 0.000000 1.799380 0.000000 
#    z 0.028250 0.000000 1.766230 
# 
# From -- ./inp_files/61431.got.cif
#   From: 2010.06.25/outbox.cif.g09.slc.cpg/sg15_31_cif.got.tgz:61431.got - 2010.06.28 07:06:18.
