data_PCOD8137166
_publ_section_title
;
Structure prediction by ZEFSAII (Michael W. Deem and Ramdas Pophale) SiO2 
 PCOD8137166
Probable space group: C 2/C
;
_chemical_formula_sum "Si O2"
_cell_formula_units_Z 40
_cell_length_a 11.275996
_cell_length_b 8.663245
_cell_length_c 17.140652
_cell_angle_alpha 90.000000
_cell_angle_beta 76.455909
_cell_angle_gamma 90.000000
_cell_volume 1627.848531
_symmetry_space_group_name_H-M "C 2/C"
_symmetry_group_IT_number 15
_symmetry_cell_setting 'monoclinic'
loop_
_space_group_symop_operation_xyz
x,y,z
-x,y,1/2-z
-x,-y,-z
x,-y,1/2+z
1/2+x,1/2+y,z
1/2-x,1/2+y,1/2-z
1/2-x,1/2-y,-z
1/2+x,1/2-y,1/2+z
loop_
_atom_site_type_symbol
_atom_site_label
_atom_site_fract_x
_atom_site_fract_y
_atom_site_fract_z
Si Si1 0.601904 0.812186 0.169763
Si Si2 0.611964 0.845515 0.609801
Si Si3 0.299195 0.102351 0.565855
Si Si4 0.401142 0.388235 0.977174
Si Si5 0.353691 0.192036 0.130595
O O1 0.500000 0.803373 0.250000
O O2 0.551491 0.712353 0.104048
O O3 0.726464 0.741504 0.190099
O O4 0.631944 0.987393 0.142439
O O5 0.605828 0.838346 0.514875
O O6 0.726092 0.741145 0.619972
O O7 0.480479 0.769894 0.656517
O O8 0.205538 0.998475 0.533004
O O9 0.364166 0.996026 0.620652
O O10 0.500000 0.500000 0.000000
O O11 0.344727 0.270392 0.047593
#
# Coordination Sequence:
#
# PCOD8137166 Si02
#       5
#     8   8   8   8   8
#     4  11  25  45  60  92 142 172 212 284 342 391
#     4  11  21  37  64  95 124 164 214 270 327 388
#     4  10  20  35  63 100 124 156 218 281 313 378
#     4  11  20  40  70  97 127 175 227 273 325 396
#     4  11  21  41  63  94 127 166 220 269 318 394
#
# _framework density 24.572313000000001
#
# number of rings (size 3 to 8) (size 9 to 14) (size 15 to 20)
#    0.000    1.200    6.000    1.800    0.000    0.000 
#    3.600    4.000    0.000    0.000    0.000    0.000 
#    0.000    0.000    0.000    0.000    0.000    0.000 
#
# Total GULP energy -247884.598491 kJ/mol
# GULP energy per Si atom -12394.229925 kJ/mol
# Density = 2.451639 g / cm^3
# Si number density = 24.572313 Si / 1000 Ang^3
#
#
#
# Elastic Constant Matrix: (Units=GPa)
#
#
# Indices 1 2 3 4 5 6 
#
# 1 60.5474 23.1157 24.6814 0.0000 -31.3036 0.0000
# 2 23.1157 124.5016 37.6589 0.0000 -19.7296 0.0000
# 3 24.6814 37.6589 78.6669 0.0000 -28.3632 0.0000
# 4 0.0000 0.0000 0.0000 19.3013 0.0000 -15.8598
# 5 -31.3036 -19.7296 -28.3632 0.0000 37.4148 0.0000
# 6 0.0000 0.0000 0.0000 -15.8598 0.0000 30.7216
#
#
#
# Elastic Compliance Matrix: (Units=1/GPa)
#
#
# Indices 1 2 3 4 5 6 
#
# 1 0.029436 -0.001745 0.000204 0.000000 0.023862 0.000000
# 2 -0.001745 0.009620 -0.003791 0.000000 0.000738 0.000000
# 3 0.000204 -0.003791 0.018995 0.000000 0.012571 0.000000
# 4 0.000000 0.000000 0.000000 0.089979 0.000000 0.046451
# 5 0.023862 0.000738 0.012571 0.000000 0.056611 0.000000
# 6 0.000000 0.000000 0.000000 0.046451 0.000000 0.056530
#
#
# Mechanical properties :
#
#
# Convention : Reuss Voigt Hill
#
# Bulk Modulus (GPa) = 21.10371 48.29199 34.69785
# Shear Modulus (GPa) = 17.38325 29.37153 23.37739
#
# Velocity S-wave (km/s) = 2.66265 3.46108 3.08778
# Velocity P-wave (km/s) = 4.24970 5.97225 5.18303
#
# Compressibility (1/GPa) = 0.04738504
#
# Stress axis : x y z
#
# Youngs Moduli (GPa) = 33.97155 103.95133 52.64433
#
# Poissons Ratio (x) = 0.18144 -0.01071
# Poissons Ratio (y) = 0.05930 0.19959
# Poissons Ratio (z) = -0.00691 0.39412
#
# Static dielectric constant tensor:
#      x y z
#    x 4.721320 0.000000 -0.308320 
#    y 0.000000 5.250940 0.000000 
#    z -0.308320 0.000000 4.062670 
# 
# 
# High freq. dielectric constant tensor:
#      x y z
#    x 1.993350 0.000000 -0.028770 
#    y 0.000000 1.995920 0.000000 
#    z -0.028770 0.000000 1.925010 
# 
# From -- ./inp_files/235717.got.cif
#   From: 2010.06.25/outbox.cif.g09.slc.cpg/sg15_118_cif.got.tgz:235717.got - 2010.06.28 07:06:18.
