data_PCOD8137891
_publ_section_title
;
Structure prediction by ZEFSAII (Michael W. Deem and Ramdas Pophale) SiO2 
 PCOD8137891
Probable space group: C 2/C
;
_chemical_formula_sum "Si O2"
_cell_formula_units_Z 48
_cell_length_a 8.025993
_cell_length_b 13.449927
_cell_length_c 27.331345
_cell_angle_alpha 90.000000
_cell_angle_beta 46.321381
_cell_angle_gamma 90.000000
_cell_volume 2133.796925
_symmetry_space_group_name_H-M "C 2/C"
_symmetry_group_IT_number 15
_symmetry_cell_setting 'monoclinic'
loop_
_space_group_symop_operation_xyz
x,y,z
-x,y,1/2-z
-x,-y,-z
x,-y,1/2+z
1/2+x,1/2+y,z
1/2-x,1/2+y,1/2-z
1/2-x,1/2-y,-z
1/2+x,1/2-y,1/2+z
loop_
_atom_site_type_symbol
_atom_site_label
_atom_site_fract_x
_atom_site_fract_y
_atom_site_fract_z
Si Si1 0.495471 0.102139 0.677548
Si Si2 0.673313 0.488508 0.311556
Si Si3 0.767138 0.094253 0.529501
Si Si4 0.746410 0.949089 0.455671
Si Si5 0.428515 0.236873 0.544062
Si Si6 0.748634 0.718135 0.314748
O O1 0.602346 0.056894 0.606194
O O2 0.439851 0.218570 0.678154
O O3 0.686941 0.085275 0.680294
O O4 0.257848 0.044697 0.740180
O O5 0.402408 0.474130 0.376212
O O6 0.733704 0.603101 0.304899
O O7 0.634167 0.162500 0.517269
O O8 0.980097 0.164910 0.502982
O O9 0.862145 0.995654 0.481558
O O10 0.726928 0.828899 0.461827
O O11 0.500000 0.000000 0.500000
O O12 0.284815 0.269341 0.620652
O O13 0.000000 0.758738 0.250000
#
# Coordination Sequence:
#
# PCOD8137891 Si02
#       6
#     8   8   8   8   8   8
#     4  10  23  39  66  93 128 166 211 263 318 378
#     4  11  22  43  62  95 128 169 210 264 317 370
#     4   9  18  36  59  89 122 163 204 257 312 368
#     4  10  20  36  65  92 127 165 212 260 311 374
#     4   9  18  34  61  90 119 163 207 253 312 370
#     4  11  20  39  70  88 121 174 208 256 325 377
#
# _framework density 22.495113
#
# number of rings (size 3 to 8) (size 9 to 14) (size 15 to 20)
#    0.000    2.000    3.333    1.000    2.333    0.667 
#    0.000    4.167   11.000    0.000    0.000    0.000 
#    0.000    0.000    0.000    0.000    0.000    0.000 
#
# Total GULP energy -297357.846951 kJ/mol
# GULP energy per Si atom -12389.910290 kJ/mol
# Density = 2.244391 g / cm^3
# Si number density = 22.495113 Si / 1000 Ang^3
#
#
#
# Elastic Constant Matrix: (Units=GPa)
#
#
# Indices 1 2 3 4 5 6 
#
# 1 29.5636 48.7093 22.4337 -0.0002 0.2482 0.0006
# 2 48.7093 144.3106 77.5154 -0.0001 15.2072 -0.0001
# 3 22.4337 77.5154 204.8991 -0.0007 0.3631 0.0001
# 4 -0.0002 -0.0001 -0.0007 37.5776 -0.0002 -3.6624
# 5 0.2482 15.2072 0.3631 -0.0002 31.6709 -0.0004
# 6 0.0006 -0.0001 0.0001 -3.6624 -0.0004 43.2098
#
#
#
# Elastic Compliance Matrix: (Units=1/GPa)
#
#
# Indices 1 2 3 4 5 6 
#
# 1 0.082140 -0.030568 0.002546 0.000000 0.014005 -0.000001
# 2 -0.030568 0.020651 -0.004449 0.000000 -0.009625 0.000000
# 3 0.002546 -0.004449 0.006281 0.000000 0.002044 0.000000
# 4 0.000000 0.000000 0.000000 0.026833 0.000000 0.002274
# 5 0.014005 -0.009625 0.002044 0.000000 0.036063 0.000000
# 6 -0.000001 0.000000 0.000000 0.002274 0.000000 0.023336
#
#
# Mechanical properties :
#
#
# Convention : Reuss Voigt Hill
#
# Bulk Modulus (GPa) = 22.65985 75.12111 48.89048
# Shear Modulus (GPa) = 18.18469 37.83265 28.00867
#
# Velocity S-wave (km/s) = 2.84629 4.10544 3.53243
# Velocity P-wave (km/s) = 4.57132 7.47929 6.19826
#
# Compressibility (1/GPa) = 0.04413091
#
# Stress axis : x y z
#
# Youngs Moduli (GPa) = 12.17428 48.42346 159.20993
#
# Poissons Ratio (x) = 1.48023 -0.40539
# Poissons Ratio (y) = 0.37215 0.70827
# Poissons Ratio (z) = -0.03100 0.21542
#
# Static dielectric constant tensor:
#      x y z
#    x 4.015810 0.000000 -0.105840 
#    y 0.000000 4.750870 0.000000 
#    z -0.105840 0.000000 4.579140 
# 
# 
# High freq. dielectric constant tensor:
#      x y z
#    x 1.842900 0.000000 -0.011100 
#    y 0.000000 1.894040 0.000000 
#    z -0.011100 0.000000 1.910490 
# 
# From -- ./inp_files/307912.got.cif
#   From: 2010.06.25/outbox.cif.g09.slc.cpg/sg15_154_cif.got.tgz:307912.got - 2010.06.28 07:06:18.
