data_PCOD8137093
_publ_section_title
;
Structure prediction by ZEFSAII (Michael W. Deem and Ramdas Pophale) SiO2 
 PCOD8137093
Probable space group: C 2/C
;
_chemical_formula_sum "Si O2"
_cell_formula_units_Z 60
_cell_length_a 26.621914
_cell_length_b 20.811499
_cell_length_c 8.349469
_cell_angle_alpha 90.000000
_cell_angle_beta 138.304885
_cell_angle_gamma 90.000000
_cell_volume 3077.031844
_symmetry_space_group_name_H-M "C 2/C"
_symmetry_group_IT_number 15
_symmetry_cell_setting 'monoclinic'
loop_
_space_group_symop_operation_xyz
x,y,z
-x,y,1/2-z
-x,-y,-z
x,-y,1/2+z
1/2+x,1/2+y,z
1/2-x,1/2+y,1/2-z
1/2-x,1/2-y,-z
1/2+x,1/2-y,1/2+z
loop_
_atom_site_type_symbol
_atom_site_label
_atom_site_fract_x
_atom_site_fract_y
_atom_site_fract_z
Si Si1 0.500000 0.366207 0.750000
Si Si2 0.199829 0.418292 0.140844
Si Si3 0.636404 0.436975 0.921739
Si Si4 0.319735 0.953265 0.057396
Si Si5 0.342837 0.576407 0.404153
Si Si6 0.065189 0.329950 0.775954
Si Si7 0.017100 0.431501 0.113645
Si Si8 0.552518 0.682938 0.717596
O O1 0.570461 0.409450 0.873239
O O2 0.484308 0.327175 0.546563
O O3 0.288448 0.402969 0.324742
O O4 0.198696 0.456121 0.302333
O O5 0.167890 0.470842 0.942548
O O6 0.147765 0.355310 0.024535
O O7 0.627903 0.423294 0.711054
O O8 0.632247 0.512947 0.942054
O O9 0.248343 0.920059 0.799430
O O10 0.395037 0.912377 0.201696
O O11 0.376343 0.636473 0.582392
O O12 0.079643 0.256181 0.771785
O O13 0.000000 0.341005 0.750000
O O14 0.036374 0.372092 0.559623
O O15 0.000000 0.447399 0.250000
O O16 0.000000 0.500000 0.000000
O O17 0.500000 0.673135 0.750000
#
# Coordination Sequence:
#
# PCOD8137093 Si02
#       8
#     4   8   8   8   8   8   8   8
#     4  12  24  44  68  92 126 158 222 270 322 380
#     4  10  20  38  58  93 127 159 208 256 322 374
#     4  10  22  37  67  96 123 161 208 274 316 380
#     4  10  20  35  60  89 126 159 204 263 317 370
#     4  10  21  41  61  94 127 162 208 261 329 376
#     4  11  23  41  62  88 127 169 210 256 314 382
#     4  12  22  35  61  94 123 162 213 266 315 366
#     4  11  25  44  65  89 130 172 211 259 321 389
#
# _framework density 19.499310999999999
#
# number of rings (size 3 to 8) (size 9 to 14) (size 15 to 20)
#    0.000    1.333    4.000    2.000    1.867    2.133 
#    0.000    4.667    0.000    0.000    0.000    0.000 
#    0.000    0.000    0.000    0.000    0.000    0.000 
#
# Total GULP energy -371696.651234 kJ/mol
# GULP energy per Si atom -12389.888374 kJ/mol
# Density = 1.945493 g / cm^3
# Si number density = 19.499311 Si / 1000 Ang^3
#
#
#
# Elastic Constant Matrix: (Units=GPa)
#
#
# Indices 1 2 3 4 5 6 
#
# 1 66.8964 35.2992 43.5434 0.0000 12.3053 0.0000
# 2 35.2992 142.2069 74.2442 0.0000 9.6016 0.0000
# 3 43.5434 74.2442 112.6063 0.0000 4.2054 0.0000
# 4 0.0000 0.0000 0.0000 35.9889 0.0000 -4.7512
# 5 12.3053 9.6016 4.2054 0.0000 41.4660 0.0000
# 6 0.0000 0.0000 0.0000 -4.7512 0.0000 27.3391
#
#
#
# Elastic Compliance Matrix: (Units=1/GPa)
#
#
# Indices 1 2 3 4 5 6 
#
# 1 0.021256 -0.001113 -0.007287 0.000000 -0.005311 0.000000
# 2 -0.001113 0.010913 -0.006708 0.000000 -0.001516 0.000000
# 3 -0.007287 -0.006708 0.016043 0.000000 0.002089 0.000000
# 4 0.000000 0.000000 0.000000 0.028439 0.000000 0.004942
# 5 -0.005311 -0.001516 0.002089 0.000000 0.025832 0.000000
# 6 0.000000 0.000000 0.000000 0.004942 0.000000 0.037437
#
#
# Mechanical properties :
#
#
# Convention : Reuss Voigt Hill
#
# Bulk Modulus (GPa) = 55.57001 69.76479 62.66740
# Shear Modulus (GPa) = 28.38743 32.20031 30.29387
#
# Velocity S-wave (km/s) = 3.81966 4.06810 3.94583
# Velocity P-wave (km/s) = 6.92917 7.61063 7.27788
#
# Compressibility (1/GPa) = 0.01799532
#
# Stress axis : x y z
#
# Youngs Moduli (GPa) = 47.04534 91.63478 62.33185
#
# Poissons Ratio (x) = 0.10200 0.45422
# Poissons Ratio (y) = 0.05237 0.41813
# Poissons Ratio (z) = 0.34283 0.61469
#
# Static dielectric constant tensor:
#      x y z
#    x 3.625660 0.000000 -0.039450 
#    y 0.000000 3.298360 0.000000 
#    z -0.039450 0.000000 3.778640 
# 
# 
# High freq. dielectric constant tensor:
#      x y z
#    x 1.770890 0.000000 0.000850 
#    y 0.000000 1.734820 0.000000 
#    z 0.000850 0.000000 1.772520 
# 
# From -- ./inp_files/67537.got.cif
#   From: 2010.06.25/outbox.cif.g09.slc.cpg/sg15_34_cif.got.tgz:67537.got - 2010.06.28 07:06:18.
