data_PCOD8137312
_publ_section_title
;
Structure prediction by ZEFSAII (Michael W. Deem and Ramdas Pophale) SiO2 
 PCOD8137312
Probable space group: C 2/C
;
_chemical_formula_sum "Si O2"
_cell_formula_units_Z 52
_cell_length_a 18.782819
_cell_length_b 13.964882
_cell_length_c 18.642719
_cell_angle_alpha 90.000000
_cell_angle_beta 34.309832
_cell_angle_gamma 90.000000
_cell_volume 2756.325629
_symmetry_space_group_name_H-M "C 2/C"
_symmetry_group_IT_number 15
_symmetry_cell_setting 'monoclinic'
loop_
_space_group_symop_operation_xyz
x,y,z
-x,y,1/2-z
-x,-y,-z
x,-y,1/2+z
1/2+x,1/2+y,z
1/2-x,1/2+y,1/2-z
1/2-x,1/2-y,-z
1/2+x,1/2-y,1/2+z
loop_
_atom_site_type_symbol
_atom_site_label
_atom_site_fract_x
_atom_site_fract_y
_atom_site_fract_z
Si Si1 0.042454 0.409962 0.370583
Si Si2 0.500000 0.033898 0.750000
Si Si3 0.316278 0.253455 0.669275
Si Si4 0.184096 0.624344 0.049707
Si Si5 0.655253 0.397372 0.222615
Si Si6 0.805787 0.558257 0.165581
Si Si7 0.094950 0.199919 0.551476
O O1 0.104370 0.309592 0.341008
O O2 0.125617 0.501269 0.326773
O O3 0.034970 0.403519 0.290512
O O4 0.903814 0.422323 0.519811
O O5 0.619645 0.971144 0.629484
O O6 0.206080 0.191570 0.725777
O O7 0.251192 0.342444 0.761377
O O8 0.415054 0.286207 0.525725
O O9 0.285262 0.599251 0.904953
O O10 0.261252 0.667608 0.052105
O O11 0.077547 0.698661 0.108266
O O12 0.687682 0.496351 0.235233
O O13 0.505220 0.380120 0.340363
#
# Coordination Sequence:
#
# PCOD8137312 Si02
#       7
#     8   4   8   8   8   8   8
#     4  10  22  38  61  87 117 154 204 246 288 356
#     4  12  22  38  60  84 114 158 204 240 290 360
#     4  10  21  36  59  87 115 159 197 243 291 349
#     4  10  22  33  55  88 120 156 184 245 303 356
#     4  10  20  36  56  87 120 153 195 242 297 356
#     4  10  20  39  61  84 117 158 198 244 297 347
#     4  10  21  34  55  89 124 146 191 242 306 357
#
# _framework density 18.865694999999999
#
# number of rings (size 3 to 8) (size 9 to 14) (size 15 to 20)
#    0.000    1.846    1.538    2.308   10.769    0.615 
#    0.000    2.308    3.385    0.000    0.000    0.000 
#    0.000    0.000    0.000    0.000    0.000    0.000 
#
# Total GULP energy -322397.983595 kJ/mol
# GULP energy per Si atom -12399.922446 kJ/mol
# Density = 1.882276 g / cm^3
# Si number density = 18.865695 Si / 1000 Ang^3
#
#
#
# Elastic Constant Matrix: (Units=GPa)
#
#
# Indices 1 2 3 4 5 6 
#
# 1 100.9471 43.9186 56.7974 -0.0001 23.2328 0.0001
# 2 43.9186 103.7333 55.4417 0.0000 10.7656 0.0000
# 3 56.7974 55.4417 102.0031 0.0000 7.2879 0.0001
# 4 -0.0001 0.0000 0.0000 25.9605 0.0001 1.0818
# 5 23.2328 10.7656 7.2879 0.0001 29.7239 -0.0001
# 6 0.0001 0.0000 0.0001 1.0818 -0.0001 26.8140
#
#
#
# Elastic Compliance Matrix: (Units=1/GPa)
#
#
# Indices 1 2 3 4 5 6 
#
# 1 0.017950 -0.002139 -0.008026 0.000000 -0.011288 0.000000
# 2 -0.002139 0.014141 -0.006360 0.000000 -0.001891 0.000000
# 3 -0.008026 -0.006360 0.017422 0.000000 0.004305 0.000000
# 4 0.000000 0.000000 0.000000 0.038585 0.000000 -0.001557
# 5 -0.011288 -0.001891 0.004305 0.000000 0.042095 0.000000
# 6 0.000000 0.000000 0.000000 -0.001557 0.000000 0.037357
#
#
# Mechanical properties :
#
#
# Convention : Reuss Voigt Hill
#
# Bulk Modulus (GPa) = 60.74034 68.77765 64.75899
# Shear Modulus (GPa) = 24.26145 26.53474 25.39810
#
# Velocity S-wave (km/s) = 3.58999 3.75441 3.67312
# Velocity P-wave (km/s) = 7.03208 7.43840 7.23809
#
# Compressibility (1/GPa) = 0.01646352
#
# Stress axis : x y z
#
# Youngs Moduli (GPa) = 55.70882 70.71611 57.39829
#
# Poissons Ratio (x) = 0.15124 0.46069
# Poissons Ratio (y) = 0.11914 0.36506
# Poissons Ratio (z) = 0.44713 0.44976
#
# Static dielectric constant tensor:
#      x y z
#    x 3.543310 0.000000 0.063260 
#    y 0.000000 3.343260 0.000000 
#    z 0.063260 0.000000 3.380180 
# 
# 
# High freq. dielectric constant tensor:
#      x y z
#    x 1.729780 0.000000 0.004420 
#    y 0.000000 1.714660 0.000000 
#    z 0.004420 0.000000 1.734220 
# 
# From -- ./inp_files/105479.got.cif
#   From: 2010.06.25/outbox.cif.g09.slc.cpg/sg15_53_cif.got.tgz:105479.got - 2010.06.28 07:06:18.
