data_PCOD8137249
_publ_section_title
;
Structure prediction by ZEFSAII (Michael W. Deem and Ramdas Pophale) SiO2 
 PCOD8137249
Probable space group: C 2/C
;
_chemical_formula_sum "Si O2"
_cell_formula_units_Z 64
_cell_length_a 27.265705
_cell_length_b 13.072363
_cell_length_c 9.870133
_cell_angle_alpha 90.000000
_cell_angle_beta 95.116603
_cell_angle_gamma 90.000000
_cell_volume 3503.965565
_symmetry_space_group_name_H-M "C 2/C"
_symmetry_group_IT_number 15
_symmetry_cell_setting 'monoclinic'
loop_
_space_group_symop_operation_xyz
x,y,z
-x,y,1/2-z
-x,-y,-z
x,-y,1/2+z
1/2+x,1/2+y,z
1/2-x,1/2+y,1/2-z
1/2-x,1/2-y,-z
1/2+x,1/2-y,1/2+z
loop_
_atom_site_type_symbol
_atom_site_label
_atom_site_fract_x
_atom_site_fract_y
_atom_site_fract_z
Si Si1 0.188262 0.595286 0.179665
Si Si2 0.294548 0.696080 0.199183
Si Si3 0.133607 0.144060 0.050685
Si Si4 0.864639 0.208627 0.757002
Si Si5 0.965041 0.115430 0.855191
Si Si6 0.291096 0.928543 0.109815
Si Si7 0.970398 0.117033 0.366614
Si Si8 0.318304 0.430955 0.452576
O O1 0.242022 0.644495 0.209880
O O2 0.146468 0.673170 0.217879
O O3 0.182132 0.493965 0.268688
O O4 0.178108 0.564029 0.021724
O O5 0.324709 0.694526 0.346015
O O6 0.285930 0.811251 0.151080
O O7 0.325233 0.635627 0.091049
O O8 0.080452 0.171292 0.102607
O O9 0.141892 0.022134 0.037478
O O10 0.136060 0.192543 0.903335
O O11 0.915750 0.181276 0.841772
O O12 0.824108 0.137516 0.819327
O O13 0.000000 0.164013 0.750000
O O14 0.954578 0.997067 0.817372
O O15 0.990249 0.121767 0.005388
O O16 0.236878 0.975428 0.068501
O O17 0.000000 0.170799 0.250000
#
# Coordination Sequence:
#
# PCOD8137249 Si02
#       8
#     8   8   8   8   8   8   8   8
#     4  11  24  40  60  86 115 161 201 249 295 352
#     4  11  23  39  57  85 122 159 200 245 292 349
#     4  12  24  34  58  92 120 160 201 237 290 364
#     4  12  23  37  58  85 120 159 201 237 298 355
#     4  10  20  36  54  80 120 152 188 236 289 357
#     4  11  23  41  58  83 122 159 204 244 293 341
#     4  10  22  34  53  86 118 156 191 234 291 358
#     4  11  21  37  56  84 123 166 195 233 297 350
#
# _framework density 18.26502
#
# number of rings (size 3 to 8) (size 9 to 14) (size 15 to 20)
#    0.000    1.000    6.250    1.500    5.250    0.500 
#    0.000    0.000    0.000    0.000    0.000    4.375 
#    0.000    0.000    0.000    0.000    0.000    0.000 
#
# Total GULP energy -396844.202928 kJ/mol
# GULP energy per Si atom -12401.381342 kJ/mol
# Density = 1.822345 g / cm^3
# Si number density = 18.265020 Si / 1000 Ang^3
#
#
#
# Elastic Constant Matrix: (Units=GPa)
#
#
# Indices 1 2 3 4 5 6 
#
# 1 69.4341 16.7374 38.6616 0.0000 -6.3643 0.0000
# 2 16.7374 67.4037 39.5442 0.0000 -5.9076 0.0000
# 3 38.6616 39.5442 122.9638 0.0000 -12.3600 0.0000
# 4 0.0000 0.0000 0.0000 35.3090 0.0000 4.5906
# 5 -6.3643 -5.9076 -12.3600 0.0000 29.6823 0.0000
# 6 0.0000 0.0000 0.0000 4.5906 0.0000 30.1231
#
#
#
# Elastic Compliance Matrix: (Units=1/GPa)
#
#
# Indices 1 2 3 4 5 6 
#
# 1 0.017622 -0.001336 -0.004966 0.000000 0.001445 0.000000
# 2 -0.001336 0.018431 -0.005393 0.000000 0.001136 0.000000
# 3 -0.004966 -0.005393 0.011703 0.000000 0.002735 0.000000
# 4 0.000000 0.000000 0.000000 0.028894 0.000000 -0.004403
# 5 0.001445 0.001136 0.002735 0.000000 0.035365 0.000000
# 6 0.000000 0.000000 0.000000 -0.004403 0.000000 0.033868
#
#
# Mechanical properties :
#
#
# Convention : Reuss Voigt Hill
#
# Bulk Modulus (GPa) = 41.03980 49.96534 45.50257
# Shear Modulus (GPa) = 28.18578 30.01342 29.09960
#
# Velocity S-wave (km/s) = 3.93256 4.05806 3.99581
# Velocity P-wave (km/s) = 6.56795 7.02654 6.80111
#
# Compressibility (1/GPa) = 0.02436659
#
# Stress axis : x y z
#
# Youngs Moduli (GPa) = 56.74879 54.25554 85.44759
#
# Poissons Ratio (x) = 0.07248 0.42430
# Poissons Ratio (y) = 0.07581 0.46083
# Poissons Ratio (z) = 0.28179 0.29261
#
# Static dielectric constant tensor:
#      x y z
#    x 3.297520 0.000000 -0.168980 
#    y 0.000000 3.115630 0.000000 
#    z -0.168980 0.000000 3.581770 
# 
# 
# High freq. dielectric constant tensor:
#      x y z
#    x 1.694910 0.000000 -0.009190 
#    y 0.000000 1.671630 0.000000 
#    z -0.009190 0.000000 1.730210 
# 
# From -- ./inp_files/69382.got.cif
#   From: 2010.06.25/outbox.cif.g09.slc.cpg/sg15_35_cif.got.tgz:69382.got - 2010.06.28 07:06:18.
