data_PCOD8137120
_publ_section_title
;
Structure prediction by ZEFSAII (Michael W. Deem and Ramdas Pophale) SiO2 
 PCOD8137120
Probable space group: C 2/C
;
_chemical_formula_sum "Si O2"
_cell_formula_units_Z 48
_cell_length_a 21.859570
_cell_length_b 6.878499
_cell_length_c 17.766933
_cell_angle_alpha 90.000000
_cell_angle_beta 66.485749
_cell_angle_gamma 90.000000
_cell_volume 2449.619098
_symmetry_space_group_name_H-M "C 2/C"
_symmetry_group_IT_number 15
_symmetry_cell_setting 'monoclinic'
loop_
_space_group_symop_operation_xyz
x,y,z
-x,y,1/2-z
-x,-y,-z
x,-y,1/2+z
1/2+x,1/2+y,z
1/2-x,1/2+y,1/2-z
1/2-x,1/2-y,-z
1/2+x,1/2-y,1/2+z
loop_
_atom_site_type_symbol
_atom_site_label
_atom_site_fract_x
_atom_site_fract_y
_atom_site_fract_z
Si Si1 0.493695 0.722672 0.517839
Si Si2 0.161142 0.788024 0.754678
Si Si3 0.077813 0.484269 0.700818
Si Si4 0.393599 0.690107 0.693172
Si Si5 0.402337 0.997638 0.482174
Si Si6 0.797986 0.457224 0.654411
O O1 0.500000 0.500000 0.500000
O O2 0.457080 0.763135 0.614716
O O3 0.451191 0.813936 0.470478
O O4 0.566289 0.819207 0.488374
O O5 0.121314 0.653512 0.716903
O O6 0.189728 0.663501 0.810286
O O7 0.220157 0.906187 0.683273
O O8 0.110667 0.956310 0.807472
O O9 0.095038 0.275337 0.728995
O O10 0.102965 0.465248 0.603356
O O11 0.000000 0.535241 0.750000
O O12 0.327855 0.781174 0.688399
O O13 0.329861 0.963470 0.555027
#
# Coordination Sequence:
#
# PCOD8137120 Si02
#       6
#     8   8   8   8   8   8
#     4  10  20  35  61  87 114 160 205 248 296 349
#     4  11  22  39  67  89 116 165 202 249 304 354
#     4  11  24  40  58  90 133 159 192 251 308 362
#     4  10  21  38  61  88 118 159 203 248 300 355
#     4  10  22  39  55  88 127 153 198 256 292 355
#     4  10  21  40  64  88 117 154 211 251 288 360
#
# _framework density 19.594882999999999
#
# number of rings (size 3 to 8) (size 9 to 14) (size 15 to 20)
#    0.000    1.667    3.333    1.000    4.667    2.667 
#    0.000    0.833    0.000    0.000    0.000    0.000 
#    0.000    0.000    0.000    0.000    0.000    0.000 
#
# Total GULP energy -297610.225657 kJ/mol
# GULP energy per Si atom -12400.426069 kJ/mol
# Density = 1.955028 g / cm^3
# Si number density = 19.594883 Si / 1000 Ang^3
#
#
#
# Elastic Constant Matrix: (Units=GPa)
#
#
# Indices 1 2 3 4 5 6 
#
# 1 75.7904 22.9223 26.9547 0.0011 -6.8821 0.0008
# 2 22.9223 131.0751 12.4590 0.0029 9.7503 0.0034
# 3 26.9547 12.4590 97.9657 -0.0018 11.7349 -0.0027
# 4 0.0011 0.0029 -0.0018 22.9725 0.0009 -5.6650
# 5 -6.8821 9.7503 11.7349 0.0009 22.8340 0.0018
# 6 0.0008 0.0034 -0.0027 -5.6650 0.0018 18.7436
#
#
#
# Elastic Compliance Matrix: (Units=1/GPa)
#
#
# Indices 1 2 3 4 5 6 
#
# 1 0.016872 -0.003124 -0.005343 -0.000002 0.009165 -0.000002
# 2 -0.003124 0.008496 0.000348 -0.000001 -0.004748 -0.000001
# 3 -0.005343 0.000348 0.012621 0.000002 -0.008245 0.000004
# 4 -0.000002 -0.000001 0.000002 0.047036 -0.000004 0.014216
# 5 0.009165 -0.004748 -0.008245 -0.000004 0.052821 -0.000007
# 6 -0.000002 -0.000001 0.000004 0.014216 -0.000007 0.057648
#
#
# Mechanical properties :
#
#
# Convention : Reuss Voigt Hill
#
# Bulk Modulus (GPa) = 45.97642 47.72258 46.84950
# Shear Modulus (GPa) = 22.83296 29.07637 25.95466
#
# Velocity S-wave (km/s) = 3.41728 3.85629 3.64340
# Velocity P-wave (km/s) = 6.25179 6.65097 6.45447
#
# Compressibility (1/GPa) = 0.02175028
#
# Stress axis : x y z
#
# Youngs Moduli (GPa) = 59.27150 117.70605 79.23296
#
# Poissons Ratio (x) = 0.36776 0.42331
# Poissons Ratio (y) = 0.18519 -0.02757
# Poissons Ratio (z) = 0.31666 -0.04096
#
# Static dielectric constant tensor:
#      x y z
#    x 3.815950 -0.000050 -0.647940 
#    y -0.000050 3.554220 0.000060 
#    z -0.647940 0.000060 4.224420 
# 
# 
# High freq. dielectric constant tensor:
#      x y z
#    x 1.751900 0.000000 -0.015480 
#    y 0.000000 1.770850 0.000000 
#    z -0.015480 0.000000 1.761000 
# 
# From -- ./inp_files/217734.got.cif
#   From: 2010.06.25/outbox.cif.g09.slc.cpg/sg15_109_cif.got.tgz:217734.got - 2010.06.28 07:06:18.
