data_PCOD8137784
_publ_section_title
;
Structure prediction by ZEFSAII (Michael W. Deem and Ramdas Pophale) SiO2 
 PCOD8137784
Probable space group: C 2/C
;
_chemical_formula_sum "Si O2"
_cell_formula_units_Z 56
_cell_length_a 14.030372
_cell_length_b 22.641162
_cell_length_c 9.993370
_cell_angle_alpha 90.000000
_cell_angle_beta 58.861046
_cell_angle_gamma 90.000000
_cell_volume 2717.132783
_symmetry_space_group_name_H-M "C 2/C"
_symmetry_group_IT_number 15
_symmetry_cell_setting 'monoclinic'
loop_
_space_group_symop_operation_xyz
x,y,z
-x,y,1/2-z
-x,-y,-z
x,-y,1/2+z
1/2+x,1/2+y,z
1/2-x,1/2+y,1/2-z
1/2-x,1/2-y,-z
1/2+x,1/2-y,1/2+z
loop_
_atom_site_type_symbol
_atom_site_label
_atom_site_fract_x
_atom_site_fract_y
_atom_site_fract_z
Si Si1 0.819100 0.163785 0.665937
Si Si2 0.790857 0.945248 0.349996
Si Si3 0.376226 0.872875 0.393401
Si Si4 0.426966 0.995887 0.924119
Si Si5 0.244961 0.282675 0.862411
Si Si6 0.381434 0.472395 0.566605
Si Si7 0.547417 0.642447 0.353943
O O1 0.825108 0.122435 0.793291
O O2 0.720367 0.137775 0.645288
O O3 0.794164 0.232985 0.717346
O O4 0.941058 0.163511 0.513335
O O5 0.860631 0.971543 0.422898
O O6 0.663357 0.945134 0.487543
O O7 0.798000 0.986509 0.212153
O O8 0.500000 0.855499 0.250000
O O9 0.370208 0.941510 0.433632
O O10 0.344524 0.835773 0.551245
O O11 0.500000 0.972404 0.750000
O O12 0.500000 0.000000 0.000000
O O13 0.368372 0.303529 0.732826
O O14 0.250000 0.250000 0.000000
O O15 0.500000 0.500000 0.500000
O O16 0.379371 0.406151 0.623254
O O17 0.500000 0.616051 0.250000
#
# Coordination Sequence:
#
# PCOD8137784 Si02
#       7
#     8   8   8   8   8   8   8
#     4  11  24  38  64  97 130 177 213 284 333 392
#     4  12  24  44  65 100 139 173 222 277 336 409
#     4  10  20  36  62  94 128 166 221 273 323 386
#     4  11  23  41  63  94 131 175 214 264 324 397
#     4  10  22  36  61  96 126 171 218 278 325 384
#     4  12  25  40  69  99 136 172 218 277 352 397
#     4  12  22  40  64  99 135 167 230 278 340 397
#
# _framework density 20.609960999999998
#
# number of rings (size 3 to 8) (size 9 to 14) (size 15 to 20)
#    0.000    0.857    4.286    5.571    4.000    0.000 
#    0.000    0.714    0.000    0.000    0.000    0.000 
#    0.000    0.000    0.000    0.000    0.000    0.000 
#
# Total GULP energy -347070.430018 kJ/mol
# GULP energy per Si atom -12395.372501 kJ/mol
# Density = 2.056305 g / cm^3
# Si number density = 20.609961 Si / 1000 Ang^3
#
#
#
# Elastic Constant Matrix: (Units=GPa)
#
#
# Indices 1 2 3 4 5 6 
#
# 1 85.6262 21.7979 56.4474 0.0000 -16.8566 0.0000
# 2 21.7979 90.0889 55.3022 0.0000 -14.5274 0.0000
# 3 56.4474 55.3022 135.8976 0.0000 -21.5870 0.0000
# 4 0.0000 0.0000 0.0000 38.3422 0.0000 -5.5978
# 5 -16.8566 -14.5274 -21.5870 0.0000 49.8717 0.0000
# 6 0.0000 0.0000 0.0000 -5.5978 0.0000 34.1424
#
#
#
# Elastic Compliance Matrix: (Units=1/GPa)
#
#
# Indices 1 2 3 4 5 6 
#
# 1 0.016455 0.000529 -0.006596 0.000000 0.002861 0.000000
# 2 0.000529 0.014970 -0.006003 0.000000 0.001941 0.000000
# 3 -0.006596 -0.006003 0.012789 0.000000 0.001557 0.000000
# 4 0.000000 0.000000 0.000000 0.026721 0.000000 0.004381
# 5 0.002861 0.001941 0.001557 0.000000 0.022258 0.000000
# 6 0.000000 0.000000 0.000000 0.004381 0.000000 0.030007
#
#
# Mechanical properties :
#
#
# Convention : Reuss Voigt Hill
#
# Bulk Modulus (GPa) = 49.81674 64.30085 57.05879
# Shear Modulus (GPa) = 32.46075 36.34228 34.40151
#
# Velocity S-wave (km/s) = 3.97294 4.20376 4.08998
# Velocity P-wave (km/s) = 6.72825 7.40465 7.07454
#
# Compressibility (1/GPa) = 0.02007358
#
# Stress axis : x y z
#
# Youngs Moduli (GPa) = 60.77033 66.79826 78.19521
#
# Poissons Ratio (x) = -0.03531 0.51575
# Poissons Ratio (y) = -0.03213 0.46943
# Poissons Ratio (z) = 0.40082 0.40101
#
# Static dielectric constant tensor:
#      x y z
#    x 3.687910 0.000000 -0.084440 
#    y 0.000000 3.987950 0.000000 
#    z -0.084440 0.000000 4.037510 
# 
# 
# High freq. dielectric constant tensor:
#      x y z
#    x 1.799890 0.000000 -0.025770 
#    y 0.000000 1.806510 0.000000 
#    z -0.025770 0.000000 1.803290 
# 
# From -- ./inp_files/42544.got.cif
#   From: 2010.06.25/outbox.cif.g09.slc.cpg/sg15_22_cif.got.tgz:42544.got - 2010.06.28 07:06:18.
