data_PCOD8137757
_publ_section_title
;
Structure prediction by ZEFSAII (Michael W. Deem and Ramdas Pophale) SiO2 
 PCOD8137757
Probable space group: C 2/C
;
_chemical_formula_sum "Si O2"
_cell_formula_units_Z 52
_cell_length_a 11.229883
_cell_length_b 21.133326
_cell_length_c 9.260792
_cell_angle_alpha 90.000000
_cell_angle_beta 68.337592
_cell_angle_gamma 90.000000
_cell_volume 2042.594616
_symmetry_space_group_name_H-M "C 2/C"
_symmetry_group_IT_number 15
_symmetry_cell_setting 'monoclinic'
loop_
_space_group_symop_operation_xyz
x,y,z
-x,y,1/2-z
-x,-y,-z
x,-y,1/2+z
1/2+x,1/2+y,z
1/2-x,1/2+y,1/2-z
1/2-x,1/2-y,-z
1/2+x,1/2-y,1/2+z
loop_
_atom_site_type_symbol
_atom_site_label
_atom_site_fract_x
_atom_site_fract_y
_atom_site_fract_z
Si Si1 0.935837 0.607362 0.061835
Si Si2 0.564366 0.354113 0.915343
Si Si3 0.000000 0.296508 0.750000
Si Si4 0.192424 0.425107 0.353248
Si Si5 0.683991 0.700010 0.631560
Si Si6 0.252475 0.537563 0.147775
Si Si7 0.297651 0.316053 0.917169
O O1 0.872067 0.566252 0.216713
O O2 0.824385 0.637543 0.014869
O O3 0.029476 0.659774 0.098190
O O4 0.036387 0.570186 0.915072
O O5 0.617618 0.425617 0.863306
O O6 0.413537 0.348345 0.954389
O O7 0.649758 0.308437 0.771481
O O8 0.586315 0.338599 0.072590
O O9 0.891236 0.249453 0.732419
O O10 0.233884 0.351283 0.316975
O O11 0.258854 0.464191 0.193868
O O12 0.234586 0.457610 0.484527
O O13 0.750000 0.750000 0.500000
O O14 0.250000 0.250000 0.000000
#
# Coordination Sequence:
#
# PCOD8137757 Si02
#       7
#     8   8   4   8   8   8   8
#     4  11  20  38  66  94 128 179 220 289 354 397
#     4   9  21  40  61  90 135 183 219 280 355 410
#     4  12  20  38  68  98 128 168 228 286 352 410
#     4  11  22  41  69 100 133 180 231 291 347 412
#     4  11  21  38  65  96 128 172 231 287 345 418
#     4  10  21  41  69  95 132 177 234 285 348 412
#     4  10  20  36  62  90 131 179 219 271 347 418
#
# _framework density 25.457819000000001
#
# number of rings (size 3 to 8) (size 9 to 14) (size 15 to 20)
#    0.000    1.538    3.077    3.231    0.000    0.000 
#    0.000   13.846    3.385   28.615    0.000    0.000 
#    0.000    0.000    0.000    0.000    0.000    0.000 
#
# Total GULP energy -322092.611463 kJ/mol
# GULP energy per Si atom -12388.177364 kJ/mol
# Density = 2.539988 g / cm^3
# Si number density = 25.457819 Si / 1000 Ang^3
#
#
#
# Elastic Constant Matrix: (Units=GPa)
#
#
# Indices 1 2 3 4 5 6 
#
# 1 121.2099 31.9572 7.3061 0.0000 -20.1795 0.0000
# 2 31.9572 133.3166 17.6399 0.0000 -15.7218 0.0000
# 3 7.3061 17.6399 29.3722 0.0000 -5.0351 0.0000
# 4 0.0000 0.0000 0.0000 42.4124 0.0000 -6.4826
# 5 -20.1795 -15.7218 -5.0351 0.0000 26.2373 0.0000
# 6 0.0000 0.0000 0.0000 -6.4826 0.0000 28.8748
#
#
#
# Elastic Compliance Matrix: (Units=1/GPa)
#
#
# Indices 1 2 3 4 5 6 
#
# 1 0.009760 -0.001518 -0.000398 0.000000 0.006520 0.000000
# 2 -0.001518 0.008829 -0.004362 0.000000 0.003286 0.000000
# 3 -0.000398 -0.004362 0.037497 0.000000 0.004276 0.000000
# 4 0.000000 0.000000 0.000000 0.024416 0.000000 0.005482
# 5 0.006520 0.003286 0.004276 0.000000 0.045919 0.000000
# 6 0.000000 0.000000 0.000000 0.005482 0.000000 0.035863
#
#
# Mechanical properties :
#
#
# Convention : Reuss Voigt Hill
#
# Bulk Modulus (GPa) = 22.97225 44.18944 33.58084
# Shear Modulus (GPa) = 26.40610 34.63794 30.52202
#
# Velocity S-wave (km/s) = 3.22413 3.69263 3.46631
# Velocity P-wave (km/s) = 4.78573 5.96459 5.40738
#
# Compressibility (1/GPa) = 0.04353079
#
# Stress axis : x y z
#
# Youngs Moduli (GPa) = 102.46001 113.25718 26.66856
#
# Poissons Ratio (x) = 0.17191 0.01062
# Poissons Ratio (y) = 0.15552 0.11632
# Poissons Ratio (z) = 0.04081 0.49400
#
# Static dielectric constant tensor:
#      x y z
#    x 4.126190 0.000000 0.835530 
#    y 0.000000 4.483940 0.000000 
#    z 0.835530 0.000000 3.358530 
# 
# 
# High freq. dielectric constant tensor:
#      x y z
#    x 2.014300 0.000000 -0.007880 
#    y 0.000000 2.015280 0.000000 
#    z -0.007880 0.000000 2.000960 
# 
# From -- ./inp_files/89497.got.cif
#   From: 2010.06.25/outbox.cif.g09.slc.cpg/sg15_45_cif.got.tgz:89497.got - 2010.06.28 07:06:18.
