data_PCOD8137560
_publ_section_title
;
Structure prediction by ZEFSAII (Michael W. Deem and Ramdas Pophale) SiO2 
 PCOD8137560
Probable space group: C 2/C
;
_chemical_formula_sum "Si O2"
_cell_formula_units_Z 52
_cell_length_a 15.187961
_cell_length_b 8.400178
_cell_length_c 20.524461
_cell_angle_alpha 90.000000
_cell_angle_beta 79.939720
_cell_angle_gamma 90.000000
_cell_volume 2578.281709
_symmetry_space_group_name_H-M "C 2/C"
_symmetry_group_IT_number 15
_symmetry_cell_setting 'monoclinic'
loop_
_space_group_symop_operation_xyz
x,y,z
-x,y,1/2-z
-x,-y,-z
x,-y,1/2+z
1/2+x,1/2+y,z
1/2-x,1/2+y,1/2-z
1/2-x,1/2-y,-z
1/2+x,1/2-y,1/2+z
loop_
_atom_site_type_symbol
_atom_site_label
_atom_site_fract_x
_atom_site_fract_y
_atom_site_fract_z
Si Si1 0.871973 0.861968 0.451389
Si Si2 0.167554 0.533500 0.829582
Si Si3 0.500000 0.573025 0.750000
Si Si4 0.645906 0.394978 0.652766
Si Si5 0.499266 0.824429 0.645182
Si Si6 0.655559 0.961672 0.177973
Si Si7 0.210315 0.822741 0.907046
O O1 0.958057 0.751144 0.425778
O O2 0.861476 0.885896 0.530363
O O3 0.785701 0.777016 0.433326
O O4 0.880697 0.031838 0.414051
O O5 0.253042 0.434814 0.841187
O O6 0.168598 0.558647 0.752686
O O7 0.161579 0.708640 0.861652
O O8 0.081416 0.436934 0.865405
O O9 0.582298 0.464452 0.717142
O O10 0.463961 0.682354 0.695684
O O11 0.633020 0.206695 0.648087
O O12 0.574207 0.918963 0.676253
O O13 0.747503 0.027066 0.135448
#
# Coordination Sequence:
#
# PCOD8137560 Si02
#       7
#     8   8   4   8   8   8   8
#     4   8  18  39  56  81 109 163 187 229 284 342
#     4  11  21  35  56  89 111 150 188 242 283 343
#     4  10  20  38  52  80 114 156 178 248 282 350
#     4  10  23  34  58  84 114 149 197 230 292 336
#     4  10  20  36  60  79 119 148 193 232 294 333
#     4  11  21  36  55  89 114 152 183 243 288 344
#     4   9  19  36  60  78 118 149 196 229 280 341
#
# _framework density 20.168469999999999
#
# number of rings (size 3 to 8) (size 9 to 14) (size 15 to 20)
#    0.000    2.154    1.538    1.846    4.308    1.231 
#    0.000    0.000    0.000    1.846    0.000    0.000 
#    0.000    0.000    0.000    0.000    0.000    0.000 
#
# Total GULP energy -322441.179921 kJ/mol
# GULP energy per Si atom -12401.583843 kJ/mol
# Density = 2.012257 g / cm^3
# Si number density = 20.168470 Si / 1000 Ang^3
#
#
#
# Elastic Constant Matrix: (Units=GPa)
#
#
# Indices 1 2 3 4 5 6 
#
# 1 80.6083 40.9204 57.1549 0.0000 -17.3286 0.0000
# 2 40.9204 132.9084 63.8689 0.0000 -18.0782 0.0000
# 3 57.1549 63.8689 148.5791 0.0000 -30.5633 0.0000
# 4 0.0000 0.0000 0.0000 11.6581 0.0000 -2.9592
# 5 -17.3286 -18.0782 -30.5633 0.0000 26.7188 0.0000
# 6 0.0000 0.0000 0.0000 -2.9592 0.0000 38.3994
#
#
#
# Elastic Compliance Matrix: (Units=1/GPa)
#
#
# Indices 1 2 3 4 5 6 
#
# 1 0.018201 -0.002619 -0.004985 0.000000 0.004330 0.000000
# 2 -0.002619 0.009968 -0.002929 0.000000 0.001696 0.000000
# 3 -0.004985 -0.002929 0.011553 0.000000 0.008000 0.000000
# 4 0.000000 0.000000 0.000000 0.087489 0.000000 0.006742
# 5 0.004330 0.001696 0.008000 0.000000 0.050534 0.000000
# 6 0.000000 0.000000 0.000000 0.006742 0.000000 0.026562
#
#
# Mechanical properties :
#
#
# Convention : Reuss Voigt Hill
#
# Bulk Modulus (GPa) = 53.60130 76.22046 64.91088
# Shear Modulus (GPa) = 21.58985 28.69869 25.14427
#
# Velocity S-wave (km/s) = 3.27536 3.77629 3.53471
# Velocity P-wave (km/s) = 6.39832 7.54240 6.99379
#
# Compressibility (1/GPa) = 0.01865627
#
# Stress axis : x y z
#
# Youngs Moduli (GPa) = 54.94350 100.31640 86.56099
#
# Poissons Ratio (x) = 0.26276 0.43148
# Poissons Ratio (y) = 0.14391 0.25351
# Poissons Ratio (z) = 0.27388 0.29379
#
# Static dielectric constant tensor:
#      x y z
#    x 3.517160 0.000000 -0.317830 
#    y 0.000000 3.707170 0.000000 
#    z -0.317830 0.000000 3.843270 
# 
# 
# High freq. dielectric constant tensor:
#      x y z
#    x 1.774530 0.000000 -0.020900 
#    y 0.000000 1.789170 0.000000 
#    z -0.020900 0.000000 1.784940 
# 
# From -- ./inp_files/209247.got.cif
#   From: 2010.06.25/outbox.cif.g09.slc.cpg/sg15_105_cif.got.tgz:209247.got - 2010.06.28 07:06:18.
