data_PCOD8137611
_publ_section_title
;
Structure prediction by ZEFSAII (Michael W. Deem and Ramdas Pophale) SiO2 
 PCOD8137611
Probable space group: C 2/C
;
_chemical_formula_sum "Si O2"
_cell_formula_units_Z 56
_cell_length_a 11.160713
_cell_length_b 19.553434
_cell_length_c 18.597067
_cell_angle_alpha 90.000000
_cell_angle_beta 48.110520
_cell_angle_gamma 90.000000
_cell_volume 3021.243475
_symmetry_space_group_name_H-M "C 2/C"
_symmetry_group_IT_number 15
_symmetry_cell_setting 'monoclinic'
loop_
_space_group_symop_operation_xyz
x,y,z
-x,y,1/2-z
-x,-y,-z
x,-y,1/2+z
1/2+x,1/2+y,z
1/2-x,1/2+y,1/2-z
1/2-x,1/2-y,-z
1/2+x,1/2-y,1/2+z
loop_
_atom_site_type_symbol
_atom_site_label
_atom_site_fract_x
_atom_site_fract_y
_atom_site_fract_z
Si Si1 0.000000 0.479969 0.250000
Si Si2 0.641630 0.096879 0.285832
Si Si3 0.202624 0.391406 0.062450
Si Si4 0.809094 0.253565 0.057404
Si Si5 0.118687 0.756998 0.639325
Si Si6 0.406241 0.142299 0.042600
Si Si7 0.000000 0.287844 0.750000
Si Si8 0.459464 0.353521 0.591999
O O1 0.083591 0.525809 0.276268
O O2 0.129127 0.433184 0.157454
O O3 0.612643 0.090914 0.382711
O O4 0.539653 0.162785 0.301276
O O5 0.826252 0.103605 0.188105
O O6 0.197307 0.310317 0.075751
O O7 0.113086 0.403861 0.021845
O O8 0.394365 0.406643 0.981972
O O9 0.650123 0.261072 0.171036
O O10 0.892899 0.181036 0.045115
O O11 0.750000 0.250000 0.000000
O O12 0.922864 0.318684 0.025760
O O13 0.261008 0.804479 0.610826
O O14 0.000000 0.735485 0.750000
O O15 0.013415 0.791143 0.620031
#
# Coordination Sequence:
#
# PCOD8137611 Si02
#       8
#     4   8   8   8   8   8   4   8
#     4  11  26  42  54  80 114 164 203 230 278 347
#     4  10  21  38  57  79 112 155 203 227 276 339
#     4  11  22  37  59  88 120 149 191 239 295 344
#     4  11  19  32  54  90 121 150 183 227 303 354
#     4  11  18  33  60  96 119 140 179 236 308 352
#     4  11  20  35  61  90 115 147 187 246 291 354
#     4   9  20  32  52  80 120 154 179 234 276 355
#     4  10  20  36  60  89 116 145 186 245 295 350
#
# _framework density 18.535415
#
# number of rings (size 3 to 8) (size 9 to 14) (size 15 to 20)
#    0.000    1.429    6.429    0.857    0.000    1.143 
#    2.571    0.000    0.000    0.000    0.000    0.000 
#    0.000    0.000    0.000    0.000    0.000    0.000 
#
# Total GULP energy -347174.014760 kJ/mol
# GULP energy per Si atom -12399.071956 kJ/mol
# Density = 1.849323 g / cm^3
# Si number density = 18.535415 Si / 1000 Ang^3
#
#
#
# Elastic Constant Matrix: (Units=GPa)
#
#
# Indices 1 2 3 4 5 6 
#
# 1 107.1443 23.9237 49.1862 -0.0002 -0.3151 0.0008
# 2 23.9237 51.1947 22.5015 0.0002 -0.0055 0.0003
# 3 49.1862 22.5015 100.7958 0.0002 0.3642 0.0004
# 4 -0.0002 0.0002 0.0002 10.8282 0.0001 13.4866
# 5 -0.3151 -0.0055 0.3642 0.0001 43.2814 -0.0004
# 6 0.0008 0.0003 0.0004 13.4866 -0.0004 8.3689
#
#
#
# Elastic Compliance Matrix: (Units=1/GPa)
#
#
# Indices 1 2 3 4 5 6 
#
# 1 0.012577 -0.003526 -0.005351 -0.000001 0.000136 0.000001
# 2 -0.003526 0.022647 -0.003335 0.000000 0.000005 0.000000
# 3 -0.005351 -0.003335 0.013277 0.000000 -0.000151 0.000000
# 4 -0.000001 0.000000 0.000000 -0.091697 0.000002 0.147771
# 5 0.000136 0.000005 -0.000151 0.000002 0.023107 -0.000002
# 6 0.000001 0.000000 0.000000 0.147771 -0.000002 -0.118644
#
#
# Mechanical properties :
#
#
# Convention : Reuss Voigt Hill
#
# Bulk Modulus (GPa) = 41.53195 50.03974 45.78584
# Shear Modulus (GPa) = -47.04398 23.39727 -11.82336
#
# Velocity S-wave (km/s) = -5.04338 3.55674 -2.52837
# Velocity P-wave (km/s) = 3.38509 6.62742 4.02889
#
# Compressibility (1/GPa) = 0.02407785
#
# Stress axis : x y z
#
# Youngs Moduli (GPa) = 79.50889 44.15649 75.31673
#
# Poissons Ratio (x) = 0.15568 0.40301
# Poissons Ratio (y) = 0.28031 0.25120
# Poissons Ratio (z) = 0.42544 0.14727
#
# Static dielectric constant tensor:
#      x y z
#    x 3.583670 0.000000 -0.007280 
#    y 0.000000 3.036180 0.000000 
#    z -0.007280 0.000000 3.570460 
# 
# 
# High freq. dielectric constant tensor:
#      x y z
#    x 1.732380 0.000000 -0.003430 
#    y 0.000000 1.672320 0.000000 
#    z -0.003430 0.000000 1.737140 
# 
# From -- ./inp_files/146192.got.cif
#   From: 2010.06.25/outbox.cif.g09.slc.cpg/sg15_74_cif.got.tgz:146192.got - 2010.06.28 07:06:18.
