data_PCOD8137613
_publ_section_title
;
Structure prediction by ZEFSAII (Michael W. Deem and Ramdas Pophale) SiO2 
 PCOD8137613
Probable space group: C 2/C
;
_chemical_formula_sum "Si O2"
_cell_formula_units_Z 56
_cell_length_a 11.162867
_cell_length_b 15.804004
_cell_length_c 24.581482
_cell_angle_alpha 90.000000
_cell_angle_beta 40.770820
_cell_angle_gamma 90.000000
_cell_volume 2831.961837
_symmetry_space_group_name_H-M "C 2/C"
_symmetry_group_IT_number 15
_symmetry_cell_setting 'monoclinic'
loop_
_space_group_symop_operation_xyz
x,y,z
-x,y,1/2-z
-x,-y,-z
x,-y,1/2+z
1/2+x,1/2+y,z
1/2-x,1/2+y,1/2-z
1/2-x,1/2-y,-z
1/2+x,1/2-y,1/2+z
loop_
_atom_site_type_symbol
_atom_site_label
_atom_site_fract_x
_atom_site_fract_y
_atom_site_fract_z
Si Si1 0.666649 0.091453 0.234825
Si Si2 0.680017 0.256726 0.757806
Si Si3 0.682165 0.603958 0.919405
Si Si4 0.767294 0.218194 0.387410
Si Si5 0.877940 0.441642 0.505342
Si Si6 0.023087 0.014160 0.074417
Si Si7 0.561496 0.921974 0.324999
O O1 0.500000 0.091865 0.250000
O O2 0.675206 0.183105 0.260662
O O3 0.861283 0.081555 0.138289
O O4 0.654025 0.013407 0.282403
O O5 0.725547 0.271906 0.679546
O O6 0.471399 0.285797 0.842330
O O7 0.701695 0.157632 0.768368
O O8 0.651880 0.700400 0.947992
O O9 0.570291 0.578502 0.902963
O O10 0.901060 0.591032 0.834980
O O11 0.630230 0.539066 0.983707
O O12 0.649270 0.141182 0.449212
O O13 0.678408 0.487045 0.567503
O O14 0.000000 0.500000 0.500000
O O15 0.979069 0.419392 0.414300
#
# Coordination Sequence:
#
# PCOD8137613 Si02
#       7
#     8   8   8   8   8   8   8
#     4  12  22  38  63  89 122 159 207 258 306 360
#     4  10  22  37  61  93 118 159 207 257 305 366
#     4   9  19  36  62  89 111 156 204 254 296 357
#     4  10  20  38  63  84 122 156 206 245 307 368
#     4  11  23  40  59  90 126 168 200 248 314 377
#     4  10  20  36  60  89 117 151 204 251 298 357
#     4  10  22  38  63  90 125 159 209 253 309 367
#
# _framework density 19.774277999999999
#
# number of rings (size 3 to 8) (size 9 to 14) (size 15 to 20)
#    0.000    1.714    2.857    1.714    4.000    1.714 
#    0.000    3.571    0.000    0.000    0.000    0.000 
#    0.000    0.000    0.000    0.000    0.000    0.000 
#
# Total GULP energy -346956.587235 kJ/mol
# GULP energy per Si atom -12391.306687 kJ/mol
# Density = 1.972927 g / cm^3
# Si number density = 19.774278 Si / 1000 Ang^3
#
#
#
# Elastic Constant Matrix: (Units=GPa)
#
#
# Indices 1 2 3 4 5 6 
#
# 1 115.4594 63.6486 28.3408 -0.0004 -10.2571 0.0001
# 2 63.6486 157.1361 36.2511 0.0003 -4.8523 0.0003
# 3 28.3408 36.2511 58.2466 0.0006 4.0729 0.0011
# 4 -0.0004 0.0003 0.0006 31.5012 0.0013 -5.3204
# 5 -10.2571 -4.8523 4.0729 0.0013 22.2753 -0.0003
# 6 0.0001 0.0003 0.0011 -5.3204 -0.0003 31.1173
#
#
#
# Elastic Compliance Matrix: (Units=1/GPa)
#
#
# Indices 1 2 3 4 5 6 
#
# 1 0.012260 -0.003889 -0.003931 0.000000 0.005517 0.000000
# 2 -0.003889 0.008804 -0.003643 0.000000 0.000793 0.000000
# 3 -0.003931 -0.003643 0.021809 0.000000 -0.006591 -0.000001
# 4 0.000000 0.000000 0.000000 0.032689 -0.000002 0.005589
# 5 0.005517 0.000793 -0.006591 -0.000002 0.048811 0.000000
# 6 0.000000 0.000000 -0.000001 0.005589 0.000000 0.033092
#
#
# Mechanical properties :
#
#
# Convention : Reuss Voigt Hill
#
# Bulk Modulus (GPa) = 50.12935 65.25813 57.69374
# Shear Modulus (GPa) = 26.73252 30.48552 28.60902
#
# Velocity S-wave (km/s) = 3.68079 3.93068 3.80778
# Velocity P-wave (km/s) = 6.59318 7.32622 6.96934
#
# Compressibility (1/GPa) = 0.01994839
#
# Stress axis : x y z
#
# Youngs Moduli (GPa) = 81.56823 113.58627 45.85278
#
# Poissons Ratio (x) = 0.44170 0.18023
# Poissons Ratio (y) = 0.31719 0.16703
# Poissons Ratio (z) = 0.32062 0.41376
#
# Static dielectric constant tensor:
#      x y z
#    x 3.869940 0.000000 -0.141230 
#    y 0.000000 3.839350 0.000000 
#    z -0.141230 0.000000 3.592670 
# 
# 
# High freq. dielectric constant tensor:
#      x y z
#    x 1.752680 0.000000 0.005000 
#    y 0.000000 1.773930 0.000000 
#    z 0.005000 0.000000 1.771770 
# 
# From -- ./inp_files/292828.got.cif
#   From: 2010.06.25/outbox.cif.g09.slc.cpg/sg15_147_cif.got.tgz:292828.got - 2010.06.28 07:06:18.
