data_PCOD8137105
_publ_section_title
;
Structure prediction by ZEFSAII (Michael W. Deem and Ramdas Pophale) SiO2 
 PCOD8137105
Probable space group: C 2/C
;
_chemical_formula_sum "Si O2"
_cell_formula_units_Z 48
_cell_length_a 11.185669
_cell_length_b 17.509952
_cell_length_c 11.301700
_cell_angle_alpha 90.000000
_cell_angle_beta 75.789896
_cell_angle_gamma 90.000000
_cell_volume 2145.826673
_symmetry_space_group_name_H-M "C 2/C"
_symmetry_group_IT_number 15
_symmetry_cell_setting 'monoclinic'
loop_
_space_group_symop_operation_xyz
x,y,z
-x,y,1/2-z
-x,-y,-z
x,-y,1/2+z
1/2+x,1/2+y,z
1/2-x,1/2+y,1/2-z
1/2-x,1/2-y,-z
1/2+x,1/2-y,1/2+z
loop_
_atom_site_type_symbol
_atom_site_label
_atom_site_fract_x
_atom_site_fract_y
_atom_site_fract_z
Si Si1 0.701187 0.459175 0.337695
Si Si2 0.328320 0.079227 0.579640
Si Si3 0.411778 0.927324 0.449036
Si Si4 0.282867 0.815419 0.640265
Si Si5 0.688239 0.635494 0.406335
Si Si6 0.084856 0.828347 0.490786
O O1 0.720947 0.454032 0.191084
O O2 0.821135 0.415046 0.360944
O O3 0.671954 0.545678 0.380702
O O4 0.590598 0.408308 0.416868
O O5 0.451845 0.104681 0.621066
O O6 0.266362 0.142715 0.509630
O O7 0.394564 0.017039 0.478993
O O8 0.371610 0.882716 0.576386
O O9 0.261974 0.822757 0.784743
O O10 0.153859 0.824212 0.600673
O O11 0.354194 0.736152 0.605658
O O12 0.560188 0.681021 0.450359
#
# Coordination Sequence:
#
# PCOD8137105 Si02
#       6
#     8   8   8   8   8   8
#     4  10  20  38  61  91 126 163 209 258 309 379
#     4  10  20  35  60  93 121 158 209 259 313 361
#     4   9  19  36  60  88 120 162 213 255 298 376
#     4  10  21  42  63  87 121 167 212 258 316 379
#     4  11  22  39  62  93 126 160 208 265 319 370
#     4  10  23  40  63  89 122 165 213 257 315 388
#
# _framework density 22.369001000000001
#
# number of rings (size 3 to 8) (size 9 to 14) (size 15 to 20)
#    0.000    2.000    1.667    1.500    0.000    2.667 
#    3.000   10.000    0.000    0.000    0.000    0.000 
#    0.000    0.000    0.000    0.000    0.000    0.000 
#
# Total GULP energy -297367.205582 kJ/mol
# GULP energy per Si atom -12390.300233 kJ/mol
# Density = 2.231809 g / cm^3
# Si number density = 22.369001 Si / 1000 Ang^3
#
#
#
# Elastic Constant Matrix: (Units=GPa)
#
#
# Indices 1 2 3 4 5 6 
#
# 1 78.8694 19.0547 12.1460 0.0000 -10.3929 0.0000
# 2 19.0547 63.8088 13.6714 0.0000 -3.5311 0.0000
# 3 12.1460 13.6714 89.2706 0.0000 -5.9967 0.0000
# 4 0.0000 0.0000 0.0000 33.7829 0.0000 1.8820
# 5 -10.3929 -3.5311 -5.9967 0.0000 25.4561 0.0000
# 6 0.0000 0.0000 0.0000 1.8820 0.0000 21.0716
#
#
#
# Elastic Compliance Matrix: (Units=1/GPa)
#
#
# Indices 1 2 3 4 5 6 
#
# 1 0.014433 -0.003804 -0.001037 0.000000 0.005120 0.000000
# 2 -0.003804 0.017278 -0.002105 0.000000 0.000348 0.000000
# 3 -0.001037 -0.002105 0.011804 0.000000 0.002065 0.000000
# 4 0.000000 0.000000 0.000000 0.029749 0.000000 -0.002657
# 5 0.005120 0.000348 0.002065 0.000000 0.041909 0.000000
# 6 0.000000 0.000000 0.000000 -0.002657 0.000000 0.047694
#
#
# Mechanical properties :
#
#
# Convention : Reuss Voigt Hill
#
# Bulk Modulus (GPa) = 33.75887 35.74368 34.75127
# Shear Modulus (GPa) = 26.79039 28.53390 27.66215
#
# Velocity S-wave (km/s) = 3.46447 3.57543 3.52039
# Velocity P-wave (km/s) = 5.57925 5.74967 5.66510
#
# Compressibility (1/GPa) = 0.02962184
#
# Stress axis : x y z
#
# Youngs Moduli (GPa) = 69.28678 57.87655 84.71616
#
# Poissons Ratio (x) = 0.22018 0.08786
# Poissons Ratio (y) = 0.26359 0.17834
# Poissons Ratio (z) = 0.07186 0.12184
#
# Static dielectric constant tensor:
#      x y z
#    x 4.358850 0.000000 0.035890 
#    y 0.000000 3.790000 0.000000 
#    z 0.035890 0.000000 3.939990 
# 
# 
# High freq. dielectric constant tensor:
#      x y z
#    x 1.875930 0.000000 -0.007120 
#    y 0.000000 1.862030 0.000000 
#    z -0.007120 0.000000 1.880370 
# 
# From -- ./inp_files/87767.got.cif
#   From: 2010.06.25/outbox.cif.g09.slc.cpg/sg15_44_cif.got.tgz:87767.got - 2010.06.28 07:06:18.
