data_PCOD8137327
_publ_section_title
;
Structure prediction by ZEFSAII (Michael W. Deem and Ramdas Pophale) SiO2 
 PCOD8137327
Probable space group: C 2/C
;
_chemical_formula_sum "Si O2"
_cell_formula_units_Z 48
_cell_length_a 12.899422
_cell_length_b 25.308632
_cell_length_c 8.731570
_cell_angle_alpha 90.000000
_cell_angle_beta 116.720925
_cell_angle_gamma 90.000000
_cell_volume 2546.147113
_symmetry_space_group_name_H-M "C 2/C"
_symmetry_group_IT_number 15
_symmetry_cell_setting 'monoclinic'
loop_
_space_group_symop_operation_xyz
x,y,z
-x,y,1/2-z
-x,-y,-z
x,-y,1/2+z
1/2+x,1/2+y,z
1/2-x,1/2+y,1/2-z
1/2-x,1/2-y,-z
1/2+x,1/2-y,1/2+z
loop_
_atom_site_type_symbol
_atom_site_label
_atom_site_fract_x
_atom_site_fract_y
_atom_site_fract_z
Si Si1 0.865804 0.566625 0.678112
Si Si2 0.120143 0.768537 0.741168
Si Si3 0.596581 0.543371 0.026984
Si Si4 0.251850 0.007890 0.867444
Si Si5 0.006677 0.840459 0.433457
Si Si6 0.760279 0.826031 0.418254
O O1 0.828197 0.550630 0.825399
O O2 0.836972 0.519639 0.543106
O O3 0.795555 0.617968 0.584276
O O4 0.000000 0.579514 0.750000
O O5 0.096216 0.797393 0.563296
O O6 0.173021 0.709787 0.757042
O O7 0.000000 0.764660 0.750000
O O8 0.216280 0.801218 0.899559
O O9 0.699232 0.535701 0.217766
O O10 0.500000 0.500000 0.000000
O O11 0.646468 0.536802 0.887794
O O12 0.545641 0.601480 0.011358
O O13 0.000000 0.832233 0.250000
O O14 0.878436 0.832044 0.406948
#
# Coordination Sequence:
#
# PCOD8137327 Si02
#       6
#     8   8   8   8   8   8
#     4  11  21  36  56  77 107 144 182 221 269 321
#     4   9  20  37  56  78 104 136 181 224 265 316
#     4  11  20  34  55  82 113 142 177 220 273 328
#     4  10  22  35  52  80 111 142 178 221 267 327
#     4  11  21  34  54  81 111 140 171 220 278 323
#     4  10  20  36  57  78 102 139 183 224 262 316
#
# _framework density 18.852014
#
# number of rings (size 3 to 8) (size 9 to 14) (size 15 to 20)
#    0.000    1.667    0.000    6.500    0.000    3.333 
#    0.000    0.000    0.000    3.000    0.000    0.000 
#    0.000    0.000    0.000    0.000    0.000    0.000 
#
# Total GULP energy -297640.412328 kJ/mol
# GULP energy per Si atom -12401.683847 kJ/mol
# Density = 1.880911 g / cm^3
# Si number density = 18.852014 Si / 1000 Ang^3
#
#
#
# Elastic Constant Matrix: (Units=GPa)
#
#
# Indices 1 2 3 4 5 6 
#
# 1 66.3815 16.1620 23.6481 0.0000 -3.5755 0.0000
# 2 16.1620 79.2396 17.7564 0.0000 4.3105 0.0000
# 3 23.6481 17.7564 72.6599 0.0000 -2.8420 0.0000
# 4 0.0000 0.0000 0.0000 28.8204 0.0000 9.0300
# 5 -3.5755 4.3105 -2.8420 0.0000 29.9671 0.0000
# 6 0.0000 0.0000 0.0000 9.0300 0.0000 28.2619
#
#
#
# Elastic Compliance Matrix: (Units=1/GPa)
#
#
# Indices 1 2 3 4 5 6 
#
# 1 0.017585 -0.002571 -0.005017 0.000000 0.001992 0.000000
# 2 -0.002571 0.013878 -0.002655 0.000000 -0.002555 0.000000
# 3 -0.005017 -0.002655 0.016096 0.000000 0.001310 0.000000
# 4 0.000000 0.000000 0.000000 0.038558 0.000000 -0.012320
# 5 0.001992 -0.002555 0.001310 0.000000 0.034099 0.000000
# 6 0.000000 0.000000 0.000000 -0.012320 0.000000 0.039320
#
#
# Mechanical properties :
#
#
# Convention : Reuss Voigt Hill
#
# Bulk Modulus (GPa) = 36.93651 37.04602 36.99126
# Shear Modulus (GPa) = 26.44873 28.12417 27.28645
#
# Velocity S-wave (km/s) = 3.74968 3.86662 3.80860
# Velocity P-wave (km/s) = 6.19534 6.29508 6.24541
#
# Compressibility (1/GPa) = 0.02707348
#
# Stress axis : x y z
#
# Youngs Moduli (GPa) = 56.86672 72.05568 62.12874
#
# Poissons Ratio (x) = 0.18524 0.31171
# Poissons Ratio (y) = 0.14619 0.16494
# Poissons Ratio (z) = 0.28531 0.19129
#
# Static dielectric constant tensor:
#      x y z
#    x 3.513200 0.000000 0.025250 
#    y 0.000000 3.512490 0.000000 
#    z 0.025250 0.000000 3.619520 
# 
# 
# High freq. dielectric constant tensor:
#      x y z
#    x 1.733300 0.000000 0.006780 
#    y 0.000000 1.733310 0.000000 
#    z 0.006780 0.000000 1.735320 
# 
# From -- ./inp_files/32538.got.cif
#   From: 2010.06.25/outbox.cif.g09.slc.cpg/sg15_17_cif.got.tgz:32538.got - 2010.06.28 07:06:18.
