data_PCOD8137484
_publ_section_title
;
Structure prediction by ZEFSAII (Michael W. Deem and Ramdas Pophale) SiO2 
 PCOD8137484
Probable space group: C 2/C
;
_chemical_formula_sum "Si O2"
_cell_formula_units_Z 56
_cell_length_a 19.049107
_cell_length_b 6.543583
_cell_length_c 26.028172
_cell_angle_alpha 90.000000
_cell_angle_beta 114.772102
_cell_angle_gamma 90.000000
_cell_volume 2945.852216
_symmetry_space_group_name_H-M "C 2/C"
_symmetry_group_IT_number 15
_symmetry_cell_setting 'monoclinic'
loop_
_space_group_symop_operation_xyz
x,y,z
-x,y,1/2-z
-x,-y,-z
x,-y,1/2+z
1/2+x,1/2+y,z
1/2-x,1/2+y,1/2-z
1/2-x,1/2-y,-z
1/2+x,1/2-y,1/2+z
loop_
_atom_site_type_symbol
_atom_site_label
_atom_site_fract_x
_atom_site_fract_y
_atom_site_fract_z
Si Si1 0.841755 0.352949 0.773911
Si Si2 0.799522 0.702963 0.827944
Si Si3 0.426478 0.462791 0.824646
Si Si4 0.913701 0.670211 0.726710
Si Si5 0.194814 0.438695 0.473090
Si Si6 0.263356 0.319109 0.077879
Si Si7 0.601087 0.358826 0.886652
O O1 0.836624 0.486863 0.824006
O O2 0.761475 0.242477 0.736724
O O3 0.860932 0.483079 0.728715
O O4 0.910625 0.199101 0.808946
O O5 0.866952 0.875016 0.849288
O O6 0.758102 0.684832 0.869445
O O7 0.410529 0.351396 0.766449
O O8 0.514545 0.437453 0.869923
O O9 0.883950 0.760758 0.664367
O O10 0.000000 0.582332 0.750000
O O11 0.250000 0.250000 0.500000
O O12 0.192105 0.576395 0.524143
O O13 0.224702 0.586159 0.436516
O O14 0.115226 0.326753 0.431782
O O15 0.341169 0.448951 0.090342
#
# Coordination Sequence:
#
# PCOD8137484 Si02
#       7
#     8   8   8   8   8   8   8
#     4  11  21  34  53  77 117 152 188 225 277 351
#     4  11  22  35  55  82 116 153 190 229 285 346
#     4  10  22  36  50  82 120 151 186 235 287 348
#     4   9  20  34  53  83 113 147 186 227 284 347
#     4   9  20  39  60  87 110 140 196 249 292 344
#     4  10  21  36  63  86 108 147 193 242 293 344
#     4  10  20  36  59  82 115 147 193 246 294 339
#
# _framework density 19.009777
#
# number of rings (size 3 to 8) (size 9 to 14) (size 15 to 20)
#    0.000    2.000    1.429    1.714    2.000    8.571 
#    0.000    0.714    0.000    8.571    0.000    0.000 
#    0.000    0.000    0.000    0.000    0.000    0.000 
#
# Total GULP energy -347084.343493 kJ/mol
# GULP energy per Si atom -12395.869410 kJ/mol
# Density = 1.896651 g / cm^3
# Si number density = 19.009777 Si / 1000 Ang^3
#
#
#
# Elastic Constant Matrix: (Units=GPa)
#
#
# Indices 1 2 3 4 5 6 
#
# 1 81.3448 44.4963 30.8289 0.0000 8.6155 0.0000
# 2 44.4963 125.0505 42.5207 0.0000 10.8282 0.0000
# 3 30.8289 42.5207 80.3156 0.0000 9.0974 0.0000
# 4 0.0000 0.0000 0.0000 26.9829 0.0000 8.2731
# 5 8.6155 10.8282 9.0974 0.0000 23.7920 0.0000
# 6 0.0000 0.0000 0.0000 8.2731 0.0000 20.5677
#
#
#
# Elastic Compliance Matrix: (Units=1/GPa)
#
#
# Indices 1 2 3 4 5 6 
#
# 1 0.016331 -0.004339 -0.003685 0.000000 -0.002530 0.000000
# 2 -0.004339 0.011059 -0.003969 0.000000 -0.001944 0.000000
# 3 -0.003685 -0.003969 0.016318 0.000000 -0.003099 0.000000
# 4 0.000000 0.000000 0.000000 0.042274 0.000000 -0.017004
# 5 -0.002530 -0.001944 -0.003099 0.000000 0.045017 0.000000
# 6 0.000000 0.000000 0.000000 -0.017004 0.000000 0.055460
#
#
# Mechanical properties :
#
#
# Convention : Reuss Voigt Hill
#
# Bulk Modulus (GPa) = 50.70568 58.04475 54.37522
# Shear Modulus (GPa) = 23.03956 25.52618 24.28287
#
# Velocity S-wave (km/s) = 3.48513 3.66839 3.57793
# Velocity P-wave (km/s) = 6.55181 6.96730 6.76275
#
# Compressibility (1/GPa) = 0.01972166
#
# Stress axis : x y z
#
# Youngs Moduli (GPa) = 61.23176 90.42724 61.28373
#
# Poissons Ratio (x) = 0.39237 0.22583
# Poissons Ratio (y) = 0.26569 0.24323
# Poissons Ratio (z) = 0.22564 0.35890
#
# Static dielectric constant tensor:
#      x y z
#    x 3.477230 0.000000 0.078910 
#    y 0.000000 3.701000 0.000000 
#    z 0.078910 0.000000 3.582960 
# 
# 
# High freq. dielectric constant tensor:
#      x y z
#    x 1.719690 0.000000 0.006200 
#    y 0.000000 1.757130 0.000000 
#    z 0.006200 0.000000 1.730540 
# 
# From -- ./inp_files/278975.got.cif
#   From: 2010.06.25/outbox.cif.g09.slc.cpg/sg15_140_cif.got.tgz:278975.got - 2010.06.28 07:06:18.
