data_PCOD8137561
_publ_section_title
;
Structure prediction by ZEFSAII (Michael W. Deem and Ramdas Pophale) SiO2 
 PCOD8137561
Probable space group: C 2/C
;
_chemical_formula_sum "Si O2"
_cell_formula_units_Z 60
_cell_length_a 7.923959
_cell_length_b 15.580660
_cell_length_c 24.291061
_cell_angle_alpha 90.000000
_cell_angle_beta 92.373462
_cell_angle_gamma 90.000000
_cell_volume 2996.414030
_symmetry_space_group_name_H-M "C 2/C"
_symmetry_group_IT_number 15
_symmetry_cell_setting 'monoclinic'
loop_
_space_group_symop_operation_xyz
x,y,z
-x,y,1/2-z
-x,-y,-z
x,-y,1/2+z
1/2+x,1/2+y,z
1/2-x,1/2+y,1/2-z
1/2-x,1/2-y,-z
1/2+x,1/2-y,1/2+z
loop_
_atom_site_type_symbol
_atom_site_label
_atom_site_fract_x
_atom_site_fract_y
_atom_site_fract_z
Si Si1 0.491095 0.626762 0.312866
Si Si2 0.147143 0.297986 0.151330
Si Si3 0.297790 0.547672 0.094184
Si Si4 0.710623 0.652303 0.510486
Si Si5 0.000000 0.616249 0.750000
Si Si6 0.979518 0.129113 0.609989
Si Si7 0.037558 0.556110 0.916398
Si Si8 0.268039 0.467437 0.327143
O O1 0.500000 0.661275 0.250000
O O2 0.411210 0.699391 0.351430
O O3 0.665476 0.595509 0.346039
O O4 0.366010 0.547580 0.304811
O O5 0.126243 0.327762 0.214223
O O6 0.337242 0.305354 0.130097
O O7 0.025427 0.357639 0.114114
O O8 0.410170 0.463779 0.093736
O O9 0.105392 0.517046 0.080964
O O10 0.360395 0.610334 0.046437
O O11 0.750000 0.750000 0.500000
O O12 0.569464 0.661027 0.556001
O O13 0.875895 0.593497 0.527156
O O14 0.881764 0.552683 0.715534
O O15 0.111464 0.116009 0.662097
O O16 0.187520 0.509729 0.885191
#
# Coordination Sequence:
#
# PCOD8137561 Si02
#       8
#     8   8   8   8   4   8   8   8
#     4  11  23  37  57  89 120 154 202 255 299 347
#     4  10  20  39  57  84 119 154 198 248 307 345
#     4  10  21  39  62  82 120 160 202 242 295 372
#     4  11  21  37  61  92 121 152 196 257 308 358
#     4  10  20  36  60  80 116 162 190 242 294 364
#     4   9  21  39  59  84 115 158 200 239 299 370
#     4   9  20  39  61  86 116 160 199 244 304 368
#     4   9  21  35  58  83 115 149 203 237 291 365
#
# _framework density 20.023935999999999
#
# number of rings (size 3 to 8) (size 9 to 14) (size 15 to 20)
#    0.000    2.133    0.667    1.600    7.467    1.067 
#    0.000    8.667    0.000    0.000    0.000    0.000 
#    0.000    0.000    0.000    0.000    0.000    0.000 
#
# Total GULP energy -371645.324795 kJ/mol
# GULP energy per Si atom -12388.177493 kJ/mol
# Density = 1.997836 g / cm^3
# Si number density = 20.023936 Si / 1000 Ang^3
#
#
#
# Elastic Constant Matrix: (Units=GPa)
#
#
# Indices 1 2 3 4 5 6 
#
# 1 105.1109 28.8000 42.0180 0.0000 -5.1503 0.0000
# 2 28.8000 70.9285 39.5930 0.0000 -2.8934 0.0000
# 3 42.0180 39.5930 102.5854 0.0000 0.8112 0.0000
# 4 0.0000 0.0000 0.0000 27.7065 0.0000 -6.4124
# 5 -5.1503 -2.8934 0.8112 0.0000 32.2316 0.0000
# 6 0.0000 0.0000 0.0000 -6.4124 0.0000 20.4035
#
#
#
# Elastic Compliance Matrix: (Units=1/GPa)
#
#
# Indices 1 2 3 4 5 6 
#
# 1 0.011856 -0.002579 -0.003874 0.000000 0.001760 0.000000
# 2 -0.002579 0.018635 -0.006147 0.000000 0.001415 0.000000
# 3 -0.003874 -0.006147 0.013719 0.000000 -0.001516 0.000000
# 4 0.000000 0.000000 0.000000 0.038924 0.000000 0.012233
# 5 0.001760 0.001415 -0.001516 0.000000 0.031472 0.000000
# 6 0.000000 0.000000 0.000000 0.012233 0.000000 0.052856
#
#
# Mechanical properties :
#
#
# Convention : Reuss Voigt Hill
#
# Bulk Modulus (GPa) = 52.60775 55.49410 54.05092
# Shear Modulus (GPa) = 25.12579 27.28259 26.20419
#
# Velocity S-wave (km/s) = 3.54614 3.69521 3.62144
# Velocity P-wave (km/s) = 6.56478 6.78087 6.67370
#
# Compressibility (1/GPa) = 0.01900861
#
# Stress axis : x y z
#
# Youngs Moduli (GPa) = 84.34902 53.66233 72.89022
#
# Poissons Ratio (x) = 0.13841 0.28240
# Poissons Ratio (y) = 0.21757 0.44805
# Poissons Ratio (z) = 0.32679 0.32986
#
# Static dielectric constant tensor:
#      x y z
#    x 3.894710 0.000000 0.103260 
#    y 0.000000 3.482880 0.000000 
#    z 0.103260 0.000000 3.827670 
# 
# 
# High freq. dielectric constant tensor:
#      x y z
#    x 1.779710 0.000000 0.006890 
#    y 0.000000 1.773560 0.000000 
#    z 0.006890 0.000000 1.786530 
# 
# From -- ./inp_files/264326.got.cif
#   From: 2010.06.25/outbox.cif.g09.slc.cpg/sg15_133_cif.got.tgz:264326.got - 2010.06.28 07:06:18.
