data_PCOD8137931
_publ_section_title
;
Structure prediction by ZEFSAII (Michael W. Deem and Ramdas Pophale) SiO2 
 PCOD8137931
Probable space group: C 2/C
;
_chemical_formula_sum "Si O2"
_cell_formula_units_Z 60
_cell_length_a 9.345664
_cell_length_b 30.749733
_cell_length_c 12.039538
_cell_angle_alpha 90.000000
_cell_angle_beta 114.759977
_cell_angle_gamma 90.000000
_cell_volume 3141.816278
_symmetry_space_group_name_H-M "C 2/C"
_symmetry_group_IT_number 15
_symmetry_cell_setting 'monoclinic'
loop_
_space_group_symop_operation_xyz
x,y,z
-x,y,1/2-z
-x,-y,-z
x,-y,1/2+z
1/2+x,1/2+y,z
1/2-x,1/2+y,1/2-z
1/2-x,1/2-y,-z
1/2+x,1/2-y,1/2+z
loop_
_atom_site_type_symbol
_atom_site_label
_atom_site_fract_x
_atom_site_fract_y
_atom_site_fract_z
Si Si1 0.289211 0.114404 0.367202
Si Si2 0.777967 0.949115 0.854101
Si Si3 0.366182 0.338134 0.030497
Si Si4 0.365097 0.913029 0.480831
Si Si5 0.163792 0.310154 0.763096
Si Si6 0.590383 0.406841 0.009923
Si Si7 0.324470 0.957497 0.236823
Si Si8 0.500000 0.727239 0.750000
O O1 0.256971 0.089035 0.243271
O O2 0.453744 0.100102 0.474420
O O3 0.286831 0.165702 0.334639
O O4 0.150029 0.105995 0.407693
O O5 0.956994 0.943895 0.955210
O O6 0.758137 0.995614 0.791407
O O7 0.658531 0.943443 0.918722
O O8 0.240439 0.369945 0.046915
O O9 0.410736 0.301181 0.131212
O O10 0.296552 0.315112 0.899578
O O11 0.522438 0.364377 0.048279
O O12 0.314171 0.941272 0.358947
O O13 0.129562 0.258709 0.731678
O O14 0.000000 0.333133 0.750000
O O15 0.733489 0.424169 0.129096
O O16 0.500000 0.961653 0.250000
#
# Coordination Sequence:
#
# PCOD8137931 Si02
#       8
#     8   8   8   8   8   8   8   4
#     4  12  20  42  63  91 123 169 210 257 316 378
#     4  11  25  40  63  89 121 170 220 264 308 369
#     4  11  21  42  64  96 125 168 213 256 320 383
#     4  11  22  40  67  86 125 170 214 258 309 388
#     4  10  20  36  67  94 119 160 211 257 304 386
#     4  11  25  41  63  91 130 168 209 263 323 374
#     4  12  25  41  60  94 128 165 219 269 321 360
#     4  10  22  38  66  98 128 156 212 270 310 382
#
# _framework density 19.097234
#
# number of rings (size 3 to 8) (size 9 to 14) (size 15 to 20)
#    0.400    0.533    5.333    3.200    1.867    2.667 
#    4.800    0.667    0.000    1.600    0.000    0.000 
#    0.000    0.000    0.000    0.000    0.000    0.000 
#
# Total GULP energy -372070.151532 kJ/mol
# GULP energy per Si atom -12402.338384 kJ/mol
# Density = 1.905377 g / cm^3
# Si number density = 19.097234 Si / 1000 Ang^3
#
#
#
# Elastic Constant Matrix: (Units=GPa)
#
#
# Indices 1 2 3 4 5 6 
#
# 1 76.5297 16.7832 14.9532 0.0000 -3.0931 0.0000
# 2 16.7832 92.8086 39.2149 0.0000 2.6324 0.0000
# 3 14.9532 39.2149 88.0419 0.0000 3.3838 0.0000
# 4 0.0000 0.0000 0.0000 31.1646 0.0000 2.7493
# 5 -3.0931 2.6324 3.3838 0.0000 29.7535 0.0000
# 6 0.0000 0.0000 0.0000 2.7493 0.0000 17.3376
#
#
#
# Elastic Compliance Matrix: (Units=1/GPa)
#
#
# Indices 1 2 3 4 5 6 
#
# 1 0.013862 -0.001889 -0.001582 0.000000 0.001788 0.000000
# 2 -0.001889 0.013538 -0.005680 0.000000 -0.000748 0.000000
# 3 -0.001582 -0.005680 0.014206 0.000000 -0.001278 0.000000
# 4 0.000000 0.000000 0.000000 0.032543 0.000000 -0.005160
# 5 0.001788 -0.000748 -0.001278 0.000000 0.034007 0.000000
# 6 0.000000 0.000000 0.000000 -0.005160 0.000000 0.058496
#
#
# Mechanical properties :
#
#
# Convention : Reuss Voigt Hill
#
# Bulk Modulus (GPa) = 42.91122 44.36477 43.63800
# Shear Modulus (GPa) = 25.94399 28.07974 27.01187
#
# Velocity S-wave (km/s) = 3.68981 3.83868 3.76498
# Velocity P-wave (km/s) = 6.37743 6.55200 6.46530
#
# Compressibility (1/GPa) = 0.02330393
#
# Stress axis : x y z
#
# Youngs Moduli (GPa) = 72.13734 73.86704 70.39271
#
# Poissons Ratio (x) = 0.13955 0.11134
# Poissons Ratio (y) = 0.13629 0.39985
# Poissons Ratio (z) = 0.11410 0.41959
#
# Static dielectric constant tensor:
#      x y z
#    x 3.508540 0.000000 0.134250 
#    y 0.000000 3.466690 0.000000 
#    z 0.134250 0.000000 3.503840 
# 
# 
# High freq. dielectric constant tensor:
#      x y z
#    x 1.739360 0.000000 0.014130 
#    y 0.000000 1.738400 0.000000 
#    z 0.014130 0.000000 1.752900 
# 
# From -- ./inp_files/82640.got.cif
#   From: 2010.06.25/outbox.cif.g09.slc.cpg/sg15_42_cif.got.tgz:82640.got - 2010.06.28 07:06:18.
