data_PCOD8137936
_publ_section_title
;
Structure prediction by ZEFSAII (Michael W. Deem and Ramdas Pophale) SiO2 
 PCOD8137936
Probable space group: C 2/C
;
_chemical_formula_sum "Si O2"
_cell_formula_units_Z 44
_cell_length_a 17.532022
_cell_length_b 27.550374
_cell_length_c 8.980118
_cell_angle_alpha 90.000000
_cell_angle_beta 147.350584
_cell_angle_gamma 90.000000
_cell_volume 2340.080108
_symmetry_space_group_name_H-M "C 2/C"
_symmetry_group_IT_number 15
_symmetry_cell_setting 'monoclinic'
loop_
_space_group_symop_operation_xyz
x,y,z
-x,y,1/2-z
-x,-y,-z
x,-y,1/2+z
1/2+x,1/2+y,z
1/2-x,1/2+y,1/2-z
1/2-x,1/2-y,-z
1/2+x,1/2-y,1/2+z
loop_
_atom_site_type_symbol
_atom_site_label
_atom_site_fract_x
_atom_site_fract_y
_atom_site_fract_z
Si Si1 0.636399 0.822434 0.062593
Si Si2 0.500000 0.498997 0.250000
Si Si3 0.386369 0.434851 0.812814
Si Si4 0.834072 0.223323 0.267182
Si Si5 0.555617 0.654319 0.507889
Si Si6 0.853051 0.638766 0.586185
O O1 0.640380 0.763387 0.063538
O O2 0.775595 0.842221 0.208809
O O3 0.626515 0.841978 0.213511
O O4 0.500000 0.841463 0.750000
O O5 0.602817 0.466231 0.519764
O O6 0.599047 0.531806 0.308887
O O7 0.231499 0.411514 0.549785
O O8 0.508585 0.393688 0.019394
O O9 0.985429 0.202694 0.461876
O O10 0.750000 0.250000 0.000000
O O11 0.735386 0.178313 0.156707
O O12 0.500000 0.648854 0.250000
O O13 0.000000 0.628589 0.750000
#
# Coordination Sequence:
#
# PCOD8137936 Si02
#       6
#     8   4   8   8   8   8
#     4  11  23  35  55  87 116 159 202 244 280 327
#     4  10  20  36  68  88 112 132 202 248 286 358
#     4  10  20  39  61  92 109 152 188 243 294 349
#     4   9  19  32  54  78 107 159 198 228 272 331
#     4  11  18  37  61  78 118 154 195 233 286 345
#     4  10  21  38  58  79 120 155 191 233 298 348
#
# _framework density 18.802773999999999
#
# number of rings (size 3 to 8) (size 9 to 14) (size 15 to 20)
#    0.000    1.818    6.364    0.000    5.091    2.182 
#    6.545    0.909    0.000    4.364    0.000    0.000 
#    0.000    0.000    0.000    0.000    0.000    0.000 
#
# Total GULP energy -272752.417505 kJ/mol
# GULP energy per Si atom -12397.837159 kJ/mol
# Density = 1.875998 g / cm^3
# Si number density = 18.802774 Si / 1000 Ang^3
#
#
#
# Elastic Constant Matrix: (Units=GPa)
#
#
# Indices 1 2 3 4 5 6 
#
# 1 110.4661 58.3292 60.9227 0.0000 28.5704 0.0000
# 2 58.3292 113.5036 50.0007 0.0000 9.5917 0.0000
# 3 60.9227 50.0007 118.2166 0.0000 30.0833 0.0000
# 4 0.0000 0.0000 0.0000 19.4878 0.0000 4.9763
# 5 28.5704 9.5917 30.0833 0.0000 37.1986 0.0000
# 6 0.0000 0.0000 0.0000 4.9763 0.0000 20.2563
#
#
#
# Elastic Compliance Matrix: (Units=1/GPa)
#
#
# Indices 1 2 3 4 5 6 
#
# 1 0.016456 -0.006071 -0.003897 0.000000 -0.007922 0.000000
# 2 -0.006071 0.013106 -0.003452 0.000000 0.004075 0.000000
# 3 -0.003897 -0.003452 0.013774 0.000000 -0.007256 0.000000
# 4 0.000000 0.000000 0.000000 0.054749 0.000000 -0.013450
# 5 -0.007922 0.004075 -0.007256 0.000000 0.037785 0.000000
# 6 0.000000 0.000000 0.000000 -0.013450 0.000000 0.052672
#
#
# Mechanical properties :
#
#
# Convention : Reuss Voigt Hill
#
# Bulk Modulus (GPa) = 60.61570 75.63241 68.12405
# Shear Modulus (GPa) = 22.63678 26.91745 24.77712
#
# Velocity S-wave (km/s) = 3.47350 3.78771 3.63400
# Velocity P-wave (km/s) = 6.95662 7.70976 7.34285
#
# Compressibility (1/GPa) = 0.01649738
#
# Stress axis : x y z
#
# Youngs Moduli (GPa) = 60.76734 76.29965 72.60139
#
# Poissons Ratio (x) = 0.46318 0.28293
# Poissons Ratio (y) = 0.36889 0.25061
# Poissons Ratio (z) = 0.23681 0.26337
#
# Static dielectric constant tensor:
#      x y z
#    x 3.427750 0.000000 0.068480 
#    y 0.000000 3.786670 0.000000 
#    z 0.068480 0.000000 3.269580 
# 
# 
# High freq. dielectric constant tensor:
#      x y z
#    x 1.721180 0.000000 0.008360 
#    y 0.000000 1.734350 0.000000 
#    z 0.008360 0.000000 1.714290 
# 
# From -- ./inp_files/52701.got.cif
#   From: 2010.06.25/outbox.cif.g09.slc.cpg/sg15_27_cif.got.tgz:52701.got - 2010.06.28 07:06:18.
