data_PCOD8137133
_publ_section_title
;
Structure prediction by ZEFSAII (Michael W. Deem and Ramdas Pophale) SiO2 
 PCOD8137133
Probable space group: C 2/C
;
_chemical_formula_sum "Si O2"
_cell_formula_units_Z 64
_cell_length_a 17.531593
_cell_length_b 11.277073
_cell_length_c 31.674392
_cell_angle_alpha 90.000000
_cell_angle_beta 149.892804
_cell_angle_gamma 90.000000
_cell_volume 3141.234621
_symmetry_space_group_name_H-M "C 2/C"
_symmetry_group_IT_number 15
_symmetry_cell_setting 'monoclinic'
loop_
_space_group_symop_operation_xyz
x,y,z
-x,y,1/2-z
-x,-y,-z
x,-y,1/2+z
1/2+x,1/2+y,z
1/2-x,1/2+y,1/2-z
1/2-x,1/2-y,-z
1/2+x,1/2-y,1/2+z
loop_
_atom_site_type_symbol
_atom_site_label
_atom_site_fract_x
_atom_site_fract_y
_atom_site_fract_z
Si Si1 0.052188 0.057981 0.083188
Si Si2 0.062979 0.737774 0.025046
Si Si3 0.862382 0.394396 0.019024
Si Si4 0.397284 0.313657 0.018738
Si Si5 0.969848 0.181376 0.125586
Si Si6 0.126606 0.734711 0.778709
Si Si7 0.606750 0.042849 0.263082
Si Si8 0.580632 0.126033 0.402639
O O1 0.220338 0.082315 0.145459
O O2 0.041909 0.091562 0.127005
O O3 0.011163 0.920182 0.061143
O O4 0.935317 0.137819 0.000200
O O5 0.060142 0.630682 0.989636
O O6 0.210280 0.733322 0.125009
O O7 0.917304 0.728125 0.987045
O O8 0.682417 0.374805 0.927578
O O9 0.930916 0.308661 0.087253
O O10 0.895562 0.527094 0.050032
O O11 0.449333 0.248576 0.086801
O O12 0.228230 0.363069 0.943243
O O13 0.100889 0.194665 0.223094
O O14 0.098894 0.597552 0.755632
O O15 0.000000 0.781131 0.750000
O O16 0.500000 0.089424 0.250000
O O17 0.557452 0.098960 0.194714
#
# Coordination Sequence:
#
# PCOD8137133 Si02
#       8
#     8   8   8   8   8   8   8   8
#     4  11  23  39  65  91 122 163 204 262 313 367
#     4  11  23  38  64  95 124 156 209 264 314 369
#     4  10  20  38  62  90 121 162 200 257 320 361
#     4  11  24  40  62  88 126 169 209 247 311 388
#     4  10  20  35  61  91 123 151 203 258 311 368
#     4  11  21  33  58  97 121 151 195 264 317 353
#     4  11  24  37  63  92 123 156 208 264 312 363
#     4  11  24  43  62  86 130 173 206 250 309 392
#
# _framework density 20.374154999999998
#
# number of rings (size 3 to 8) (size 9 to 14) (size 15 to 20)
#    0.000    1.250    5.000    1.125    5.250    0.500 
#    0.000    0.000    0.000    2.250    0.000    0.000 
#    0.000    0.000    0.000    0.000    0.000    0.000 
#
# Total GULP energy -396803.612868 kJ/mol
# GULP energy per Si atom -12400.112902 kJ/mol
# Density = 2.032778 g / cm^3
# Si number density = 20.374155 Si / 1000 Ang^3
#
#
#
# Elastic Constant Matrix: (Units=GPa)
#
#
# Indices 1 2 3 4 5 6 
#
# 1 124.5627 16.8785 27.5924 0.0000 -0.3495 0.0000
# 2 16.8785 31.6490 14.6218 0.0000 -2.2815 0.0000
# 3 27.5924 14.6218 108.8446 0.0000 -13.4904 0.0000
# 4 0.0000 0.0000 0.0000 22.9531 0.0000 -6.9875
# 5 -0.3495 -2.2815 -13.4904 0.0000 33.7995 0.0000
# 6 0.0000 0.0000 0.0000 -6.9875 0.0000 21.9173
#
#
#
# Elastic Compliance Matrix: (Units=1/GPa)
#
#
# Indices 1 2 3 4 5 6 
#
# 1 0.008978 -0.003998 -0.001852 0.000000 -0.000916 0.000000
# 2 -0.003998 0.035476 -0.003641 0.000000 0.000900 0.000000
# 3 -0.001852 -0.003641 0.010640 0.000000 0.003982 0.000000
# 4 0.000000 0.000000 0.000000 0.048250 0.000000 0.015383
# 5 -0.000916 0.000900 0.003982 0.000000 0.031227 0.000000
# 6 0.000000 0.000000 0.000000 0.015383 0.000000 0.050530
#
#
# Mechanical properties :
#
#
# Convention : Reuss Voigt Hill
#
# Bulk Modulus (GPa) = 27.69252 42.58240 35.13746
# Shear Modulus (GPa) = 23.13545 29.46490 26.30018
#
# Velocity S-wave (km/s) = 3.37342 3.80701 3.59675
# Velocity P-wave (km/s) = 5.36607 6.34586 5.87642
#
# Compressibility (1/GPa) = 0.03611083
#
# Stress axis : x y z
#
# Youngs Moduli (GPa) = 111.38871 28.18836 93.98906
#
# Poissons Ratio (x) = 0.11270 0.17410
# Poissons Ratio (y) = 0.44534 0.34218
# Poissons Ratio (z) = 0.20633 0.10262
#
# Static dielectric constant tensor:
#      x y z
#    x 3.965290 0.000000 -0.048580 
#    y 0.000000 3.452970 0.000000 
#    z -0.048580 0.000000 3.535380 
# 
# 
# High freq. dielectric constant tensor:
#      x y z
#    x 1.814670 0.000000 -0.008750 
#    y 0.000000 1.770540 0.000000 
#    z -0.008750 0.000000 1.788050 
# 
# From -- ./inp_files/316217.got.cif
#   From: 2010.06.25/outbox.cif.g09.slc.cpg/sg15_159_cif.got.tgz:316217.got - 2010.06.28 07:06:18.
