data_PCOD8137167
_publ_section_title
;
Structure prediction by ZEFSAII (Michael W. Deem and Ramdas Pophale) SiO2 
 PCOD8137167
Probable space group: C 2/C
;
_chemical_formula_sum "Si O2"
_cell_formula_units_Z 40
_cell_length_a 8.678019
_cell_length_b 11.367837
_cell_length_c 17.309918
_cell_angle_alpha 90.000000
_cell_angle_beta 96.586428
_cell_angle_gamma 90.000000
_cell_volume 1696.358287
_symmetry_space_group_name_H-M "C 2/C"
_symmetry_group_IT_number 15
_symmetry_cell_setting 'monoclinic'
loop_
_space_group_symop_operation_xyz
x,y,z
-x,y,1/2-z
-x,-y,-z
x,-y,1/2+z
1/2+x,1/2+y,z
1/2-x,1/2+y,1/2-z
1/2-x,1/2-y,-z
1/2+x,1/2-y,1/2+z
loop_
_atom_site_type_symbol
_atom_site_label
_atom_site_fract_x
_atom_site_fract_y
_atom_site_fract_z
Si Si1 0.086998 0.651047 0.123164
Si Si2 0.619171 0.400857 0.105979
Si Si3 0.974991 0.413729 0.164865
Si Si4 0.643664 0.854460 0.025066
Si Si5 0.132950 0.069665 0.435479
O O1 0.053762 0.785522 0.149079
O O2 0.273213 0.657001 0.115286
O O3 0.048679 0.545870 0.179557
O O4 0.993914 0.615825 0.041058
O O5 0.794901 0.429601 0.135433
O O6 0.516941 0.516979 0.118259
O O7 0.587951 0.366522 0.013378
O O8 0.000000 0.352921 0.250000
O O9 0.065365 0.334904 0.105688
O O10 0.753577 0.965294 0.034658
O O11 0.750000 0.750000 0.000000
#
# Coordination Sequence:
#
# PCOD8137167 Si02
#       5
#     8   8   8   8   8
#     4  11  21  41  63  92 124 169 222 262 321 393
#     4  11  21  37  64  96 126 165 217 270 323 384
#     4  11  25  45  60  92 142 170 211 280 336 390
#     4  11  20  40  69  98 125 171 226 269 323 393
#     4  10  20  35  63 100 124 156 221 278 309 374
#
# _framework density 23.579923999999998
#
# number of rings (size 3 to 8) (size 9 to 14) (size 15 to 20)
#    0.000    1.200    6.000    1.800    0.000    0.000 
#    3.600    4.000    0.000    0.000    0.000    0.000 
#    0.000    0.000    0.000    0.000    0.000    0.000 
#
# Total GULP energy -247842.470990 kJ/mol
# GULP energy per Si atom -12392.123549 kJ/mol
# Density = 2.352625 g / cm^3
# Si number density = 23.579924 Si / 1000 Ang^3
#
#
#
# Elastic Constant Matrix: (Units=GPa)
#
#
# Indices 1 2 3 4 5 6 
#
# 1 130.8445 12.5094 34.0105 0.0000 12.2207 0.0000
# 2 12.5094 37.9600 -1.3643 0.0000 -0.9268 0.0000
# 3 34.0105 -1.3643 87.9937 0.0000 -10.3193 0.0000
# 4 0.0000 0.0000 0.0000 16.7864 0.0000 -2.3765
# 5 12.2207 -0.9268 -10.3193 0.0000 21.0472 0.0000
# 6 0.0000 0.0000 0.0000 -2.3765 0.0000 24.0390
#
#
#
# Elastic Compliance Matrix: (Units=1/GPa)
#
#
# Indices 1 2 3 4 5 6 
#
# 1 0.010067 -0.003701 -0.004937 0.000000 -0.008429 0.000000
# 2 -0.003701 0.027760 0.002394 0.000000 0.004545 0.000000
# 3 -0.004937 0.002394 0.014491 0.000000 0.010077 0.000000
# 4 0.000000 0.000000 0.000000 0.060418 0.000000 0.005973
# 5 -0.008429 0.004545 0.010077 0.000000 0.057547 0.000000
# 6 0.000000 0.000000 0.000000 0.005973 0.000000 0.042189
#
#
# Mechanical properties :
#
#
# Convention : Reuss Voigt Hill
#
# Bulk Modulus (GPa) = 25.10613 38.56772 31.83693
# Shear Modulus (GPa) = 20.98750 26.48402 23.73576
#
# Velocity S-wave (km/s) = 2.98662 3.35499 3.17615
# Velocity P-wave (km/s) = 4.75011 5.60354 5.19438
#
# Compressibility (1/GPa) = 0.03983091
#
# Stress axis : x y z
#
# Youngs Moduli (GPa) = 99.33526 36.02302 69.00617
#
# Poissons Ratio (x) = 0.13331 0.34067
# Poissons Ratio (y) = 0.36761 -0.16518
# Poissons Ratio (z) = 0.49040 -0.08623
#
# Static dielectric constant tensor:
#      x y z
#    x 4.990570 0.000000 -0.146110 
#    y 0.000000 4.430490 0.000000 
#    z -0.146110 0.000000 3.848480 
# 
# 
# High freq. dielectric constant tensor:
#      x y z
#    x 1.955410 0.000000 0.005740 
#    y 0.000000 1.940010 0.000000 
#    z 0.005740 0.000000 1.873310 
# 
# From -- ./inp_files/187773.got.cif
#   From: 2010.06.25/outbox.cif.g09.slc.cpg/sg15_94_cif.got.tgz:187773.got - 2010.06.28 07:06:18.
