data_PCOD8137406
_publ_section_title
;
Structure prediction by ZEFSAII (Michael W. Deem and Ramdas Pophale) SiO2 
 PCOD8137406
Probable space group: C 2/C
;
_chemical_formula_sum "Si O2"
_cell_formula_units_Z 24
_cell_length_a 24.614904
_cell_length_b 8.319507
_cell_length_c 10.387255
_cell_angle_alpha 90.000000
_cell_angle_beta 33.765376
_cell_angle_gamma 90.000000
_cell_volume 1182.251505
_symmetry_space_group_name_H-M "C 2/C"
_symmetry_group_IT_number 15
_symmetry_cell_setting 'monoclinic'
loop_
_space_group_symop_operation_xyz
x,y,z
-x,y,1/2-z
-x,-y,-z
x,-y,1/2+z
1/2+x,1/2+y,z
1/2-x,1/2+y,1/2-z
1/2-x,1/2-y,-z
1/2+x,1/2-y,1/2+z
loop_
_atom_site_type_symbol
_atom_site_label
_atom_site_fract_x
_atom_site_fract_y
_atom_site_fract_z
Si Si1 0.774245 0.941990 0.580465
Si Si2 0.664178 0.365127 0.307291
Si Si3 0.057589 0.555261 0.510725
O O1 0.761194 0.749216 0.627147
O O2 0.827397 0.972179 0.338872
O O3 0.841346 0.017073 0.559719
O O4 0.666073 0.023703 0.794662
O O5 0.568362 0.250685 0.491093
O O6 0.000000 0.496133 0.750000
O O7 0.000000 0.500000 0.500000
#
# Coordination Sequence:
#
# PCOD8137406 Si02
#       3
#     8   8   8
#     4   9  19  37  58  82 108 149 185 218 267 336
#     4   9  20  35  61  80 109 147 188 215 271 330
#     4  10  20  36  58  83 109 143 182 228 279 316
#
# _framework density 20.300248
#
# number of rings (size 3 to 8) (size 9 to 14) (size 15 to 20)
#    2.000    0.667    0.000    2.000    0.000    1.333 
#    0.000    1.667    0.000    0.000    0.000    0.000 
#    0.000    0.000    0.000    0.000    0.000    0.000 
#
# Total GULP energy -148660.854010 kJ/mol
# GULP energy per Si atom -12388.404501 kJ/mol
# Density = 2.025404 g / cm^3
# Si number density = 20.300248 Si / 1000 Ang^3
#
#
#
# Elastic Constant Matrix: (Units=GPa)
#
#
# Indices 1 2 3 4 5 6 
#
# 1 94.3107 43.9105 71.0512 0.0000 48.9328 0.0000
# 2 43.9105 55.6922 25.7790 0.0000 27.5286 0.0000
# 3 71.0512 25.7790 89.6963 0.0000 37.4436 0.0000
# 4 0.0000 0.0000 0.0000 17.4570 0.0000 12.2410
# 5 48.9328 27.5286 37.4436 0.0000 46.0990 0.0000
# 6 0.0000 0.0000 0.0000 12.2410 0.0000 45.8116
#
#
#
# Elastic Compliance Matrix: (Units=1/GPa)
#
#
# Indices 1 2 3 4 5 6 
#
# 1 0.046323 -0.015281 -0.023581 0.000000 -0.020892 0.000000
# 2 -0.015281 0.030646 0.006302 0.000000 -0.007199 0.000000
# 3 -0.023581 0.006302 0.028957 0.000000 -0.002253 0.000000
# 4 0.000000 0.000000 0.000000 0.070491 0.000000 -0.018835
# 5 -0.020892 -0.007199 -0.002253 0.000000 0.049998 0.000000
# 6 0.000000 0.000000 0.000000 -0.018835 0.000000 0.026861
#
#
# Mechanical properties :
#
#
# Convention : Reuss Voigt Hill
#
# Bulk Modulus (GPa) = 24.50623 57.90896 41.20759
# Shear Modulus (GPa) = 15.06037 28.47074 21.76555
#
# Velocity S-wave (km/s) = 2.72670 3.74904 3.27797
# Velocity P-wave (km/s) = 4.69162 6.87957 5.88812
#
# Compressibility (1/GPa) = 0.04080595
#
# Stress axis : x y z
#
# Youngs Moduli (GPa) = 21.58761 32.63122 34.53380
#
# Poissons Ratio (x) = 0.49865 0.81433
# Poissons Ratio (y) = 0.32989 -0.21764
# Poissons Ratio (z) = 0.50905 -0.20565
#
# Static dielectric constant tensor:
#      x y z
#    x 3.346650 0.000000 0.392780 
#    y 0.000000 3.256310 0.000000 
#    z 0.392780 0.000000 4.856840 
# 
# 
# High freq. dielectric constant tensor:
#      x y z
#    x 1.771020 0.000000 0.023280 
#    y 0.000000 1.754330 0.000000 
#    z 0.023280 0.000000 1.795500 
# 
# From -- ./inp_files/27009.got.cif
#   From: 2010.06.25/outbox.cif.g09.slc.cpg/sg15_14_cif.got.tgz:27009.got - 2010.06.28 07:06:18.
