data_PCOD8137753
_publ_section_title
;
Structure prediction by ZEFSAII (Michael W. Deem and Ramdas Pophale) SiO2 
 PCOD8137753
Probable space group: C 2/C
;
_chemical_formula_sum "Si O2"
_cell_formula_units_Z 64
_cell_length_a 17.273982
_cell_length_b 8.872973
_cell_length_c 27.537134
_cell_angle_alpha 90.000000
_cell_angle_beta 135.462870
_cell_angle_gamma 90.000000
_cell_volume 2960.249874
_symmetry_space_group_name_H-M "C 2/C"
_symmetry_group_IT_number 15
_symmetry_cell_setting 'monoclinic'
loop_
_space_group_symop_operation_xyz
x,y,z
-x,y,1/2-z
-x,-y,-z
x,-y,1/2+z
1/2+x,1/2+y,z
1/2-x,1/2+y,1/2-z
1/2-x,1/2-y,-z
1/2+x,1/2-y,1/2+z
loop_
_atom_site_type_symbol
_atom_site_label
_atom_site_fract_x
_atom_site_fract_y
_atom_site_fract_z
Si Si1 0.684760 0.176115 0.038882
Si Si2 0.743030 0.157729 0.676576
Si Si3 0.903492 0.616347 0.976690
Si Si4 0.428416 0.171446 0.309374
Si Si5 0.782222 0.314566 0.838422
Si Si6 0.597687 0.653883 0.416566
Si Si7 0.876863 0.197247 0.554523
Si Si8 0.099403 0.327615 0.205947
O O1 0.662854 0.223773 0.085117
O O2 0.803801 0.221660 0.071967
O O3 0.677864 0.995518 0.030478
O O4 0.590743 0.255726 0.964515
O O5 0.666632 0.201836 0.596342
O O6 0.857323 0.253209 0.733524
O O7 0.670970 0.195704 0.690432
O O8 0.770431 0.981438 0.685255
O O9 0.935710 0.742287 0.030880
O O10 0.000000 0.500000 0.000000
O O11 0.370450 0.203180 0.335139
O O12 0.551890 0.239575 0.367981
O O13 0.447590 0.994729 0.308914
O O14 0.679415 0.201733 0.787171
O O15 0.610370 0.481261 0.436676
O O16 0.491682 0.696081 0.337261
O O17 0.750000 0.250000 0.500000
#
# Coordination Sequence:
#
# PCOD8137753 Si02
#       8
#     8   8   8   8   8   8   8   8
#     4  10  21  38  58  85 120 163 204 253 313 375
#     4   9  19  37  62  92 121 159 208 258 307 372
#     4  11  21  41  68  93 126 167 213 261 322 381
#     4  10  21  38  62  89 123 162 208 261 318 374
#     4   9  19  38  62  87 116 155 207 252 308 374
#     4  11  23  37  58  85 124 162 205 258 315 385
#     4  12  24  40  61  91 122 167 213 261 320 386
#     4  10  20  36  62  90 122 162 200 256 318 372
#
# _framework density 21.619795
#
# number of rings (size 3 to 8) (size 9 to 14) (size 15 to 20)
#    0.000    1.750    1.250    4.500    1.750    2.500 
#    0.000    5.000    2.750    0.000    0.000    0.000 
#    0.000    0.000    0.000    0.000    0.000    0.000 
#
# Total GULP energy -396502.816389 kJ/mol
# GULP energy per Si atom -12390.713012 kJ/mol
# Density = 2.157059 g / cm^3
# Si number density = 21.619795 Si / 1000 Ang^3
#
#
#
# Elastic Constant Matrix: (Units=GPa)
#
#
# Indices 1 2 3 4 5 6 
#
# 1 41.0527 13.5800 13.2132 0.0000 -2.5464 0.0000
# 2 13.5800 64.3437 34.7155 0.0000 4.6166 0.0000
# 3 13.2132 34.7155 119.3798 0.0000 10.5532 0.0000
# 4 0.0000 0.0000 0.0000 47.8085 0.0000 -2.6522
# 5 -2.5464 4.6166 10.5532 0.0000 27.5743 0.0000
# 6 0.0000 0.0000 0.0000 -2.6522 0.0000 23.9767
#
#
#
# Elastic Compliance Matrix: (Units=1/GPa)
#
#
# Indices 1 2 3 4 5 6 
#
# 1 0.026851 -0.004935 -0.001893 0.000000 0.004030 0.000000
# 2 -0.004935 0.019371 -0.004927 0.000000 -0.001813 0.000000
# 3 -0.001893 -0.004927 0.010310 0.000000 -0.003296 0.000000
# 4 0.000000 0.000000 0.000000 0.021046 0.000000 0.002328
# 5 0.004030 -0.001813 -0.003296 0.000000 0.038203 0.000000
# 6 0.000000 0.000000 0.000000 0.002328 0.000000 0.041965
#
#
# Mechanical properties :
#
#
# Convention : Reuss Voigt Hill
#
# Bulk Modulus (GPa) = 30.28188 38.64374 34.46281
# Shear Modulus (GPa) = 26.00614 30.75638 28.38126
#
# Velocity S-wave (km/s) = 3.47203 3.77583 3.62711
# Velocity P-wave (km/s) = 5.48728 6.07637 5.78932
#
# Compressibility (1/GPa) = 0.03302304
#
# Stress axis : x y z
#
# Youngs Moduli (GPa) = 37.24306 51.62296 96.99155
#
# Poissons Ratio (x) = 0.25474 0.18362
# Poissons Ratio (y) = 0.18378 0.47784
# Poissons Ratio (z) = 0.07051 0.25433
#
# Static dielectric constant tensor:
#      x y z
#    x 3.721370 0.000000 -0.010130 
#    y 0.000000 3.935660 0.000000 
#    z -0.010130 0.000000 4.257510 
# 
# 
# High freq. dielectric constant tensor:
#      x y z
#    x 1.825270 0.000000 0.004760 
#    y 0.000000 1.839190 0.000000 
#    z 0.004760 0.000000 1.867370 
# 
# From -- ./inp_files/315762.got.cif
#   From: 2010.06.25/outbox.cif.g09.slc.cpg/sg15_158_cif.got.tgz:315762.got - 2010.06.28 07:06:18.
