data_PCOD8137222
_publ_section_title
;
Structure prediction by ZEFSAII (Michael W. Deem and Ramdas Pophale) SiO2 
 PCOD8137222
Probable space group: C 2/C
;
_chemical_formula_sum "Si O2"
_cell_formula_units_Z 36
_cell_length_a 28.381956
_cell_length_b 14.944388
_cell_length_c 9.022471
_cell_angle_alpha 90.000000
_cell_angle_beta 30.006866
_cell_angle_gamma 90.000000
_cell_volume 1913.842019
_symmetry_space_group_name_H-M "C 2/C"
_symmetry_group_IT_number 15
_symmetry_cell_setting 'monoclinic'
loop_
_space_group_symop_operation_xyz
x,y,z
-x,y,1/2-z
-x,-y,-z
x,-y,1/2+z
1/2+x,1/2+y,z
1/2-x,1/2+y,1/2-z
1/2-x,1/2-y,-z
1/2+x,1/2-y,1/2+z
loop_
_atom_site_type_symbol
_atom_site_label
_atom_site_fract_x
_atom_site_fract_y
_atom_site_fract_z
Si Si1 0.799939 0.769833 0.210189
Si Si2 0.000000 0.715414 0.750000
Si Si3 0.694836 0.892790 0.001072
Si Si4 0.013809 0.603207 0.438428
Si Si5 0.205439 0.576760 0.798659
O O1 0.750000 0.750000 0.500000
O O2 0.762452 0.694096 0.196588
O O3 0.773260 0.866615 0.219829
O O4 0.913564 0.773328 0.920873
O O5 0.046407 0.651558 0.500168
O O6 0.704074 0.975091 0.861374
O O7 0.588230 0.862172 0.332478
O O8 0.743719 0.917713 0.024890
O O9 0.000000 0.500000 0.500000
O O10 0.098731 0.616991 0.090855
#
# Coordination Sequence:
#
# PCOD8137222 Si02
#       5
#     8   4   8   8   8
#     4  11  21  37  58  80 115 149 186 229 277 334
#     4  10  20  36  50  86 108 150 186 226 276 336
#     4  10  22  33  55  85 113 143 188 229 277 335
#     4   9  19  28  53  80 116 137 177 223 286 333
#     4  11  20  35  55  82 114 149 181 228 285 331
#
# _framework density 18.810331000000001
#
# number of rings (size 3 to 8) (size 9 to 14) (size 15 to 20)
#    0.000    1.778    2.222    2.667   15.556    0.000 
#    0.000    0.000    0.000    5.333    0.000    0.000 
#    0.000    0.000    0.000    0.000    0.000    0.000 
#
# Total GULP energy -223024.401453 kJ/mol
# GULP energy per Si atom -12390.244525 kJ/mol
# Density = 1.876752 g / cm^3
# Si number density = 18.810331 Si / 1000 Ang^3
#
#
#
# Elastic Constant Matrix: (Units=GPa)
#
#
# Indices 1 2 3 4 5 6 
#
# 1 86.8879 18.5935 23.7300 0.0000 14.6318 0.0000
# 2 18.5935 59.1546 21.2225 0.0000 -6.9791 0.0000
# 3 23.7300 21.2225 58.9934 0.0000 5.6110 0.0000
# 4 0.0000 0.0000 0.0000 25.4398 0.0000 2.1078
# 5 14.6318 -6.9791 5.6110 0.0000 35.1080 0.0000
# 6 0.0000 0.0000 0.0000 2.1078 0.0000 36.1543
#
#
#
# Elastic Compliance Matrix: (Units=1/GPa)
#
#
# Indices 1 2 3 4 5 6 
#
# 1 0.014424 -0.003894 -0.003814 0.000000 -0.006176 0.000000
# 2 -0.003894 0.021385 -0.006789 0.000000 0.006959 0.000000
# 3 -0.003814 -0.006789 0.021227 0.000000 -0.003153 0.000000
# 4 0.000000 0.000000 0.000000 0.039499 0.000000 -0.002303
# 5 -0.006176 0.006959 -0.003153 0.000000 0.032945 0.000000
# 6 0.000000 0.000000 0.000000 -0.002303 0.000000 0.027793
#
#
# Mechanical properties :
#
#
# Convention : Reuss Voigt Hill
#
# Bulk Modulus (GPa) = 35.65907 36.90309 36.28108
# Shear Modulus (GPa) = 25.56037 28.77309 27.16673
#
# Velocity S-wave (km/s) = 3.69025 3.91531 3.80445
# Velocity P-wave (km/s) = 6.09554 6.33251 6.21515
#
# Compressibility (1/GPa) = 0.02804336
#
# Stress axis : x y z
#
# Youngs Moduli (GPa) = 69.32884 46.76069 47.10948
#
# Poissons Ratio (x) = 0.18210 0.17966
# Poissons Ratio (y) = 0.26998 0.31981
# Poissons Ratio (z) = 0.26440 0.31745
#
# Static dielectric constant tensor:
#      x y z
#    x 3.504710 0.000000 0.042740 
#    y 0.000000 3.273200 0.000000 
#    z 0.042740 0.000000 3.874560 
# 
# 
# High freq. dielectric constant tensor:
#      x y z
#    x 1.737250 0.000000 0.019100 
#    y 0.000000 1.710780 0.000000 
#    z 0.019100 0.000000 1.713950 
# 
# From -- ./inp_files/37416.got.cif
#   From: 2010.06.25/outbox.cif.g09.slc.cpg/sg15_19_cif.got.tgz:37416.got - 2010.06.28 07:06:18.
