data_PCOD8137582
_publ_section_title
;
Structure prediction by ZEFSAII (Michael W. Deem and Ramdas Pophale) SiO2 
 PCOD8137582
Probable space group: C 2/C
;
_chemical_formula_sum "Si O2"
_cell_formula_units_Z 64
_cell_length_a 17.621810
_cell_length_b 10.865605
_cell_length_c 21.369083
_cell_angle_alpha 90.000000
_cell_angle_beta 127.529666
_cell_angle_gamma 90.000000
_cell_volume 3244.773084
_symmetry_space_group_name_H-M "C 2/C"
_symmetry_group_IT_number 15
_symmetry_cell_setting 'monoclinic'
loop_
_space_group_symop_operation_xyz
x,y,z
-x,y,1/2-z
-x,-y,-z
x,-y,1/2+z
1/2+x,1/2+y,z
1/2-x,1/2+y,1/2-z
1/2-x,1/2-y,-z
1/2+x,1/2-y,1/2+z
loop_
_atom_site_type_symbol
_atom_site_label
_atom_site_fract_x
_atom_site_fract_y
_atom_site_fract_z
Si Si1 0.134805 0.829371 0.478143
Si Si2 0.997673 0.873973 0.816110
Si Si3 0.340319 0.190374 0.716797
Si Si4 0.743632 0.105185 0.571053
Si Si5 0.712453 0.336872 0.926991
Si Si6 0.426197 0.419783 0.365672
Si Si7 0.777556 0.785174 0.219843
Si Si8 0.236082 0.965878 0.636144
O O1 0.160653 0.850551 0.418372
O O2 0.151599 0.685743 0.503445
O O3 0.209972 0.912090 0.555399
O O4 0.027017 0.867640 0.441307
O O5 0.948528 0.739486 0.780094
O O6 0.000000 0.942945 0.750000
O O7 0.104277 0.861372 0.895354
O O8 0.936696 0.952927 0.833641
O O9 0.283927 0.280510 0.640837
O O10 0.297007 0.181502 0.763894
O O11 0.329631 0.054622 0.680096
O O12 0.760072 0.124418 0.652727
O O13 0.725585 0.962000 0.546515
O O14 0.750000 0.250000 0.000000
O O15 0.383327 0.313498 0.299512
O O16 0.354678 0.452733 0.386236
O O17 0.765125 0.642903 0.197414
#
# Coordination Sequence:
#
# PCOD8137582 Si02
#       8
#     8   8   8   8   8   8   8   8
#     4  10  21  37  58  90 117 156 197 250 297 362
#     4  10  20  36  60  86 113 149 205 249 286 358
#     4  10  21  36  59  87 117 153 199 242 299 356
#     4  10  21  38  60  83 121 152 199 244 304 349
#     4  11  22  39  64  86 117 158 199 245 307 363
#     4  11  20  35  63  88 115 153 206 245 296 358
#     4  10  21  36  58  88 114 159 191 252 294 349
#     4  10  21  38  59  82 126 155 196 241 308 357
#
# _framework density 19.724029000000002
#
# number of rings (size 3 to 8) (size 9 to 14) (size 15 to 20)
#    0.000    1.750    2.500    2.625    1.750    0.000 
#    2.250    0.000    5.500    3.750    0.000    0.000 
#    0.000    0.000    0.000    0.000    0.000    0.000 
#
# Total GULP energy -396624.043859 kJ/mol
# GULP energy per Si atom -12394.501371 kJ/mol
# Density = 1.967914 g / cm^3
# Si number density = 19.724029 Si / 1000 Ang^3
#
#
#
# Elastic Constant Matrix: (Units=GPa)
#
#
# Indices 1 2 3 4 5 6 
#
# 1 61.6001 27.4401 25.8703 0.0000 -3.8686 0.0000
# 2 27.4401 132.2677 43.3549 0.0000 9.4440 0.0000
# 3 25.8703 43.3549 85.2073 0.0000 -4.3786 0.0000
# 4 0.0000 0.0000 0.0000 32.3907 0.0000 0.4611
# 5 -3.8686 9.4440 -4.3786 0.0000 35.4523 0.0000
# 6 0.0000 0.0000 0.0000 0.4611 0.0000 30.5611
#
#
#
# Elastic Compliance Matrix: (Units=1/GPa)
#
#
# Indices 1 2 3 4 5 6 
#
# 1 0.019450 -0.002765 -0.004379 0.000000 0.002318 0.000000
# 2 -0.002765 0.009797 -0.004322 0.000000 -0.003445 0.000000
# 3 -0.004379 -0.004322 0.015397 0.000000 0.002575 0.000000
# 4 0.000000 0.000000 0.000000 0.030880 0.000000 -0.000466
# 5 0.002318 -0.003445 0.002575 0.000000 0.029696 0.000000
# 6 0.000000 0.000000 0.000000 -0.000466 0.000000 0.032728
#
#
# Mechanical properties :
#
#
# Convention : Reuss Voigt Hill
#
# Bulk Modulus (GPa) = 46.05992 52.48952 49.27472
# Shear Modulus (GPa) = 29.74087 31.84147 30.79117
#
# Velocity S-wave (km/s) = 3.88732 4.02226 3.95536
# Velocity P-wave (km/s) = 6.59933 6.94558 6.77467
#
# Compressibility (1/GPa) = 0.02171085
#
# Stress axis : x y z
#
# Youngs Moduli (GPa) = 51.41310 102.07357 64.94643
#
# Poissons Ratio (x) = 0.28225 0.28442
# Poissons Ratio (y) = 0.14217 0.28072
# Poissons Ratio (z) = 0.22515 0.44119
#
# Static dielectric constant tensor:
#      x y z
#    x 3.565560 0.000000 -0.037010 
#    y 0.000000 3.803420 0.000000 
#    z -0.037010 0.000000 3.660400 
# 
# 
# High freq. dielectric constant tensor:
#      x y z
#    x 1.753190 0.000000 -0.017240 
#    y 0.000000 1.770420 0.000000 
#    z -0.017240 0.000000 1.771530 
# 
# From -- ./inp_files/248392.got.cif
#   From: 2010.06.25/outbox.cif.g09.slc.cpg/sg15_125_cif.got.tgz:248392.got - 2010.06.28 07:06:18.
