data_PCOD8137261
_publ_section_title
;
Structure prediction by ZEFSAII (Michael W. Deem and Ramdas Pophale) SiO2 
 PCOD8137261
Probable space group: C 2/C
;
_chemical_formula_sum "Si O2"
_cell_formula_units_Z 60
_cell_length_a 14.997085
_cell_length_b 12.955957
_cell_length_c 19.498454
_cell_angle_alpha 90.000000
_cell_angle_beta 47.627166
_cell_angle_gamma 90.000000
_cell_volume 2798.908502
_symmetry_space_group_name_H-M "C 2/C"
_symmetry_group_IT_number 15
_symmetry_cell_setting 'monoclinic'
loop_
_space_group_symop_operation_xyz
x,y,z
-x,y,1/2-z
-x,-y,-z
x,-y,1/2+z
1/2+x,1/2+y,z
1/2-x,1/2+y,1/2-z
1/2-x,1/2-y,-z
1/2+x,1/2-y,1/2+z
loop_
_atom_site_type_symbol
_atom_site_label
_atom_site_fract_x
_atom_site_fract_y
_atom_site_fract_z
Si Si1 0.555668 0.151510 0.889049
Si Si2 0.410491 0.192450 0.470251
Si Si3 0.355590 0.077507 0.168776
Si Si4 0.610707 0.359162 0.811965
Si Si5 0.355410 0.388721 0.986054
Si Si6 0.161590 0.902882 0.055259
Si Si7 0.500000 0.481133 0.750000
Si Si8 0.204261 0.677335 0.443221
O O1 0.616719 0.233687 0.805494
O O2 0.619972 0.043194 0.845494
O O3 0.570093 0.191502 0.959085
O O4 0.411954 0.145280 0.949702
O O5 0.523318 0.137831 0.372823
O O6 0.290264 0.129756 0.517170
O O7 0.406009 0.308797 0.445995
O O8 0.238840 0.099743 0.277538
O O9 0.304645 0.119186 0.123191
O O10 0.500607 0.387490 0.919736
O O11 0.588596 0.408786 0.748659
O O12 0.314289 0.507738 0.015098
O O13 0.323051 0.356462 0.923525
O O14 0.295788 0.303478 0.067281
O O15 0.078454 0.944703 0.159884
#
# Coordination Sequence:
#
# PCOD8137261 Si02
#       8
#     8   8   8   8   8   8   4   8
#     4  10  20  36  55  78 110 140 175 227 268 315
#     4  10  21  35  55  82 108 142 187 215 262 327
#     4  11  20  34  54  78 108 142 176 218 271 319
#     4  10  21  33  54  82 106 139 178 218 267 322
#     4   9  17  32  51  77 106 135 176 220 261 305
#     4  10  20  36  58  80 107 146 180 223 265 314
#     4  10  20  38  58  78 106 140 180 220 270 320
#     4   9  17  31  55  78 100 136 180 218 258 313
#
# _framework density 21.436928999999999
#
# number of rings (size 3 to 8) (size 9 to 14) (size 15 to 20)
#    0.000    2.133    0.000    5.600    0.000    3.200 
#    0.000   12.000    0.000    2.400    0.000    0.000 
#    0.000    0.000    0.000    0.000    0.000    0.000 
#
# Total GULP energy -371688.064737 kJ/mol
# GULP energy per Si atom -12389.602158 kJ/mol
# Density = 2.138814 g / cm^3
# Si number density = 21.436929 Si / 1000 Ang^3
#
#
#
# Elastic Constant Matrix: (Units=GPa)
#
#
# Indices 1 2 3 4 5 6 
#
# 1 58.0886 48.0826 29.1326 0.0000 -29.4990 0.0000
# 2 48.0826 194.7223 45.6023 0.0000 -13.5845 0.0000
# 3 29.1326 45.6023 62.4325 0.0000 -27.7970 0.0000
# 4 0.0000 0.0000 0.0000 30.8018 0.0000 4.0536
# 5 -29.4990 -13.5845 -27.7970 0.0000 23.5414 0.0000
# 6 0.0000 0.0000 0.0000 4.0536 0.0000 29.7407
#
#
#
# Elastic Compliance Matrix: (Units=1/GPa)
#
#
# Indices 1 2 3 4 5 6 
#
# 1 0.087370 -0.020403 0.037185 0.000000 0.141614 0.000000
# 2 -0.020403 0.011119 -0.015028 0.000000 -0.036895 0.000000
# 3 0.037185 -0.015028 0.055931 0.000000 0.103966 0.000000
# 4 0.000000 0.000000 0.000000 0.033059 0.000000 -0.004506
# 5 0.141614 -0.036895 0.103966 0.000000 0.321400 0.000000
# 6 0.000000 0.000000 0.000000 -0.004506 0.000000 0.034238
#
#
# Mechanical properties :
#
#
# Convention : Reuss Voigt Hill
#
# Bulk Modulus (GPa) = 6.33195 62.31981 34.32588
# Shear Modulus (GPa) = 8.44235 29.64519 19.04377
#
# Velocity S-wave (km/s) = 1.98665 3.72277 2.98378
# Velocity P-wave (km/s) = 2.86750 6.90022 5.28373
#
# Compressibility (1/GPa) = 0.15792927
#
# Stress axis : x y z
#
# Youngs Moduli (GPa) = 11.44553 89.93501 17.87905
#
# Poissons Ratio (x) = 1.83496 -0.66484
# Poissons Ratio (y) = 0.23353 0.26868
# Poissons Ratio (z) = -0.42560 1.35152
#
# Static dielectric constant tensor:
#      x y z
#    x 3.906600 0.000000 -0.546020 
#    y 0.000000 4.168440 0.000000 
#    z -0.546020 0.000000 3.933850 
# 
# 
# High freq. dielectric constant tensor:
#      x y z
#    x 1.828480 0.000000 -0.042540 
#    y 0.000000 1.858050 0.000000 
#    z -0.042540 0.000000 1.821800 
# 
# From -- ./inp_files/298757.got.cif
#   From: 2010.06.25/outbox.cif.g09.slc.cpg/sg15_150_cif.got.tgz:298757.got - 2010.06.28 07:06:18.
