data_PCOD8137516
_publ_section_title
;
Structure prediction by ZEFSAII (Michael W. Deem and Ramdas Pophale) SiO2 
 PCOD8137516
Probable space group: C 2/C
;
_chemical_formula_sum "Si O2"
_cell_formula_units_Z 56
_cell_length_a 8.382087
_cell_length_b 27.635354
_cell_length_c 15.050683
_cell_angle_alpha 90.000000
_cell_angle_beta 56.049253
_cell_angle_gamma 90.000000
_cell_volume 2892.006071
_symmetry_space_group_name_H-M "C 2/C"
_symmetry_group_IT_number 15
_symmetry_cell_setting 'monoclinic'
loop_
_space_group_symop_operation_xyz
x,y,z
-x,y,1/2-z
-x,-y,-z
x,-y,1/2+z
1/2+x,1/2+y,z
1/2-x,1/2+y,1/2-z
1/2-x,1/2-y,-z
1/2+x,1/2-y,1/2+z
loop_
_atom_site_type_symbol
_atom_site_label
_atom_site_fract_x
_atom_site_fract_y
_atom_site_fract_z
Si Si1 0.998080 0.752650 0.503987
Si Si2 0.784902 0.438023 0.809050
Si Si3 0.125544 0.191156 0.124052
Si Si4 0.137978 0.808040 0.123297
Si Si5 0.757037 0.593659 0.505884
Si Si6 0.197920 0.590797 0.393157
Si Si7 0.942044 0.998760 0.866430
O O1 0.943477 0.773125 0.425905
O O2 0.849084 0.711488 0.583500
O O3 0.001806 0.795972 0.574948
O O4 0.202806 0.728937 0.425058
O O5 0.752568 0.408642 0.727537
O O6 0.631755 0.481702 0.861205
O O7 0.000000 0.460681 0.750000
O O8 0.760609 0.400091 0.897709
O O9 0.203445 0.136724 0.091896
O O10 0.000000 0.198691 0.250000
O O11 0.144562 0.862599 0.085484
O O12 0.000000 0.806413 0.250000
O O13 0.646912 0.544021 0.556606
O O14 0.970520 0.591250 0.480186
O O15 0.283981 0.543656 0.413330
O O16 0.000000 0.015022 0.750000
#
# Coordination Sequence:
#
# PCOD8137516 Si02
#       7
#     8   8   8   8   8   8   8
#     4  10  24  41  61  89 118 157 206 244 307 357
#     4   9  20  36  56  88 122 152 207 253 293 360
#     4  11  21  39  65  89 120 155 198 253 304 348
#     4  11  23  42  60  87 123 158 202 247 298 367
#     4  11  21  37  59  86 122 162 197 245 307 363
#     4  10  21  37  59  90 120 153 202 256 298 359
#     4  10  20  36  59  86 117 161 200 245 303 361
#
# _framework density 19.363720000000001
#
# number of rings (size 3 to 8) (size 9 to 14) (size 15 to 20)
#    0.000    1.714    1.429    3.429    4.000    0.000 
#    0.000    0.000    0.000    0.000    0.000    0.000 
#    0.000    0.000    0.000    0.000    0.000    0.000 
#
# Total GULP energy -347256.943886 kJ/mol
# GULP energy per Si atom -12402.033710 kJ/mol
# Density = 1.931965 g / cm^3
# Si number density = 19.363720 Si / 1000 Ang^3
#
#
#
# Elastic Constant Matrix: (Units=GPa)
#
#
# Indices 1 2 3 4 5 6 
#
# 1 80.9776 29.1154 32.4537 0.0000 -0.8581 0.0000
# 2 29.1154 109.4789 39.7608 0.0000 1.6005 0.0000
# 3 32.4537 39.7608 96.9803 0.0000 -12.0511 0.0000
# 4 0.0000 0.0000 0.0000 28.3806 0.0000 -5.5103
# 5 -0.8581 1.6005 -12.0511 0.0000 24.9955 0.0000
# 6 0.0000 0.0000 0.0000 -5.5103 0.0000 30.9996
#
#
#
# Elastic Compliance Matrix: (Units=1/GPa)
#
#
# Indices 1 2 3 4 5 6 
#
# 1 0.014870 -0.002429 -0.004146 0.000000 -0.001333 0.000000
# 2 -0.002429 0.011343 -0.004189 0.000000 -0.002829 0.000000
# 3 -0.004146 -0.004189 0.014288 0.000000 0.007015 0.000000
# 4 0.000000 0.000000 0.000000 0.036495 0.000000 0.006487
# 5 -0.001333 -0.002829 0.007015 0.000000 0.043525 0.000000
# 6 0.000000 0.000000 0.000000 0.006487 0.000000 0.033412
#
#
# Mechanical properties :
#
#
# Convention : Reuss Voigt Hill
#
# Bulk Modulus (GPa) = 52.70833 54.45519 53.58176
# Shear Modulus (GPa) = 27.50512 29.28228 28.39370
#
# Velocity S-wave (km/s) = 3.77297 3.89295 3.83343
# Velocity P-wave (km/s) = 6.80144 6.95630 6.87931
#
# Compressibility (1/GPa) = 0.01897233
#
# Stress axis : x y z
#
# Youngs Moduli (GPa) = 67.24972 88.15959 69.98967
#
# Poissons Ratio (x) = 0.21418 0.29015
# Poissons Ratio (y) = 0.16338 0.29319
# Poissons Ratio (z) = 0.27879 0.36931
#
# Static dielectric constant tensor:
#      x y z
#    x 3.822130 0.000000 -0.075880 
#    y 0.000000 3.398740 0.000000 
#    z -0.075880 0.000000 3.573230 
# 
# 
# High freq. dielectric constant tensor:
#      x y z
#    x 1.768250 0.000000 -0.006150 
#    y 0.000000 1.746130 0.000000 
#    z -0.006150 0.000000 1.755140 
# 
# From -- ./inp_files/138539.got.cif
#   From: 2010.06.25/outbox.cif.g09.slc.cpg/sg15_70_cif.got.tgz:138539.got - 2010.06.28 07:06:18.
