data_PCOD8137157
_publ_section_title
;
Structure prediction by ZEFSAII (Michael W. Deem and Ramdas Pophale) SiO2 
 PCOD8137157
Probable space group: C 2/C
;
_chemical_formula_sum "Si O2"
_cell_formula_units_Z 60
_cell_length_a 15.359909
_cell_length_b 13.508274
_cell_length_c 14.274241
_cell_angle_alpha 90.000000
_cell_angle_beta 120.253315
_cell_angle_gamma 90.000000
_cell_volume 2558.338017
_symmetry_space_group_name_H-M "C 2/C"
_symmetry_group_IT_number 15
_symmetry_cell_setting 'monoclinic'
loop_
_space_group_symop_operation_xyz
x,y,z
-x,y,1/2-z
-x,-y,-z
x,-y,1/2+z
1/2+x,1/2+y,z
1/2-x,1/2+y,1/2-z
1/2-x,1/2-y,-z
1/2+x,1/2-y,1/2+z
loop_
_atom_site_type_symbol
_atom_site_label
_atom_site_fract_x
_atom_site_fract_y
_atom_site_fract_z
Si Si1 0.000000 0.020754 0.250000
Si Si2 0.346687 0.206846 0.180549
Si Si3 0.634135 0.242346 0.528466
Si Si4 0.391259 0.005183 0.683350
Si Si5 0.545097 0.640850 0.626621
Si Si6 0.766815 0.844720 0.390082
Si Si7 0.385244 0.022597 0.965073
Si Si8 0.214440 0.125572 0.379055
O O1 0.100796 0.087801 0.298266
O O2 0.997467 0.953523 0.154387
O O3 0.358264 0.235852 0.079090
O O4 0.390215 0.100499 0.235587
O O5 0.410131 0.285805 0.271778
O O6 0.226454 0.204659 0.131798
O O7 0.534486 0.308189 0.487854
O O8 0.630692 0.135106 0.575876
O O9 0.500000 0.054557 0.750000
O O10 0.362602 0.983679 0.562032
O O11 0.319736 0.082966 0.695749
O O12 0.633526 0.612385 0.603799
O O13 0.773502 0.858659 0.504329
O O14 0.738283 0.732380 0.344894
O O15 0.298647 0.948495 0.878298
O O16 0.500000 0.000000 0.000000
#
# Coordination Sequence:
#
# PCOD8137157 Si02
#       8
#     4   8   8   8   8   8   8   8
#     4  12  26  40  74  98 144 174 230 278 356 412
#     4  10  20  37  60  91 127 162 213 269 338 387
#     4  10  20  35  62  90 130 167 203 270 341 388
#     4  10  22  38  61  88 122 166 209 269 318 390
#     4  12  23  41  65 102 134 177 220 289 336 411
#     4  10  25  45  67  87 137 174 235 272 334 398
#     4  10  20  37  66  90 121 166 214 265 326 393
#     4  10  24  48  63  95 133 184 221 285 334 413
#
# _framework density 23.452725000000001
#
# number of rings (size 3 to 8) (size 9 to 14) (size 15 to 20)
#    0.000    1.600    1.333    3.200    6.533    3.733 
#    2.400    0.000    0.000    0.000    0.000    0.000 
#    0.000    0.000    0.000    0.000    0.000    0.000 
#
# Total GULP energy -371820.643493 kJ/mol
# GULP energy per Si atom -12394.021450 kJ/mol
# Density = 2.339935 g / cm^3
# Si number density = 23.452725 Si / 1000 Ang^3
#
#
#
# Elastic Constant Matrix: (Units=GPa)
#
#
# Indices 1 2 3 4 5 6 
#
# 1 147.5074 43.4275 14.5312 0.0000 39.3126 0.0000
# 2 43.4275 89.8943 15.4943 0.0000 19.9211 0.0000
# 3 14.5312 15.4943 33.4863 0.0000 27.4212 0.0000
# 4 0.0000 0.0000 0.0000 16.4463 0.0000 15.9368
# 5 39.3126 19.9211 27.4212 0.0000 51.9519 0.0000
# 6 0.0000 0.0000 0.0000 15.9368 0.0000 41.6614
#
#
#
# Elastic Compliance Matrix: (Units=1/GPa)
#
#
# Indices 1 2 3 4 5 6 
#
# 1 0.009558 -0.003540 0.004053 0.000000 -0.008015 0.000000
# 2 -0.003540 0.013664 -0.004737 0.000000 -0.000061 0.000000
# 3 0.004053 -0.004737 0.055162 0.000000 -0.030367 0.000000
# 4 0.000000 0.000000 0.000000 0.096619 0.000000 -0.036960
# 5 -0.008015 -0.000061 -0.030367 0.000000 0.041365 0.000000
# 6 0.000000 0.000000 0.000000 -0.036960 0.000000 0.038141
#
#
# Mechanical properties :
#
#
# Convention : Reuss Voigt Hill
#
# Bulk Modulus (GPa) = 14.29831 46.42154 30.35993
# Shear Modulus (GPa) = 17.46610 35.17426 26.32018
#
# Velocity S-wave (km/s) = 2.73195 3.87692 3.35366
# Velocity P-wave (km/s) = 4.00765 6.31485 5.28860
#
# Compressibility (1/GPa) = 0.06993832
#
# Stress axis : x y z
#
# Youngs Moduli (GPa) = 104.62095 73.18373 18.12836
#
# Poissons Ratio (x) = 0.25908 -0.07348
# Poissons Ratio (y) = 0.37037 0.08587
# Poissons Ratio (z) = -0.42408 0.34664
#
# Static dielectric constant tensor:
#      x y z
#    x 4.597180 0.000000 0.359890 
#    y 0.000000 4.491720 0.000000 
#    z 0.359890 0.000000 4.168710 
# 
# 
# High freq. dielectric constant tensor:
#      x y z
#    x 1.939610 0.000000 0.012780 
#    y 0.000000 1.929300 0.000000 
#    z 0.012780 0.000000 1.915520 
# 
# From -- ./inp_files/154295.got.cif
#   From: 2010.06.25/outbox.cif.g09.slc.cpg/sg15_78_cif.got.tgz:154295.got - 2010.06.28 07:06:18.
