data_PCOD8137102
_publ_section_title
;
Structure prediction by ZEFSAII (Michael W. Deem and Ramdas Pophale) SiO2 
 PCOD8137102
Probable space group: C 2/C
;
_chemical_formula_sum "Si O2"
_cell_formula_units_Z 52
_cell_length_a 7.550006
_cell_length_b 31.696842
_cell_length_c 15.658062
_cell_angle_alpha 90.000000
_cell_angle_beta 142.227082
_cell_angle_gamma 90.000000
_cell_volume 2295.256086
_symmetry_space_group_name_H-M "C 2/C"
_symmetry_group_IT_number 15
_symmetry_cell_setting 'monoclinic'
loop_
_space_group_symop_operation_xyz
x,y,z
-x,y,1/2-z
-x,-y,-z
x,-y,1/2+z
1/2+x,1/2+y,z
1/2-x,1/2+y,1/2-z
1/2-x,1/2-y,-z
1/2+x,1/2-y,1/2+z
loop_
_atom_site_type_symbol
_atom_site_label
_atom_site_fract_x
_atom_site_fract_y
_atom_site_fract_z
Si Si1 0.118686 0.451861 0.701360
Si Si2 0.918372 0.006647 0.566267
Si Si3 0.500000 0.204055 0.250000
Si Si4 0.640164 0.135350 0.436809
Si Si5 0.319705 0.157928 0.864251
Si Si6 0.475596 0.239295 0.840985
Si Si7 0.721607 0.590043 0.702022
O O1 0.462249 0.466039 0.832917
O O2 0.000000 0.461385 0.750000
O O3 0.923351 0.480412 0.560277
O O4 0.090023 0.401773 0.672658
O O5 0.110201 0.043752 0.679665
O O6 0.000000 0.000000 0.500000
O O7 0.658781 0.173158 0.376649
O O8 0.286047 0.233841 0.220627
O O9 0.536767 0.155602 0.487413
O O10 0.964300 0.117057 0.561188
O O11 0.463451 0.189034 0.850953
O O12 0.318444 0.110335 0.828282
O O13 0.000000 0.176447 0.750000
O O14 0.500000 0.249189 0.750000
O O15 0.750000 0.250000 0.000000
O O16 0.000000 0.588014 0.750000
#
# Coordination Sequence:
#
# PCOD8137102 Si02
#       7
#     8   8   4   8   8   8   8
#     4   9  16  32  54  89 121 166 221 265 334 398
#     4   9  17  30  55  86 123 161 216 275 327 394
#     4  12  26  46  68 100 142 174 226 286 352 396
#     4  10  22  39  63  90 129 176 214 272 343 406
#     4  10  22  41  63  90 129 171 216 270 337 404
#     4  12  28  46  73 104 134 178 227 283 344 420
#     4  10  20  35  60  92 122 167 220 270 327 399
#
# _framework density 22.655422999999999
#
# number of rings (size 3 to 8) (size 9 to 14) (size 15 to 20)
#    0.000    1.846    1.538    2.769    6.462    1.231 
#    0.000    0.769    0.000    3.692    0.000    0.000 
#    0.000    0.000    0.000    0.000    0.000    0.000 
#
# Total GULP energy -322094.736898 kJ/mol
# GULP energy per Si atom -12388.259111 kJ/mol
# Density = 2.260386 g / cm^3
# Si number density = 22.655423 Si / 1000 Ang^3
#
#
#
# Elastic Constant Matrix: (Units=GPa)
#
#
# Indices 1 2 3 4 5 6 
#
# 1 55.6790 20.7920 40.7785 0.0000 -7.4387 0.0000
# 2 20.7920 112.0069 49.6913 0.0000 -9.1876 0.0000
# 3 40.7785 49.6913 118.0044 0.0000 -15.5697 0.0000
# 4 0.0000 0.0000 0.0000 24.4221 0.0000 -10.1742
# 5 -7.4387 -9.1876 -15.5697 0.0000 35.1755 0.0000
# 6 0.0000 0.0000 0.0000 -10.1742 0.0000 19.3836
#
#
#
# Elastic Compliance Matrix: (Units=1/GPa)
#
#
# Indices 1 2 3 4 5 6 
#
# 1 0.024197 -0.000920 -0.007785 0.000000 0.001431 0.000000
# 2 -0.000920 0.011039 -0.004222 0.000000 0.000820 0.000000
# 3 -0.007785 -0.004222 0.013360 0.000000 0.003164 0.000000
# 4 0.000000 0.000000 0.000000 0.052406 0.000000 0.027507
# 5 0.001431 0.000820 0.003164 0.000000 0.030346 0.000000
# 6 0.000000 0.000000 0.000000 0.027507 0.000000 0.066028
#
#
# Mechanical properties :
#
#
# Convention : Reuss Voigt Hill
#
# Bulk Modulus (GPa) = 43.97528 56.46823 50.22175
# Shear Modulus (GPa) = 21.66258 27.42480 24.54369
#
# Velocity S-wave (km/s) = 3.09556 3.48302 3.29499
# Velocity P-wave (km/s) = 5.67709 6.41515 6.05737
#
# Compressibility (1/GPa) = 0.02274005
#
# Stress axis : x y z
#
# Youngs Moduli (GPa) = 41.32786 90.58481 74.84947
#
# Poissons Ratio (x) = 0.08338 0.58272
# Poissons Ratio (y) = 0.03804 0.31605
# Poissons Ratio (z) = 0.32175 0.38249
#
# Static dielectric constant tensor:
#      x y z
#    x 4.004510 0.000000 -0.083130 
#    y 0.000000 4.442660 0.000000 
#    z -0.083130 0.000000 4.464100 
# 
# 
# High freq. dielectric constant tensor:
#      x y z
#    x 1.864510 0.000000 -0.004890 
#    y 0.000000 1.902130 0.000000 
#    z -0.004890 0.000000 1.904580 
# 
# From -- ./inp_files/139877.got.cif
#   From: 2010.06.25/outbox.cif.g09.slc.cpg/sg15_70_cif.got.tgz:139877.got - 2010.06.28 07:06:18.
