data_PCOD8137794
_publ_section_title
;
Structure prediction by ZEFSAII (Michael W. Deem and Ramdas Pophale) SiO2 
 PCOD8137794
Probable space group: C 2/C
;
_chemical_formula_sum "Si O2"
_cell_formula_units_Z 48
_cell_length_a 18.632975
_cell_length_b 13.169961
_cell_length_c 13.605811
_cell_angle_alpha 90.000000
_cell_angle_beta 43.055022
_cell_angle_gamma 90.000000
_cell_volume 2279.403788
_symmetry_space_group_name_H-M "C 2/C"
_symmetry_group_IT_number 15
_symmetry_cell_setting 'monoclinic'
loop_
_space_group_symop_operation_xyz
x,y,z
-x,y,1/2-z
-x,-y,-z
x,-y,1/2+z
1/2+x,1/2+y,z
1/2-x,1/2+y,1/2-z
1/2-x,1/2-y,-z
1/2+x,1/2-y,1/2+z
loop_
_atom_site_type_symbol
_atom_site_label
_atom_site_fract_x
_atom_site_fract_y
_atom_site_fract_z
Si Si1 0.762020 0.620795 0.083334
Si Si2 0.042067 0.748810 0.350493
Si Si3 0.982280 0.600546 0.953697
Si Si4 0.291032 0.847500 0.333820
Si Si5 0.706851 0.420872 0.216759
Si Si6 0.649735 0.195031 0.061346
O O1 0.728531 0.728040 0.163269
O O2 0.685486 0.538769 0.213291
O O3 0.883587 0.591437 0.980194
O O4 0.741147 0.618722 0.987322
O O5 0.045930 0.696874 0.451117
O O6 0.106184 0.854032 0.287130
O O7 0.087518 0.667133 0.224201
O O8 0.922072 0.769227 0.435391
O O9 0.085558 0.627101 0.788164
O O10 0.000000 0.500000 0.000000
O O11 0.232722 0.908310 0.305561
O O12 0.811468 0.396418 0.046683
O O13 0.750000 0.250000 0.000000
#
# Coordination Sequence:
#
# PCOD8137794 Si02
#       6
#     8   8   8   8   8   8
#     4  11  25  43  66  94 134 177 222 276 331 404
#     4  10  20  36  62  98 128 159 220 273 321 385
#     4  12  22  39  69  97 127 173 222 276 330 394
#     4  11  24  43  65  96 133 170 223 276 332 398
#     4  11  21  41  66  92 128 176 218 271 338 387
#     4   9  19  35  62  92 128 164 205 271 324 382
#
# _framework density 21.058138
#
# number of rings (size 3 to 8) (size 9 to 14) (size 15 to 20)
#    0.000    1.333    5.000    0.500    2.333    0.000 
#    3.000    0.833   29.333    0.000    0.000    0.000 
#    0.000    0.000    0.000    0.000    0.000    0.000 
#
# Total GULP energy -297433.680958 kJ/mol
# GULP energy per Si atom -12393.070040 kJ/mol
# Density = 2.101021 g / cm^3
# Si number density = 21.058138 Si / 1000 Ang^3
#
#
#
# Elastic Constant Matrix: (Units=GPa)
#
#
# Indices 1 2 3 4 5 6 
#
# 1 107.3893 38.6320 20.0386 0.0000 1.9751 0.0000
# 2 38.6320 130.4514 36.0415 0.0000 4.8881 0.0000
# 3 20.0386 36.0415 55.8794 0.0000 7.6319 0.0000
# 4 0.0000 0.0000 0.0000 31.8548 0.0000 -0.9205
# 5 1.9751 4.8881 7.6319 0.0000 44.2991 0.0000
# 6 0.0000 0.0000 0.0000 -0.9205 0.0000 25.3645
#
#
#
# Elastic Compliance Matrix: (Units=1/GPa)
#
#
# Indices 1 2 3 4 5 6 
#
# 1 0.010635 -0.002550 -0.002194 0.000000 0.000185 0.000000
# 2 -0.002550 0.009939 -0.005491 0.000000 -0.000037 0.000000
# 3 -0.002194 -0.005491 0.022661 0.000000 -0.003200 0.000000
# 4 0.000000 0.000000 0.000000 0.031425 0.000000 0.001140
# 5 0.000185 -0.000037 -0.003200 0.000000 0.023121 0.000000
# 6 0.000000 0.000000 0.000000 0.001140 0.000000 0.039467
#
#
# Mechanical properties :
#
#
# Convention : Reuss Voigt Hill
#
# Bulk Modulus (GPa) = 43.92772 53.68270 48.80521
# Shear Modulus (GPa) = 30.24637 33.57088 31.90862
#
# Velocity S-wave (km/s) = 3.79400 3.99708 3.89686
# Velocity P-wave (km/s) = 6.33231 6.84471 6.59349
#
# Compressibility (1/GPa) = 0.02276467
#
# Stress axis : x y z
#
# Youngs Moduli (GPa) = 94.02574 100.60930 44.12782
#
# Poissons Ratio (x) = 0.25658 0.09683
# Poissons Ratio (y) = 0.23979 0.24232
# Poissons Ratio (z) = 0.20632 0.55247
#
# Static dielectric constant tensor:
#      x y z
#    x 3.928280 0.000000 0.039340 
#    y 0.000000 3.640560 0.000000 
#    z 0.039340 0.000000 4.976910 
# 
# 
# High freq. dielectric constant tensor:
#      x y z
#    x 1.840490 0.000000 0.008550 
#    y 0.000000 1.803010 0.000000 
#    z 0.008550 0.000000 1.822500 
# 
# From -- ./inp_files/167843.got.cif
#   From: 2010.06.25/outbox.cif.g09.slc.cpg/sg15_84_cif.got.tgz:167843.got - 2010.06.28 07:06:18.
