data_PCOD8137785
_publ_section_title
;
Structure prediction by ZEFSAII (Michael W. Deem and Ramdas Pophale) SiO2 
 PCOD8137785
Probable space group: C 2/C
;
_chemical_formula_sum "Si O2"
_cell_formula_units_Z 52
_cell_length_a 13.914810
_cell_length_b 28.774241
_cell_length_c 8.492488
_cell_angle_alpha 90.000000
_cell_angle_beta 129.269252
_cell_angle_gamma 90.000000
_cell_volume 2632.437382
_symmetry_space_group_name_H-M "C 2/C"
_symmetry_group_IT_number 15
_symmetry_cell_setting 'monoclinic'
loop_
_space_group_symop_operation_xyz
x,y,z
-x,y,1/2-z
-x,-y,-z
x,-y,1/2+z
1/2+x,1/2+y,z
1/2-x,1/2+y,1/2-z
1/2-x,1/2-y,-z
1/2+x,1/2-y,1/2+z
loop_
_atom_site_type_symbol
_atom_site_label
_atom_site_fract_x
_atom_site_fract_y
_atom_site_fract_z
Si Si1 0.500000 0.103658 0.750000
Si Si2 0.130472 0.224854 0.301503
Si Si3 0.633074 0.230022 0.474884
Si Si4 0.139411 0.543165 0.424216
Si Si5 0.174116 0.368225 0.168969
Si Si6 0.360434 0.380061 0.613527
Si Si7 0.198205 0.450041 0.634732
O O1 0.411294 0.136588 0.762134
O O2 0.433159 0.070323 0.556103
O O3 0.250000 0.250000 0.500000
O O4 0.114585 0.237809 0.104960
O O5 0.157195 0.170348 0.328836
O O6 0.000000 0.237603 0.250000
O O7 0.750000 0.250000 0.500000
O O8 0.669583 0.178100 0.562632
O O9 0.500000 0.229743 0.250000
O O10 0.132663 0.590081 0.515911
O O11 0.212123 0.503487 0.595526
O O12 0.210948 0.552519 0.335682
O O13 0.000000 0.525544 0.250000
O O14 0.309888 0.378602 0.381145
O O15 0.500000 0.395908 0.750000
O O16 0.302345 0.418850 0.664113
#
# Coordination Sequence:
#
# PCOD8137785 Si02
#       7
#     4   8   8   8   8   8   8
#     4  10  20  36  62  94 130 164 212 258 324 386
#     4  11  23  45  70  95 131 181 227 275 332 401
#     4  12  28  43  67 101 140 172 225 280 338 394
#     4  12  22  40  64 100 140 163 209 267 345 386
#     4  11  24  41  66  99 131 170 217 273 330 394
#     4  10  24  45  67  90 130 174 229 265 323 390
#     4  11  22  38  65  97 127 174 208 263 321 398
#
# _framework density 19.753557000000001
#
# number of rings (size 3 to 8) (size 9 to 14) (size 15 to 20)
#    0.000    0.923    3.846    3.692    5.385    1.231 
#    0.000    3.846    0.000    0.000    0.000    0.000 
#    0.000    0.000    0.000    0.000    0.000    0.000 
#
# Total GULP energy -322396.631697 kJ/mol
# GULP energy per Si atom -12399.870450 kJ/mol
# Density = 1.970860 g / cm^3
# Si number density = 19.753557 Si / 1000 Ang^3
#
#
#
# Elastic Constant Matrix: (Units=GPa)
#
#
# Indices 1 2 3 4 5 6 
#
# 1 127.2826 69.8355 70.3747 0.0000 -5.0433 0.0000
# 2 69.8355 122.2563 28.1227 0.0000 -8.9409 0.0000
# 3 70.3747 28.1227 113.5211 0.0000 -4.9206 0.0000
# 4 0.0000 0.0000 0.0000 27.3680 0.0000 12.4146
# 5 -5.0433 -8.9409 -4.9206 0.0000 39.7977 0.0000
# 6 0.0000 0.0000 0.0000 12.4146 0.0000 -13.5101
#
#
#
# Elastic Compliance Matrix: (Units=1/GPa)
#
#
# Indices 1 2 3 4 5 6 
#
# 1 0.016728 -0.007647 -0.008504 0.000000 -0.000650 0.000000
# 2 -0.007647 0.012284 0.001784 0.000000 0.002011 0.000000
# 3 -0.008504 0.001784 0.013683 0.000000 0.001015 0.000000
# 4 0.000000 0.000000 0.000000 0.025789 0.000000 0.023698
# 5 -0.000650 0.002011 0.001015 0.000000 0.025622 0.000000
# 6 0.000000 0.000000 0.000000 0.023698 0.000000 -0.052242
#
#
# Mechanical properties :
#
#
# Convention : Reuss Voigt Hill
#
# Bulk Modulus (GPa) = 71.62127 77.74731 74.68429
# Shear Modulus (GPa) = 66.44414 23.71293 45.07854
#
# Velocity S-wave (km/s) = 5.80599 3.46849 4.78226
# Velocity P-wave (km/s) = 9.01566 7.44880 8.26943
#
# Compressibility (1/GPa) = 0.01396233
#
# Stress axis : x y z
#
# Youngs Moduli (GPa) = 59.77903 81.40534 73.08471
#
# Poissons Ratio (x) = 0.62250 0.62152
# Poissons Ratio (y) = 0.45712 -0.13042
# Poissons Ratio (z) = 0.50837 -0.14527
#
# Static dielectric constant tensor:
#      x y z
#    x 3.516960 0.000000 -0.129140 
#    y 0.000000 3.614180 0.000000 
#    z -0.129140 0.000000 3.753850 
# 
# 
# High freq. dielectric constant tensor:
#      x y z
#    x 1.766710 0.000000 -0.007660 
#    y 0.000000 1.782410 0.000000 
#    z -0.007660 0.000000 1.777690 
# 
# From -- ./inp_files/43389.got.cif
#   From: 2010.06.25/outbox.cif.g09.slc.cpg/sg15_22_cif.got.tgz:43389.got - 2010.06.28 07:06:18.
