data_PCOD8137455
_publ_section_title
;
Structure prediction by ZEFSAII (Michael W. Deem and Ramdas Pophale) SiO2 
 PCOD8137455
Probable space group: C 2/C
;
_chemical_formula_sum "Si O2"
_cell_formula_units_Z 56
_cell_length_a 16.001343
_cell_length_b 14.965920
_cell_length_c 13.699773
_cell_angle_alpha 90.000000
_cell_angle_beta 119.901584
_cell_angle_gamma 90.000000
_cell_volume 2844.026870
_symmetry_space_group_name_H-M "C 2/C"
_symmetry_group_IT_number 15
_symmetry_cell_setting 'monoclinic'
loop_
_space_group_symop_operation_xyz
x,y,z
-x,y,1/2-z
-x,-y,-z
x,-y,1/2+z
1/2+x,1/2+y,z
1/2-x,1/2+y,1/2-z
1/2-x,1/2-y,-z
1/2+x,1/2-y,1/2+z
loop_
_atom_site_type_symbol
_atom_site_label
_atom_site_fract_x
_atom_site_fract_y
_atom_site_fract_z
Si Si1 0.850439 0.727970 0.281428
Si Si2 0.686453 0.345583 0.414292
Si Si3 0.041769 0.999795 0.873660
Si Si4 0.646034 0.714600 0.099333
Si Si5 0.881575 0.406515 0.428204
Si Si6 0.951828 0.125553 0.962134
Si Si7 0.040228 0.541904 0.167250
O O1 0.870968 0.782519 0.194432
O O2 0.735045 0.708685 0.228573
O O3 0.891701 0.786725 0.396055
O O4 0.906310 0.636012 0.303492
O O5 0.623283 0.429643 0.401710
O O6 0.701154 0.289807 0.525001
O O7 0.777131 0.390482 0.413899
O O8 0.000000 0.958149 0.750000
O O9 0.090829 0.919717 0.965134
O O10 0.953899 0.050991 0.878169
O O11 0.585080 0.806190 0.078721
O O12 0.564424 0.640486 0.058705
O O13 0.885657 0.466702 0.331690
O O14 0.946595 0.455214 0.545421
O O15 0.000000 0.515568 0.250000
#
# Coordination Sequence:
#
# PCOD8137455 Si02
#       7
#     8   8   8   8   8   8   8
#     4  11  20  35  61  85 116 151 201 247 295 354
#     4  10  20  37  62  90 117 150 199 259 297 352
#     4  10  20  36  58  90 121 154 192 251 314 352
#     4  10  20  37  60  87 120 153 199 245 300 349
#     4  10  21  38  55  85 122 142 195 252 281 350
#     4  10  21  36  59  88 122 156 199 247 303 361
#     4  11  22  36  61  84 112 157 194 240 300 350
#
# _framework density 19.690391000000002
#
# number of rings (size 3 to 8) (size 9 to 14) (size 15 to 20)
#    0.000    1.714    2.857    3.429    2.000    1.143 
#   12.857    0.714    0.000    1.714    0.000    0.000 
#    0.000    0.000    0.000    0.000    0.000    0.000 
#
# Total GULP energy -346907.306379 kJ/mol
# GULP energy per Si atom -12389.546656 kJ/mol
# Density = 1.964557 g / cm^3
# Si number density = 19.690391 Si / 1000 Ang^3
#
#
#
# Elastic Constant Matrix: (Units=GPa)
#
#
# Indices 1 2 3 4 5 6 
#
# 1 50.6988 51.1954 49.4663 0.0000 -11.6065 0.0000
# 2 51.1954 108.5788 54.1766 0.0000 -20.1571 0.0000
# 3 49.4663 54.1766 106.1213 0.0000 -4.7172 0.0000
# 4 0.0000 0.0000 0.0000 25.4449 0.0000 -4.9411
# 5 -11.6065 -20.1571 -4.7172 0.0000 23.6715 0.0000
# 6 0.0000 0.0000 0.0000 -4.9411 0.0000 29.4423
#
#
#
# Elastic Compliance Matrix: (Units=1/GPa)
#
#
# Indices 1 2 3 4 5 6 
#
# 1 0.053711 -0.014981 -0.016935 0.000000 0.010204 0.000000
# 2 -0.014981 0.018995 -0.002342 0.000000 0.008362 0.000000
# 3 -0.016935 -0.002342 0.018216 0.000000 -0.006668 0.000000
# 4 0.000000 0.000000 0.000000 0.040625 0.000000 0.006818
# 5 0.010204 0.008362 -0.006668 0.000000 0.053040 0.000000
# 6 0.000000 0.000000 0.000000 0.006818 0.000000 0.035109
#
#
# Mechanical properties :
#
#
# Convention : Reuss Voigt Hill
#
# Bulk Modulus (GPa) = 44.63064 63.89726 54.26395
# Shear Modulus (GPa) = 16.91015 23.08244 19.99630
#
# Velocity S-wave (km/s) = 2.93371 3.42756 3.19020
# Velocity P-wave (km/s) = 5.84730 6.94159 6.41781
#
# Compressibility (1/GPa) = 0.02240613
#
# Stress axis : x y z
#
# Youngs Moduli (GPa) = 18.61813 52.64650 54.89567
#
# Poissons Ratio (x) = 0.78869 0.92965
# Poissons Ratio (y) = 0.27892 0.12858
# Poissons Ratio (z) = 0.31529 0.12331
#
# Static dielectric constant tensor:
#      x y z
#    x 3.471500 0.000000 -0.051000 
#    y 0.000000 3.842590 0.000000 
#    z -0.051000 0.000000 3.764020 
# 
# 
# High freq. dielectric constant tensor:
#      x y z
#    x 1.745670 0.000000 0.010200 
#    y 0.000000 1.772820 0.000000 
#    z 0.010200 0.000000 1.761870 
# 
# From -- ./inp_files/162010.got.cif
#   From: 2010.06.25/outbox.cif.g09.slc.cpg/sg15_82_cif.got.tgz:162010.got - 2010.06.28 07:06:18.
