data_PCOD8137137
_publ_section_title
;
Structure prediction by ZEFSAII (Michael W. Deem and Ramdas Pophale) SiO2 
 PCOD8137137
Probable space group: C 2/C
;
_chemical_formula_sum "Si O2"
_cell_formula_units_Z 48
_cell_length_a 27.568827
_cell_length_b 8.697001
_cell_length_c 9.424232
_cell_angle_alpha 90.000000
_cell_angle_beta 90.570833
_cell_angle_gamma 90.000000
_cell_volume 2259.499360
_symmetry_space_group_name_H-M "C 2/C"
_symmetry_group_IT_number 15
_symmetry_cell_setting 'monoclinic'
loop_
_space_group_symop_operation_xyz
x,y,z
-x,y,1/2-z
-x,-y,-z
x,-y,1/2+z
1/2+x,1/2+y,z
1/2-x,1/2+y,1/2-z
1/2-x,1/2-y,-z
1/2+x,1/2-y,1/2+z
loop_
_atom_site_type_symbol
_atom_site_label
_atom_site_fract_x
_atom_site_fract_y
_atom_site_fract_z
Si Si1 0.650039 0.178277 0.145512
Si Si2 0.044584 0.693987 0.825974
Si Si3 0.456304 0.119172 0.342052
Si Si4 0.647587 0.670197 0.361311
Si Si5 0.307415 0.142049 0.870613
Si Si6 0.196012 0.144365 0.878290
O O1 0.594571 0.200948 0.195057
O O2 0.688031 0.214669 0.270234
O O3 0.659366 0.004785 0.090415
O O4 0.659594 0.302342 0.024790
O O5 0.050437 0.554384 0.714163
O O6 0.091123 0.803688 0.823840
O O7 0.000000 0.788133 0.750000
O O8 0.034079 0.631025 0.986390
O O9 0.500000 0.196195 0.250000
O O10 0.680445 0.796363 0.284195
O O11 0.661818 0.495285 0.328592
O O12 0.251580 0.090667 0.880277
O O13 0.319426 0.287076 0.971052
#
# Coordination Sequence:
#
# PCOD8137137 Si02
#       6
#     8   8   8   8   8   8
#     4  11  23  40  63  91 122 162 209 252 305 366
#     4  10  20  36  61  90 122 160 201 252 308 360
#     4  10  20  35  61  93 119 154 206 257 300 356
#     4  11  23  40  61  92 126 161 203 256 311 367
#     4  11  23  41  64  89 121 166 209 253 300 368
#     4  11  25  40  62  91 125 163 203 256 314 360
#
# _framework density 21.243642999999999
#
# number of rings (size 3 to 8) (size 9 to 14) (size 15 to 20)
#    0.000    1.333    1.667    5.000    2.333    6.667 
#    0.000    0.833    0.000    5.000    0.000    0.000 
#    0.000    0.000    0.000    0.000    0.000    0.000 
#
# Total GULP energy -297474.288142 kJ/mol
# GULP energy per Si atom -12394.762006 kJ/mol
# Density = 2.119529 g / cm^3
# Si number density = 21.243643 Si / 1000 Ang^3
#
#
#
# Elastic Constant Matrix: (Units=GPa)
#
#
# Indices 1 2 3 4 5 6 
#
# 1 92.2610 42.4549 57.0777 0.0000 -1.4523 0.0000
# 2 42.4549 82.5273 25.3919 0.0000 -3.0384 0.0000
# 3 57.0777 25.3919 97.6896 0.0000 4.4640 0.0000
# 4 0.0000 0.0000 0.0000 24.9254 0.0000 1.1819
# 5 -1.4523 -3.0384 4.4640 0.0000 35.2793 0.0000
# 6 0.0000 0.0000 0.0000 1.1819 0.0000 29.7040
#
#
#
# Elastic Compliance Matrix: (Units=1/GPa)
#
#
# Indices 1 2 3 4 5 6 
#
# 1 0.020542 -0.007390 -0.010150 0.000000 0.001493 0.000000
# 2 -0.007390 0.015917 0.000133 0.000000 0.001050 0.000000
# 3 -0.010150 0.000133 0.016245 0.000000 -0.002462 0.000000
# 4 0.000000 0.000000 0.000000 0.040196 0.000000 -0.001599
# 5 0.001493 0.001050 -0.002462 0.000000 0.028809 0.000000
# 6 0.000000 0.000000 0.000000 -0.001599 0.000000 0.033729
#
#
# Mechanical properties :
#
#
# Convention : Reuss Voigt Hill
#
# Bulk Modulus (GPa) = 55.89814 58.03634 56.96724
# Shear Modulus (GPa) = 25.48247 27.81862 26.65054
#
# Velocity S-wave (km/s) = 3.46719 3.62263 3.54576
# Velocity P-wave (km/s) = 6.51141 6.69900 6.60587
#
# Compressibility (1/GPa) = 0.01788968
#
# Stress axis : x y z
#
# Youngs Moduli (GPa) = 48.68110 62.82761 61.55841
#
# Poissons Ratio (x) = 0.46427 0.62479
# Poissons Ratio (y) = 0.35974 -0.00816
# Poissons Ratio (z) = 0.49409 -0.00833
#
# Static dielectric constant tensor:
#      x y z
#    x 4.212500 0.000000 -0.051360 
#    y 0.000000 3.414060 0.000000 
#    z -0.051360 0.000000 3.917410 
# 
# 
# High freq. dielectric constant tensor:
#      x y z
#    x 1.846580 0.000000 -0.001410 
#    y 0.000000 1.805480 0.000000 
#    z -0.001410 0.000000 1.845210 
# 
# From -- ./inp_files/68566.got.cif
#   From: 2010.06.25/outbox.cif.g09.slc.cpg/sg15_35_cif.got.tgz:68566.got - 2010.06.28 07:06:18.
