data_PCOD8137416
_publ_section_title
;
Structure prediction by ZEFSAII (Michael W. Deem and Ramdas Pophale) SiO2 
 PCOD8137416
Probable space group: C 2/C
;
_chemical_formula_sum "Si O2"
_cell_formula_units_Z 60
_cell_length_a 15.015649
_cell_length_b 11.947776
_cell_length_c 19.752437
_cell_angle_alpha 90.000000
_cell_angle_beta 120.316182
_cell_angle_gamma 90.000000
_cell_volume 3059.073928
_symmetry_space_group_name_H-M "C 2/C"
_symmetry_group_IT_number 15
_symmetry_cell_setting 'monoclinic'
loop_
_space_group_symop_operation_xyz
x,y,z
-x,y,1/2-z
-x,-y,-z
x,-y,1/2+z
1/2+x,1/2+y,z
1/2-x,1/2+y,1/2-z
1/2-x,1/2-y,-z
1/2+x,1/2-y,1/2+z
loop_
_atom_site_type_symbol
_atom_site_label
_atom_site_fract_x
_atom_site_fract_y
_atom_site_fract_z
Si Si1 0.271657 0.774490 0.931749
Si Si2 0.000000 0.982938 0.250000
Si Si3 0.972384 0.030807 0.887697
Si Si4 0.323795 0.791326 0.352985
Si Si5 0.619306 0.855224 0.277613
Si Si6 0.490897 0.322266 0.517464
Si Si7 0.228412 0.022586 0.339016
Si Si8 0.246567 0.445878 0.799194
O O1 0.182415 0.721216 0.852794
O O2 0.382558 0.728498 0.955443
O O3 0.274085 0.908310 0.919459
O O4 0.250000 0.750000 0.000000
O O5 0.996391 0.920371 0.175037
O O6 0.106119 0.051970 0.287328
O O7 0.025583 0.109701 0.963878
O O8 0.848528 0.023396 0.846962
O O9 0.015253 0.904623 0.919058
O O10 0.356707 0.814089 0.288821
O O11 0.427754 0.776880 0.436963
O O12 0.257717 0.677049 0.335468
O O13 0.253778 0.890701 0.357171
O O14 0.500000 0.844705 0.250000
O O15 0.654384 0.985192 0.299573
O O16 0.280130 0.068508 0.290293
#
# Coordination Sequence:
#
# PCOD8137416 Si02
#       8
#     8   4   8   8   8   8   8   8
#     4  12  23  36  61  92 123 152 203 263 311 364
#     4  10  20  36  58  84 116 154 212 258 278 370
#     4   9  18  35  61  87 113 158 208 248 305 368
#     4  10  21  41  63  84 125 167 206 250 316 377
#     4  11  22  37  62  95 123 160 209 260 311 367
#     4  10  20  36  59  88 118 161 195 258 314 369
#     4  10  22  36  59  89 117 160 203 251 308 371
#     4   9  18  39  63  84 119 160 202 249 308 370
#
# _framework density 19.613779000000001
#
# number of rings (size 3 to 8) (size 9 to 14) (size 15 to 20)
#    0.000    1.867    2.667    1.600    0.933    0.533 
#    1.200    0.667    0.000    0.000    0.000    0.000 
#    0.000    0.000    0.000    0.000    0.000    0.000 
#
# Total GULP energy -371771.534503 kJ/mol
# GULP energy per Si atom -12392.384483 kJ/mol
# Density = 1.956914 g / cm^3
# Si number density = 19.613779 Si / 1000 Ang^3
#
#
#
# Elastic Constant Matrix: (Units=GPa)
#
#
# Indices 1 2 3 4 5 6 
#
# 1 68.5814 44.4362 43.8910 0.0000 9.9724 0.0000
# 2 44.4362 115.2058 52.7804 0.0000 5.3682 0.0000
# 3 43.8910 52.7804 122.5313 0.0000 -1.5653 0.0000
# 4 0.0000 0.0000 0.0000 29.1979 0.0000 2.3424
# 5 9.9724 5.3682 -1.5653 0.0000 37.7374 0.0000
# 6 0.0000 0.0000 0.0000 2.3424 0.0000 16.1640
#
#
#
# Elastic Compliance Matrix: (Units=1/GPa)
#
#
# Indices 1 2 3 4 5 6 
#
# 1 0.022880 -0.005962 -0.005697 0.000000 -0.005435 0.000000
# 2 -0.005962 0.012482 -0.003245 0.000000 -0.000335 0.000000
# 3 -0.005697 -0.003245 0.011631 0.000000 0.002450 0.000000
# 4 0.000000 0.000000 0.000000 0.034652 0.000000 -0.005021
# 5 -0.005435 -0.000335 0.002450 0.000000 0.028084 0.000000
# 6 0.000000 0.000000 0.000000 -0.005021 0.000000 0.062594
#
#
# Mechanical properties :
#
#
# Convention : Reuss Voigt Hill
#
# Bulk Modulus (GPa) = 58.19088 65.39263 61.79176
# Shear Modulus (GPa) = 24.05457 27.63393 25.84425
#
# Velocity S-wave (km/s) = 3.50582 3.75761 3.63389
# Velocity P-wave (km/s) = 6.79120 7.22763 7.01281
#
# Compressibility (1/GPa) = 0.01718482
#
# Stress axis : x y z
#
# Youngs Moduli (GPa) = 43.70539 80.11439 85.97596
#
# Poissons Ratio (x) = 0.47764 0.48982
# Poissons Ratio (y) = 0.26057 0.27903
# Poissons Ratio (z) = 0.24900 0.26000
#
# Static dielectric constant tensor:
#      x y z
#    x 3.511440 0.000000 0.068390 
#    y 0.000000 3.323630 0.000000 
#    z 0.068390 0.000000 4.189460 
# 
# 
# High freq. dielectric constant tensor:
#      x y z
#    x 1.740940 0.000000 0.005890 
#    y 0.000000 1.748800 0.000000 
#    z 0.005890 0.000000 1.776580 
# 
# From -- ./inp_files/243774.got.cif
#   From: 2010.06.25/outbox.cif.g09.slc.cpg/sg15_122_cif.got.tgz:243774.got - 2010.06.28 07:06:18.
