data_PCOD8137035
_publ_section_title
;
Structure prediction by ZEFSAII (Michael W. Deem and Ramdas Pophale) SiO2 
 PCOD8137035
Probable space group: C 2/C
;
_chemical_formula_sum "Si O2"
_cell_formula_units_Z 48
_cell_length_a 9.201376
_cell_length_b 15.724697
_cell_length_c 18.110696
_cell_angle_alpha 90.000000
_cell_angle_beta 95.509177
_cell_angle_gamma 90.000000
_cell_volume 2608.311634
_symmetry_space_group_name_H-M "C 2/C"
_symmetry_group_IT_number 15
_symmetry_cell_setting 'monoclinic'
loop_
_space_group_symop_operation_xyz
x,y,z
-x,y,1/2-z
-x,-y,-z
x,-y,1/2+z
1/2+x,1/2+y,z
1/2-x,1/2+y,1/2-z
1/2-x,1/2-y,-z
1/2+x,1/2-y,1/2+z
loop_
_atom_site_type_symbol
_atom_site_label
_atom_site_fract_x
_atom_site_fract_y
_atom_site_fract_z
Si Si1 0.830191 0.562939 0.160887
Si Si2 0.816766 0.014295 0.564221
Si Si3 0.331043 0.164803 0.020574
Si Si4 0.856278 0.265236 0.937088
Si Si5 0.856465 0.073305 0.920139
Si Si6 0.169052 0.410320 0.673949
O O1 0.776093 0.630949 0.097542
O O2 0.754871 0.471109 0.143093
O O3 0.784038 0.598770 0.238541
O O4 0.003885 0.555868 0.161064
O O5 0.715664 0.095677 0.542281
O O6 0.986825 0.030984 0.579377
O O7 0.792470 0.942370 0.499692
O O8 0.767633 0.981564 0.641122
O O9 0.502216 0.185541 0.025179
O O10 0.250000 0.250000 0.000000
O O11 0.881670 0.172229 0.903498
O O12 0.797956 0.321286 0.865869
O O13 0.750000 0.250000 0.000000
#
# Coordination Sequence:
#
# PCOD8137035 Si02
#       6
#     8   8   8   8   8   8
#     4   9  22  38  58  77 117 152 186 233 285 344
#     4  10  20  35  59  81 114 148 184 229 285 339
#     4  10  20  37  57  83 116 148 185 232 285 334
#     4  11  21  34  60  88 112 144 193 239 276 333
#     4  10  20  36  56  87 111 143 189 236 276 334
#     4  10  21  40  56  81 114 153 189 228 291 338
#
# _framework density 18.402709000000002
#
# number of rings (size 3 to 8) (size 9 to 14) (size 15 to 20)
#    0.000    2.000    3.333    0.000    2.333    2.667 
#    3.000    1.667    0.000    0.000    0.000    0.000 
#    0.000    0.000    0.000    0.000    0.000    0.000 
#
# Total GULP energy -297514.751926 kJ/mol
# GULP energy per Si atom -12396.447997 kJ/mol
# Density = 1.836082 g / cm^3
# Si number density = 18.402709 Si / 1000 Ang^3
#
#
#
# Elastic Constant Matrix: (Units=GPa)
#
#
# Indices 1 2 3 4 5 6 
#
# 1 61.0566 32.3183 40.1512 0.0000 -8.9882 0.0000
# 2 32.3183 102.7460 34.3791 0.0000 -3.7944 0.0000
# 3 40.1512 34.3791 102.9860 0.0000 -15.5040 0.0000
# 4 0.0000 0.0000 0.0000 26.7814 0.0000 3.7912
# 5 -8.9882 -3.7944 -15.5040 0.0000 26.7219 0.0000
# 6 0.0000 0.0000 0.0000 3.7912 0.0000 34.2172
#
#
#
# Elastic Compliance Matrix: (Units=1/GPa)
#
#
# Indices 1 2 3 4 5 6 
#
# 1 0.024358 -0.005097 -0.007309 0.000000 0.003229 0.000000
# 2 -0.005097 0.012032 -0.002225 0.000000 -0.001297 0.000000
# 3 -0.007309 -0.002225 0.014118 0.000000 0.005417 0.000000
# 4 0.000000 0.000000 0.000000 0.037934 0.000000 -0.004203
# 5 0.003229 -0.001297 0.005417 0.000000 0.041467 0.000000
# 6 0.000000 0.000000 0.000000 -0.004203 0.000000 0.029691
#
#
# Mechanical properties :
#
#
# Convention : Reuss Voigt Hill
#
# Bulk Modulus (GPa) = 47.06565 53.38730 50.22647
# Shear Modulus (GPa) = 25.51754 28.20675 26.86214
#
# Velocity S-wave (km/s) = 3.72777 3.91928 3.82473
# Velocity P-wave (km/s) = 6.64525 7.03950 6.84521
#
# Compressibility (1/GPa) = 0.02124692
#
# Stress axis : x y z
#
# Youngs Moduli (GPa) = 41.05469 83.10847 70.83286
#
# Poissons Ratio (x) = 0.42359 0.51771
# Poissons Ratio (y) = 0.20925 0.15759
# Poissons Ratio (z) = 0.30006 0.18490
#
# Static dielectric constant tensor:
#      x y z
#    x 2.576610 0.000000 -0.895380 
#    y 0.000000 3.316890 0.000000 
#    z -0.895380 0.000000 2.478500 
# 
# 
# High freq. dielectric constant tensor:
#      x y z
#    x 1.715170 0.000000 -0.002940 
#    y 0.000000 1.717490 0.000000 
#    z -0.002940 0.000000 1.701700 
# 
# From -- ./inp_files/189204.got.cif
#   From: 2010.06.25/outbox.cif.g09.slc.cpg/sg15_95_cif.got.tgz:189204.got - 2010.06.28 07:06:18.
