data_PCOD8137926
_publ_section_title
;
Structure prediction by ZEFSAII (Michael W. Deem and Ramdas Pophale) SiO2 
 PCOD8137926
Probable space group: C 2/C
;
_chemical_formula_sum "Si O2"
_cell_formula_units_Z 44
_cell_length_a 20.037019
_cell_length_b 8.535835
_cell_length_c 14.581165
_cell_angle_alpha 90.000000
_cell_angle_beta 45.589064
_cell_angle_gamma 90.000000
_cell_volume 1781.458796
_symmetry_space_group_name_H-M "C 2/C"
_symmetry_group_IT_number 15
_symmetry_cell_setting 'monoclinic'
loop_
_space_group_symop_operation_xyz
x,y,z
-x,y,1/2-z
-x,-y,-z
x,-y,1/2+z
1/2+x,1/2+y,z
1/2-x,1/2+y,1/2-z
1/2-x,1/2-y,-z
1/2+x,1/2-y,1/2+z
loop_
_atom_site_type_symbol
_atom_site_label
_atom_site_fract_x
_atom_site_fract_y
_atom_site_fract_z
Si Si1 0.801119 0.026219 0.712693
Si Si2 0.000000 0.953667 0.250000
Si Si3 0.606713 0.915058 0.175352
Si Si4 0.334278 0.746974 0.851749
Si Si5 0.459575 0.676338 0.129244
Si Si6 0.154442 0.301967 0.934316
O O1 0.811591 0.159635 0.779760
O O2 0.796795 0.129219 0.623214
O O3 0.895641 0.918005 0.617609
O O4 0.706711 0.928151 0.818843
O O5 0.911755 0.842837 0.334056
O O6 0.010674 0.059885 0.150114
O O7 0.500000 0.935436 0.250000
O O8 0.615981 0.780033 0.242779
O O9 0.639896 0.073239 0.191803
O O10 0.664349 0.862261 0.029173
O O11 0.250000 0.750000 0.000000
O O12 0.545108 0.780990 0.005181
#
# Coordination Sequence:
#
# PCOD8137926 Si02
#       6
#     8   4   8   8   8   8
#     4  11  26  41  67 101 135 175 220 270 348 386
#     4  10  20  36  66  98 130 160 226 274 318 380
#     4  10  20  42  70  94 130 173 225 269 328 386
#     4  11  22  39  66 100 128 172 220 272 323 400
#     4  10  22  44  70  96 127 185 221 273 327 396
#     4  11  23  46  63  99 140 173 218 280 327 397
#
# _framework density 24.698858999999999
#
# number of rings (size 3 to 8) (size 9 to 14) (size 15 to 20)
#    0.000    1.455    5.455    0.545    0.000    5.091 
#    0.000    8.182    0.000    0.000    0.000    0.000 
#    0.000    0.000    0.000    0.000    0.000    0.000 
#
# Total GULP energy -272699.022438 kJ/mol
# GULP energy per Si atom -12395.410111 kJ/mol
# Density = 2.464264 g / cm^3
# Si number density = 24.698859 Si / 1000 Ang^3
#
#
#
# Elastic Constant Matrix: (Units=GPa)
#
#
# Indices 1 2 3 4 5 6 
#
# 1 54.7615 47.7792 27.3693 0.0001 -12.1654 0.0000
# 2 47.7792 175.1443 57.5209 0.0004 -5.8322 0.0000
# 3 27.3693 57.5209 112.2485 0.0000 -26.5546 0.0001
# 4 0.0001 0.0004 0.0000 45.7194 0.0000 -2.7225
# 5 -12.1654 -5.8322 -26.5546 0.0000 18.7031 0.0000
# 6 0.0000 0.0000 0.0001 -2.7225 0.0000 46.6578
#
#
#
# Elastic Compliance Matrix: (Units=1/GPa)
#
#
# Indices 1 2 3 4 5 6 
#
# 1 0.028097 -0.007447 0.001113 0.000000 0.017534 0.000000
# 2 -0.007447 0.009076 -0.004986 0.000000 -0.009093 0.000000
# 3 0.001113 -0.004986 0.016557 0.000000 0.022677 0.000000
# 4 0.000000 0.000000 0.000000 0.021949 0.000000 0.001281
# 5 0.017534 -0.009093 0.022677 0.000000 0.094233 0.000000
# 6 0.000000 0.000000 0.000000 0.001281 0.000000 0.021507
#
#
# Mechanical properties :
#
#
# Convention : Reuss Voigt Hill
#
# Bulk Modulus (GPa) = 32.16397 67.49922 49.83159
# Shear Modulus (GPa) = 22.27941 36.18173 29.23057
#
# Velocity S-wave (km/s) = 3.00666 3.83157 3.44390
# Velocity P-wave (km/s) = 5.01040 6.85294 6.00279
#
# Compressibility (1/GPa) = 0.03109069
#
# Stress axis : x y z
#
# Youngs Moduli (GPa) = 35.59100 110.18331 60.39637
#
# Poissons Ratio (x) = 0.82048 -0.06723
# Poissons Ratio (y) = 0.26503 0.30115
# Poissons Ratio (z) = -0.03962 0.54940
#
# Static dielectric constant tensor:
#      x y z
#    x 4.035820 0.000000 -0.143350 
#    y 0.000000 4.973430 0.000000 
#    z -0.143350 0.000000 4.617980 
# 
# 
# High freq. dielectric constant tensor:
#      x y z
#    x 1.961180 0.000000 -0.016100 
#    y 0.000000 2.001990 0.000000 
#    z -0.016100 0.000000 1.988350 
# 
# From -- ./inp_files/221612.got.cif
#   From: 2010.06.25/outbox.cif.g09.slc.cpg/sg15_111_cif.got.tgz:221612.got - 2010.06.28 07:06:18.
