data_PCOD8137268
_publ_section_title
;
Structure prediction by ZEFSAII (Michael W. Deem and Ramdas Pophale) SiO2 
 PCOD8137268
Probable space group: C 2/C
;
_chemical_formula_sum "Si O2"
_cell_formula_units_Z 36
_cell_length_a 28.243738
_cell_length_b 9.046832
_cell_length_c 22.140183
_cell_angle_alpha 90.000000
_cell_angle_beta 18.589592
_cell_angle_gamma 90.000000
_cell_volume 1803.435843
_symmetry_space_group_name_H-M "C 2/C"
_symmetry_group_IT_number 15
_symmetry_cell_setting 'monoclinic'
loop_
_space_group_symop_operation_xyz
x,y,z
-x,y,1/2-z
-x,-y,-z
x,-y,1/2+z
1/2+x,1/2+y,z
1/2-x,1/2+y,1/2-z
1/2-x,1/2-y,-z
1/2+x,1/2-y,1/2+z
loop_
_atom_site_type_symbol
_atom_site_label
_atom_site_fract_x
_atom_site_fract_y
_atom_site_fract_z
Si Si1 0.014143 0.131680 0.359810
Si Si2 0.000000 0.999963 0.250000
Si Si3 0.807329 0.692064 0.766984
Si Si4 0.044079 0.192053 0.530214
Si Si5 0.762071 0.631700 0.363964
O O1 0.048904 0.098943 0.247767
O O2 0.149865 0.223748 0.223003
O O3 0.862335 0.228456 0.546092
O O4 0.989314 0.982344 0.428391
O O5 0.857758 0.900984 0.438922
O O6 0.918743 0.750010 0.581266
O O7 0.824737 0.517668 0.757569
O O8 0.179234 0.228453 0.412310
O O9 0.895631 0.276237 0.731483
#
# Coordination Sequence:
#
# PCOD8137268 Si02
#       5
#     8   4   8   8   8
#     4  10  22  35  58  78 111 143 175 225 260 321
#     4   8  20  40  52  80 108 140 184 218 268 308
#     4  10  20  36  55  83 108 139 177 221 271 313
#     4  10  20  36  55  83 108 139 177 221 271 313
#     4  10  22  35  58  78 111 143 175 225 260 321
#
# _framework density 19.961897
#
# number of rings (size 3 to 8) (size 9 to 14) (size 15 to 20)
#    0.000    2.667    0.000    2.667    0.000   12.444 
#    0.000    0.000    0.000   21.333    0.000    0.000 
#    0.000    0.000    0.000    0.000    0.000    0.000 
#
# Total GULP energy -223155.563870 kJ/mol
# GULP energy per Si atom -12397.531326 kJ/mol
# Density = 1.991646 g / cm^3
# Si number density = 19.961897 Si / 1000 Ang^3
#
#
#
# Elastic Constant Matrix: (Units=GPa)
#
#
# Indices 1 2 3 4 5 6 
#
# 1 109.0622 62.1918 67.4069 0.0006 3.3729 -0.0001
# 2 62.1918 81.5281 62.3856 0.0045 -18.6623 -0.0004
# 3 67.4069 62.3856 108.9669 0.0021 3.2070 -0.0004
# 4 0.0006 0.0045 0.0021 28.0020 0.0007 -13.4280
# 5 3.3729 -18.6623 3.2070 0.0007 36.5381 -0.0005
# 6 -0.0001 -0.0004 -0.0004 -13.4280 -0.0005 27.8590
#
#
#
# Elastic Compliance Matrix: (Units=1/GPa)
#
#
# Indices 1 2 3 4 5 6 
#
# 1 0.020012 -0.014232 -0.003973 0.000003 -0.008768 0.000001
# 2 -0.014232 0.039293 -0.014358 -0.000007 0.022643 -0.000003
# 3 -0.003973 -0.014358 0.020112 0.000001 -0.008732 0.000001
# 4 0.000003 -0.000007 0.000001 0.046447 -0.000004 0.022388
# 5 -0.008768 0.022643 -0.008732 -0.000004 0.040510 -0.000001
# 6 0.000001 -0.000003 0.000001 0.022388 -0.000001 0.046686
#
#
# Mechanical properties :
#
#
# Convention : Reuss Voigt Hill
#
# Bulk Modulus (GPa) = 69.98075 75.94731 72.96403
# Shear Modulus (GPa) = 17.67107 25.65137 21.66122
#
# Velocity S-wave (km/s) = 2.97853 3.58860 3.29770
# Velocity P-wave (km/s) = 6.85289 7.43636 7.15058
#
# Compressibility (1/GPa) = 0.01428964
#
# Stress axis : x y z
#
# Youngs Moduli (GPa) = 49.97103 25.45013 49.72207
#
# Poissons Ratio (x) = 0.36222 0.19753
# Poissons Ratio (y) = 0.71121 0.71390
# Poissons Ratio (z) = 0.19852 0.36541
#
# Static dielectric constant tensor:
#      x y z
#    x 3.618690 0.000000 -0.139010 
#    y 0.000000 3.420090 0.000000 
#    z -0.139010 0.000000 3.620070 
# 
# 
# High freq. dielectric constant tensor:
#      x y z
#    x 1.782790 0.000000 -0.007040 
#    y 0.000000 1.761590 0.000000 
#    z -0.007040 0.000000 1.782860 
# 
# From -- ./inp_files/109341.got.cif
#   From: 2010.06.25/outbox.cif.g09.slc.cpg/sg15_55_cif.got.tgz:109341.got - 2010.06.28 07:06:18.
