data_PCOD8137118
_publ_section_title
;
Structure prediction by ZEFSAII (Michael W. Deem and Ramdas Pophale) SiO2 
 PCOD8137118
Probable space group: C 2/C
;
_chemical_formula_sum "Si O2"
_cell_formula_units_Z 60
_cell_length_a 20.042504
_cell_length_b 19.286581
_cell_length_c 13.620112
_cell_angle_alpha 90.000000
_cell_angle_beta 36.138882
_cell_angle_gamma 90.000000
_cell_volume 3104.930127
_symmetry_space_group_name_H-M "C 2/C"
_symmetry_group_IT_number 15
_symmetry_cell_setting 'monoclinic'
loop_
_space_group_symop_operation_xyz
x,y,z
-x,y,1/2-z
-x,-y,-z
x,-y,1/2+z
1/2+x,1/2+y,z
1/2-x,1/2+y,1/2-z
1/2-x,1/2-y,-z
1/2+x,1/2-y,1/2+z
loop_
_atom_site_type_symbol
_atom_site_label
_atom_site_fract_x
_atom_site_fract_y
_atom_site_fract_z
Si Si1 0.977208 0.822989 0.890982
Si Si2 0.571914 0.828027 0.064285
Si Si3 0.444527 0.050960 0.639648
Si Si4 0.318301 0.697050 0.226615
Si Si5 0.000000 0.457063 0.750000
Si Si6 0.125470 0.190664 0.569253
Si Si7 0.240227 0.352957 0.221829
Si Si8 0.309779 0.845097 0.998827
O O1 0.946853 0.745833 0.963320
O O2 0.000000 0.824532 0.750000
O O3 0.084897 0.843251 0.827703
O O4 0.867905 0.870070 0.037530
O O5 0.500000 0.835921 0.250000
O O6 0.529220 0.884802 0.040003
O O7 0.707279 0.837936 0.907630
O O8 0.325484 0.080634 0.742908
O O9 0.500000 0.000000 0.500000
O O10 0.438286 0.008743 0.747844
O O11 0.312519 0.780188 0.255930
O O12 0.341771 0.680433 0.084179
O O13 0.100747 0.407314 0.596094
O O14 0.216601 0.145685 0.523510
O O15 0.128964 0.271808 0.593591
O O16 0.000000 0.164291 0.750000
O O17 0.251759 0.345827 0.324331
#
# Coordination Sequence:
#
# PCOD8137118 Si02
#       8
#     8   8   8   8   4   8   8   8
#     4  10  21  34  61  89 121 155 193 254 305 357
#     4  10  22  37  57  87 121 156 203 246 303 356
#     4  12  24  38  60  85 120 164 198 247 293 355
#     4  10  21  35  59  91 122 155 194 258 305 361
#     4  12  24  38  60  88 120 162 202 244 288 360
#     4  10  20  35  61  86 121 155 193 253 311 364
#     4  10  21  38  58  87 123 155 202 246 305 359
#     4  10  21  37  57  87 120 154 199 248 304 355
#
# _framework density 19.324107000000001
#
# number of rings (size 3 to 8) (size 9 to 14) (size 15 to 20)
#    0.000    1.600    4.000    0.800    3.733    2.667 
#    0.000    0.000    0.000    3.200    0.000    0.000 
#    0.000    0.000    0.000    0.000    0.000    0.000 
#
# Total GULP energy -371708.690200 kJ/mol
# GULP energy per Si atom -12390.289673 kJ/mol
# Density = 1.928012 g / cm^3
# Si number density = 19.324107 Si / 1000 Ang^3
#
#
#
# Elastic Constant Matrix: (Units=GPa)
#
#
# Indices 1 2 3 4 5 6 
#
# 1 132.3487 30.4796 59.7377 0.0000 -14.0599 0.0000
# 2 30.4796 54.2216 36.5083 -0.0001 -5.4867 0.0000
# 3 59.7377 36.5083 144.3667 -0.0001 -20.5027 0.0000
# 4 0.0000 -0.0001 -0.0001 12.3391 0.0001 5.9585
# 5 -14.0599 -5.4867 -20.5027 0.0001 34.9701 0.0000
# 6 0.0000 0.0000 0.0000 5.9585 0.0000 18.4342
#
#
#
# Elastic Compliance Matrix: (Units=1/GPa)
#
#
# Indices 1 2 3 4 5 6 
#
# 1 0.009858 -0.003357 -0.002991 0.000000 0.001683 0.000000
# 2 -0.003357 0.023372 -0.004573 0.000000 -0.000364 0.000000
# 3 -0.002991 -0.004573 0.009870 0.000000 0.003867 0.000000
# 4 0.000000 0.000000 0.000000 0.096033 0.000000 -0.031041
# 5 0.001683 -0.000364 0.003867 0.000000 0.031482 0.000000
# 6 0.000000 0.000000 0.000000 -0.031041 0.000000 0.064280
#
#
# Mechanical properties :
#
#
# Convention : Reuss Voigt Hill
#
# Bulk Modulus (GPa) = 47.04188 64.93202 55.98695
# Shear Modulus (GPa) = 18.95201 26.76278 22.85739
#
# Velocity S-wave (km/s) = 3.13508 3.72552 3.44298
# Velocity P-wave (km/s) = 6.12384 7.22361 6.69634
#
# Compressibility (1/GPa) = 0.02125765
#
# Stress axis : x y z
#
# Youngs Moduli (GPa) = 101.44252 42.78582 101.31630
#
# Poissons Ratio (x) = 0.14364 0.30305
# Poissons Ratio (y) = 0.34055 0.46332
# Poissons Ratio (z) = 0.30342 0.19566
#
# Static dielectric constant tensor:
#      x y z
#    x 3.439430 0.000000 -0.096890 
#    y 0.000000 3.474680 0.000000 
#    z -0.096890 0.000000 3.545770 
# 
# 
# High freq. dielectric constant tensor:
#      x y z
#    x 1.761000 0.000000 -0.002210 
#    y 0.000000 1.716200 0.000000 
#    z -0.002210 0.000000 1.760930 
# 
# From -- ./inp_files/169459.got.cif
#   From: 2010.06.25/outbox.cif.g09.slc.cpg/sg15_85_cif.got.tgz:169459.got - 2010.06.28 07:06:18.
