data_PCOD8137466
_publ_section_title
;
Structure prediction by ZEFSAII (Michael W. Deem and Ramdas Pophale) SiO2 
 PCOD8137466
Probable space group: C 2/C
;
_chemical_formula_sum "Si O2"
_cell_formula_units_Z 48
_cell_length_a 16.667797
_cell_length_b 9.775515
_cell_length_c 14.077242
_cell_angle_alpha 90.000000
_cell_angle_beta 94.288159
_cell_angle_gamma 90.000000
_cell_volume 2287.272771
_symmetry_space_group_name_H-M "C 2/C"
_symmetry_group_IT_number 15
_symmetry_cell_setting 'monoclinic'
loop_
_space_group_symop_operation_xyz
x,y,z
-x,y,1/2-z
-x,-y,-z
x,-y,1/2+z
1/2+x,1/2+y,z
1/2-x,1/2+y,1/2-z
1/2-x,1/2-y,-z
1/2+x,1/2-y,1/2+z
loop_
_atom_site_type_symbol
_atom_site_label
_atom_site_fract_x
_atom_site_fract_y
_atom_site_fract_z
Si Si1 0.406098 0.707965 0.022989
Si Si2 0.771666 0.526797 0.735489
Si Si3 0.860180 0.482890 0.917594
Si Si4 0.345017 0.306783 0.727426
Si Si5 0.713424 0.473074 0.530577
Si Si6 0.082763 0.228337 0.070707
O O1 0.385278 0.728766 0.131214
O O2 0.499687 0.665093 0.023768
O O3 0.395421 0.848223 0.965980
O O4 0.349270 0.598505 0.967608
O O5 0.849352 0.470649 0.801826
O O6 0.691751 0.459845 0.775659
O O7 0.774692 0.692903 0.740908
O O8 0.773281 0.477179 0.626486
O O9 0.917880 0.609175 0.949112
O O10 0.768817 0.515378 0.943644
O O11 0.411547 0.300541 0.816095
O O12 0.659740 0.335991 0.523162
#
# Coordination Sequence:
#
# PCOD8137466 Si02
#       6
#     8   8   8   8   8   8
#     4  12  21  39  61  88 115 159 194 236 294 348
#     4  10  20  36  58  92 110 146 200 248 276 332
#     4  11  21  38  63  85 115 156 198 239 282 349
#     4  10  20  37  59  85 118 151 195 238 287 344
#     4  11  21  38  63  85 115 156 198 239 282 349
#     4  10  24  37  57  88 126 150 187 245 296 339
#
# _framework density 20.985690000000002
#
# number of rings (size 3 to 8) (size 9 to 14) (size 15 to 20)
#    0.000    1.333    3.333    3.500    0.000    0.000 
#    0.000    0.000    0.000    2.000    0.000    0.000 
#    0.000    0.000    0.000    0.000    0.000    0.000 
#
# Total GULP energy -297475.955397 kJ/mol
# GULP energy per Si atom -12394.831475 kJ/mol
# Density = 2.093793 g / cm^3
# Si number density = 20.985690 Si / 1000 Ang^3
#
#
#
# Elastic Constant Matrix: (Units=GPa)
#
#
# Indices 1 2 3 4 5 6 
#
# 1 77.5132 15.5647 20.1952 0.0000 12.5138 0.0000
# 2 15.5647 74.6885 15.9128 0.0000 8.4114 0.0000
# 3 20.1952 15.9128 71.6664 0.0000 15.3598 0.0000
# 4 0.0000 0.0000 0.0000 27.3825 0.0000 1.1536
# 5 12.5138 8.4114 15.3598 0.0000 15.2741 0.0000
# 6 0.0000 0.0000 0.0000 1.1536 0.0000 21.4327
#
#
#
# Elastic Compliance Matrix: (Units=1/GPa)
#
#
# Indices 1 2 3 4 5 6 
#
# 1 0.015295 -0.001697 -0.001846 0.000000 -0.009740 0.000000
# 2 -0.001697 0.014667 -0.001715 0.000000 -0.004962 0.000000
# 3 -0.001846 -0.001715 0.018264 0.000000 -0.015910 0.000000
# 4 0.000000 0.000000 0.000000 0.036603 0.000000 -0.001970
# 5 -0.009740 -0.004962 -0.015910 0.000000 0.092182 0.000000
# 6 0.000000 0.000000 0.000000 -0.001970 0.000000 0.046764
#
#
# Mechanical properties :
#
#
# Convention : Reuss Voigt Hill
#
# Bulk Modulus (GPa) = 26.51759 36.35705 31.43732
# Shear Modulus (GPa) = 20.25433 24.29758 22.27595
#
# Velocity S-wave (km/s) = 3.11006 3.40636 3.26158
# Velocity P-wave (km/s) = 5.05570 5.73004 5.40340
#
# Compressibility (1/GPa) = 0.03771081
#
# Stress axis : x y z
#
# Youngs Moduli (GPa) = 65.38003 68.18116 54.75142
#
# Poissons Ratio (x) = 0.11572 0.10105
# Poissons Ratio (y) = 0.11097 0.09389
# Poissons Ratio (z) = 0.12067 0.11692
#
# Static dielectric constant tensor:
#      x y z
#    x 3.526530 0.000000 0.192000 
#    y 0.000000 3.862330 0.000000 
#    z 0.192000 0.000000 3.872080 
# 
# 
# High freq. dielectric constant tensor:
#      x y z
#    x 1.794000 0.000000 0.023450 
#    y 0.000000 1.825780 0.000000 
#    z 0.023450 0.000000 1.829530 
# 
# From -- ./inp_files/159734.got.cif
#   From: 2010.06.25/outbox.cif.g09.slc.cpg/sg15_80_cif.got.tgz:159734.got - 2010.06.28 07:06:18.
