data_PCOD8137339
_publ_section_title
;
Structure prediction by ZEFSAII (Michael W. Deem and Ramdas Pophale) SiO2 
 PCOD8137339
Probable space group: C 2/C
;
_chemical_formula_sum "Si O2"
_cell_formula_units_Z 48
_cell_length_a 7.254392
_cell_length_b 13.920494
_cell_length_c 23.723630
_cell_angle_alpha 90.000000
_cell_angle_beta 92.936410
_cell_angle_gamma 90.000000
_cell_volume 2392.578566
_symmetry_space_group_name_H-M "C 2/C"
_symmetry_group_IT_number 15
_symmetry_cell_setting 'monoclinic'
loop_
_space_group_symop_operation_xyz
x,y,z
-x,y,1/2-z
-x,-y,-z
x,-y,1/2+z
1/2+x,1/2+y,z
1/2-x,1/2+y,1/2-z
1/2-x,1/2-y,-z
1/2+x,1/2-y,1/2+z
loop_
_atom_site_type_symbol
_atom_site_label
_atom_site_fract_x
_atom_site_fract_y
_atom_site_fract_z
Si Si1 0.956666 0.007092 0.853613
Si Si2 0.935176 0.201678 0.687971
Si Si3 0.720730 0.233471 0.101313
Si Si4 0.443900 0.698821 0.311646
Si Si5 0.167107 0.569899 0.934699
Si Si6 0.211450 0.473055 0.558133
O O1 0.763168 0.034383 0.879030
O O2 0.039528 0.086540 0.812535
O O3 0.907438 0.914781 0.815388
O O4 0.101525 0.994829 0.906477
O O5 0.727824 0.235528 0.673641
O O6 0.000000 0.241481 0.750000
O O7 0.048216 0.242522 0.637595
O O8 0.780319 0.317191 0.058541
O O9 0.657861 0.138106 0.067564
O O10 0.894787 0.221148 0.143510
O O11 0.500000 0.728186 0.250000
O O12 0.949054 0.546544 0.924379
O O13 0.241243 0.514558 0.991422
#
# Coordination Sequence:
#
# PCOD8137339 Si02
#       6
#     8   8   8   8   8   8
#     4  10  22  36  56  82 112 144 188 232 282 336
#     4  11  21  37  57  79 111 148 187 233 285 338
#     4  10  21  36  56  82 112 146 185 230 280 336
#     4  11  21  37  57  79 111 148 187 233 285 338
#     4  10  20  36  57  82 112 146 185 229 279 335
#     4  10  20  36  57  82 112 146 185 229 279 335
#
# _framework density 20.062037
#
# number of rings (size 3 to 8) (size 9 to 14) (size 15 to 20)
#    0.000    1.667    1.667    3.500    0.000    0.000 
#    0.000    0.000    0.000   16.000    0.000    0.000 
#    0.000    0.000    0.000    0.000    0.000    0.000 
#
# Total GULP energy -297544.185357 kJ/mol
# GULP energy per Si atom -12397.674390 kJ/mol
# Density = 2.001638 g / cm^3
# Si number density = 20.062037 Si / 1000 Ang^3
#
#
#
# Elastic Constant Matrix: (Units=GPa)
#
#
# Indices 1 2 3 4 5 6 
#
# 1 68.8352 35.4985 22.0300 0.0000 -22.7691 0.0000
# 2 35.4985 79.1177 7.6105 0.0000 -26.4777 0.0000
# 3 22.0300 7.6105 55.9562 0.0000 -5.9700 0.0000
# 4 0.0000 0.0000 0.0000 26.1415 0.0000 -1.2067
# 5 -22.7691 -26.4777 -5.9700 0.0000 25.6663 0.0000
# 6 0.0000 0.0000 0.0000 -1.2067 0.0000 28.6385
#
#
#
# Elastic Compliance Matrix: (Units=1/GPa)
#
#
# Indices 1 2 3 4 5 6 
#
# 1 0.024437 -0.005459 -0.007349 0.000000 0.014337 0.000000
# 2 -0.005459 0.020538 0.001128 0.000000 0.016606 0.000000
# 3 -0.007349 0.001128 0.020549 0.000000 -0.000576 0.000000
# 4 0.000000 0.000000 0.000000 0.038328 0.000000 0.001615
# 5 0.014337 0.016606 -0.000576 0.000000 0.068678 0.000000
# 6 0.000000 0.000000 0.000000 0.001615 0.000000 0.034986
#
#
# Mechanical properties :
#
#
# Convention : Reuss Voigt Hill
#
# Bulk Modulus (GPa) = 23.71692 37.13189 30.42441
# Shear Modulus (GPa) = 20.41380 25.34060 22.87720
#
# Velocity S-wave (km/s) = 3.19334 3.55788 3.38053
# Velocity P-wave (km/s) = 5.04421 5.95204 5.51683
#
# Compressibility (1/GPa) = 0.04216399
#
# Stress axis : x y z
#
# Youngs Moduli (GPa) = 40.92105 48.69025 48.66303
#
# Poissons Ratio (x) = 0.26582 0.35761
# Poissons Ratio (y) = 0.22341 -0.05488
# Poissons Ratio (z) = 0.30072 -0.05491
#
# Static dielectric constant tensor:
#      x y z
#    x 3.509140 0.000000 -0.075370 
#    y 0.000000 3.962790 0.000000 
#    z -0.075370 0.000000 3.454980 
# 
# 
# High freq. dielectric constant tensor:
#      x y z
#    x 1.783280 0.000000 -0.006240 
#    y 0.000000 1.785980 0.000000 
#    z -0.006240 0.000000 1.786610 
# 
# From -- ./inp_files/285561.got.cif
#   From: 2010.06.25/outbox.cif.g09.slc.cpg/sg15_143_cif.got.tgz:285561.got - 2010.06.28 07:06:18.
