data_PCOD8137176
_publ_section_title
;
Structure prediction by ZEFSAII (Michael W. Deem and Ramdas Pophale) SiO2 
 PCOD8137176
Probable space group: C 2/C
;
_chemical_formula_sum "Si O2"
_cell_formula_units_Z 64
_cell_length_a 8.901426
_cell_length_b 18.959369
_cell_length_c 19.655909
_cell_angle_alpha 90.000000
_cell_angle_beta 112.682351
_cell_angle_gamma 90.000000
_cell_volume 3060.672349
_symmetry_space_group_name_H-M "C 2/C"
_symmetry_group_IT_number 15
_symmetry_cell_setting 'monoclinic'
loop_
_space_group_symop_operation_xyz
x,y,z
-x,y,1/2-z
-x,-y,-z
x,-y,1/2+z
1/2+x,1/2+y,z
1/2-x,1/2+y,1/2-z
1/2-x,1/2-y,-z
1/2+x,1/2-y,1/2+z
loop_
_atom_site_type_symbol
_atom_site_label
_atom_site_fract_x
_atom_site_fract_y
_atom_site_fract_z
Si Si1 0.640953 0.438531 0.827910
Si Si2 0.820164 0.433760 0.305465
Si Si3 0.675169 0.342341 0.161193
Si Si4 0.213638 0.215679 0.385507
Si Si5 0.483465 0.781362 0.036176
Si Si6 0.364777 0.514530 0.532134
Si Si7 0.809726 0.846878 0.092028
Si Si8 0.848352 0.584582 0.581031
O O1 0.500000 0.422187 0.750000
O O2 0.767658 0.485537 0.807509
O O3 0.720702 0.363865 0.861154
O O4 0.583159 0.479449 0.886245
O O5 0.739407 0.398476 0.226382
O O6 0.761087 0.387115 0.356835
O O7 0.016642 0.434800 0.338117
O O8 0.789737 0.271841 0.178037
O O9 0.489111 0.318302 0.142261
O O10 0.690179 0.384475 0.092113
O O11 0.382424 0.240204 0.451705
O O12 0.058672 0.227650 0.408880
O O13 0.678411 0.783937 0.053619
O O14 0.419938 0.858951 0.041694
O O15 0.500000 0.500000 0.500000
O O16 0.329117 0.597768 0.533367
O O17 0.197833 0.481114 0.474569
#
# Coordination Sequence:
#
# PCOD8137176 Si02
#       8
#     8   8   8   8   8   8   8   8
#     4  11  24  40  62  92 128 167 206 264 324 380
#     4  10  22  38  62  90 123 162 210 258 313 378
#     4  11  21  39  60  92 124 166 207 258 310 382
#     4  10  22  39  63  85 129 163 216 256 321 378
#     4   9  20  38  60  92 118 165 210 263 303 384
#     4  11  21  37  63  95 127 159 208 266 319 370
#     4  10  21  35  63  88 121 160 208 257 315 360
#     4  10  20  35  63  90 120 160 208 261 305 371
#
# _framework density 20.910439
#
# number of rings (size 3 to 8) (size 9 to 14) (size 15 to 20)
#    0.000    1.750    2.500    2.250    1.750    5.000 
#    0.000    0.000    0.000    3.000    0.000    0.000 
#    0.000    0.000    0.000    0.000    0.000    0.000 
#
# Total GULP energy -396545.366157 kJ/mol
# GULP energy per Si atom -12392.042692 kJ/mol
# Density = 2.086285 g / cm^3
# Si number density = 20.910439 Si / 1000 Ang^3
#
#
#
# Elastic Constant Matrix: (Units=GPa)
#
#
# Indices 1 2 3 4 5 6 
#
# 1 105.8178 27.2530 40.7594 0.0000 11.4856 0.0000
# 2 27.2530 98.5036 26.5521 0.0000 -5.5851 0.0000
# 3 40.7594 26.5521 83.1020 0.0000 10.9466 0.0000
# 4 0.0000 0.0000 0.0000 29.8907 0.0000 -2.6742
# 5 11.4856 -5.5851 10.9466 0.0000 25.1159 0.0000
# 6 0.0000 0.0000 0.0000 -2.6742 0.0000 29.1711
#
#
#
# Elastic Compliance Matrix: (Units=1/GPa)
#
#
# Indices 1 2 3 4 5 6 
#
# 1 0.012335 -0.002363 -0.004756 0.000000 -0.004093 0.000000
# 2 -0.002363 0.012009 -0.003365 0.000000 0.005218 0.000000
# 3 -0.004756 -0.003365 0.016182 0.000000 -0.005627 0.000000
# 4 0.000000 0.000000 0.000000 0.033732 0.000000 0.003092
# 5 -0.004093 0.005218 -0.005627 0.000000 0.045300 0.000000
# 6 0.000000 0.000000 0.000000 0.003092 0.000000 0.034564
#
#
# Mechanical properties :
#
#
# Convention : Reuss Voigt Hill
#
# Bulk Modulus (GPa) = 51.12976 52.95028 52.04002
# Shear Modulus (GPa) = 27.53170 29.69281 28.61225
#
# Velocity S-wave (km/s) = 3.63250 3.77238 3.70310
# Velocity P-wave (km/s) = 6.48832 6.65972 6.57458
#
# Compressibility (1/GPa) = 0.01955808
#
# Stress axis : x y z
#
# Youngs Moduli (GPa) = 81.07066 83.27362 61.79560
#
# Poissons Ratio (x) = 0.19676 0.29389
# Poissons Ratio (y) = 0.19156 0.20796
# Poissons Ratio (z) = 0.38555 0.28024
#
# Static dielectric constant tensor:
#      x y z
#    x 4.204360 0.000000 0.066230 
#    y 0.000000 4.269500 0.000000 
#    z 0.066230 0.000000 3.931000 
# 
# 
# High freq. dielectric constant tensor:
#      x y z
#    x 1.817480 0.000000 0.000220 
#    y 0.000000 1.809820 0.000000 
#    z 0.000220 0.000000 1.812590 
# 
# From -- ./inp_files/233878.got.cif
#   From: 2010.06.25/outbox.cif.g09.slc.cpg/sg15_117_cif.got.tgz:233878.got - 2010.06.28 07:06:18.
