data_PCOD8137971
_publ_section_title
;
Structure prediction by ZEFSAII (Michael W. Deem and Ramdas Pophale) SiO2 
 PCOD8137971
Probable space group: C 2/C
;
_chemical_formula_sum "Si O2"
_cell_formula_units_Z 48
_cell_length_a 17.904858
_cell_length_b 18.397329
_cell_length_c 14.979077
_cell_angle_alpha 90.000000
_cell_angle_beta 32.747699
_cell_angle_gamma 90.000000
_cell_volume 2669.072457
_symmetry_space_group_name_H-M "C 2/C"
_symmetry_group_IT_number 15
_symmetry_cell_setting 'monoclinic'
loop_
_space_group_symop_operation_xyz
x,y,z
-x,y,1/2-z
-x,-y,-z
x,-y,1/2+z
1/2+x,1/2+y,z
1/2-x,1/2+y,1/2-z
1/2-x,1/2-y,-z
1/2+x,1/2-y,1/2+z
loop_
_atom_site_type_symbol
_atom_site_label
_atom_site_fract_x
_atom_site_fract_y
_atom_site_fract_z
Si Si1 0.892109 0.542031 0.173434
Si Si2 0.351738 0.536218 0.655037
Si Si3 0.226279 0.674222 0.307421
Si Si4 0.040328 0.814778 0.515716
Si Si5 0.500000 0.986357 0.750000
Si Si6 0.000000 0.123663 0.250000
Si Si7 0.755610 0.053445 0.415378
O O1 0.753177 0.492603 0.316080
O O2 0.846156 0.622503 0.191903
O O3 0.960911 0.558392 0.200497
O O4 0.000000 0.500000 0.000000
O O5 0.500000 0.500000 0.500000
O O6 0.374428 0.621834 0.620254
O O7 0.286036 0.512797 0.816175
O O8 0.131844 0.744399 0.408926
O O9 0.387688 0.693525 0.124480
O O10 0.225221 0.630255 0.400004
O O11 0.026482 0.827498 0.635895
O O12 0.626272 0.038410 0.605583
O O13 0.121136 0.066028 0.140915
#
# Coordination Sequence:
#
# PCOD8137971 Si02
#       7
#     8   8   8   8   4   4   8
#     4  11  22  41  61  92 123 156 211 248 298 365
#     4  11  19  41  62  84 122 164 204 246 294 363
#     4  10  23  39  55  89 122 161 199 241 307 364
#     4  11  23  36  61  86 125 164 195 252 309 360
#     4  12  22  35  66  91 120 160 198 266 292 355
#     4  10  20  37  54  91 122 160 204 244 294 379
#     4  10  22  36  58  91 120 160 204 242 307 351
#
# _framework density 17.983775000000001
#
# number of rings (size 3 to 8) (size 9 to 14) (size 15 to 20)
#    0.000    1.333    8.333    1.000    2.333    4.667 
#    0.000    0.000    0.000    5.000    0.000    0.000 
#    0.000    0.000    0.000    0.000    0.000    0.000 
#
# Total GULP energy -297336.346707 kJ/mol
# GULP energy per Si atom -12389.014446 kJ/mol
# Density = 1.794284 g / cm^3
# Si number density = 17.983775 Si / 1000 Ang^3
#
#
#
# Elastic Constant Matrix: (Units=GPa)
#
#
# Indices 1 2 3 4 5 6 
#
# 1 138.9390 52.5067 54.3245 0.0003 -22.8571 0.0001
# 2 52.5067 140.5685 72.6600 0.0002 -14.1070 -0.0001
# 3 54.3245 72.6600 114.4485 0.0016 -16.3528 -0.0009
# 4 0.0003 0.0002 0.0016 34.8410 -0.0005 -11.9671
# 5 -22.8571 -14.1070 -16.3528 -0.0005 27.7398 0.0000
# 6 0.0001 -0.0001 -0.0009 -11.9671 0.0000 18.9244
#
#
#
# Elastic Compliance Matrix: (Units=1/GPa)
#
#
# Indices 1 2 3 4 5 6 
#
# 1 0.009850 -0.001658 -0.002821 0.000000 0.005610 0.000000
# 2 -0.001658 0.010930 -0.006064 0.000000 0.000618 0.000000
# 3 -0.002821 -0.006064 0.014363 0.000000 0.003059 0.000000
# 4 0.000000 0.000000 0.000000 0.036666 0.000001 0.023186
# 5 0.005610 0.000618 0.003059 0.000001 0.042789 0.000000
# 6 0.000000 0.000000 0.000000 0.023186 0.000000 0.067504
#
#
# Mechanical properties :
#
#
# Convention : Reuss Voigt Hill
#
# Bulk Modulus (GPa) = 71.13795 83.65981 77.39888
# Shear Modulus (GPa) = 24.05313 30.59867 27.32590
#
# Velocity S-wave (km/s) = 3.66114 4.12935 3.90227
# Velocity P-wave (km/s) = 7.58383 8.32802 7.96463
#
# Compressibility (1/GPa) = 0.01405719
#
# Stress axis : x y z
#
# Youngs Moduli (GPa) = 101.52321 91.49514 69.62129
#
# Poissons Ratio (x) = 0.15170 0.19642
# Poissons Ratio (y) = 0.16832 0.42216
# Poissons Ratio (z) = 0.28642 0.55479
#
# Static dielectric constant tensor:
#      x y z
#    x 3.645590 0.000000 -0.233010 
#    y 0.000000 3.337270 0.000000 
#    z -0.233010 0.000000 3.657020 
# 
# 
# High freq. dielectric constant tensor:
#      x y z
#    x 1.705630 0.000000 -0.027020 
#    y 0.000000 1.676180 0.000000 
#    z -0.027020 0.000000 1.705740 
# 
# From -- ./inp_files/48423.got.cif
#   From: 2010.06.25/outbox.cif.g09.slc.cpg/sg15_25_cif.got.tgz:48423.got - 2010.06.28 07:06:18.
