data_PCOD8137161
_publ_section_title
;
Structure prediction by ZEFSAII (Michael W. Deem and Ramdas Pophale) SiO2 
 PCOD8137161
Probable space group: C 2/C
;
_chemical_formula_sum "Si O2"
_cell_formula_units_Z 56
_cell_length_a 18.802173
_cell_length_b 18.893916
_cell_length_c 18.673195
_cell_angle_alpha 90.000000
_cell_angle_beta 23.274118
_cell_angle_gamma 90.000000
_cell_volume 2621.134427
_symmetry_space_group_name_H-M "C 2/C"
_symmetry_group_IT_number 15
_symmetry_cell_setting 'monoclinic'
loop_
_space_group_symop_operation_xyz
x,y,z
-x,y,1/2-z
-x,-y,-z
x,-y,1/2+z
1/2+x,1/2+y,z
1/2-x,1/2+y,1/2-z
1/2-x,1/2-y,-z
1/2+x,1/2-y,1/2+z
loop_
_atom_site_type_symbol
_atom_site_label
_atom_site_fract_x
_atom_site_fract_y
_atom_site_fract_z
Si Si1 0.062094 0.407266 0.612302
Si Si2 0.190635 0.354620 0.264797
Si Si3 0.738090 0.674281 0.350612
Si Si4 0.955003 0.785699 0.605707
Si Si5 0.544536 0.930365 0.126436
Si Si6 0.647182 0.664203 0.740685
Si Si7 0.824254 0.810639 0.878328
O O1 0.251930 0.367641 0.421965
O O2 0.000000 0.390839 0.750000
O O3 0.900114 0.381145 0.711039
O O4 0.103745 0.489343 0.559857
O O5 0.039174 0.296111 0.426959
O O6 0.115501 0.416405 0.282977
O O7 0.273956 0.379864 0.263605
O O8 0.346559 0.316568 0.074670
O O9 0.667908 0.667346 0.333918
O O10 0.570298 0.656105 0.559574
O O11 0.813735 0.752606 0.292726
O O12 0.878955 0.773517 0.754741
O O13 0.500000 0.917114 0.250000
O O14 0.699036 0.874299 0.969126
O O15 0.000000 0.846603 0.750000
O O16 0.750000 0.750000 0.000000
#
# Coordination Sequence:
#
# PCOD8137161 Si02
#       7
#     8   8   8   8   8   8   8
#     4  11  26  45  63  91 130 169 209 266 329 386
#     4  10  20  36  63  91 125 161 209 262 313 379
#     4  10  21  42  68  95 128 155 215 273 316 378
#     4  10  20  35  62  95 122 161 209 271 312 357
#     4  11  24  42  58  88 132 172 205 257 323 379
#     4  10  21  41  68  98 120 162 211 267 325 378
#     4  12  23  37  62  95 127 169 219 256 306 378
#
# _framework density 21.364795000000001
#
# number of rings (size 3 to 8) (size 9 to 14) (size 15 to 20)
#    0.000    1.429    1.429    4.714    4.000    1.714 
#    7.714    1.429    0.000    0.000    0.000    0.000 
#    0.000    0.000    0.000    0.000    0.000    0.000 
#
# Total GULP energy -346946.064203 kJ/mol
# GULP energy per Si atom -12390.930864 kJ/mol
# Density = 2.131617 g / cm^3
# Si number density = 21.364795 Si / 1000 Ang^3
#
#
#
# Elastic Constant Matrix: (Units=GPa)
#
#
# Indices 1 2 3 4 5 6 
#
# 1 61.3637 18.3012 2.8687 0.0137 1.3099 0.0133
# 2 18.3012 62.2985 16.3211 0.0067 -3.0576 -0.0354
# 3 2.8687 16.3211 88.2661 -0.0283 3.0944 -0.0167
# 4 0.0137 0.0067 -0.0283 5.9133 -0.0206 -8.0596
# 5 1.3099 -3.0576 3.0944 -0.0206 38.7431 0.0221
# 6 0.0133 -0.0354 -0.0167 -8.0596 0.0221 30.1590
#
#
#
# Elastic Compliance Matrix: (Units=1/GPa)
#
#
# Indices 1 2 3 4 5 6 
#
# 1 0.017919 -0.005437 0.000461 -0.000086 -0.001072 -0.000036
# 2 -0.005437 0.018616 -0.003333 0.000017 0.001919 0.000025
# 3 0.000461 -0.003333 0.011974 0.000095 -0.001235 0.000029
# 4 -0.000086 0.000017 0.000095 0.265999 0.000098 0.071085
# 5 -0.001072 0.001919 -0.001235 0.000098 0.026097 0.000009
# 6 -0.000036 0.000025 0.000029 0.071085 0.000009 0.052154
#
#
# Mechanical properties :
#
#
# Convention : Reuss Voigt Hill
#
# Bulk Modulus (GPa) = 31.35742 31.87893 31.61817
# Shear Modulus (GPa) = 11.90449 26.59222 19.24836
#
# Velocity S-wave (km/s) = 2.36307 3.53182 3.00482
# Velocity P-wave (km/s) = 4.70686 5.62008 5.18362
#
# Compressibility (1/GPa) = 0.03189038
#
# Stress axis : x y z
#
# Youngs Moduli (GPa) = 55.80581 53.71599 83.51416
#
# Poissons Ratio (x) = 0.29207 -0.03846
# Poissons Ratio (y) = 0.30344 0.27834
# Poissons Ratio (z) = -0.02570 0.17903
#
# Static dielectric constant tensor:
#      x y z
#    x 4.074880 -0.000040 -0.087280 
#    y -0.000040 3.591310 0.000140 
#    z -0.087280 0.000140 4.134520 
# 
# 
# High freq. dielectric constant tensor:
#      x y z
#    x 1.847180 0.000000 -0.001010 
#    y 0.000000 1.802510 0.000010 
#    z -0.001010 0.000010 1.850100 
# 
# From -- ./inp_files/253337.got.cif
#   From: 2010.06.25/outbox.cif.g09.slc.cpg/sg15_127_cif.got.tgz:253337.got - 2010.06.28 07:06:18.
