data_PCOD8137349
_publ_section_title
;
Structure prediction by ZEFSAII (Michael W. Deem and Ramdas Pophale) SiO2 
 PCOD8137349
Probable space group: C 2/C
;
_chemical_formula_sum "Si O2"
_cell_formula_units_Z 48
_cell_length_a 18.823660
_cell_length_b 17.045648
_cell_length_c 13.693328
_cell_angle_alpha 90.000000
_cell_angle_beta 33.436446
_cell_angle_gamma 90.000000
_cell_volume 2420.958806
_symmetry_space_group_name_H-M "C 2/C"
_symmetry_group_IT_number 15
_symmetry_cell_setting 'monoclinic'
loop_
_space_group_symop_operation_xyz
x,y,z
-x,y,1/2-z
-x,-y,-z
x,-y,1/2+z
1/2+x,1/2+y,z
1/2-x,1/2+y,1/2-z
1/2-x,1/2-y,-z
1/2+x,1/2-y,1/2+z
loop_
_atom_site_type_symbol
_atom_site_label
_atom_site_fract_x
_atom_site_fract_y
_atom_site_fract_z
Si Si1 0.555700 0.892017 0.445348
Si Si2 0.178571 0.777740 0.177854
Si Si3 0.897985 0.771766 0.565903
Si Si4 0.780457 0.442159 0.064430
Si Si5 0.123524 0.053478 0.366750
Si Si6 0.676368 0.032559 0.209324
O O1 0.593681 0.803306 0.371007
O O2 0.603318 0.917191 0.498906
O O3 0.402524 0.904505 0.633791
O O4 0.616481 0.946123 0.291900
O O5 0.177129 0.871887 0.189349
O O6 0.026458 0.757179 0.351626
O O7 0.250000 0.750000 0.000000
O O8 0.262006 0.734213 0.165928
O O9 0.906183 0.853973 0.614482
O O10 0.720568 0.524178 0.170656
O O11 0.828313 0.449781 0.899227
O O12 0.179780 0.038158 0.411285
O O13 0.000000 0.000000 0.500000
#
# Coordination Sequence:
#
# PCOD8137349 Si02
#       6
#     8   8   8   8   8   8
#     4   9  20  36  58  86 113 146 186 236 286 340
#     4  11  21  33  55  85 113 142 186 238 291 342
#     4  11  21  36  55  80 116 150 186 235 285 336
#     4  10  20  36  57  84 113 147 186 235 283 346
#     4  11  22  37  54  80 115 156 188 229 285 337
#     4  10  20  37  58  84 114 149 189 232 290 338
#
# _framework density 19.826854999999998
#
# number of rings (size 3 to 8) (size 9 to 14) (size 15 to 20)
#    0.000    1.667    1.667    4.000    0.000    3.333 
#    0.000    0.833    0.000    0.000   13.000    0.000 
#    0.000    0.000    0.000    0.000    0.000    0.000 
#
# Total GULP energy -297396.809660 kJ/mol
# GULP energy per Si atom -12391.533736 kJ/mol
# Density = 1.978173 g / cm^3
# Si number density = 19.826855 Si / 1000 Ang^3
#
#
#
# Elastic Constant Matrix: (Units=GPa)
#
#
# Indices 1 2 3 4 5 6 
#
# 1 57.8390 26.6117 17.5110 -0.0003 -7.6963 0.0003
# 2 26.6117 168.4594 32.3703 -0.0002 -2.0529 0.0002
# 3 17.5110 32.3703 60.6496 -0.0006 -14.7298 0.0006
# 4 -0.0003 -0.0002 -0.0006 25.3393 0.0004 -1.3772
# 5 -7.6963 -2.0529 -14.7298 0.0004 24.3331 -0.0004
# 6 0.0003 0.0002 0.0006 -1.3772 -0.0004 24.5517
#
#
#
# Elastic Compliance Matrix: (Units=1/GPa)
#
#
# Indices 1 2 3 4 5 6 
#
# 1 0.020004 -0.002438 -0.003503 0.000000 0.004001 0.000000
# 2 -0.002438 0.006984 -0.003596 0.000000 -0.002359 0.000000
# 3 -0.003503 -0.003596 0.022364 0.000000 0.012127 0.000000
# 4 0.000000 0.000000 0.000000 0.039585 -0.000001 0.002221
# 5 0.004001 -0.002359 0.012127 -0.000001 0.049504 0.000000
# 6 0.000000 0.000000 0.000000 0.002221 0.000000 0.040855
#
#
# Mechanical properties :
#
#
# Convention : Reuss Voigt Hill
#
# Bulk Modulus (GPa) = 33.02788 48.88158 40.95473
# Shear Modulus (GPa) = 23.98520 28.87514 26.43017
#
# Velocity S-wave (km/s) = 3.48189 3.82038 3.65506
# Velocity P-wave (km/s) = 5.73229 6.64591 6.20593
#
# Compressibility (1/GPa) = 0.03027745
#
# Stress axis : x y z
#
# Youngs Moduli (GPa) = 49.98994 143.19223 44.71469
#
# Poissons Ratio (x) = 0.34914 0.15662
# Poissons Ratio (y) = 0.12189 0.16081
# Poissons Ratio (z) = 0.17509 0.51496
#
# Static dielectric constant tensor:
#      x y z
#    x 3.568050 0.000000 -0.325040 
#    y 0.000000 4.108450 0.000000 
#    z -0.325040 0.000000 3.454200 
# 
# 
# High freq. dielectric constant tensor:
#      x y z
#    x 1.752630 0.000000 -0.035040 
#    y 0.000000 1.791330 0.000000 
#    z -0.035040 0.000000 1.757870 
# 
# From -- ./inp_files/113403.got.cif
#   From: 2010.06.25/outbox.cif.g09.slc.cpg/sg15_57_cif.got.tgz:113403.got - 2010.06.28 07:06:18.
