data_PCOD8137371
_publ_section_title
;
Structure prediction by ZEFSAII (Michael W. Deem and Ramdas Pophale) SiO2 
 PCOD8137371
Probable space group: C 2/C
;
_chemical_formula_sum "Si O2"
_cell_formula_units_Z 56
_cell_length_a 15.744352
_cell_length_b 11.467243
_cell_length_c 27.061649
_cell_angle_alpha 90.000000
_cell_angle_beta 145.075566
_cell_angle_gamma 90.000000
_cell_volume 2797.114212
_symmetry_space_group_name_H-M "C 2/C"
_symmetry_group_IT_number 15
_symmetry_cell_setting 'monoclinic'
loop_
_space_group_symop_operation_xyz
x,y,z
-x,y,1/2-z
-x,-y,-z
x,-y,1/2+z
1/2+x,1/2+y,z
1/2-x,1/2+y,1/2-z
1/2-x,1/2-y,-z
1/2+x,1/2-y,1/2+z
loop_
_atom_site_type_symbol
_atom_site_label
_atom_site_fract_x
_atom_site_fract_y
_atom_site_fract_z
Si Si1 0.393354 0.049835 0.246533
Si Si2 0.844522 0.691839 0.371170
Si Si3 0.070770 0.941986 0.080873
Si Si4 0.272779 0.182633 0.445490
Si Si5 0.721151 0.746744 0.208770
Si Si6 0.955928 0.462358 0.380910
Si Si7 0.575955 0.620970 0.432977
O O1 0.500000 0.045514 0.250000
O O2 0.352755 0.185899 0.239875
O O3 0.244510 0.974587 0.167385
O O4 0.480213 0.995355 0.334884
O O5 0.951412 0.802872 0.431176
O O6 0.752784 0.668872 0.377517
O O7 0.737257 0.721012 0.274674
O O8 0.941655 0.578093 0.406779
O O9 0.965277 0.986324 0.075738
O O10 0.000000 0.000000 0.000000
O O11 0.403269 0.105082 0.531277
O O12 0.296083 0.319301 0.471551
O O13 0.119784 0.136100 0.396583
O O14 0.697436 0.885214 0.187704
O O15 0.570077 0.688407 0.120056
#
# Coordination Sequence:
#
# PCOD8137371 Si02
#       7
#     8   8   8   8   8   8   8
#     4  10  22  38  64  89 113 161 209 246 300 363
#     4  11  21  37  60  86 116 164 205 236 308 368
#     4  11  21  37  60  87 120 155 199 248 299 356
#     4  10  20  36  57  89 118 155 197 252 293 362
#     4   9  20  40  59  81 119 158 195 253 299 360
#     4  10  21  39  60  83 125 157 199 248 308 360
#     4   9  20  36  57  84 120 150 195 250 304 337
#
# _framework density 20.020634000000001
#
# number of rings (size 3 to 8) (size 9 to 14) (size 15 to 20)
#    0.000    2.000    2.857    0.429    2.000    1.714 
#    0.000    3.571    0.000    0.000    0.000    0.000 
#    0.000    0.000    0.000    0.000    0.000    0.000 
#
# Total GULP energy -346914.016841 kJ/mol
# GULP energy per Si atom -12389.786316 kJ/mol
# Density = 1.997507 g / cm^3
# Si number density = 20.020634 Si / 1000 Ang^3
#
#
#
# Elastic Constant Matrix: (Units=GPa)
#
#
# Indices 1 2 3 4 5 6 
#
# 1 129.7431 47.3916 15.2055 0.0000 -9.4774 0.0000
# 2 47.3916 129.2275 11.0285 0.0000 1.5490 0.0000
# 3 15.2055 11.0285 39.2590 0.0000 -6.9903 0.0000
# 4 0.0000 0.0000 0.0000 19.7096 0.0000 -4.7767
# 5 -9.4774 1.5490 -6.9903 0.0000 29.1642 0.0000
# 6 0.0000 0.0000 0.0000 -4.7767 0.0000 22.9764
#
#
#
# Elastic Compliance Matrix: (Units=1/GPa)
#
#
# Indices 1 2 3 4 5 6 
#
# 1 0.009361 -0.003275 -0.002228 0.000000 0.002682 0.000000
# 2 -0.003275 0.009102 -0.001634 0.000000 -0.001939 0.000000
# 3 -0.002228 -0.001634 0.027870 0.000000 0.006043 0.000000
# 4 0.000000 0.000000 0.000000 0.053429 0.000000 0.011108
# 5 0.002682 -0.001939 0.006043 0.000000 0.036711 0.000000
# 6 0.000000 0.000000 0.000000 0.011108 0.000000 0.045832
#
#
# Mechanical properties :
#
#
# Convention : Reuss Voigt Hill
#
# Bulk Modulus (GPa) = 31.19246 49.49785 40.34515
# Shear Modulus (GPa) = 24.12375 29.34363 26.73369
#
# Velocity S-wave (km/s) = 3.47500 3.83256 3.65815
# Velocity P-wave (km/s) = 5.63159 6.66046 6.16752
#
# Compressibility (1/GPa) = 0.03205903
#
# Stress axis : x y z
#
# Youngs Moduli (GPa) = 106.82858 109.86639 35.88122
#
# Poissons Ratio (x) = 0.35980 0.07995
# Poissons Ratio (y) = 0.34985 0.05862
# Poissons Ratio (z) = 0.23802 0.17950
#
# Static dielectric constant tensor:
#      x y z
#    x 3.746500 0.000000 -0.100410 
#    y 0.000000 4.503810 0.000000 
#    z -0.100410 0.000000 3.521840 
# 
# 
# High freq. dielectric constant tensor:
#      x y z
#    x 1.767750 0.000000 -0.018030 
#    y 0.000000 1.786510 0.000000 
#    z -0.018030 0.000000 1.769320 
# 
# From -- ./inp_files/204334.got.cif
#   From: 2010.06.25/outbox.cif.g09.slc.cpg/sg15_103_cif.got.tgz:204334.got - 2010.06.28 07:06:18.
