data_PCOD8137934
_publ_section_title
;
Structure prediction by ZEFSAII (Michael W. Deem and Ramdas Pophale) SiO2 
 PCOD8137934
Probable space group: C 2/C
;
_chemical_formula_sum "Si O2"
_cell_formula_units_Z 48
_cell_length_a 8.207909
_cell_length_b 19.955211
_cell_length_c 23.787255
_cell_angle_alpha 90.000000
_cell_angle_beta 145.984612
_cell_angle_gamma 90.000000
_cell_volume 2179.554389
_symmetry_space_group_name_H-M "C 2/C"
_symmetry_group_IT_number 15
_symmetry_cell_setting 'monoclinic'
loop_
_space_group_symop_operation_xyz
x,y,z
-x,y,1/2-z
-x,-y,-z
x,-y,1/2+z
1/2+x,1/2+y,z
1/2-x,1/2+y,1/2-z
1/2-x,1/2-y,-z
1/2+x,1/2-y,1/2+z
loop_
_atom_site_type_symbol
_atom_site_label
_atom_site_fract_x
_atom_site_fract_y
_atom_site_fract_z
Si Si1 0.497525 0.350039 0.999992
Si Si2 0.600910 0.481269 0.840220
Si Si3 0.587444 0.221139 0.671250
Si Si4 0.660761 0.632981 0.165685
Si Si5 0.220552 0.586194 0.521802
Si Si6 0.303642 0.285185 0.109232
O O1 0.510067 0.383069 0.941371
O O2 0.266562 0.289125 0.932897
O O3 0.398063 0.408195 0.014273
O O4 0.807911 0.321663 0.109169
O O5 0.500000 0.505051 0.750000
O O6 0.375882 0.427547 0.801441
O O7 0.595708 0.545521 0.879256
O O8 0.918281 0.450048 0.924312
O O9 0.521105 0.300671 0.653556
O O10 0.666382 0.201463 0.630499
O O11 0.847230 0.205047 0.788807
O O12 0.000000 0.646968 0.250000
O O13 0.164679 0.661252 0.527461
#
# Coordination Sequence:
#
# PCOD8137934 Si02
#       6
#     8   8   8   8   8   8
#     4  11  21  39  67 101 135 165 215 279 329 395
#     4  11  26  45  68  89 129 185 224 269 320 390
#     4  10  20  36  67  98 132 171 206 272 340 386
#     4  11  20  42  66  96 131 174 222 266 325 390
#     4  11  25  44  63  96 132 174 223 272 327 389
#     4  10  20  39  64  96 137 169 212 269 338 398
#
# _framework density 22.022850999999999
#
# number of rings (size 3 to 8) (size 9 to 14) (size 15 to 20)
#    0.000    1.333    3.333    5.500    2.333    1.333 
#    3.000    0.000    0.000    0.000    0.000    0.000 
#    0.000    0.000    0.000    0.000    0.000    0.000 
#
# Total GULP energy -297681.166379 kJ/mol
# GULP energy per Si atom -12403.381932 kJ/mol
# Density = 2.197273 g / cm^3
# Si number density = 22.022851 Si / 1000 Ang^3
#
#
#
# Elastic Constant Matrix: (Units=GPa)
#
#
# Indices 1 2 3 4 5 6 
#
# 1 79.1753 44.1542 35.9143 -0.0052 -3.3435 0.0115
# 2 44.1542 56.3225 22.4116 -0.0083 -9.7332 0.0035
# 3 35.9143 22.4116 114.9589 -0.0394 1.4528 0.0027
# 4 -0.0052 -0.0083 -0.0394 26.6863 -0.0132 -5.3149
# 5 -3.3435 -9.7332 1.4528 -0.0132 35.6636 0.0061
# 6 0.0115 0.0035 0.0027 -5.3149 0.0061 42.5623
#
#
#
# Elastic Compliance Matrix: (Units=1/GPa)
#
#
# Indices 1 2 3 4 5 6 
#
# 1 0.024360 -0.017889 -0.004092 -0.000009 -0.002432 -0.000006
# 2 -0.017889 0.033488 -0.001035 0.000010 0.007504 0.000002
# 3 -0.004092 -0.001035 0.010193 0.000014 -0.001081 0.000002
# 4 -0.000009 0.000010 0.000014 0.038428 0.000015 0.004799
# 5 -0.002432 0.007504 -0.001081 0.000015 0.029904 -0.000002
# 6 -0.000006 0.000002 0.000002 0.004799 -0.000002 0.024094
#
#
# Mechanical properties :
#
#
# Convention : Reuss Voigt Hill
#
# Bulk Modulus (GPa) = 45.43659 50.60189 48.01924
# Shear Modulus (GPa) = 23.38261 30.84754 27.11508
#
# Velocity S-wave (km/s) = 3.26198 3.74666 3.51269
# Velocity P-wave (km/s) = 5.90455 6.46092 6.18899
#
# Compressibility (1/GPa) = 0.02200869
#
# Stress axis : x y z
#
# Youngs Moduli (GPa) = 41.05095 29.86176 98.11108
#
# Poissons Ratio (x) = 0.53420 0.40147
# Poissons Ratio (y) = 0.73436 0.10151
# Poissons Ratio (z) = 0.16798 0.03090
#
# Static dielectric constant tensor:
#      x y z
#    x 3.853190 0.000000 -0.123030 
#    y 0.000000 3.830030 -0.000020 
#    z -0.123030 -0.000020 4.078990 
# 
# 
# High freq. dielectric constant tensor:
#      x y z
#    x 1.856680 0.000000 -0.005990 
#    y 0.000000 1.853130 0.000000 
#    z -0.005990 0.000000 1.874050 
# 
# From -- ./inp_files/290157.got.cif
#   From: 2010.06.25/outbox.cif.g09.slc.cpg/sg15_146_cif.got.tgz:290157.got - 2010.06.28 07:06:18.
