data_PCOD8137228
_publ_section_title
;
Structure prediction by ZEFSAII (Michael W. Deem and Ramdas Pophale) SiO2 
 PCOD8137228
Probable space group: C 2/C
;
_chemical_formula_sum "Si O2"
_cell_formula_units_Z 52
_cell_length_a 11.918409
_cell_length_b 8.319106
_cell_length_c 25.276290
_cell_angle_alpha 90.000000
_cell_angle_beta 117.777641
_cell_angle_gamma 90.000000
_cell_volume 2217.354750
_symmetry_space_group_name_H-M "C 2/C"
_symmetry_group_IT_number 15
_symmetry_cell_setting 'monoclinic'
loop_
_space_group_symop_operation_xyz
x,y,z
-x,y,1/2-z
-x,-y,-z
x,-y,1/2+z
1/2+x,1/2+y,z
1/2-x,1/2+y,1/2-z
1/2-x,1/2-y,-z
1/2+x,1/2-y,1/2+z
loop_
_atom_site_type_symbol
_atom_site_label
_atom_site_fract_x
_atom_site_fract_y
_atom_site_fract_z
Si Si1 0.378545 0.741461 0.187207
Si Si2 0.000000 0.161275 0.750000
Si Si3 0.128962 0.319910 0.104343
Si Si4 0.744053 0.014361 0.221219
Si Si5 0.745621 0.592134 0.430942
Si Si6 0.412222 0.362565 0.506955
Si Si7 0.670811 0.085102 0.324338
O O1 0.500000 0.717066 0.250000
O O2 0.256872 0.692154 0.197412
O O3 0.371388 0.616586 0.136397
O O4 0.370996 0.917622 0.159188
O O5 0.887414 0.058272 0.751453
O O6 0.937788 0.279958 0.692400
O O7 0.147034 0.401221 0.166324
O O8 0.174831 0.436554 0.067904
O O9 0.204687 0.150732 0.119841
O O10 0.987110 0.266723 0.060036
O O11 0.689985 0.037286 0.267110
O O12 0.689836 0.554400 0.476609
O O13 0.835636 0.752009 0.448167
O O14 0.500000 0.500000 0.500000
#
# Coordination Sequence:
#
# PCOD8137228 Si02
#       7
#     8   4   8   8   8   8   8
#     4  11  21  38  62  91 134 172 211 267 331 389
#     4  10  20  36  52  80 126 164 214 262 302 366
#     4  10  23  41  66  97 133 171 222 273 331 391
#     4  10  22  38  59  91 129 177 214 259 320 394
#     4  10  25  45  66 100 132 171 220 276 334 389
#     4  11  24  46  74  96 126 173 228 283 329 388
#     4  11  22  36  61  96 127 175 220 252 320 402
#
# _framework density 23.451366
#
# number of rings (size 3 to 8) (size 9 to 14) (size 15 to 20)
#    0.000    1.538    1.538    3.231    4.308    0.615 
#    0.000    9.231    0.000    0.000    0.000    0.000 
#    0.000    0.000    0.000    0.000    0.000    0.000 
#
# Total GULP energy -322179.150053 kJ/mol
# GULP energy per Si atom -12391.505771 kJ/mol
# Density = 2.339799 g / cm^3
# Si number density = 23.451366 Si / 1000 Ang^3
#
#
#
# Elastic Constant Matrix: (Units=GPa)
#
#
# Indices 1 2 3 4 5 6 
#
# 1 69.0247 24.9851 23.1455 0.0000 -6.9547 0.0000
# 2 24.9851 107.3253 11.4995 0.0000 2.4625 0.0000
# 3 23.1455 11.4995 83.4349 0.0000 14.7059 0.0000
# 4 0.0000 0.0000 0.0000 27.8865 0.0000 1.1293
# 5 -6.9547 2.4625 14.7059 0.0000 32.0517 0.0000
# 6 0.0000 0.0000 0.0000 1.1293 0.0000 27.0908
#
#
#
# Elastic Compliance Matrix: (Units=1/GPa)
#
#
# Indices 1 2 3 4 5 6 
#
# 1 0.018549 -0.003852 -0.005849 0.000000 0.007005 0.000000
# 2 -0.003852 0.010258 -0.000064 0.000000 -0.001595 0.000000
# 3 -0.005849 -0.000064 0.015057 0.000000 -0.008173 0.000000
# 4 0.000000 0.000000 0.000000 0.035920 0.000000 -0.001497
# 5 0.007005 -0.001595 -0.008173 0.000000 0.036592 0.000000
# 6 0.000000 0.000000 0.000000 -0.001497 0.000000 0.036975
#
#
# Mechanical properties :
#
#
# Convention : Reuss Voigt Hill
#
# Bulk Modulus (GPa) = 41.09651 42.11612 41.60632
# Shear Modulus (GPa) = 27.62522 30.74944 29.18733
#
# Velocity S-wave (km/s) = 3.43589 3.62498 3.53170
# Velocity P-wave (km/s) = 5.77085 5.95974 5.86606
#
# Compressibility (1/GPa) = 0.02433296
#
# Stress axis : x y z
#
# Youngs Moduli (GPa) = 53.91084 97.48779 66.41246
#
# Poissons Ratio (x) = 0.37554 0.38847
# Poissons Ratio (y) = 0.20767 0.00426
# Poissons Ratio (z) = 0.31534 0.00625
#
# Static dielectric constant tensor:
#      x y z
#    x 3.970230 0.000000 0.235190 
#    y 0.000000 4.733260 0.000000 
#    z 0.235190 0.000000 4.195380 
# 
# 
# High freq. dielectric constant tensor:
#      x y z
#    x 1.905860 0.000000 0.017030 
#    y 0.000000 1.945870 0.000000 
#    z 0.017030 0.000000 1.921580 
# 
# From -- ./inp_files/291676.got.cif
#   From: 2010.06.25/outbox.cif.g09.slc.cpg/sg15_146_cif.got.tgz:291676.got - 2010.06.28 07:06:18.
