data_PCOD8137805
_publ_section_title
;
Structure prediction by ZEFSAII (Michael W. Deem and Ramdas Pophale) SiO2 
 PCOD8137805
Probable space group: C 2/C
;
_chemical_formula_sum "Si O2"
_cell_formula_units_Z 52
_cell_length_a 16.830680
_cell_length_b 9.137484
_cell_length_c 26.724128
_cell_angle_alpha 90.000000
_cell_angle_beta 140.049132
_cell_angle_gamma 90.000000
_cell_volume 2639.095583
_symmetry_space_group_name_H-M "C 2/C"
_symmetry_group_IT_number 15
_symmetry_cell_setting 'monoclinic'
loop_
_space_group_symop_operation_xyz
x,y,z
-x,y,1/2-z
-x,-y,-z
x,-y,1/2+z
1/2+x,1/2+y,z
1/2-x,1/2+y,1/2-z
1/2-x,1/2-y,-z
1/2+x,1/2-y,1/2+z
loop_
_atom_site_type_symbol
_atom_site_label
_atom_site_fract_x
_atom_site_fract_y
_atom_site_fract_z
Si Si1 0.662055 0.614264 0.903119
Si Si2 0.137711 0.858695 0.502563
Si Si3 0.500000 0.766954 0.250000
Si Si4 0.203714 0.516613 0.841804
Si Si5 0.810516 0.950574 0.679612
Si Si6 0.403146 0.257242 0.267194
Si Si7 0.368402 0.268438 0.366327
O O1 0.785275 0.709905 0.961918
O O2 0.681090 0.474037 0.876566
O O3 0.548032 0.711689 0.826897
O O4 0.634142 0.563237 0.946287
O O5 0.000175 0.814451 0.452865
O O6 0.194032 0.972763 0.568503
O O7 0.394247 0.875854 0.176744
O O8 0.575400 0.657846 0.248684
O O9 0.134227 0.380397 0.783934
O O10 0.272211 0.600120 0.829598
O O11 0.679105 0.877970 0.628826
O O12 0.819750 0.104563 0.711761
O O13 0.378207 0.227479 0.313068
#
# Coordination Sequence:
#
# PCOD8137805 Si02
#       7
#     8   8   4   8   8   8   8
#     4  10  20  36  63  87 113 153 205 244 286 359
#     4  10  21  38  59  87 119 159 196 236 301 367
#     4  10  22  34  60  92 114 142 206 256 288 334
#     4  11  21  38  61  86 120 158 194 248 299 351
#     4  11  20  39  62  88 119 154 199 256 296 341
#     4  11  20  38  65  86 113 161 204 243 300 355
#     4  10  24  37  57  88 128 151 198 245 298 360
#
# _framework density 19.703719
#
# number of rings (size 3 to 8) (size 9 to 14) (size 15 to 20)
#    0.000    1.538    3.077    2.308    0.000    0.615 
#    0.000    3.077    3.385    0.000    0.000    0.000 
#    0.000    0.000    0.000    0.000    0.000    0.000 
#
# Total GULP energy -322273.943579 kJ/mol
# GULP energy per Si atom -12395.151676 kJ/mol
# Density = 1.965887 g / cm^3
# Si number density = 19.703719 Si / 1000 Ang^3
#
#
#
# Elastic Constant Matrix: (Units=GPa)
#
#
# Indices 1 2 3 4 5 6 
#
# 1 100.6709 45.9243 36.4570 0.0000 11.0422 0.0000
# 2 45.9243 105.1106 33.4351 0.0000 2.7304 0.0000
# 3 36.4570 33.4351 86.0334 0.0000 0.1940 0.0000
# 4 0.0000 0.0000 0.0000 23.6695 0.0000 7.3662
# 5 11.0422 2.7304 0.1940 0.0000 32.0533 0.0000
# 6 0.0000 0.0000 0.0000 7.3662 0.0000 31.2496
#
#
#
# Elastic Compliance Matrix: (Units=1/GPa)
#
#
# Indices 1 2 3 4 5 6 
#
# 1 0.014061 -0.004720 -0.004114 0.000000 -0.004417 0.000000
# 2 -0.004720 0.012466 -0.002846 0.000000 0.000581 0.000000
# 3 -0.004114 -0.002846 0.014469 0.000000 0.001572 0.000000
# 4 0.000000 0.000000 0.000000 0.045593 0.000000 -0.010747
# 5 -0.004417 0.000581 0.001572 0.000000 0.032661 0.000000
# 6 0.000000 0.000000 0.000000 -0.010747 0.000000 0.034534
#
#
# Mechanical properties :
#
#
# Convention : Reuss Voigt Hill
#
# Bulk Modulus (GPa) = 56.70121 58.16088 57.43104
# Shear Modulus (GPa) = 27.31904 29.12772 28.22338
#
# Velocity S-wave (km/s) = 3.72760 3.84902 3.78880
# Velocity P-wave (km/s) = 6.88230 7.02389 6.95346
#
# Compressibility (1/GPa) = 0.01763631
#
# Stress axis : x y z
#
# Youngs Moduli (GPa) = 71.11925 80.21697 69.11221
#
# Poissons Ratio (x) = 0.37862 0.28433
# Poissons Ratio (y) = 0.33568 0.19669
# Poissons Ratio (z) = 0.29259 0.22829
#
# Static dielectric constant tensor:
#      x y z
#    x 3.742130 0.000000 0.098290 
#    y 0.000000 3.631180 0.000000 
#    z 0.098290 0.000000 3.640830 
# 
# 
# High freq. dielectric constant tensor:
#      x y z
#    x 1.775000 0.000000 0.016310 
#    y 0.000000 1.765960 0.000000 
#    z 0.016310 0.000000 1.757570 
# 
# From -- ./inp_files/209037.got.cif
#   From: 2010.06.25/outbox.cif.g09.slc.cpg/sg15_105_cif.got.tgz:209037.got - 2010.06.28 07:06:18.
