data_PCOD8137503
_publ_section_title
;
Structure prediction by ZEFSAII (Michael W. Deem and Ramdas Pophale) SiO2 
 PCOD8137503
Probable space group: C 2/C
;
_chemical_formula_sum "Si O2"
_cell_formula_units_Z 48
_cell_length_a 11.587275
_cell_length_b 8.481396
_cell_length_c 23.695170
_cell_angle_alpha 90.000000
_cell_angle_beta 96.095962
_cell_angle_gamma 90.000000
_cell_volume 2315.505231
_symmetry_space_group_name_H-M "C 2/C"
_symmetry_group_IT_number 15
_symmetry_cell_setting 'monoclinic'
loop_
_space_group_symop_operation_xyz
x,y,z
-x,y,1/2-z
-x,-y,-z
x,-y,1/2+z
1/2+x,1/2+y,z
1/2-x,1/2+y,1/2-z
1/2-x,1/2-y,-z
1/2+x,1/2-y,1/2+z
loop_
_atom_site_type_symbol
_atom_site_label
_atom_site_fract_x
_atom_site_fract_y
_atom_site_fract_z
Si Si1 0.434868 0.653945 0.514757
Si Si2 0.235601 0.367395 0.199671
Si Si3 0.845867 0.961093 0.606438
Si Si4 0.392725 0.173076 0.283999
Si Si5 0.067568 0.265535 0.102694
Si Si6 0.910027 0.374180 0.907974
O O1 0.500000 0.500000 0.500000
O O2 0.351958 0.605336 0.561853
O O3 0.373845 0.717242 0.454485
O O4 0.525303 0.787444 0.538469
O O5 0.332906 0.460652 0.167803
O O6 0.288003 0.279812 0.255882
O O7 0.144176 0.491070 0.220163
O O8 0.164956 0.243199 0.156274
O O9 0.726796 0.872112 0.584811
O O10 0.953551 0.839353 0.610507
O O11 0.500000 0.203847 0.250000
O O12 0.425878 0.221553 0.349768
O O13 0.036401 0.451035 0.097271
#
# Coordination Sequence:
#
# PCOD8137503 Si02
#       6
#     8   8   8   8   8   8
#     4  10  20  36  59  85 114 148 187 228 278 334
#     4  10  23  38  57  85 111 145 190 227 279 335
#     4   9  20  39  57  82 114 145 186 232 276 331
#     4  10  22  39  58  81 111 146 186 231 275 328
#     4   9  20  38  58  83 114 147 184 229 279 332
#     4  10  22  38  57  84 113 148 190 227 278 334
#
# _framework density 20.729817000000001
#
# number of rings (size 3 to 8) (size 9 to 14) (size 15 to 20)
#    0.000    2.667    0.000    1.500    0.000   14.667 
#    0.000   10.000    0.000    0.000    0.000    0.000 
#    0.000    0.000    0.000    0.000    0.000    0.000 
#
# Total GULP energy -297403.541086 kJ/mol
# GULP energy per Si atom -12391.814212 kJ/mol
# Density = 2.068263 g / cm^3
# Si number density = 20.729817 Si / 1000 Ang^3
#
#
#
# Elastic Constant Matrix: (Units=GPa)
#
#
# Indices 1 2 3 4 5 6 
#
# 1 70.6905 20.8347 5.9096 0.0000 -3.4666 0.0000
# 2 20.8347 63.3418 18.2309 0.0000 8.7834 0.0000
# 3 5.9096 18.2309 61.7963 0.0000 9.6313 0.0000
# 4 0.0000 0.0000 0.0000 38.6789 0.0000 9.0861
# 5 -3.4666 8.7834 9.6313 0.0000 20.6942 0.0000
# 6 0.0000 0.0000 0.0000 9.0861 0.0000 31.0394
#
#
#
# Elastic Compliance Matrix: (Units=1/GPa)
#
#
# Indices 1 2 3 4 5 6 
#
# 1 0.016215 -0.005908 -0.000670 0.000000 0.005536 0.000000
# 2 -0.005908 0.019971 -0.004153 0.000000 -0.007533 0.000000
# 3 -0.000670 -0.004153 0.018561 0.000000 -0.006988 0.000000
# 4 0.000000 0.000000 0.000000 0.027763 0.000000 -0.008127
# 5 0.005536 -0.007533 -0.006988 0.000000 0.055700 0.000000
# 6 0.000000 0.000000 0.000000 -0.008127 0.000000 0.034596
#
#
# Mechanical properties :
#
#
# Convention : Reuss Voigt Hill
#
# Bulk Modulus (GPa) = 30.04474 31.75322 30.89898
# Shear Modulus (GPa) = 24.34726 28.13939 26.24332
#
# Velocity S-wave (km/s) = 3.43082 3.68834 3.56191
# Velocity P-wave (km/s) = 5.49718 5.78700 5.64395
#
# Compressibility (1/GPa) = 0.03328370
#
# Stress axis : x y z
#
# Youngs Moduli (GPa) = 61.67109 50.07381 53.87783
#
# Poissons Ratio (x) = 0.29585 0.03612
# Poissons Ratio (y) = 0.36437 0.22373
# Poissons Ratio (z) = 0.04135 0.20793
#
# Static dielectric constant tensor:
#      x y z
#    x 3.241780 0.000000 -0.253590 
#    y 0.000000 6.096440 0.000000 
#    z -0.253590 0.000000 4.365390 
# 
# 
# High freq. dielectric constant tensor:
#      x y z
#    x 1.797870 0.000000 -0.004450 
#    y 0.000000 1.806300 0.000000 
#    z -0.004450 0.000000 1.826000 
# 
# From -- ./inp_files/267792.got.cif
#   From: 2010.06.25/outbox.cif.g09.slc.cpg/sg15_134_cif.got.tgz:267792.got - 2010.06.28 07:06:18.
