data_PCOD8137131
_publ_section_title
;
Structure prediction by ZEFSAII (Michael W. Deem and Ramdas Pophale) SiO2 
 PCOD8137131
Probable space group: C 2/C
;
_chemical_formula_sum "Si O2"
_cell_formula_units_Z 60
_cell_length_a 7.911739
_cell_length_b 23.463860
_cell_length_c 18.641223
_cell_angle_alpha 90.000000
_cell_angle_beta 61.017992
_cell_angle_gamma 90.000000
_cell_volume 3027.196679
_symmetry_space_group_name_H-M "C 2/C"
_symmetry_group_IT_number 15
_symmetry_cell_setting 'monoclinic'
loop_
_space_group_symop_operation_xyz
x,y,z
-x,y,1/2-z
-x,-y,-z
x,-y,1/2+z
1/2+x,1/2+y,z
1/2-x,1/2+y,1/2-z
1/2-x,1/2-y,-z
1/2+x,1/2-y,1/2+z
loop_
_atom_site_type_symbol
_atom_site_label
_atom_site_fract_x
_atom_site_fract_y
_atom_site_fract_z
Si Si1 0.954632 0.052997 0.917022
Si Si2 0.528880 0.230507 0.031446
Si Si3 0.461886 0.346868 0.523690
Si Si4 0.188722 0.481727 0.066830
Si Si5 0.500000 0.485987 0.250000
Si Si6 0.640817 0.061987 0.333745
Si Si7 0.341565 0.880432 0.517179
Si Si8 0.466825 0.173614 0.331418
O O1 0.150604 0.026023 0.905730
O O2 0.959148 0.053650 0.828748
O O3 0.931650 0.115797 0.957442
O O4 0.774808 0.014299 0.979329
O O5 0.434276 0.286914 0.018424
O O6 0.750000 0.250000 0.000000
O O7 0.481763 0.175579 0.989918
O O8 0.439861 0.213658 0.126658
O O9 0.612626 0.371262 0.549971
O O10 0.255580 0.340099 0.604307
O O11 0.031611 0.517951 0.139712
O O12 0.090247 0.422201 0.061255
O O13 0.327878 0.529325 0.268005
O O14 0.650553 0.084364 0.412274
O O15 0.594396 0.116602 0.294471
O O16 0.500000 0.207114 0.250000
#
# Coordination Sequence:
#
# PCOD8137131 Si02
#       8
#     8   8   8   8   4   8   8   8
#     4  10  22  38  58  89 118 166 199 244 306 370
#     4   9  20  38  58  86 112 149 198 244 299 351
#     4  10  20  40  64  83 121 155 205 247 300 365
#     4  10  20  38  60  82 122 158 201 239 306 374
#     4  12  26  34  52  92 124 160 204 246 300 364
#     4  11  23  33  55  85 124 153 198 245 299 358
#     4  10  20  35  61  91 108 155 203 247 296 358
#     4  10  22  36  60  88 115 156 196 250 306 346
#
# _framework density 19.820316999999999
#
# number of rings (size 3 to 8) (size 9 to 14) (size 15 to 20)
#    0.000    1.867    2.667    0.800    3.733    0.000 
#    1.200    0.000    0.000    0.000    3.467    0.000 
#    0.000    0.000    0.000    0.000    0.000    0.000 
#
# Total GULP energy -371664.356615 kJ/mol
# GULP energy per Si atom -12388.811887 kJ/mol
# Density = 1.977521 g / cm^3
# Si number density = 19.820317 Si / 1000 Ang^3
#
#
#
# Elastic Constant Matrix: (Units=GPa)
#
#
# Indices 1 2 3 4 5 6 
#
# 1 55.5035 13.5511 17.8904 0.0000 -1.6165 0.0000
# 2 13.5511 92.5445 20.1083 0.0000 -5.1860 0.0000
# 3 17.8904 20.1083 85.2368 0.0000 0.3039 0.0000
# 4 0.0000 0.0000 0.0000 15.2086 0.0000 1.9879
# 5 -1.6165 -5.1860 0.3039 0.0000 22.0177 0.0000
# 6 0.0000 0.0000 0.0000 1.9879 0.0000 32.0149
#
#
#
# Elastic Compliance Matrix: (Units=1/GPa)
#
#
# Indices 1 2 3 4 5 6 
#
# 1 0.019724 -0.002035 -0.003663 0.000000 0.001019 0.000000
# 2 -0.002035 0.011765 -0.002358 0.000000 0.002654 0.000000
# 3 -0.003663 -0.002358 0.013061 0.000000 -0.001005 0.000000
# 4 0.000000 0.000000 0.000000 0.066290 0.000000 -0.004116
# 5 0.001019 0.002654 -0.001005 0.000000 0.046132 0.000000
# 6 0.000000 0.000000 0.000000 -0.004116 0.000000 0.031491
#
#
# Mechanical properties :
#
#
# Convention : Reuss Voigt Hill
#
# Bulk Modulus (GPa) = 35.16531 37.37605 36.27068
# Shear Modulus (GPa) = 23.35855 25.96391 24.66123
#
# Velocity S-wave (km/s) = 3.43668 3.62327 3.53121
# Velocity P-wave (km/s) = 5.79036 6.03345 5.91315
#
# Compressibility (1/GPa) = 0.02843712
#
# Stress axis : x y z
#
# Youngs Moduli (GPa) = 50.69896 85.00054 76.56525
#
# Poissons Ratio (x) = 0.17298 0.28050
# Poissons Ratio (y) = 0.10317 0.18052
# Poissons Ratio (z) = 0.18574 0.20041
#
# Static dielectric constant tensor:
#      x y z
#    x 3.780380 0.000000 0.181460 
#    y 0.000000 4.177720 0.000000 
#    z 0.181460 0.000000 3.129530 
# 
# 
# High freq. dielectric constant tensor:
#      x y z
#    x 1.787280 0.000000 0.013890 
#    y 0.000000 1.773930 0.000000 
#    z 0.013890 0.000000 1.742960 
# 
# From -- ./inp_files/193263.got.cif
#   From: 2010.06.25/outbox.cif.g09.slc.cpg/sg15_97_cif.got.tgz:193263.got - 2010.06.28 07:06:18.
