data_PCOD8137545
_publ_section_title
;
Structure prediction by ZEFSAII (Michael W. Deem and Ramdas Pophale) SiO2 
 PCOD8137545
Probable space group: C 2/C
;
_chemical_formula_sum "Si O2"
_cell_formula_units_Z 64
_cell_length_a 15.317955
_cell_length_b 25.467797
_cell_length_c 12.853917
_cell_angle_alpha 90.000000
_cell_angle_beta 39.857358
_cell_angle_gamma 90.000000
_cell_volume 3213.685402
_symmetry_space_group_name_H-M "C 2/C"
_symmetry_group_IT_number 15
_symmetry_cell_setting 'monoclinic'
loop_
_space_group_symop_operation_xyz
x,y,z
-x,y,1/2-z
-x,-y,-z
x,-y,1/2+z
1/2+x,1/2+y,z
1/2-x,1/2+y,1/2-z
1/2-x,1/2-y,-z
1/2+x,1/2-y,1/2+z
loop_
_atom_site_type_symbol
_atom_site_label
_atom_site_fract_x
_atom_site_fract_y
_atom_site_fract_z
Si Si1 0.363131 0.314217 0.823169
Si Si2 0.533404 0.948910 0.902101
Si Si3 0.382381 0.516933 0.288481
Si Si4 0.862471 0.468235 0.334154
Si Si5 0.808332 0.899455 0.703746
Si Si6 0.628329 0.193839 0.699850
Si Si7 0.531121 0.601082 0.834767
Si Si8 0.299727 0.890569 0.208172
O O1 0.500000 0.335414 0.750000
O O2 0.321465 0.349043 0.764126
O O3 0.378807 0.255249 0.765634
O O4 0.257385 0.319643 0.012538
O O5 0.648571 0.909859 0.838971
O O6 0.588697 0.973074 0.744005
O O7 0.396543 0.913210 0.027070
O O8 0.500000 0.000000 0.000000
O O9 0.500000 0.543130 0.250000
O O10 0.238311 0.521971 0.478236
O O11 0.377255 0.548602 0.186964
O O12 0.423863 0.458528 0.222197
O O13 0.790084 0.434637 0.309057
O O14 0.000000 0.438711 0.250000
O O15 0.887643 0.890694 0.523746
O O16 0.500000 0.175901 0.750000
O O17 0.636949 0.162112 0.800048
O O18 0.500000 0.627066 0.750000
O O19 0.654580 0.625715 0.789983
#
# Coordination Sequence:
#
# PCOD8137545 Si02
#       8
#     8   8   8   8   8   8   8   8
#     4  10  21  36  57  89 121 147 180 231 290 351
#     4  10  21  33  49  76 110 149 188 223 261 325
#     4  11  20  32  51  77 109 145 183 224 275 333
#     4  11  20  33  53  81 115 145 181 228 280 340
#     4  12  21  36  56  79 112 151 190 225 280 338
#     4  10  20  36  59  90 121 145 180 229 290 355
#     4  11  24  38  53  77 109 151 197 238 272 319
#     4  11  20  36  57  81 113 152 189 227 286 343
#
# _framework density 19.914831
#
# number of rings (size 3 to 8) (size 9 to 14) (size 15 to 20)
#    0.000    1.250    0.000    9.375    0.000    0.000 
#    0.000    0.000    0.000    0.750    0.000    3.500 
#    0.000    0.000    0.000    0.000    0.000    0.000 
#
# Total GULP energy -396632.547208 kJ/mol
# GULP energy per Si atom -12394.767100 kJ/mol
# Density = 1.986950 g / cm^3
# Si number density = 19.914831 Si / 1000 Ang^3
#
#
#
# Elastic Constant Matrix: (Units=GPa)
#
#
# Indices 1 2 3 4 5 6 
#
# 1 111.5596 26.4723 25.4898 0.0001 -6.7058 0.0000
# 2 26.4723 68.2971 18.0089 0.0000 1.4424 0.0000
# 3 25.4898 18.0089 50.4498 -0.0001 -8.3326 0.0000
# 4 0.0001 0.0000 -0.0001 19.8152 -0.0001 -1.1827
# 5 -6.7058 1.4424 -8.3326 -0.0001 34.5359 0.0001
# 6 0.0000 0.0000 0.0000 -1.1827 0.0001 30.9516
#
#
#
# Elastic Compliance Matrix: (Units=1/GPa)
#
#
# Indices 1 2 3 4 5 6 
#
# 1 0.010709 -0.003094 -0.004105 0.000000 0.001218 0.000000
# 2 -0.003094 0.017213 -0.004998 0.000000 -0.002526 0.000000
# 3 -0.004105 -0.004998 0.024562 0.000000 0.005338 0.000000
# 4 0.000000 0.000000 0.000000 0.050582 0.000000 0.001933
# 5 0.001218 -0.002526 0.005338 0.000000 0.030585 0.000000
# 6 0.000000 0.000000 0.000000 0.001933 0.000000 0.032382
#
#
# Mechanical properties :
#
#
# Convention : Reuss Voigt Hill
#
# Bulk Modulus (GPa) = 35.60179 41.13871 38.37025
# Shear Modulus (GPa) = 25.02623 27.74956 26.38790
#
# Velocity S-wave (km/s) = 3.54879 3.73689 3.64406
# Velocity P-wave (km/s) = 5.89133 6.27067 6.08396
#
# Compressibility (1/GPa) = 0.02808848
#
# Stress axis : x y z
#
# Youngs Moduli (GPa) = 93.37729 58.09727 40.71396
#
# Poissons Ratio (x) = 0.17977 0.16714
# Poissons Ratio (y) = 0.28893 0.20349
# Poissons Ratio (z) = 0.38332 0.29038
#
# Static dielectric constant tensor:
#      x y z
#    x 4.136750 0.000000 -0.264300 
#    y 0.000000 3.486040 0.000000 
#    z -0.264300 0.000000 3.996700 
# 
# 
# High freq. dielectric constant tensor:
#      x y z
#    x 1.780100 0.000000 -0.015700 
#    y 0.000000 1.744580 0.000000 
#    z -0.015700 0.000000 1.789060 
# 
# From -- ./inp_files/101304.got.cif
#   From: 2010.06.25/outbox.cif.g09.slc.cpg/sg15_51_cif.got.tgz:101304.got - 2010.06.28 07:06:18.
