data_PCOD8137864
_publ_section_title
;
Structure prediction by ZEFSAII (Michael W. Deem and Ramdas Pophale) SiO2 
 PCOD8137864
Probable space group: C 2/C
;
_chemical_formula_sum "Si O2"
_cell_formula_units_Z 56
_cell_length_a 18.354014
_cell_length_b 8.944171
_cell_length_c 28.155217
_cell_angle_alpha 90.000000
_cell_angle_beta 36.431476
_cell_angle_gamma 90.000000
_cell_volume 2744.825989
_symmetry_space_group_name_H-M "C 2/C"
_symmetry_group_IT_number 15
_symmetry_cell_setting 'monoclinic'
loop_
_space_group_symop_operation_xyz
x,y,z
-x,y,1/2-z
-x,-y,-z
x,-y,1/2+z
1/2+x,1/2+y,z
1/2-x,1/2+y,1/2-z
1/2-x,1/2-y,-z
1/2+x,1/2-y,1/2+z
loop_
_atom_site_type_symbol
_atom_site_label
_atom_site_fract_x
_atom_site_fract_y
_atom_site_fract_z
Si Si1 0.977388 0.757730 0.007457
Si Si2 0.641330 0.347800 0.577905
Si Si3 0.020855 0.980395 0.058738
Si Si4 0.791521 0.645825 0.667683
Si Si5 0.937283 0.672229 0.735684
Si Si6 0.230614 0.083659 0.132629
Si Si7 0.238041 0.461152 0.727250
O O1 0.074641 0.691068 0.919926
O O2 0.035268 0.812395 0.028260
O O3 0.870028 0.637326 0.068484
O O4 0.924808 0.906144 0.009321
O O5 0.750000 0.250000 0.500000
O O6 0.597671 0.483544 0.566323
O O7 0.531981 0.230133 0.645943
O O8 0.691396 0.426632 0.598790
O O9 0.877439 0.997581 0.143825
O O10 0.718198 0.583576 0.660392
O O11 0.801615 0.508633 0.699318
O O12 0.720532 0.782827 0.730033
O O13 0.859492 0.815502 0.790072
O O14 0.851619 0.541033 0.762431
O O15 0.000000 0.606302 0.750000
#
# Coordination Sequence:
#
# PCOD8137864 Si02
#       7
#     8   8   8   8   8   8   8
#     4  10  20  36  64  92 131 160 218 266 325 382
#     4  11  22  38  66  97 134 171 223 263 322 400
#     4  10  20  37  63  96 122 172 212 266 323 380
#     4  11  24  38  65  92 127 167 214 270 323 387
#     4  10  22  40  66  93 127 173 215 266 331 391
#     4  11  21  41  62  95 131 171 215 265 325 389
#     4  11  22  41  64  93 128 164 223 268 322 393
#
# _framework density 20.402023
#
# number of rings (size 3 to 8) (size 9 to 14) (size 15 to 20)
#    0.000    1.429    2.857    3.857    0.000    0.000 
#    0.000    4.286    0.000    0.000    0.000    0.000 
#    0.000    0.000    0.000    0.000    0.000    0.000 
#
# Total GULP energy -347070.488406 kJ/mol
# GULP energy per Si atom -12395.374586 kJ/mol
# Density = 2.035559 g / cm^3
# Si number density = 20.402023 Si / 1000 Ang^3
#
#
#
# Elastic Constant Matrix: (Units=GPa)
#
#
# Indices 1 2 3 4 5 6 
#
# 1 134.2900 70.5213 49.0383 -0.0067 11.7768 0.0268
# 2 70.5213 93.1220 46.1356 -0.0078 15.8888 0.0055
# 3 49.0383 46.1356 113.7733 0.0028 5.0853 -0.0003
# 4 -0.0067 -0.0078 0.0028 20.7058 -0.0006 4.2597
# 5 11.7768 15.8888 5.0853 -0.0006 26.9286 -0.0020
# 6 0.0268 0.0055 -0.0003 4.2597 -0.0020 42.1714
#
#
#
# Elastic Compliance Matrix: (Units=1/GPa)
#
#
# Indices 1 2 3 4 5 6 
#
# 1 0.012707 -0.008629 -0.001974 0.000003 -0.000093 -0.000007
# 2 -0.008629 0.020729 -0.004345 0.000005 -0.007637 0.000002
# 3 -0.001974 -0.004345 0.011345 -0.000004 0.001284 0.000002
# 4 0.000003 0.000005 -0.000004 0.049320 -0.000003 -0.004982
# 5 -0.000093 -0.007637 0.001284 -0.000003 0.041439 0.000003
# 6 -0.000007 0.000002 0.000002 -0.004982 0.000003 0.024216
#
#
# Mechanical properties :
#
#
# Convention : Reuss Voigt Hill
#
# Bulk Modulus (GPa) = 67.18238 74.73064 70.95651
# Shear Modulus (GPa) = 25.69184 29.66051 27.67618
#
# Velocity S-wave (km/s) = 3.55248 3.81701 3.68712
# Velocity P-wave (km/s) = 7.05887 7.49231 7.27881
#
# Compressibility (1/GPa) = 0.01488486
#
# Stress axis : x y z
#
# Youngs Moduli (GPa) = 78.69619 48.24074 88.14794
#
# Poissons Ratio (x) = 0.41629 0.17396
# Poissons Ratio (y) = 0.67911 0.38301
# Poissons Ratio (z) = 0.15531 0.20961
#
# Static dielectric constant tensor:
#      x y z
#    x 3.587840 0.000000 0.063030 
#    y 0.000000 3.789800 0.000010 
#    z 0.063030 0.000010 3.815060 
# 
# 
# High freq. dielectric constant tensor:
#      x y z
#    x 1.793080 0.000000 0.014720 
#    y 0.000000 1.780470 0.000000 
#    z 0.014720 0.000000 1.813050 
# 
# From -- ./inp_files/209527.got.cif
#   From: 2010.06.25/outbox.cif.g09.slc.cpg/sg15_105_cif.got.tgz:209527.got - 2010.06.28 07:06:18.
