data_PCOD8137680
_publ_section_title
;
Structure prediction by ZEFSAII (Michael W. Deem and Ramdas Pophale) SiO2 
 PCOD8137680
Probable space group: C 2/C
;
_chemical_formula_sum "Si O2"
_cell_formula_units_Z 56
_cell_length_a 8.600947
_cell_length_b 24.500215
_cell_length_c 17.598632
_cell_angle_alpha 90.000000
_cell_angle_beta 134.150123
_cell_angle_gamma 90.000000
_cell_volume 2660.893004
_symmetry_space_group_name_H-M "C 2/C"
_symmetry_group_IT_number 15
_symmetry_cell_setting 'monoclinic'
loop_
_space_group_symop_operation_xyz
x,y,z
-x,y,1/2-z
-x,-y,-z
x,-y,1/2+z
1/2+x,1/2+y,z
1/2-x,1/2+y,1/2-z
1/2-x,1/2-y,-z
1/2+x,1/2-y,1/2+z
loop_
_atom_site_type_symbol
_atom_site_label
_atom_site_fract_x
_atom_site_fract_y
_atom_site_fract_z
Si Si1 0.411739 0.062273 0.876261
Si Si2 0.446732 0.253004 0.956577
Si Si3 0.377323 0.578983 0.068554
Si Si4 0.000000 0.986908 0.750000
Si Si5 0.536657 0.366427 0.047745
Si Si6 0.822217 0.848489 0.126225
Si Si7 0.000000 0.390601 0.250000
Si Si8 0.119265 0.199706 0.369366
O O1 0.383894 0.118755 0.912934
O O2 0.405892 0.070947 0.783950
O O3 0.220828 0.020802 0.832949
O O4 0.653318 0.044323 0.984228
O O5 0.239448 0.215205 0.905030
O O6 0.484181 0.259451 0.878521
O O7 0.410224 0.312792 0.977450
O O8 0.649788 0.226319 0.068386
O O9 0.524803 0.549806 0.182239
O O10 0.338950 0.641760 0.077215
O O11 0.490090 0.583952 0.022814
O O12 0.414597 0.380361 0.084161
O O13 0.795952 0.354887 0.149664
O O14 0.000000 0.853565 0.250000
O O15 0.000000 0.191586 0.250000
#
# Coordination Sequence:
#
# PCOD8137680 Si02
#       8
#     8   8   8   4   8   8   4   8
#     4  11  22  40  64  92 118 158 211 261 305 372
#     4  10  23  35  58  92 126 162 211 244 305 365
#     4  10  22  41  63  89 123 157 205 254 308 377
#     4  12  22  42  67  92 120 165 200 264 328 362
#     4  10  22  38  61  92 128 163 201 257 307 368
#     4  12  22  39  60  91 127 166 205 259 305 356
#     4  10  20  40  63  90 122 159 210 258 306 376
#     4  10  20  36  61  89 122 166 202 250 302 370
#
# _framework density 21.045565
#
# number of rings (size 3 to 8) (size 9 to 14) (size 15 to 20)
#    0.000    1.429    4.286    0.857    5.000    0.000 
#    0.000    7.857    0.000    0.000    0.000    0.000 
#    0.000    0.000    0.000    0.000    0.000    0.000 
#
# Total GULP energy -347028.620628 kJ/mol
# GULP energy per Si atom -12393.879308 kJ/mol
# Density = 2.099766 g / cm^3
# Si number density = 21.045565 Si / 1000 Ang^3
#
#
#
# Elastic Constant Matrix: (Units=GPa)
#
#
# Indices 1 2 3 4 5 6 
#
# 1 108.7651 27.6288 44.5335 0.0000 -20.7959 0.0000
# 2 27.6288 66.9759 23.4466 0.0000 -4.0706 0.0000
# 3 44.5335 23.4466 98.0181 0.0000 -28.7288 0.0000
# 4 0.0000 0.0000 0.0000 33.2516 0.0000 0.2634
# 5 -20.7959 -4.0706 -28.7288 0.0000 22.2598 0.0000
# 6 0.0000 0.0000 0.0000 0.2634 0.0000 27.4442
#
#
#
# Elastic Compliance Matrix: (Units=1/GPa)
#
#
# Indices 1 2 3 4 5 6 
#
# 1 0.012732 -0.003883 -0.002537 0.000000 0.007910 0.000000
# 2 -0.003883 0.017632 -0.004136 0.000000 -0.005742 0.000000
# 3 -0.002537 -0.004136 0.018381 0.000000 0.020596 0.000000
# 4 0.000000 0.000000 0.000000 0.030076 0.000000 -0.000289
# 5 0.007910 -0.005742 0.020596 0.000000 0.077845 0.000000
# 6 0.000000 0.000000 0.000000 -0.000289 0.000000 0.036440
#
#
# Mechanical properties :
#
#
# Convention : Reuss Voigt Hill
#
# Bulk Modulus (GPa) = 36.19138 51.66411 43.92774
# Shear Modulus (GPa) = 22.37842 28.46779 25.42310
#
# Velocity S-wave (km/s) = 3.26441 3.68186 3.47940
# Velocity P-wave (km/s) = 5.60737 6.53275 6.08767
#
# Compressibility (1/GPa) = 0.02763089
#
# Stress axis : x y z
#
# Youngs Moduli (GPa) = 78.54371 56.71619 54.40376
#
# Poissons Ratio (x) = 0.22023 0.13805
# Poissons Ratio (y) = 0.30499 0.22503
# Poissons Ratio (z) = 0.19930 0.23459
#
# Static dielectric constant tensor:
#      x y z
#    x 3.649630 0.000000 -0.183790 
#    y 0.000000 3.622380 0.000000 
#    z -0.183790 0.000000 3.810840 
# 
# 
# High freq. dielectric constant tensor:
#      x y z
#    x 1.821430 0.000000 -0.016480 
#    y 0.000000 1.804360 0.000000 
#    z -0.016480 0.000000 1.828950 
# 
# From -- ./inp_files/137310.got.cif
#   From: 2010.06.25/outbox.cif.g09.slc.cpg/sg15_69_cif.got.tgz:137310.got - 2010.06.28 07:06:18.
