data_PCOD8137979
_publ_section_title
;
Structure prediction by ZEFSAII (Michael W. Deem and Ramdas Pophale) SiO2 
 PCOD8137979
Probable space group: C 2/C
;
_chemical_formula_sum "Si O2"
_cell_formula_units_Z 48
_cell_length_a 11.505005
_cell_length_b 14.362607
_cell_length_c 25.104277
_cell_angle_alpha 90.000000
_cell_angle_beta 146.793814
_cell_angle_gamma 90.000000
_cell_volume 2271.818984
_symmetry_space_group_name_H-M "C 2/C"
_symmetry_group_IT_number 15
_symmetry_cell_setting 'monoclinic'
loop_
_space_group_symop_operation_xyz
x,y,z
-x,y,1/2-z
-x,-y,-z
x,-y,1/2+z
1/2+x,1/2+y,z
1/2-x,1/2+y,1/2-z
1/2-x,1/2-y,-z
1/2+x,1/2-y,1/2+z
loop_
_atom_site_type_symbol
_atom_site_label
_atom_site_fract_x
_atom_site_fract_y
_atom_site_fract_z
Si Si1 0.560225 0.267412 0.003746
Si Si2 0.117811 0.856032 0.920435
Si Si3 0.062265 0.511256 0.902753
Si Si4 0.272970 0.838538 0.471114
Si Si5 0.112355 0.970174 0.189174
Si Si6 0.220324 0.426868 0.355908
O O1 0.792962 0.221545 0.085102
O O2 0.391454 0.194437 0.962797
O O3 0.605367 0.349512 0.062808
O O4 0.482234 0.308540 0.916578
O O5 0.989347 0.930008 0.835707
O O6 0.326798 0.904733 0.024658
O O7 0.087069 0.414595 0.943632
O O8 0.169035 0.502742 0.884990
O O9 0.815944 0.542010 0.804710
O O10 0.250000 0.750000 0.500000
O O11 0.048644 0.883172 0.366253
O O12 0.171186 0.984627 0.149652
O O13 0.000000 0.381527 0.250000
#
# Coordination Sequence:
#
# PCOD8137979 Si02
#       6
#     8   8   8   8   8   8
#     4  10  20  37  55  85 113 150 195 234 288 337
#     4   9  21  38  60  78 118 158 187 233 289 353
#     4   9  21  37  57  84 118 155 194 226 297 354
#     4  11  22  36  61  90 116 148 191 251 283 332
#     4  10  20  38  59  84 116 154 193 236 288 344
#     4   9  18  34  58  81 115 155 194 235 278 345
#
# _framework density 21.128443999999998
#
# number of rings (size 3 to 8) (size 9 to 14) (size 15 to 20)
#    0.000    2.333    1.667    0.000    2.333    6.000 
#    6.000    2.500    0.000    0.000    0.000    0.000 
#    0.000    0.000    0.000    0.000    0.000    0.000 
#
# Total GULP energy -297472.794483 kJ/mol
# GULP energy per Si atom -12394.699770 kJ/mol
# Density = 2.108035 g / cm^3
# Si number density = 21.128444 Si / 1000 Ang^3
#
#
#
# Elastic Constant Matrix: (Units=GPa)
#
#
# Indices 1 2 3 4 5 6 
#
# 1 77.4205 28.9271 23.7030 0.0000 9.0311 0.0000
# 2 28.9271 94.7934 24.9506 0.0000 6.9256 0.0000
# 3 23.7030 24.9506 94.6935 0.0002 12.6638 0.0001
# 4 0.0000 0.0000 0.0002 15.3917 0.0001 6.4299
# 5 9.0311 6.9256 12.6638 0.0001 19.2146 0.0000
# 6 0.0000 0.0000 0.0001 6.4299 0.0000 35.0201
#
#
#
# Elastic Compliance Matrix: (Units=1/GPa)
#
#
# Indices 1 2 3 4 5 6 
#
# 1 0.015564 -0.003822 -0.002297 0.000000 -0.004424 0.000000
# 2 -0.003822 0.012369 -0.002135 0.000000 -0.001255 0.000000
# 3 -0.002297 -0.002135 0.012557 0.000000 -0.006427 0.000000
# 4 0.000000 0.000000 0.000000 0.070367 0.000000 -0.012920
# 5 -0.004424 -0.001255 -0.006427 0.000000 0.058811 0.000000
# 6 0.000000 0.000000 0.000000 -0.012920 0.000000 0.030927
#
#
# Mechanical properties :
#
#
# Convention : Reuss Voigt Hill
#
# Bulk Modulus (GPa) = 41.69588 46.89652 44.29620
# Shear Modulus (GPa) = 22.21262 26.54706 24.37984
#
# Velocity S-wave (km/s) = 3.24591 3.54850 3.40058
# Velocity P-wave (km/s) = 5.81595 6.24766 6.03567
#
# Compressibility (1/GPa) = 0.02398318
#
# Stress axis : x y z
#
# Youngs Moduli (GPa) = 64.25214 80.84733 79.63433
#
# Poissons Ratio (x) = 0.30896 0.18294
# Poissons Ratio (y) = 0.24554 0.16999
# Poissons Ratio (z) = 0.14760 0.17258
#
# Static dielectric constant tensor:
#      x y z
#    x 3.864760 0.000000 0.097310 
#    y 0.000000 3.871520 0.000000 
#    z 0.097310 0.000000 3.671050 
# 
# 
# High freq. dielectric constant tensor:
#      x y z
#    x 1.825200 0.000000 0.007230 
#    y 0.000000 1.828770 0.000000 
#    z 0.007230 0.000000 1.808650 
# 
# From -- ./inp_files/143560.got.cif
#   From: 2010.06.25/outbox.cif.g09.slc.cpg/sg15_72_cif.got.tgz:143560.got - 2010.06.28 07:06:18.
