data_PCOD8137110
_publ_section_title
;
Structure prediction by ZEFSAII (Michael W. Deem and Ramdas Pophale) SiO2 
 PCOD8137110
Probable space group: C 2/C
;
_chemical_formula_sum "Si O2"
_cell_formula_units_Z 60
_cell_length_a 14.557955
_cell_length_b 18.833292
_cell_length_c 12.648749
_cell_angle_alpha 90.000000
_cell_angle_beta 124.984977
_cell_angle_gamma 90.000000
_cell_volume 2841.308684
_symmetry_space_group_name_H-M "C 2/C"
_symmetry_group_IT_number 15
_symmetry_cell_setting 'monoclinic'
loop_
_space_group_symop_operation_xyz
x,y,z
-x,y,1/2-z
-x,-y,-z
x,-y,1/2+z
1/2+x,1/2+y,z
1/2-x,1/2+y,1/2-z
1/2-x,1/2-y,-z
1/2+x,1/2-y,1/2+z
loop_
_atom_site_type_symbol
_atom_site_label
_atom_site_fract_x
_atom_site_fract_y
_atom_site_fract_z
Si Si1 0.253700 0.373582 0.181796
Si Si2 0.775070 0.455454 0.136074
Si Si3 0.000000 0.376111 0.250000
Si Si4 0.633333 0.498893 0.347558
Si Si5 0.497347 0.143494 0.980682
Si Si6 0.935956 0.252722 0.609795
Si Si7 0.758231 0.291776 0.640461
Si Si8 0.291853 0.078837 0.299570
O O1 0.282229 0.400812 0.318826
O O2 0.328100 0.417493 0.146911
O O3 0.122768 0.391866 0.073712
O O4 0.275586 0.289792 0.188914
O O5 0.815050 0.528323 0.216366
O O6 0.888044 0.422975 0.161433
O O7 0.677361 0.473534 0.988926
O O8 0.005877 0.329520 0.144894
O O9 0.500000 0.505155 0.250000
O O10 0.687892 0.550180 0.296873
O O11 0.517599 0.206624 0.080665
O O12 0.594005 0.084746 0.056959
O O13 0.851935 0.309377 0.612808
O O14 0.862707 0.196842 0.495305
O O15 0.000000 0.214603 0.750000
O O16 0.760347 0.342238 0.741722
#
# Coordination Sequence:
#
# PCOD8137110 Si02
#       8
#     8   8   4   8   8   8   8   8
#     4   9  23  41  62  95 131 168 216 272 323 394
#     4  10  23  38  64  95 125 171 213 267 324 394
#     4  10  20  38  68  90 132 164 204 268 334 392
#     4  11  25  45  63  89 132 180 224 258 323 404
#     4  10  20  38  64  99 130 159 216 269 339 380
#     4  10  20  35  60  95 133 162 203 268 326 393
#     4  10  22  40  61  97 130 163 213 267 339 384
#     4  11  23  40  67  95 127 167 216 285 325 389
#
# _framework density 21.117028999999999
#
# number of rings (size 3 to 8) (size 9 to 14) (size 15 to 20)
#    0.000    1.867    2.667    0.000    7.467    4.267 
#    2.400    0.667   13.200    0.000    0.000    0.000 
#    0.000    0.000    0.000    0.000    0.000    0.000 
#
# Total GULP energy -371725.241470 kJ/mol
# GULP energy per Si atom -12390.841382 kJ/mol
# Density = 2.106897 g / cm^3
# Si number density = 21.117029 Si / 1000 Ang^3
#
#
#
# Elastic Constant Matrix: (Units=GPa)
#
#
# Indices 1 2 3 4 5 6 
#
# 1 108.3245 32.6458 43.1503 0.0000 5.5713 0.0000
# 2 32.6458 103.4626 45.8859 0.0000 -10.5122 0.0000
# 3 43.1503 45.8859 136.2865 0.0000 -9.3263 0.0000
# 4 0.0000 0.0000 0.0000 19.1053 0.0000 -4.3976
# 5 5.5713 -10.5122 -9.3263 0.0000 35.1144 0.0000
# 6 0.0000 0.0000 0.0000 -4.3976 0.0000 25.2159
#
#
#
# Elastic Compliance Matrix: (Units=1/GPa)
#
#
# Indices 1 2 3 4 5 6 
#
# 1 0.011369 -0.002623 -0.002947 0.000000 -0.003372 0.000000
# 2 -0.002623 0.012174 -0.003046 0.000000 0.003252 0.000000
# 3 -0.002947 -0.003046 0.009437 0.000000 0.002062 0.000000
# 4 0.000000 0.000000 0.000000 0.054530 0.000000 0.009510
# 5 -0.003372 0.003252 0.002062 0.000000 0.030535 0.000000
# 6 0.000000 0.000000 0.000000 0.009510 0.000000 0.041316
#
#
# Mechanical properties :
#
#
# Convention : Reuss Voigt Hill
#
# Bulk Modulus (GPa) = 63.49770 65.71527 64.60648
# Shear Modulus (GPa) = 27.49611 30.97992 29.23801
#
# Velocity S-wave (km/s) = 3.61235 3.83438 3.72502
# Velocity P-wave (km/s) = 6.89445 7.12674 7.01156
#
# Compressibility (1/GPa) = 0.01574860
#
# Stress axis : x y z
#
# Youngs Moduli (GPa) = 87.95481 82.14100 105.96221
#
# Poissons Ratio (x) = 0.21544 0.31231
# Poissons Ratio (y) = 0.23069 0.32275
# Poissons Ratio (z) = 0.25924 0.25020
#
# Static dielectric constant tensor:
#      x y z
#    x 3.977520 0.000000 -0.044730 
#    y 0.000000 3.526290 0.000000 
#    z -0.044730 0.000000 4.140060 
# 
# 
# High freq. dielectric constant tensor:
#      x y z
#    x 1.829070 0.000000 -0.000190 
#    y 0.000000 1.792510 0.000000 
#    z -0.000190 0.000000 1.846980 
# 
# From -- ./inp_files/99822.got.cif
#   From: 2010.06.25/outbox.cif.g09.slc.cpg/sg15_50_cif.got.tgz:99822.got - 2010.06.28 07:06:18.
