data_PCOD8137470
_publ_section_title
;
Structure prediction by ZEFSAII (Michael W. Deem and Ramdas Pophale) SiO2 
 PCOD8137470
Probable space group: C 2/C
;
_chemical_formula_sum "Si O2"
_cell_formula_units_Z 64
_cell_length_a 20.511158
_cell_length_b 22.561522
_cell_length_c 7.999202
_cell_angle_alpha 90.000000
_cell_angle_beta 122.055938
_cell_angle_gamma 90.000000
_cell_volume 3137.332057
_symmetry_space_group_name_H-M "C 2/C"
_symmetry_group_IT_number 15
_symmetry_cell_setting 'monoclinic'
loop_
_space_group_symop_operation_xyz
x,y,z
-x,y,1/2-z
-x,-y,-z
x,-y,1/2+z
1/2+x,1/2+y,z
1/2-x,1/2+y,1/2-z
1/2-x,1/2-y,-z
1/2+x,1/2-y,1/2+z
loop_
_atom_site_type_symbol
_atom_site_label
_atom_site_fract_x
_atom_site_fract_y
_atom_site_fract_z
Si Si1 0.401694 0.292313 0.943384
Si Si2 0.590038 0.365814 0.867235
Si Si3 0.430883 0.046772 0.407060
Si Si4 0.692429 0.801064 0.362336
Si Si5 0.070021 0.672875 0.957821
Si Si6 0.819503 0.490370 0.505347
Si Si7 0.764206 0.921387 0.360821
Si Si8 0.918852 0.784562 0.333264
O O1 0.379572 0.340806 0.771178
O O2 0.368353 0.228297 0.848091
O O3 0.374870 0.304487 0.100948
O O4 0.492085 0.293994 0.070547
O O5 0.500000 0.383757 0.750000
O O6 0.643643 0.423078 0.977214
O O7 0.609657 0.319295 0.041479
O O8 0.460256 0.110332 0.510293
O O9 0.391882 0.048539 0.171742
O O10 0.500000 0.000000 0.500000
O O11 0.356977 0.028833 0.412165
O O12 0.750000 0.750000 0.500000
O O13 0.646915 0.831924 0.452589
O O14 0.738181 0.853053 0.333059
O O15 0.000000 0.699819 0.750000
O O16 0.091854 0.714933 0.142942
O O17 0.753752 0.445801 0.348799
O O18 0.780750 0.536871 0.574711
#
# Coordination Sequence:
#
# PCOD8137470 Si02
#       8
#     8   8   8   8   8   8   8   8
#     4  10  20  36  58  93 130 160 203 259 319 390
#     4  10  20  43  69  91 125 165 205 266 337 395
#     4  11  23  40  59  88 121 173 227 266 309 378
#     4  12  22  39  63  92 128 171 209 261 338 392
#     4  12  21  37  59  86 125 171 216 268 318 378
#     4  10  24  42  60  84 127 169 214 267 325 375
#     4  11  23  44  63  90 127 168 213 271 331 392
#     4  10  20  36  60  93 125 161 211 256 323 390
#
# _framework density 20.399498000000001
#
# number of rings (size 3 to 8) (size 9 to 14) (size 15 to 20)
#    0.000    1.250    5.000    1.500    3.500    0.000 
#    9.000    1.875    0.000    0.000    0.000    0.000 
#    0.000    0.000    0.000    0.000    0.000    0.000 
#
# Total GULP energy -396487.675634 kJ/mol
# GULP energy per Si atom -12390.239864 kJ/mol
# Density = 2.035307 g / cm^3
# Si number density = 20.399498 Si / 1000 Ang^3
#
#
#
# Elastic Constant Matrix: (Units=GPa)
#
#
# Indices 1 2 3 4 5 6 
#
# 1 59.9751 24.6797 31.6452 0.0000 7.6202 0.0000
# 2 24.6797 69.5109 43.6929 0.0000 9.6846 0.0000
# 3 31.6452 43.6929 131.5852 0.0000 -6.6328 0.0000
# 4 0.0000 0.0000 0.0000 28.8922 0.0000 10.4679
# 5 7.6202 9.6846 -6.6328 0.0000 24.6844 0.0000
# 6 0.0000 0.0000 0.0000 10.4679 0.0000 25.7991
#
#
#
# Elastic Compliance Matrix: (Units=1/GPa)
#
#
# Indices 1 2 3 4 5 6 
#
# 1 0.021288 -0.004185 -0.004033 0.000000 -0.006013 0.000000
# 2 -0.004185 0.021148 -0.006456 0.000000 -0.008740 0.000000
# 3 -0.004033 -0.006456 0.011053 0.000000 0.006748 0.000000
# 4 0.000000 0.000000 0.000000 0.040576 0.000000 -0.016464
# 5 -0.006013 -0.008740 0.006748 0.000000 0.047610 0.000000
# 6 0.000000 0.000000 0.000000 -0.016464 0.000000 0.045441
#
#
# Mechanical properties :
#
#
# Convention : Reuss Voigt Hill
#
# Bulk Modulus (GPa) = 41.42443 51.23408 46.32926
# Shear Modulus (GPa) = 22.27042 26.61204 24.44123
#
# Velocity S-wave (km/s) = 3.30769 3.61577 3.46516
# Velocity P-wave (km/s) = 5.91088 6.52699 6.22656
#
# Compressibility (1/GPa) = 0.02414034
#
# Stress axis : x y z
#
# Youngs Moduli (GPa) = 46.97528 47.28533 90.46933
#
# Poissons Ratio (x) = 0.19791 0.36485
# Poissons Ratio (y) = 0.19661 0.58409
# Poissons Ratio (z) = 0.18945 0.30529
#
# Static dielectric constant tensor:
#      x y z
#    x 3.626240 0.000000 -0.099770 
#    y 0.000000 3.557820 0.000000 
#    z -0.099770 0.000000 4.329690 
# 
# 
# High freq. dielectric constant tensor:
#      x y z
#    x 1.796050 0.000000 -0.001750 
#    y 0.000000 1.769290 0.000000 
#    z -0.001750 0.000000 1.807560 
# 
# From -- ./inp_files/63438.got.cif
#   From: 2010.06.25/outbox.cif.g09.slc.cpg/sg15_32_cif.got.tgz:63438.got - 2010.06.28 07:06:18.
