data_PCOD8137068
_publ_section_title
;
Structure prediction by ZEFSAII (Michael W. Deem and Ramdas Pophale) SiO2 
 PCOD8137068
Probable space group: C 2/C
;
_chemical_formula_sum "Si O2"
_cell_formula_units_Z 60
_cell_length_a 20.039582
_cell_length_b 11.239105
_cell_length_c 13.056573
_cell_angle_alpha 90.000000
_cell_angle_beta 64.836096
_cell_angle_gamma 90.000000
_cell_volume 2661.606249
_symmetry_space_group_name_H-M "C 2/C"
_symmetry_group_IT_number 15
_symmetry_cell_setting 'monoclinic'
loop_
_space_group_symop_operation_xyz
x,y,z
-x,y,1/2-z
-x,-y,-z
x,-y,1/2+z
1/2+x,1/2+y,z
1/2-x,1/2+y,1/2-z
1/2-x,1/2-y,-z
1/2+x,1/2-y,1/2+z
loop_
_atom_site_type_symbol
_atom_site_label
_atom_site_fract_x
_atom_site_fract_y
_atom_site_fract_z
Si Si1 0.387728 0.612847 0.761485
Si Si2 0.270059 0.299838 0.097234
Si Si3 0.810047 0.342613 0.752295
Si Si4 0.000000 0.560623 0.750000
Si Si5 0.369283 0.096011 0.706088
Si Si6 0.948933 0.417149 0.962475
Si Si7 0.336876 0.466794 0.625252
Si Si8 0.960899 0.854112 0.424600
O O1 0.344679 0.737367 0.796212
O O2 0.334576 0.511940 0.746351
O O3 0.455523 0.601071 0.636551
O O4 0.414923 0.593669 0.858340
O O5 0.312733 0.196268 0.130703
O O6 0.196733 0.323910 0.211379
O O7 0.319704 0.419771 0.061657
O O8 0.250000 0.250000 0.000000
O O9 0.860221 0.457140 0.737594
O O10 0.727140 0.369306 0.845221
O O11 0.945345 0.638309 0.713453
O O12 0.943168 0.483380 0.857409
O O13 0.374707 0.105072 0.578269
O O14 0.976864 0.286082 0.917158
O O15 0.000000 0.500000 0.000000
O O16 0.415428 0.404144 0.550684
#
# Coordination Sequence:
#
# PCOD8137068 Si02
#       8
#     8   8   8   4   8   8   8   8
#     4  10  22  40  63  93 123 168 215 266 331 390
#     4  10  23  40  60  86 126 173 215 264 329 387
#     4  10  21  40  61  85 127 161 210 266 317 389
#     4  10  20  36  62  92 130 158 206 258 330 394
#     4  10  21  38  60  93 122 162 206 263 327 389
#     4  10  20  35  59  93 128 162 203 262 327 393
#     4  10  23  40  62  94 124 170 221 269 322 399
#     4  11  21  39  66  91 126 167 212 270 329 400
#
# _framework density 22.542777999999998
#
# number of rings (size 3 to 8) (size 9 to 14) (size 15 to 20)
#    0.000    1.867    0.000    4.400    3.733    0.533 
#    2.400    0.000    0.000    0.000    0.000    0.000 
#    0.000    0.000    0.000    0.000    0.000    0.000 
#
# Total GULP energy -371646.891738 kJ/mol
# GULP energy per Si atom -12388.229725 kJ/mol
# Density = 2.249147 g / cm^3
# Si number density = 22.542778 Si / 1000 Ang^3
#
#
#
# Elastic Constant Matrix: (Units=GPa)
#
#
# Indices 1 2 3 4 5 6 
#
# 1 72.6711 24.5367 10.4381 0.0000 2.9846 0.0000
# 2 24.5367 55.3767 5.5008 0.0000 0.9800 0.0000
# 3 10.4381 5.5008 96.8339 0.0000 -2.1613 0.0000
# 4 0.0000 0.0000 0.0000 19.3193 0.0000 2.3730
# 5 2.9846 0.9800 -2.1613 0.0000 35.0525 0.0000
# 6 0.0000 0.0000 0.0000 2.3730 0.0000 21.6508
#
#
#
# Elastic Compliance Matrix: (Units=1/GPa)
#
#
# Indices 1 2 3 4 5 6 
#
# 1 0.016415 -0.007112 -0.001394 0.000000 -0.001285 0.000000
# 2 -0.007112 0.021253 -0.000441 0.000000 -0.000016 0.000000
# 3 -0.001394 -0.000441 0.010520 0.000000 0.000780 0.000000
# 4 0.000000 0.000000 0.000000 0.052468 0.000000 -0.005751
# 5 -0.001285 -0.000016 0.000780 0.000000 0.028687 0.000000
# 6 0.000000 0.000000 0.000000 -0.005751 0.000000 0.046818
#
#
# Mechanical properties :
#
#
# Convention : Reuss Voigt Hill
#
# Bulk Modulus (GPa) = 33.01011 33.98143 33.49577
# Shear Modulus (GPa) = 24.49144 27.49827 25.99486
#
# Velocity S-wave (km/s) = 3.29970 3.49639 3.39947
# Velocity P-wave (km/s) = 5.40301 5.60416 5.50450
#
# Compressibility (1/GPa) = 0.03029375
#
# Stress axis : x y z
#
# Youngs Moduli (GPa) = 60.92012 47.05115 95.05978
#
# Poissons Ratio (x) = 0.33463 0.13252
# Poissons Ratio (y) = 0.43327 0.04193
# Poissons Ratio (z) = 0.08493 0.02075
#
# Static dielectric constant tensor:
#      x y z
#    x 4.014090 0.000000 -0.089140 
#    y 0.000000 3.971590 0.000000 
#    z -0.089140 0.000000 4.188880 
# 
# 
# High freq. dielectric constant tensor:
#      x y z
#    x 1.888720 0.000000 -0.002200 
#    y 0.000000 1.880580 0.000000 
#    z -0.002200 0.000000 1.881270 
# 
# From -- ./inp_files/167591.got.cif
#   From: 2010.06.25/outbox.cif.g09.slc.cpg/sg15_84_cif.got.tgz:167591.got - 2010.06.28 07:06:18.
