data_PCOD8137247
_publ_section_title
;
Structure prediction by ZEFSAII (Michael W. Deem and Ramdas Pophale) SiO2 
 PCOD8137247
Probable space group: C 2/C
;
_chemical_formula_sum "Si O2"
_cell_formula_units_Z 52
_cell_length_a 16.423976
_cell_length_b 9.739162
_cell_length_c 25.682967
_cell_angle_alpha 90.000000
_cell_angle_beta 40.271321
_cell_angle_gamma 90.000000
_cell_volume 2655.533440
_symmetry_space_group_name_H-M "C 2/C"
_symmetry_group_IT_number 15
_symmetry_cell_setting 'monoclinic'
loop_
_space_group_symop_operation_xyz
x,y,z
-x,y,1/2-z
-x,-y,-z
x,-y,1/2+z
1/2+x,1/2+y,z
1/2-x,1/2+y,1/2-z
1/2-x,1/2-y,-z
1/2+x,1/2-y,1/2+z
loop_
_atom_site_type_symbol
_atom_site_label
_atom_site_fract_x
_atom_site_fract_y
_atom_site_fract_z
Si Si1 0.807669 0.223762 0.693618
Si Si2 0.234901 0.035817 0.579353
Si Si3 0.611152 0.445781 0.802380
Si Si4 0.958778 0.268668 0.979921
Si Si5 0.136861 0.000136 0.017828
Si Si6 0.196697 0.238679 0.919607
Si Si7 0.500000 0.512222 0.750000
O O1 0.713182 0.329964 0.767154
O O2 0.753847 0.190337 0.661609
O O3 0.949161 0.287385 0.615789
O O4 0.817513 0.091590 0.725873
O O5 0.363473 0.106164 0.533752
O O6 0.114089 0.101560 0.668836
O O7 0.218336 0.056669 0.526063
O O8 0.233411 0.874662 0.594577
O O9 0.496000 0.436412 0.898779
O O10 0.560716 0.424429 0.767956
O O11 0.045519 0.266134 0.989268
O O12 0.884129 0.125152 0.011661
O O13 0.219482 0.116804 0.949409
#
# Coordination Sequence:
#
# PCOD8137247 Si02
#       7
#     8   8   8   8   8   8   4
#     4   9  21  36  58  78 114 140 189 224 269 320
#     4  11  20  35  59  80 111 146 182 226 268 327
#     4  10  20  38  57  80 110 149 178 227 270 328
#     4   9  20  35  56  81 107 141 180 230 261 318
#     4  10  21  35  58  82 113 144 181 220 284 314
#     4  10  20  37  55  85 108 141 185 228 264 328
#     4  10  20  36  54  80 108 146 182 218 276 328
#
# _framework density 19.581752999999999
#
# number of rings (size 3 to 8) (size 9 to 14) (size 15 to 20)
#    0.923    1.231    1.538    1.846    0.000    2.462 
#    0.000    0.000    0.000    0.923    0.000    0.000 
#    0.000    0.000    0.000    0.000    0.000    0.000 
#
# Total GULP energy -322155.671464 kJ/mol
# GULP energy per Si atom -12390.602749 kJ/mol
# Density = 1.953718 g / cm^3
# Si number density = 19.581753 Si / 1000 Ang^3
#
#
#
# Elastic Constant Matrix: (Units=GPa)
#
#
# Indices 1 2 3 4 5 6 
#
# 1 61.8772 16.8640 12.2771 0.0000 -2.0356 0.0001
# 2 16.8640 70.7239 24.2910 -0.0001 0.5436 0.0003
# 3 12.2771 24.2910 44.9114 0.0000 2.3888 0.0000
# 4 0.0000 -0.0001 0.0000 20.7910 0.0000 -0.7085
# 5 -2.0356 0.5436 2.3888 0.0000 20.2096 0.0000
# 6 0.0001 0.0003 0.0000 -0.7085 0.0000 21.2956
#
#
#
# Elastic Compliance Matrix: (Units=1/GPa)
#
#
# Indices 1 2 3 4 5 6 
#
# 1 0.017737 -0.003120 -0.003281 0.000000 0.002258 0.000000
# 2 -0.003120 0.017923 -0.008854 0.000000 0.000250 0.000000
# 3 -0.003281 -0.008854 0.028134 0.000000 -0.003418 0.000000
# 4 0.000000 0.000000 0.000000 0.048152 0.000000 0.001602
# 5 0.002258 0.000250 -0.003418 0.000000 0.050106 0.000000
# 6 0.000000 0.000000 0.000000 0.001602 0.000000 0.047011
#
#
# Mechanical properties :
#
#
# Convention : Reuss Voigt Hill
#
# Bulk Modulus (GPa) = 30.04573 31.59742 30.82158
# Shear Modulus (GPa) = 19.94675 20.73126 20.33901
#
# Velocity S-wave (km/s) = 3.19508 3.25730 3.22634
# Velocity P-wave (km/s) = 5.38409 5.50617 5.44547
#
# Compressibility (1/GPa) = 0.03328260
#
# Stress axis : x y z
#
# Youngs Moduli (GPa) = 56.38055 55.79575 35.54441
#
# Poissons Ratio (x) = 0.17406 0.11663
# Poissons Ratio (y) = 0.17588 0.31472
# Poissons Ratio (z) = 0.18501 0.49403
#
# Static dielectric constant tensor:
#      x y z
#    x 3.511370 0.000000 -0.062800 
#    y 0.000000 3.191580 0.000000 
#    z -0.062800 0.000000 3.492040 
# 
# 
# High freq. dielectric constant tensor:
#      x y z
#    x 1.762760 0.000000 -0.001890 
#    y 0.000000 1.732100 0.000000 
#    z -0.001890 0.000000 1.752610 
# 
# From -- ./inp_files/315330.got.cif
#   From: 2010.06.25/outbox.cif.g09.slc.cpg/sg15_158_cif.got.tgz:315330.got - 2010.06.28 07:06:18.
