data_PCOD8137414
_publ_section_title
;
Structure prediction by ZEFSAII (Michael W. Deem and Ramdas Pophale) SiO2 
 PCOD8137414
Probable space group: C 2/C
;
_chemical_formula_sum "Si O2"
_cell_formula_units_Z 48
_cell_length_a 7.688045
_cell_length_b 18.728071
_cell_length_c 16.305145
_cell_angle_alpha 90.000000
_cell_angle_beta 97.666984
_cell_angle_gamma 90.000000
_cell_volume 2326.664073
_symmetry_space_group_name_H-M "C 2/C"
_symmetry_group_IT_number 15
_symmetry_cell_setting 'monoclinic'
loop_
_space_group_symop_operation_xyz
x,y,z
-x,y,1/2-z
-x,-y,-z
x,-y,1/2+z
1/2+x,1/2+y,z
1/2-x,1/2+y,1/2-z
1/2-x,1/2-y,-z
1/2+x,1/2-y,1/2+z
loop_
_atom_site_type_symbol
_atom_site_label
_atom_site_fract_x
_atom_site_fract_y
_atom_site_fract_z
Si Si1 0.247227 0.220850 0.907971
Si Si2 0.331759 0.930055 0.349761
Si Si3 0.132253 0.215136 0.595606
Si Si4 0.059499 0.193895 0.404787
Si Si5 0.223928 0.432055 0.341756
Si Si6 0.529102 0.537061 0.346739
O O1 0.311233 0.138776 0.906490
O O2 0.377300 0.270082 0.860787
O O3 0.046069 0.224348 0.862074
O O4 0.250000 0.250000 0.000000
O O5 0.533285 0.956848 0.362330
O O6 0.273964 0.911332 0.253813
O O7 0.206396 0.992717 0.374871
O O8 0.080035 0.223232 0.497754
O O9 0.271704 0.275384 0.633856
O O10 0.217379 0.137860 0.607546
O O11 0.048543 0.109260 0.398948
O O12 0.360076 0.495193 0.370166
O O13 0.500000 0.556009 0.250000
#
# Coordination Sequence:
#
# PCOD8137414 Si02
#       6
#     8   8   8   8   8   8
#     4  10  20  36  58  84 116 150 190 236 279 343
#     4  10  20  37  59  83 112 150 197 234 284 344
#     4  10  20  37  59  82 115 152 190 230 288 342
#     4  10  22  37  56  85 120 146 187 242 284 337
#     4  10  20  36  60  82 110 153 194 235 282 348
#     4  10  22  39  57  84 117 149 188 240 289 337
#
# _framework density 20.630396999999999
#
# number of rings (size 3 to 8) (size 9 to 14) (size 15 to 20)
#    0.000    2.000    3.333    0.000    0.000    3.333 
#    0.000    0.833    0.000    0.000    0.000    0.000 
#    0.000    0.000    0.000    0.000    0.000    0.000 
#
# Total GULP energy -297509.731745 kJ/mol
# GULP energy per Si atom -12396.238823 kJ/mol
# Density = 2.058344 g / cm^3
# Si number density = 20.630397 Si / 1000 Ang^3
#
#
#
# Elastic Constant Matrix: (Units=GPa)
#
#
# Indices 1 2 3 4 5 6 
#
# 1 220.3640 89.5651 15.9036 0.0000 -10.4188 0.0000
# 2 89.5651 156.8865 16.7344 0.0000 -5.4194 0.0000
# 3 15.9036 16.7344 17.5349 0.0000 -2.3563 0.0000
# 4 0.0000 0.0000 0.0000 10.5555 0.0000 0.3025
# 5 -10.4188 -5.4194 -2.3563 0.0000 15.5883 0.0000
# 6 0.0000 0.0000 0.0000 0.3025 0.0000 39.5969
#
#
#
# Elastic Compliance Matrix: (Units=1/GPa)
#
#
# Indices 1 2 3 4 5 6 
#
# 1 0.006105 -0.003163 -0.002162 0.000000 0.002654 0.000000
# 2 -0.003163 0.008769 -0.005485 0.000000 0.000105 0.000000
# 3 -0.002162 -0.005485 0.065096 0.000000 0.006488 0.000000
# 4 0.000000 0.000000 0.000000 0.094758 0.000000 -0.000724
# 5 0.002654 0.000105 0.006488 0.000000 0.066942 0.000000
# 6 0.000000 0.000000 0.000000 -0.000724 0.000000 0.025260
#
#
# Mechanical properties :
#
#
# Convention : Reuss Voigt Hill
#
# Bulk Modulus (GPa) = 17.13804 71.02127 44.07966
# Shear Modulus (GPa) = 16.23377 31.32029 23.77703
#
# Velocity S-wave (km/s) = 2.80819 3.90059 3.39857
# Velocity P-wave (km/s) = 4.34048 7.40178 6.06738
#
# Compressibility (1/GPa) = 0.05834973
#
# Stress axis : x y z
#
# Youngs Moduli (GPa) = 163.79920 114.04437 15.36183
#
# Poissons Ratio (x) = 0.36073 0.03321
# Poissons Ratio (y) = 0.51810 0.08426
# Poissons Ratio (z) = 0.35410 0.62557
#
# Static dielectric constant tensor:
#      x y z
#    x 4.891600 0.000000 -0.090160 
#    y 0.000000 3.474430 0.000000 
#    z -0.090160 0.000000 3.324410 
# 
# 
# High freq. dielectric constant tensor:
#      x y z
#    x 1.841280 0.000000 -0.003250 
#    y 0.000000 1.797750 0.000000 
#    z -0.003250 0.000000 1.767870 
# 
# From -- ./inp_files/189201.got.cif
#   From: 2010.06.25/outbox.cif.g09.slc.cpg/sg15_95_cif.got.tgz:189201.got - 2010.06.28 07:06:18.
