data_PCOD8137318
_publ_section_title
;
Structure prediction by ZEFSAII (Michael W. Deem and Ramdas Pophale) SiO2 
 PCOD8137318
Probable space group: C 2/C
;
_chemical_formula_sum "Si O2"
_cell_formula_units_Z 60
_cell_length_a 14.062307
_cell_length_b 23.270038
_cell_length_c 9.176651
_cell_angle_alpha 90.000000
_cell_angle_beta 80.897804
_cell_angle_gamma 90.000000
_cell_volume 2965.066320
_symmetry_space_group_name_H-M "C 2/C"
_symmetry_group_IT_number 15
_symmetry_cell_setting 'monoclinic'
loop_
_space_group_symop_operation_xyz
x,y,z
-x,y,1/2-z
-x,-y,-z
x,-y,1/2+z
1/2+x,1/2+y,z
1/2-x,1/2+y,1/2-z
1/2-x,1/2-y,-z
1/2+x,1/2-y,1/2+z
loop_
_atom_site_type_symbol
_atom_site_label
_atom_site_fract_x
_atom_site_fract_y
_atom_site_fract_z
Si Si1 0.289303 0.137123 0.078019
Si Si2 0.359148 0.059898 0.608849
Si Si3 0.989119 0.339424 0.409281
Si Si4 0.751046 0.255855 0.770074
Si Si5 0.889840 0.444888 0.771865
Si Si6 0.000000 0.847398 0.250000
Si Si7 0.801709 0.124946 0.684895
Si Si8 0.906949 0.753151 0.462153
O O1 0.254639 0.200282 0.134922
O O2 0.314511 0.097550 0.209861
O O3 0.381108 0.139829 0.951199
O O4 0.209496 0.110743 0.985632
O O5 0.442151 0.106197 0.603627
O O6 0.345568 0.045030 0.442113
O O7 0.258910 0.082632 0.697826
O O8 0.394921 0.004158 0.684469
O O9 0.011687 0.294687 0.532192
O O10 0.000000 0.308734 0.250000
O O11 0.766757 0.190599 0.716135
O O12 0.648439 0.264554 0.873258
O O13 0.834583 0.273651 0.862101
O O14 0.000000 0.419894 0.750000
O O15 0.086990 0.884913 0.295527
O O16 0.959004 0.809912 0.393232
#
# Coordination Sequence:
#
# PCOD8137318 Si02
#       8
#     8   8   8   8   8   4   8   8
#     4  12  24  37  63  97 133 167 212 258 322 389
#     4  12  24  42  64  90 133 171 209 259 318 382
#     4  12  21  35  58  90 133 173 207 255 310 388
#     4  10  21  36  62  89 132 169 215 263 314 383
#     4  12  26  40  66  98 135 169 206 255 323 399
#     4  10  24  40  66  84 128 170 220 268 322 376
#     4  11  23  44  62  91 128 172 218 268 321 369
#     4  10  20  36  56  90 126 173 215 254 319 372
#
# _framework density 20.235634000000001
#
# number of rings (size 3 to 8) (size 9 to 14) (size 15 to 20)
#    0.000    0.800    4.000    4.400    3.733    1.067 
#    0.000    0.000    0.000    3.200    0.000    0.000 
#    0.000    0.000    0.000    0.000    0.000    0.000 
#
# Total GULP energy -372044.146988 kJ/mol
# GULP energy per Si atom -12401.471566 kJ/mol
# Density = 2.018958 g / cm^3
# Si number density = 20.235634 Si / 1000 Ang^3
#
#
#
# Elastic Constant Matrix: (Units=GPa)
#
#
# Indices 1 2 3 4 5 6 
#
# 1 92.6617 15.2494 30.9328 0.0000 6.5089 0.0000
# 2 15.2494 43.0764 19.5360 0.0000 13.0903 0.0000
# 3 30.9328 19.5360 121.8700 0.0000 12.9621 0.0000
# 4 0.0000 0.0000 0.0000 -4.6963 0.0000 36.7891
# 5 6.5089 13.0903 12.9621 0.0000 33.0116 0.0000
# 6 0.0000 0.0000 0.0000 36.7891 0.0000 -6.4123
#
#
#
# Elastic Compliance Matrix: (Units=1/GPa)
#
#
# Indices 1 2 3 4 5 6 
#
# 1 0.012172 -0.003091 -0.002577 0.000000 -0.000162 0.000000
# 2 -0.003091 0.028477 -0.002759 0.000000 -0.009599 0.000000
# 3 -0.002577 -0.002759 0.009529 0.000000 -0.002139 0.000000
# 4 0.000000 0.000000 0.000000 0.004846 0.000000 0.027801
# 5 -0.000162 -0.009599 -0.002139 0.000000 0.034971 0.000000
# 6 0.000000 0.000000 0.000000 0.027801 0.000000 0.003549
#
#
# Mechanical properties :
#
#
# Convention : Reuss Voigt Hill
#
# Bulk Modulus (GPa) = 30.00794 43.22717 36.61756
# Shear Modulus (GPa) = 41.14986 17.17327 29.16156
#
# Velocity S-wave (km/s) = 4.51436 2.91635 3.80030
# Velocity P-wave (km/s) = 6.48337 5.72262 6.11484
#
# Compressibility (1/GPa) = 0.03332451
#
# Stress axis : x y z
#
# Youngs Moduli (GPa) = 82.15412 35.11558 104.93860
#
# Poissons Ratio (x) = 0.10855 0.27040
# Poissons Ratio (y) = 0.25395 0.28957
# Poissons Ratio (z) = 0.21169 0.09690
#
# Static dielectric constant tensor:
#      x y z
#    x 3.904100 0.000000 0.065190 
#    y 0.000000 3.455370 0.000000 
#    z 0.065190 0.000000 4.105420 
# 
# 
# High freq. dielectric constant tensor:
#      x y z
#    x 1.780330 0.000000 0.008540 
#    y 0.000000 1.762280 0.000000 
#    z 0.008540 0.000000 1.811440 
# 
# From -- ./inp_files/42202.got.cif
#   From: 2010.06.25/outbox.cif.g09.slc.cpg/sg15_22_cif.got.tgz:42202.got - 2010.06.28 07:06:18.
