data_PCOD8137941
_publ_section_title
;
Structure prediction by ZEFSAII (Michael W. Deem and Ramdas Pophale) SiO2 
 PCOD8137941
Probable space group: C 2/C
;
_chemical_formula_sum "Si O2"
_cell_formula_units_Z 48
_cell_length_a 13.362295
_cell_length_b 14.341866
_cell_length_c 13.839105
_cell_angle_alpha 90.000000
_cell_angle_beta 55.951571
_cell_angle_gamma 90.000000
_cell_volume 2197.460644
_symmetry_space_group_name_H-M "C 2/C"
_symmetry_group_IT_number 15
_symmetry_cell_setting 'monoclinic'
loop_
_space_group_symop_operation_xyz
x,y,z
-x,y,1/2-z
-x,-y,-z
x,-y,1/2+z
1/2+x,1/2+y,z
1/2-x,1/2+y,1/2-z
1/2-x,1/2-y,-z
1/2+x,1/2-y,1/2+z
loop_
_atom_site_type_symbol
_atom_site_label
_atom_site_fract_x
_atom_site_fract_y
_atom_site_fract_z
Si Si1 0.336824 0.677180 0.905986
Si Si2 0.083836 0.453618 0.837919
Si Si3 0.677620 0.848326 0.327629
Si Si4 0.476624 0.758156 0.564250
Si Si5 0.735876 0.323214 0.422859
Si Si6 0.183392 0.478378 0.575207
O O1 0.310973 0.670712 0.803650
O O2 0.472025 0.709501 0.864076
O O3 0.250000 0.750000 0.000000
O O4 0.295390 0.579425 0.973606
O O5 0.147256 0.541150 0.856726
O O6 0.144855 0.443953 0.701137
O O7 0.104194 0.351192 0.873261
O O8 0.939773 0.472673 0.920075
O O9 0.584582 0.784506 0.434753
O O10 0.673022 0.815083 0.218438
O O11 0.397708 0.682215 0.549897
O O12 0.750000 0.250000 0.500000
O O13 0.762211 0.419602 0.459567
#
# Coordination Sequence:
#
# PCOD8137941 Si02
#       6
#     8   8   8   8   8   8
#     4  10  21  38  61  95 126 161 210 272 319 379
#     4  10  20  36  68  93 120 169 219 265 312 374
#     4  10  22  40  63  96 127 163 224 270 311 380
#     4  11  23  38  68  96 125 171 214 265 329 383
#     4  11  26  41  62  95 136 174 215 265 327 391
#     4  10  21  39  63  95 131 165 216 271 316 383
#
# _framework density 21.843394
#
# number of rings (size 3 to 8) (size 9 to 14) (size 15 to 20)
#    0.000    1.667    3.333    1.500    7.000    3.333 
#    0.000    0.000    0.000    2.000    0.000    0.000 
#    0.000    0.000    0.000    0.000    0.000    0.000 
#
# Total GULP energy -297329.791023 kJ/mol
# GULP energy per Si atom -12388.741293 kJ/mol
# Density = 2.179368 g / cm^3
# Si number density = 21.843394 Si / 1000 Ang^3
#
#
#
# Elastic Constant Matrix: (Units=GPa)
#
#
# Indices 1 2 3 4 5 6 
#
# 1 81.1431 23.4322 2.4666 0.0000 8.7653 0.0000
# 2 23.4322 98.4522 25.9793 0.0000 7.3746 0.0000
# 3 2.4666 25.9793 59.5718 0.0000 18.9892 0.0000
# 4 0.0000 0.0000 0.0000 24.7377 0.0000 5.3960
# 5 8.7653 7.3746 18.9892 0.0000 31.4663 0.0000
# 6 0.0000 0.0000 0.0000 5.3960 0.0000 31.9623
#
#
#
# Elastic Compliance Matrix: (Units=1/GPa)
#
#
# Indices 1 2 3 4 5 6 
#
# 1 0.013765 -0.003578 0.002409 0.000000 -0.004449 0.000000
# 2 -0.003578 0.012413 -0.005764 0.000000 0.001566 0.000000
# 3 0.002409 -0.005764 0.023505 0.000000 -0.013505 0.000000
# 4 0.000000 0.000000 0.000000 0.041970 0.000000 -0.007085
# 5 -0.004449 0.001566 -0.013505 0.000000 0.040802 0.000000
# 6 0.000000 0.000000 0.000000 -0.007085 0.000000 0.032483
#
#
# Mechanical properties :
#
#
# Convention : Reuss Voigt Hill
#
# Bulk Modulus (GPa) = 27.92116 38.10259 33.01187
# Shear Modulus (GPa) = 26.21317 30.11920 28.16618
#
# Velocity S-wave (km/s) = 3.46793 3.71734 3.59480
# Velocity P-wave (km/s) = 5.37081 5.99218 5.68998
#
# Compressibility (1/GPa) = 0.03581513
#
# Stress axis : x y z
#
# Youngs Moduli (GPa) = 72.64962 80.56300 42.54338
#
# Poissons Ratio (x) = 0.28829 -0.10248
# Poissons Ratio (y) = 0.25997 0.24523
# Poissons Ratio (z) = -0.17501 0.46439
#
# Static dielectric constant tensor:
#      x y z
#    x 4.459260 0.000000 0.324650 
#    y 0.000000 3.818590 0.000000 
#    z 0.324650 0.000000 3.925670 
# 
# 
# High freq. dielectric constant tensor:
#      x y z
#    x 1.848200 0.000000 0.017710 
#    y 0.000000 1.857170 0.000000 
#    z 0.017710 0.000000 1.867750 
# 
# From -- ./inp_files/152467.got.cif
#   From: 2010.06.25/outbox.cif.g09.slc.cpg/sg15_77_cif.got.tgz:152467.got - 2010.06.28 07:06:18.
