data_PCOD8137675
_publ_section_title
;
Structure prediction by ZEFSAII (Michael W. Deem and Ramdas Pophale) SiO2 
 PCOD8137675
Probable space group: C 2/C
;
_chemical_formula_sum "Si O2"
_cell_formula_units_Z 52
_cell_length_a 32.638389
_cell_length_b 7.780071
_cell_length_c 18.287799
_cell_angle_alpha 90.000000
_cell_angle_beta 35.056544
_cell_angle_gamma 90.000000
_cell_volume 2667.328296
_symmetry_space_group_name_H-M "C 2/C"
_symmetry_group_IT_number 15
_symmetry_cell_setting 'monoclinic'
loop_
_space_group_symop_operation_xyz
x,y,z
-x,y,1/2-z
-x,-y,-z
x,-y,1/2+z
1/2+x,1/2+y,z
1/2-x,1/2+y,1/2-z
1/2-x,1/2-y,-z
1/2+x,1/2-y,1/2+z
loop_
_atom_site_type_symbol
_atom_site_label
_atom_site_fract_x
_atom_site_fract_y
_atom_site_fract_z
Si Si1 0.000000 0.728914 0.250000
Si Si2 0.967017 0.847375 0.142026
Si Si3 0.647276 0.079084 0.042120
Si Si4 0.373835 0.984308 0.764109
Si Si5 0.405068 0.338915 0.653849
Si Si6 0.746394 0.840023 0.656224
Si Si7 0.726777 0.479825 0.729130
O O1 0.980726 0.847681 0.208993
O O2 0.933577 0.604905 0.367569
O O3 0.926702 0.675127 0.176473
O O4 0.919354 0.013289 0.192871
O O5 0.041816 0.857421 0.991544
O O6 0.648763 0.991673 0.119055
O O7 0.686270 0.267073 0.988884
O O8 0.691815 0.958177 0.920873
O O9 0.302119 0.959708 0.822642
O O10 0.414210 0.155119 0.678885
O O11 0.325401 0.352763 0.738059
O O12 0.701268 0.676752 0.753139
O O13 0.775867 0.949261 0.680861
#
# Coordination Sequence:
#
# PCOD8137675 Si02
#       7
#     4   8   8   8   8   8   8
#     4  10  20  40  66  80 128 168 200 264 318 362
#     4  10  22  41  61  94 124 169 210 253 314 374
#     4   9  22  38  61  92 121 166 208 257 318 371
#     4  11  21  40  64  90 126 165 204 263 311 370
#     4  11  22  39  64  91 127 166 212 253 312 377
#     4  10  20  36  61  88 127 160 208 260 310 368
#     4  10  21  38  58  92 122 162 211 253 311 369
#
# _framework density 19.495162000000001
#
# number of rings (size 3 to 8) (size 9 to 14) (size 15 to 20)
#    0.923    0.923    1.538    2.769    2.154    0.615 
#    0.000    7.692    0.000    0.000    0.000    0.000 
#    0.000    0.000    0.000    0.000    0.000    0.000 
#
# Total GULP energy -322338.792587 kJ/mol
# GULP energy per Si atom -12397.645869 kJ/mol
# Density = 1.945079 g / cm^3
# Si number density = 19.495162 Si / 1000 Ang^3
#
#
#
# Elastic Constant Matrix: (Units=GPa)
#
#
# Indices 1 2 3 4 5 6 
#
# 1 123.9288 26.8796 29.0955 -0.0211 -7.2765 -0.0024
# 2 26.8796 84.4566 12.8933 -0.0019 -10.4127 -0.0053
# 3 29.0955 12.8933 79.7226 -0.0347 -14.9967 -0.0025
# 4 -0.0211 -0.0019 -0.0347 30.0510 0.0027 0.9790
# 5 -7.2765 -10.4127 -14.9967 0.0027 27.6583 0.0001
# 6 -0.0024 -0.0053 -0.0025 0.9790 0.0001 22.4137
#
#
#
# Elastic Compliance Matrix: (Units=1/GPa)
#
#
# Indices 1 2 3 4 5 6 
#
# 1 0.009317 -0.002521 -0.003018 0.000003 -0.000134 0.000000
# 2 -0.002521 0.013213 -0.000452 -0.000002 0.004066 0.000003
# 3 -0.003018 -0.000452 0.015074 0.000015 0.007209 0.000001
# 4 0.000003 -0.000002 0.000015 0.033324 0.000005 -0.001456
# 5 -0.000134 0.004066 0.007209 0.000005 0.041560 0.000001
# 6 0.000000 0.000003 0.000001 -0.001456 0.000001 0.044679
#
#
# Mechanical properties :
#
#
# Convention : Reuss Voigt Hill
#
# Bulk Modulus (GPa) = 39.02846 47.31610 43.17228
# Shear Modulus (GPa) = 28.13904 30.64057 29.38981
#
# Velocity S-wave (km/s) = 3.80331 3.96877 3.88692
# Velocity P-wave (km/s) = 6.27295 6.73238 6.50672
#
# Compressibility (1/GPa) = 0.02562233
#
# Stress axis : x y z
#
# Youngs Moduli (GPa) = 107.33594 75.68269 66.33903
#
# Poissons Ratio (x) = 0.19080 0.20019
# Poissons Ratio (y) = 0.27059 0.02998
# Poissons Ratio (z) = 0.32391 0.03421
#
# Static dielectric constant tensor:
#      x y z
#    x 3.503700 -0.000030 -0.029280 
#    y -0.000030 3.365330 0.000030 
#    z -0.029280 0.000030 3.484340 
# 
# 
# High freq. dielectric constant tensor:
#      x y z
#    x 1.764920 0.000000 -0.000670 
#    y 0.000000 1.741810 0.000000 
#    z -0.000670 0.000000 1.758140 
# 
# From -- ./inp_files/221824.got.cif
#   From: 2010.06.25/outbox.cif.g09.slc.cpg/sg15_111_cif.got.tgz:221824.got - 2010.06.28 07:06:18.
