data_PCOD8137774
_publ_section_title
;
Structure prediction by ZEFSAII (Michael W. Deem and Ramdas Pophale) SiO2 
 PCOD8137774
Probable space group: C 2/C
;
_chemical_formula_sum "Si O2"
_cell_formula_units_Z 44
_cell_length_a 22.663562
_cell_length_b 7.677097
_cell_length_c 17.842819
_cell_angle_alpha 90.000000
_cell_angle_beta 142.674548
_cell_angle_gamma 90.000000
_cell_volume 1882.374834
_symmetry_space_group_name_H-M "C 2/C"
_symmetry_group_IT_number 15
_symmetry_cell_setting 'monoclinic'
loop_
_space_group_symop_operation_xyz
x,y,z
-x,y,1/2-z
-x,-y,-z
x,-y,1/2+z
1/2+x,1/2+y,z
1/2-x,1/2+y,1/2-z
1/2-x,1/2-y,-z
1/2+x,1/2-y,1/2+z
loop_
_atom_site_type_symbol
_atom_site_label
_atom_site_fract_x
_atom_site_fract_y
_atom_site_fract_z
Si Si1 0.015029 0.792209 0.140488
Si Si2 0.000000 0.490185 0.750000
Si Si3 0.652727 0.101603 0.185245
Si Si4 0.177108 0.301432 0.102440
Si Si5 0.688068 0.103576 0.870840
Si Si6 0.810768 0.007589 0.127323
O O1 0.066051 0.738313 0.113006
O O2 0.991921 0.625898 0.168154
O O3 0.077493 0.938534 0.248248
O O4 0.904658 0.841789 0.004544
O O5 0.096658 0.607473 0.837015
O O6 0.751659 0.207025 0.265839
O O7 0.626703 0.965473 0.094112
O O8 0.671652 0.020335 0.285483
O O9 0.238773 0.371035 0.094044
O O10 0.701865 0.298225 0.852427
O O11 0.782010 0.026284 0.010406
#
# Coordination Sequence:
#
# PCOD8137774 Si02
#       6
#     8   4   8   8   8   8
#     4  10  22  37  63  93 120 163 213 259 307 385
#     4  10  20  36  62  92 124 162 200 254 324 358
#     4  10  23  38  62  85 128 164 213 255 322 369
#     4  11  21  42  62  93 123 175 206 265 314 375
#     4  10  21  41  59  95 127 164 205 266 311 386
#     4  10  22  39  65  91 129 160 215 259 319 371
#
# _framework density 23.374728999999999
#
# number of rings (size 3 to 8) (size 9 to 14) (size 15 to 20)
#    0.000    1.818    1.818    1.636    2.545    2.909 
#    3.273   10.000    0.000    0.000    0.000    0.000 
#    0.000    0.000    0.000    0.000    0.000    0.000 
#
# Total GULP energy -272576.968844 kJ/mol
# GULP energy per Si atom -12389.862220 kJ/mol
# Density = 2.332153 g / cm^3
# Si number density = 23.374729 Si / 1000 Ang^3
#
#
#
# Elastic Constant Matrix: (Units=GPa)
#
#
# Indices 1 2 3 4 5 6 
#
# 1 57.2405 11.1907 24.3735 0.0000 12.0166 0.0000
# 2 11.1907 74.8890 31.3343 0.0000 10.6206 0.0000
# 3 24.3735 31.3343 91.1675 0.0000 25.0437 0.0000
# 4 0.0000 0.0000 0.0000 41.8748 0.0000 -1.8680
# 5 12.0166 10.6206 25.0437 0.0000 31.2114 0.0000
# 6 0.0000 0.0000 0.0000 -1.8680 0.0000 21.4632
#
#
#
# Elastic Compliance Matrix: (Units=1/GPa)
#
#
# Indices 1 2 3 4 5 6 
#
# 1 0.020213 -0.000750 -0.003949 0.000000 -0.004358 0.000000
# 2 -0.000750 0.015664 -0.004872 0.000000 -0.001132 0.000000
# 3 -0.003949 -0.004872 0.016453 0.000000 -0.010023 0.000000
# 4 0.000000 0.000000 0.000000 0.023974 0.000000 0.002087
# 5 -0.004358 -0.001132 -0.010023 0.000000 0.042145 0.000000
# 6 0.000000 0.000000 0.000000 0.002087 0.000000 0.046773
#
#
# Mechanical properties :
#
#
# Convention : Reuss Voigt Hill
#
# Bulk Modulus (GPa) = 30.13194 39.67711 34.90452
# Shear Modulus (GPa) = 25.58495 29.33644 27.46069
#
# Velocity S-wave (km/s) = 3.31200 3.54651 3.43126
# Velocity P-wave (km/s) = 5.24829 5.81219 5.53742
#
# Compressibility (1/GPa) = 0.03318738
#
# Stress axis : x y z
#
# Youngs Moduli (GPa) = 49.47250 63.83922 60.78094
#
# Poissons Ratio (x) = 0.04789 0.24002
# Poissons Ratio (y) = 0.03711 0.29615
# Poissons Ratio (z) = 0.19536 0.31105
#
# Static dielectric constant tensor:
#      x y z
#    x 4.304000 0.000000 0.436580 
#    y 0.000000 4.083250 0.000000 
#    z 0.436580 0.000000 4.247870 
# 
# 
# High freq. dielectric constant tensor:
#      x y z
#    x 1.918430 0.000000 0.012480 
#    y 0.000000 1.905510 0.000000 
#    z 0.012480 0.000000 1.924710 
# 
# From -- ./inp_files/116848.got.cif
#   From: 2010.06.25/outbox.cif.g09.slc.cpg/sg15_59_cif.got.tgz:116848.got - 2010.06.28 07:06:18.
