data_PCOD8137427
_publ_section_title
;
Structure prediction by ZEFSAII (Michael W. Deem and Ramdas Pophale) SiO2 
 PCOD8137427
Probable space group: C 2/C
;
_chemical_formula_sum "Si O2"
_cell_formula_units_Z 60
_cell_length_a 14.281724
_cell_length_b 18.218155
_cell_length_c 14.394457
_cell_angle_alpha 90.000000
_cell_angle_beta 121.747833
_cell_angle_gamma 90.000000
_cell_volume 3184.852559
_symmetry_space_group_name_H-M "C 2/C"
_symmetry_group_IT_number 15
_symmetry_cell_setting 'monoclinic'
loop_
_space_group_symop_operation_xyz
x,y,z
-x,y,1/2-z
-x,-y,-z
x,-y,1/2+z
1/2+x,1/2+y,z
1/2-x,1/2+y,1/2-z
1/2-x,1/2-y,-z
1/2+x,1/2-y,1/2+z
loop_
_atom_site_type_symbol
_atom_site_label
_atom_site_fract_x
_atom_site_fract_y
_atom_site_fract_z
Si Si1 0.494392 0.950115 0.586574
Si Si2 0.953559 0.970269 0.825526
Si Si3 0.561365 0.605462 0.543207
Si Si4 0.268954 0.069140 0.232062
Si Si5 0.195861 0.656649 0.565424
Si Si6 0.000000 0.438592 0.250000
Si Si7 0.213450 0.400926 0.280382
Si Si8 0.660667 0.675259 0.031214
O O1 0.613485 0.910281 0.661671
O O2 0.405828 0.885119 0.535599
O O3 0.500000 0.000000 0.500000
O O4 0.459017 0.006428 0.648301
O O5 0.834178 0.931092 0.749410
O O6 0.000000 0.991951 0.750000
O O7 0.937559 0.040056 0.882040
O O8 0.038433 0.917806 0.924911
O O9 0.684995 0.639505 0.613497
O O10 0.468691 0.660993 0.528251
O O11 0.239044 0.126069 0.136074
O O12 0.280839 0.987860 0.196733
O O13 0.221919 0.617356 0.675978
O O14 0.302817 0.656450 0.554822
O O15 0.169124 0.741273 0.567940
O O16 0.095177 0.381733 0.264217
#
# Coordination Sequence:
#
# PCOD8137427 Si02
#       8
#     8   8   8   8   8   4   8   8
#     4  11  20  35  60  88 116 153 205 253 294 357
#     4   9  18  32  56  84 113 148 188 244 293 346
#     4   9  20  35  52  84 115 147 194 236 288 357
#     4   9  19  37  54  85 116 149 192 251 297 337
#     4  11  22  37  58  89 119 161 196 238 308 371
#     4  10  20  36  58  88 116 148 192 270 296 322
#     4  10  20  36  58  85 115 151 202 246 291 356
#     4  10  23  38  57  84 128 156 188 249 307 365
#
# _framework density 18.839176999999999
#
# number of rings (size 3 to 8) (size 9 to 14) (size 15 to 20)
#    0.000    2.133    2.667    2.400    3.733    2.133 
#    0.000    2.667    5.867    0.800    0.000    0.000 
#    0.000    0.000    0.000    0.000    0.000    0.000 
#
# Total GULP energy -371707.487452 kJ/mol
# GULP energy per Si atom -12390.249582 kJ/mol
# Density = 1.879630 g / cm^3
# Si number density = 18.839177 Si / 1000 Ang^3
#
#
#
# Elastic Constant Matrix: (Units=GPa)
#
#
# Indices 1 2 3 4 5 6 
#
# 1 104.5163 28.5621 52.7106 0.0000 13.0368 0.0000
# 2 28.5621 71.6397 22.7832 0.0000 0.4839 0.0000
# 3 52.7106 22.7832 85.5785 0.0000 7.7760 0.0000
# 4 0.0000 0.0000 0.0000 15.6083 0.0000 -1.5891
# 5 13.0368 0.4839 7.7760 0.0000 42.0223 0.0000
# 6 0.0000 0.0000 0.0000 -1.5891 0.0000 23.9827
#
#
#
# Elastic Compliance Matrix: (Units=1/GPa)
#
#
# Indices 1 2 3 4 5 6 
#
# 1 0.014917 -0.003380 -0.008005 0.000000 -0.003107 0.000000
# 2 -0.003380 0.016030 -0.002303 0.000000 0.001290 0.000000
# 3 -0.008005 -0.002303 0.017292 0.000000 -0.000690 0.000000
# 4 0.000000 0.000000 0.000000 0.064504 0.000000 0.004274
# 5 -0.003107 0.001290 -0.000690 0.000000 0.024874 0.000000
# 6 0.000000 0.000000 0.000000 0.004274 0.000000 0.041980
#
#
# Mechanical properties :
#
#
# Convention : Reuss Voigt Hill
#
# Bulk Modulus (GPa) = 47.93531 52.20514 50.07022
# Shear Modulus (GPa) = 23.37254 26.83456 25.10355
#
# Velocity S-wave (km/s) = 3.52609 3.77822 3.65433
# Velocity P-wave (km/s) = 6.48671 6.84137 6.66640
#
# Compressibility (1/GPa) = 0.02086145
#
# Stress axis : x y z
#
# Youngs Moduli (GPa) = 67.03970 62.38280 57.83134
#
# Poissons Ratio (x) = 0.21087 0.46296
# Poissons Ratio (y) = 0.22661 0.13318
# Poissons Ratio (z) = 0.53667 0.14366
#
# Static dielectric constant tensor:
#      x y z
#    x 4.126640 0.000000 0.442850 
#    y 0.000000 3.160070 0.000000 
#    z 0.442850 0.000000 3.491920 
# 
# 
# High freq. dielectric constant tensor:
#      x y z
#    x 1.750010 0.000000 0.011200 
#    y 0.000000 1.694040 0.000000 
#    z 0.011200 0.000000 1.730210 
# 
# From -- ./inp_files/99814.got.cif
#   From: 2010.06.25/outbox.cif.g09.slc.cpg/sg15_50_cif.got.tgz:99814.got - 2010.06.28 07:06:18.
