data_PCOD8137801
_publ_section_title
;
Structure prediction by ZEFSAII (Michael W. Deem and Ramdas Pophale) SiO2 
 PCOD8137801
Probable space group: C 2/C
;
_chemical_formula_sum "Si O2"
_cell_formula_units_Z 56
_cell_length_a 13.497976
_cell_length_b 11.993390
_cell_length_c 17.615117
_cell_angle_alpha 90.000000
_cell_angle_beta 74.459186
_cell_angle_gamma 90.000000
_cell_volume 2747.392721
_symmetry_space_group_name_H-M "C 2/C"
_symmetry_group_IT_number 15
_symmetry_cell_setting 'monoclinic'
loop_
_space_group_symop_operation_xyz
x,y,z
-x,y,1/2-z
-x,-y,-z
x,-y,1/2+z
1/2+x,1/2+y,z
1/2-x,1/2+y,1/2-z
1/2-x,1/2-y,-z
1/2+x,1/2-y,1/2+z
loop_
_atom_site_type_symbol
_atom_site_label
_atom_site_fract_x
_atom_site_fract_y
_atom_site_fract_z
Si Si1 0.201235 0.104378 0.397356
Si Si2 0.558992 0.879167 0.660506
Si Si3 0.802717 0.763977 0.889471
Si Si4 0.991334 0.381553 0.384105
Si Si5 0.940951 0.252335 0.991572
Si Si6 0.403373 0.310008 0.723593
Si Si7 0.133110 0.876933 0.483757
O O1 0.320142 0.104316 0.348716
O O2 0.172262 0.208387 0.458994
O O3 0.131512 0.108524 0.335982
O O4 0.174120 0.991915 0.445238
O O5 0.500000 0.842846 0.750000
O O6 0.551956 0.782825 0.598299
O O7 0.503320 0.989060 0.638841
O O8 0.807909 0.795978 0.800267
O O9 0.686936 0.728361 0.930808
O O10 0.875306 0.659403 0.895486
O O11 0.839271 0.869866 0.932400
O O12 0.026444 0.359444 0.463991
O O13 0.066743 0.312231 0.313535
O O14 0.012600 0.144122 0.994408
O O15 0.500000 0.362135 0.750000
#
# Coordination Sequence:
#
# PCOD8137801 Si02
#       7
#     8   8   8   8   8   8   8
#     4  11  23  41  63  86 122 166 193 243 310 360
#     4  12  24  39  59  91 123 159 198 248 302 362
#     4   9  17  34  60  90 111 148 204 254 275 346
#     4   9  18  38  63  85 111 161 203 247 289 352
#     4  10  23  40  60  85 124 159 200 246 303 357
#     4   9  19  36  63  87 118 148 204 252 295 341
#     4  10  20  36  63  84 115 156 204 239 295 353
#
# _framework density 20.382961999999999
#
# number of rings (size 3 to 8) (size 9 to 14) (size 15 to 20)
#    0.000    2.000    1.429    3.429    2.000    0.000 
#    0.000    2.143    0.000    0.000    0.000    0.000 
#    0.000    0.000    0.000    0.000    0.000    0.000 
#
# Total GULP energy -347080.075899 kJ/mol
# GULP energy per Si atom -12395.716996 kJ/mol
# Density = 2.033657 g / cm^3
# Si number density = 20.382962 Si / 1000 Ang^3
#
#
#
# Elastic Constant Matrix: (Units=GPa)
#
#
# Indices 1 2 3 4 5 6 
#
# 1 70.4411 27.9691 37.6980 0.0000 -3.2616 0.0000
# 2 27.9691 64.8915 39.5002 0.0000 7.7995 0.0000
# 3 37.6980 39.5002 156.3174 0.0000 0.1158 0.0000
# 4 0.0000 0.0000 0.0000 26.8771 0.0000 -3.0866
# 5 -3.2616 7.7995 0.1158 0.0000 33.8397 0.0000
# 6 0.0000 0.0000 0.0000 -3.0866 0.0000 14.7850
#
#
#
# Elastic Compliance Matrix: (Units=1/GPa)
#
#
# Indices 1 2 3 4 5 6 
#
# 1 0.018487 -0.006681 -0.002773 0.000000 0.003331 0.000000
# 2 -0.006681 0.021237 -0.003751 0.000000 -0.005526 0.000000
# 3 -0.002773 -0.003751 0.008013 0.000000 0.000570 0.000000
# 4 0.000000 0.000000 0.000000 0.038120 0.000000 0.007958
# 5 0.003331 -0.005526 0.000570 0.000000 0.031144 0.000000
# 6 0.000000 0.000000 0.000000 0.007958 0.000000 0.069298
#
#
# Mechanical properties :
#
#
# Convention : Reuss Voigt Hill
#
# Bulk Modulus (GPa) = 46.88582 55.77608 51.33095
# Shear Modulus (GPa) = 22.74602 27.53253 25.13928
#
# Velocity S-wave (km/s) = 3.34418 3.67926 3.51571
# Velocity P-wave (km/s) = 6.16148 6.74335 6.45897
#
# Compressibility (1/GPa) = 0.02132841
#
# Stress axis : x y z
#
# Youngs Moduli (GPa) = 54.09209 47.08659 124.79084
#
# Poissons Ratio (x) = 0.31457 0.34600
# Poissons Ratio (y) = 0.36138 0.46813
# Poissons Ratio (z) = 0.14998 0.17664
#
# Static dielectric constant tensor:
#      x y z
#    x 3.730830 0.000000 -0.106980 
#    y 0.000000 3.281950 0.000000 
#    z -0.106980 0.000000 3.941680 
# 
# 
# High freq. dielectric constant tensor:
#      x y z
#    x 1.791440 0.000000 -0.010940 
#    y 0.000000 1.761050 0.000000 
#    z -0.010940 0.000000 1.813960 
# 
# From -- ./inp_files/203932.got.cif
#   From: 2010.06.25/outbox.cif.g09.slc.cpg/sg15_102_cif.got.tgz:203932.got - 2010.06.28 07:06:18.
