data_PCOD8137652
_publ_section_title
;
Structure prediction by ZEFSAII (Michael W. Deem and Ramdas Pophale) SiO2 
 PCOD8137652
Probable space group: C 2/C
;
_chemical_formula_sum "Si O2"
_cell_formula_units_Z 56
_cell_length_a 11.588571
_cell_length_b 19.058815
_cell_length_c 18.459729
_cell_angle_alpha 90.000000
_cell_angle_beta 138.067182
_cell_angle_gamma 90.000000
_cell_volume 2724.556204
_symmetry_space_group_name_H-M "C 2/C"
_symmetry_group_IT_number 15
_symmetry_cell_setting 'monoclinic'
loop_
_space_group_symop_operation_xyz
x,y,z
-x,y,1/2-z
-x,-y,-z
x,-y,1/2+z
1/2+x,1/2+y,z
1/2-x,1/2+y,1/2-z
1/2-x,1/2-y,-z
1/2+x,1/2-y,1/2+z
loop_
_atom_site_type_symbol
_atom_site_label
_atom_site_fract_x
_atom_site_fract_y
_atom_site_fract_z
Si Si1 0.431952 0.232977 0.050627
Si Si2 0.989057 0.594066 0.331487
Si Si3 0.257919 0.668443 0.810307
Si Si4 0.735637 0.345546 0.023560
Si Si5 0.978782 0.737583 0.911548
Si Si6 0.692245 0.498882 0.508693
Si Si7 0.308102 0.487564 0.320672
O O1 0.527668 0.169290 0.137213
O O2 0.546322 0.303677 0.105664
O O3 0.250000 0.250000 0.000000
O O4 0.396637 0.215522 0.949800
O O5 0.163877 0.558692 0.445280
O O6 0.000000 0.604768 0.250000
O O7 0.822091 0.545701 0.273740
O O8 0.189926 0.668962 0.860997
O O9 0.147330 0.721977 0.712391
O O10 0.235690 0.589834 0.768974
O O11 0.755306 0.425881 0.010841
O O12 0.842251 0.304826 0.012424
O O13 0.534278 0.319913 0.931233
O O14 0.505518 0.487592 0.383294
O O15 0.677472 0.499196 0.587775
#
# Coordination Sequence:
#
# PCOD8137652 Si02
#       7
#     8   8   8   8   8   8   8
#     4  11  25  38  55  85 122 158 196 238 293 356
#     4  10  21  35  59  86 116 155 200 246 292 351
#     4  10  20  36  61  84 116 150 195 243 296 351
#     4   9  19  36  59  87 110 144 193 248 299 342
#     4  10  21  36  58  84 113 152 189 240 299 347
#     4   9  17  33  57  83 117 145 198 253 290 346
#     4   9  18  33  57  87 111 154 199 242 302 347
#
# _framework density 20.553806000000002
#
# number of rings (size 3 to 8) (size 9 to 14) (size 15 to 20)
#    0.000    2.286    0.000    2.143    4.000    4.571 
#    0.000    2.857    0.000    1.714    0.000    0.000 
#    0.000    0.000    0.000    0.000    0.000    0.000 
#
# Total GULP energy -347005.110076 kJ/mol
# GULP energy per Si atom -12393.039646 kJ/mol
# Density = 2.050702 g / cm^3
# Si number density = 20.553806 Si / 1000 Ang^3
#
#
#
# Elastic Constant Matrix: (Units=GPa)
#
#
# Indices 1 2 3 4 5 6 
#
# 1 79.1526 20.7964 13.0872 0.0000 6.4232 0.0000
# 2 20.7964 88.8943 16.2444 0.0001 -2.9771 0.0000
# 3 13.0872 16.2444 68.4688 0.0005 9.8856 0.0002
# 4 0.0000 0.0001 0.0005 29.8020 0.0002 2.8530
# 5 6.4232 -2.9771 9.8856 0.0002 28.5236 0.0000
# 6 0.0000 0.0000 0.0002 2.8530 0.0000 22.2663
#
#
#
# Elastic Compliance Matrix: (Units=1/GPa)
#
#
# Indices 1 2 3 4 5 6 
#
# 1 0.013931 -0.003082 -0.001508 0.000000 -0.002936 0.000000
# 2 -0.003082 0.012587 -0.002829 0.000000 0.002988 0.000000
# 3 -0.001508 -0.002829 0.016378 0.000000 -0.005632 0.000000
# 4 0.000000 0.000000 0.000000 0.033972 0.000000 -0.004353
# 5 -0.002936 0.002988 -0.005632 0.000000 0.037984 0.000000
# 6 0.000000 0.000000 0.000000 -0.004353 0.000000 0.045469
#
#
# Mechanical properties :
#
#
# Convention : Reuss Voigt Hill
#
# Bulk Modulus (GPa) = 35.63868 37.41906 36.52887
# Shear Modulus (GPa) = 27.09883 28.54421 27.82152
#
# Velocity S-wave (km/s) = 3.63496 3.73064 3.68311
# Velocity P-wave (km/s) = 5.91558 6.06646 5.99149
#
# Compressibility (1/GPa) = 0.02805940
#
# Stress axis : x y z
#
# Youngs Moduli (GPa) = 71.78175 79.44511 61.05890
#
# Poissons Ratio (x) = 0.24485 0.09206
# Poissons Ratio (y) = 0.22123 0.17272
# Poissons Ratio (z) = 0.10822 0.22473
#
# Static dielectric constant tensor:
#      x y z
#    x 3.571440 0.000000 0.273700 
#    y 0.000000 3.873710 0.000000 
#    z 0.273700 0.000000 3.655210 
# 
# 
# High freq. dielectric constant tensor:
#      x y z
#    x 1.778500 0.000000 0.025360 
#    y 0.000000 1.811290 0.000000 
#    z 0.025360 0.000000 1.792860 
# 
# From -- ./inp_files/240299.got.cif
#   From: 2010.06.25/outbox.cif.g09.slc.cpg/sg15_121_cif.got.tgz:240299.got - 2010.06.28 07:06:18.
