data_PCOD8137698
_publ_section_title
;
Structure prediction by ZEFSAII (Michael W. Deem and Ramdas Pophale) SiO2 
 PCOD8137698
Probable space group: C 2/C
;
_chemical_formula_sum "Si O2"
_cell_formula_units_Z 52
_cell_length_a 12.008102
_cell_length_b 21.020271
_cell_length_c 13.800766
_cell_angle_alpha 90.000000
_cell_angle_beta 131.788894
_cell_angle_gamma 90.000000
_cell_volume 2597.315995
_symmetry_space_group_name_H-M "C 2/C"
_symmetry_group_IT_number 15
_symmetry_cell_setting 'monoclinic'
loop_
_space_group_symop_operation_xyz
x,y,z
-x,y,1/2-z
-x,-y,-z
x,-y,1/2+z
1/2+x,1/2+y,z
1/2-x,1/2+y,1/2-z
1/2-x,1/2-y,-z
1/2+x,1/2-y,1/2+z
loop_
_atom_site_type_symbol
_atom_site_label
_atom_site_fract_x
_atom_site_fract_y
_atom_site_fract_z
Si Si1 0.652207 0.343712 0.282377
Si Si2 0.500000 0.873786 0.750000
Si Si3 0.015826 0.884787 0.492551
Si Si4 0.238859 0.560138 0.505482
Si Si5 0.248044 0.789545 0.701821
Si Si6 0.878255 0.932217 0.601200
Si Si7 0.672617 0.708885 0.371579
O O1 0.500000 0.328443 0.250000
O O2 0.738888 0.401905 0.381661
O O3 0.752854 0.280308 0.346861
O O4 0.621308 0.361124 0.152842
O O5 0.421328 0.920621 0.628325
O O6 0.384463 0.830147 0.739947
O O7 0.131671 0.923527 0.495361
O O8 0.091544 0.822920 0.585366
O O9 0.954671 0.930929 0.540136
O O10 0.245989 0.484446 0.527734
O O11 0.266224 0.782623 0.827631
O O12 0.810595 0.864141 0.587368
O O13 0.000000 0.954404 0.750000
O O14 0.500000 0.728113 0.250000
O O15 0.750000 0.750000 0.500000
#
# Coordination Sequence:
#
# PCOD8137698 Si02
#       7
#     8   4   8   8   8   8   8
#     4  10  21  35  60  96 121 159 210 257 314 371
#     4  10  24  40  60  92 130 166 204 260 336 374
#     4  10  20  36  61  93 117 165 205 261 310 369
#     4  10  23  38  61  91 125 160 207 260 317 388
#     4  11  21  38  64  88 132 163 209 261 323 378
#     4  11  20  41  64  88 122 164 217 259 314 383
#     4  11  24  42  66  95 127 173 220 267 325 381
#
# _framework density 20.020667
#
# number of rings (size 3 to 8) (size 9 to 14) (size 15 to 20)
#    0.000    1.538    3.846    2.769    2.154    1.846 
#    1.385    0.769    0.000    0.000    0.000    0.000 
#    0.000    0.000    0.000    0.000    0.000    0.000 
#
# Total GULP energy -322461.900951 kJ/mol
# GULP energy per Si atom -12402.380806 kJ/mol
# Density = 1.997510 g / cm^3
# Si number density = 20.020667 Si / 1000 Ang^3
#
#
#
# Elastic Constant Matrix: (Units=GPa)
#
#
# Indices 1 2 3 4 5 6 
#
# 1 56.1744 30.9228 41.9046 0.0000 -11.7117 0.0000
# 2 30.9228 141.1328 72.0717 0.0000 6.2703 0.0000
# 3 41.9046 72.0717 159.9756 0.0000 -8.8675 0.0000
# 4 0.0000 0.0000 0.0000 31.4754 0.0000 0.5777
# 5 -11.7117 6.2703 -8.8675 0.0000 32.8897 0.0000
# 6 0.0000 0.0000 0.0000 0.5777 0.0000 20.6350
#
#
#
# Elastic Compliance Matrix: (Units=1/GPa)
#
#
# Indices 1 2 3 4 5 6 
#
# 1 0.024791 -0.003532 -0.004442 0.000000 0.008304 0.000000
# 2 -0.003532 0.009990 -0.003808 0.000000 -0.004189 0.000000
# 3 -0.004442 -0.003808 0.009220 0.000000 0.001630 0.000000
# 4 0.000000 0.000000 0.000000 0.031787 0.000000 -0.000890
# 5 0.008304 -0.004189 0.001630 0.000000 0.034600 0.000000
# 6 0.000000 0.000000 0.000000 -0.000890 0.000000 0.048486
#
#
# Mechanical properties :
#
#
# Convention : Reuss Voigt Hill
#
# Bulk Modulus (GPa) = 48.93037 71.89789 60.41413
# Shear Modulus (GPa) = 26.41994 31.15894 28.78944
#
# Velocity S-wave (km/s) = 3.63662 3.94933 3.79619
# Velocity P-wave (km/s) = 6.49048 7.53565 7.03251
#
# Compressibility (1/GPa) = 0.02043721
#
# Stress axis : x y z
#
# Youngs Moduli (GPa) = 40.33696 100.10040 108.45615
#
# Poissons Ratio (x) = 0.35358 0.48179
# Poissons Ratio (y) = 0.14248 0.41296
# Poissons Ratio (z) = 0.17919 0.38114
#
# Static dielectric constant tensor:
#      x y z
#    x 3.503840 0.000000 -0.186210 
#    y 0.000000 3.631110 0.000000 
#    z -0.186210 0.000000 3.822900 
# 
# 
# High freq. dielectric constant tensor:
#      x y z
#    x 1.763090 0.000000 -0.020350 
#    y 0.000000 1.785760 0.000000 
#    z -0.020350 0.000000 1.788900 
# 
# From -- ./inp_files/91335.got.cif
#   From: 2010.06.25/outbox.cif.g09.slc.cpg/sg15_46_cif.got.tgz:91335.got - 2010.06.28 07:06:18.
