data_PCOD8137168
_publ_section_title
;
Structure prediction by ZEFSAII (Michael W. Deem and Ramdas Pophale) SiO2 
 PCOD8137168
Probable space group: C 2/C
;
_chemical_formula_sum "Si O2"
_cell_formula_units_Z 44
_cell_length_a 12.519254
_cell_length_b 13.908248
_cell_length_c 14.982546
_cell_angle_alpha 90.000000
_cell_angle_beta 117.112453
_cell_angle_gamma 90.000000
_cell_volume 2322.105877
_symmetry_space_group_name_H-M "C 2/C"
_symmetry_group_IT_number 15
_symmetry_cell_setting 'monoclinic'
loop_
_space_group_symop_operation_xyz
x,y,z
-x,y,1/2-z
-x,-y,-z
x,-y,1/2+z
1/2+x,1/2+y,z
1/2-x,1/2+y,1/2-z
1/2-x,1/2-y,-z
1/2+x,1/2-y,1/2+z
loop_
_atom_site_type_symbol
_atom_site_label
_atom_site_fract_x
_atom_site_fract_y
_atom_site_fract_z
Si Si1 0.785851 0.316458 0.593626
Si Si2 0.500000 0.292499 0.250000
Si Si3 0.069472 0.053260 0.641458
Si Si4 0.610337 0.335861 0.689617
Si Si5 0.817191 0.005317 0.987134
Si Si6 0.838053 0.187476 0.094031
O O1 0.750000 0.250000 0.500000
O O2 0.917325 0.282161 0.667499
O O3 0.693999 0.304943 0.640561
O O4 0.790579 0.428568 0.564569
O O5 0.419117 0.360712 0.283038
O O6 0.164314 0.067747 0.596794
O O7 0.096541 0.950744 0.697877
O O8 0.936106 0.058733 0.549083
O O9 0.670239 0.293423 0.802929
O O10 0.476951 0.294532 0.619178
O O11 0.795404 0.077561 0.060208
O O12 0.750000 0.250000 0.000000
#
# Coordination Sequence:
#
# PCOD8137168 Si02
#       6
#     8   4   8   8   8   8
#     4  11  23  36  57  87 126 146 187 242 305 349
#     4  12  22  32  62  90 114 160 194 236 302 352
#     4   9  17  33  59  81 107 146 196 245 275 329
#     4   9  21  38  55  88 114 145 202 247 279 341
#     4   9  18  36  55  83 114 147 188 247 287 332
#     4  10  20  35  63  81 111 154 204 238 283 345
#
# _framework density 18.948318
#
# number of rings (size 3 to 8) (size 9 to 14) (size 15 to 20)
#    0.000    2.182    1.818    3.273    2.545    0.000 
#    0.000    1.818    0.000    2.182    0.000    0.000 
#    0.000    0.000    0.000    0.000    0.000    0.000 
#
# Total GULP energy -272653.732481 kJ/mol
# GULP energy per Si atom -12393.351476 kJ/mol
# Density = 1.890519 g / cm^3
# Si number density = 18.948318 Si / 1000 Ang^3
#
#
#
# Elastic Constant Matrix: (Units=GPa)
#
#
# Indices 1 2 3 4 5 6 
#
# 1 57.1320 37.2924 42.2461 0.0000 -5.7435 0.0000
# 2 37.2924 87.0554 55.6152 0.0000 6.0912 0.0000
# 3 42.2461 55.6152 134.3857 0.0000 6.2783 0.0000
# 4 0.0000 0.0000 0.0000 39.5804 0.0000 1.8967
# 5 -5.7435 6.0912 6.2783 0.0000 30.1245 0.0000
# 6 0.0000 0.0000 0.0000 1.8967 0.0000 24.1891
#
#
#
# Elastic Compliance Matrix: (Units=1/GPa)
#
#
# Indices 1 2 3 4 5 6 
#
# 1 0.028480 -0.009271 -0.005511 0.000000 0.008453 0.000000
# 2 -0.009271 0.018734 -0.004624 0.000000 -0.004592 0.000000
# 3 -0.005511 -0.004624 0.011202 0.000000 -0.002450 0.000000
# 4 0.000000 0.000000 0.000000 0.025360 0.000000 -0.001989
# 5 0.008453 -0.004592 -0.002450 0.000000 0.036246 0.000000
# 6 0.000000 0.000000 0.000000 -0.001989 0.000000 0.041497
#
#
# Mechanical properties :
#
#
# Convention : Reuss Voigt Hill
#
# Bulk Modulus (GPa) = 51.01138 60.98673 55.99905
# Shear Modulus (GPa) = 24.17035 28.34008 26.25522
#
# Velocity S-wave (km/s) = 3.57542 3.87156 3.72643
# Velocity P-wave (km/s) = 6.63510 7.22779 6.93778
#
# Compressibility (1/GPa) = 0.01960347
#
# Stress axis : x y z
#
# Youngs Moduli (GPa) = 35.11269 53.38028 89.27026
#
# Poissons Ratio (x) = 0.49486 0.49200
# Poissons Ratio (y) = 0.32551 0.41278
# Poissons Ratio (z) = 0.19352 0.24683
#
# Static dielectric constant tensor:
#      x y z
#    x 3.273110 0.000000 -0.190230 
#    y 0.000000 3.399330 0.000000 
#    z -0.190230 0.000000 3.647890 
# 
# 
# High freq. dielectric constant tensor:
#      x y z
#    x 1.704120 0.000000 -0.017310 
#    y 0.000000 1.720680 0.000000 
#    z -0.017310 0.000000 1.752820 
# 
# From -- ./inp_files/143909.got.cif
#   From: 2010.06.25/outbox.cif.g09.slc.cpg/sg15_72_cif.got.tgz:143909.got - 2010.06.28 07:06:18.
