data_PCOD8137886
_publ_section_title
;
Structure prediction by ZEFSAII (Michael W. Deem and Ramdas Pophale) SiO2 
 PCOD8137886
Probable space group: C 2/C
;
_chemical_formula_sum "Si O2"
_cell_formula_units_Z 48
_cell_length_a 8.301879
_cell_length_b 16.535421
_cell_length_c 26.153310
_cell_angle_alpha 90.000000
_cell_angle_beta 137.675452
_cell_angle_gamma 90.000000
_cell_volume 2417.385194
_symmetry_space_group_name_H-M "C 2/C"
_symmetry_group_IT_number 15
_symmetry_cell_setting 'monoclinic'
loop_
_space_group_symop_operation_xyz
x,y,z
-x,y,1/2-z
-x,-y,-z
x,-y,1/2+z
1/2+x,1/2+y,z
1/2-x,1/2+y,1/2-z
1/2-x,1/2-y,-z
1/2+x,1/2-y,1/2+z
loop_
_atom_site_type_symbol
_atom_site_label
_atom_site_fract_x
_atom_site_fract_y
_atom_site_fract_z
Si Si1 0.490228 0.416972 0.466152
Si Si2 0.765182 0.734150 0.562072
Si Si3 0.749252 0.034886 0.620755
Si Si4 0.240143 0.335788 0.204177
Si Si5 0.240876 0.061212 0.697150
Si Si6 0.963756 0.381566 0.528059
O O1 0.500000 0.500000 0.500000
O O2 0.336341 0.355758 0.462277
O O3 0.355252 0.423927 0.381377
O O4 0.747650 0.375557 0.517527
O O5 0.750000 0.750000 0.500000
O O6 0.609465 0.797759 0.558405
O O7 0.040264 0.732195 0.645806
O O8 0.702902 0.081201 0.662983
O O9 0.637438 0.091956 0.550633
O O10 0.031445 0.014145 0.678360
O O11 0.632396 0.947913 0.593122
O O12 0.500000 0.298992 0.250000
O O13 0.219906 0.356877 0.259924
O O14 0.500000 0.017109 0.750000
#
# Coordination Sequence:
#
# PCOD8137886 Si02
#       6
#     8   8   8   8   8   8
#     4  11  24  41  68  93 124 167 215 260 312 384
#     4  12  23  38  65  96 126 163 210 267 318 373
#     4   9  19  37  62  92 121 164 208 259 310 375
#     4  10  20  39  63  87 124 170 211 251 323 387
#     4  10  20  36  65  88 123 162 215 250 315 383
#     4  10  21  37  61  94 130 157 210 263 316 367
#
# _framework density 19.856165000000001
#
# number of rings (size 3 to 8) (size 9 to 14) (size 15 to 20)
#    0.000    1.667    3.333    1.500    4.667    0.000 
#    0.000    0.833   11.000    0.000    0.000    0.000 
#    0.000    0.000    0.000    0.000    0.000    0.000 
#
# Total GULP energy -297351.698996 kJ/mol
# GULP energy per Si atom -12389.654125 kJ/mol
# Density = 1.981097 g / cm^3
# Si number density = 19.856165 Si / 1000 Ang^3
#
#
#
# Elastic Constant Matrix: (Units=GPa)
#
#
# Indices 1 2 3 4 5 6 
#
# 1 106.5044 33.2908 56.3972 0.0000 10.9856 0.0000
# 2 33.2908 82.3602 39.1661 0.0000 7.2444 0.0000
# 3 56.3972 39.1661 126.5695 -0.0001 17.3871 0.0000
# 4 0.0000 0.0000 -0.0001 33.1140 0.0000 7.8426
# 5 10.9856 7.2444 17.3871 0.0000 51.4100 0.0000
# 6 0.0000 0.0000 0.0000 7.8426 0.0000 29.6143
#
#
#
# Elastic Compliance Matrix: (Units=1/GPa)
#
#
# Indices 1 2 3 4 5 6 
#
# 1 0.012880 -0.002885 -0.004745 0.000000 -0.000741 0.000000
# 2 -0.002885 0.014897 -0.003273 0.000000 -0.000376 0.000000
# 3 -0.004745 -0.003273 0.011352 0.000000 -0.002364 0.000000
# 4 0.000000 0.000000 0.000000 0.032219 0.000000 -0.008532
# 5 -0.000741 -0.000376 -0.002364 0.000000 0.020462 0.000000
# 6 0.000000 0.000000 0.000000 -0.008532 0.000000 0.036027
#
#
# Mechanical properties :
#
#
# Convention : Reuss Voigt Hill
#
# Bulk Modulus (GPa) = 57.71901 63.68249 60.70075
# Shear Modulus (GPa) = 32.17134 35.26634 33.71884
#
# Velocity S-wave (km/s) = 4.02956 4.21894 4.12534
# Velocity P-wave (km/s) = 7.12611 7.47490 7.30259
#
# Compressibility (1/GPa) = 0.01732531
#
# Stress axis : x y z
#
# Youngs Moduli (GPa) = 77.64097 67.12639 88.08663
#
# Poissons Ratio (x) = 0.19364 0.41793
# Poissons Ratio (y) = 0.22397 0.28830
# Poissons Ratio (z) = 0.36837 0.21970
#
# Static dielectric constant tensor:
#      x y z
#    x 4.001810 0.000000 0.312830 
#    y 0.000000 3.202190 0.000000 
#    z 0.312830 0.000000 3.961770 
# 
# 
# High freq. dielectric constant tensor:
#      x y z
#    x 1.798080 0.000000 0.013690 
#    y 0.000000 1.727460 0.000000 
#    z 0.013690 0.000000 1.790100 
# 
# From -- ./inp_files/308128.got.cif
#   From: 2010.06.25/outbox.cif.g09.slc.cpg/sg15_155_cif.got.tgz:308128.got - 2010.06.28 07:06:18.
