data_PCOD8137534
_publ_section_title
;
Structure prediction by ZEFSAII (Michael W. Deem and Ramdas Pophale) SiO2 
 PCOD8137534
Probable space group: C 2/C
;
_chemical_formula_sum "Si O2"
_cell_formula_units_Z 48
_cell_length_a 9.205103
_cell_length_b 22.631536
_cell_length_c 12.523953
_cell_angle_alpha 90.000000
_cell_angle_beta 75.634912
_cell_angle_gamma 90.000000
_cell_volume 2527.486739
_symmetry_space_group_name_H-M "C 2/C"
_symmetry_group_IT_number 15
_symmetry_cell_setting 'monoclinic'
loop_
_space_group_symop_operation_xyz
x,y,z
-x,y,1/2-z
-x,-y,-z
x,-y,1/2+z
1/2+x,1/2+y,z
1/2-x,1/2+y,1/2-z
1/2-x,1/2-y,-z
1/2+x,1/2-y,1/2+z
loop_
_atom_site_type_symbol
_atom_site_label
_atom_site_fract_x
_atom_site_fract_y
_atom_site_fract_z
Si Si1 0.070292 0.550117 0.849231
Si Si2 0.282353 0.165163 0.648130
Si Si3 0.408919 0.077377 0.088060
Si Si4 0.351423 0.831327 0.899177
Si Si5 0.500000 0.231549 0.750000
Si Si6 0.000000 0.233469 0.750000
Si Si7 0.837030 0.156893 0.279333
O O1 0.211146 0.594076 0.842134
O O2 0.128274 0.482818 0.841916
O O3 0.000000 0.565515 0.750000
O O4 0.939535 0.561664 0.959664
O O5 0.267772 0.182125 0.525960
O O6 0.439395 0.191193 0.664519
O O7 0.143281 0.191008 0.740745
O O8 0.554672 0.108090 0.113078
O O9 0.268646 0.121555 0.120576
O O10 0.466433 0.777039 0.855865
O O11 0.229876 0.839020 0.828137
O O12 0.635394 0.275299 0.685220
O O13 0.000000 0.124334 0.250000
#
# Coordination Sequence:
#
# PCOD8137534 Si02
#       7
#     8   8   8   8   4   4   8
#     4  10  21  38  60  83 115 148 195 236 277 346
#     4  11  23  38  55  85 120 151 186 233 294 344
#     4  10  20  39  65  82 105 156 199 231 282 334
#     4  11  20  38  62  82 108 157 200 228 273 353
#     4  10  20  38  54  84 120 144 180 244 276 338
#     4  12  20  36  56  84 116 152 184 232 288 346
#     4  10  20  36  59  89 111 142 195 247 273 325
#
# _framework density 18.991198000000001
#
# number of rings (size 3 to 8) (size 9 to 14) (size 15 to 20)
#    0.500    1.000    4.167    1.500    0.000    0.000 
#    7.500    2.500    0.000    4.000    0.000    0.000 
#    0.000    0.000    0.000    0.000    0.000    0.000 
#
# Total GULP energy -297423.840447 kJ/mol
# GULP energy per Si atom -12392.660019 kJ/mol
# Density = 1.894797 g / cm^3
# Si number density = 18.991198 Si / 1000 Ang^3
#
#
#
# Elastic Constant Matrix: (Units=GPa)
#
#
# Indices 1 2 3 4 5 6 
#
# 1 102.0331 44.6043 46.9105 0.0000 1.0394 0.0000
# 2 44.6043 119.2787 26.8696 0.0000 -4.8376 0.0000
# 3 46.9105 26.8696 77.8088 0.0000 7.1980 0.0000
# 4 0.0000 0.0000 0.0000 23.3139 0.0000 2.4543
# 5 1.0394 -4.8376 7.1980 0.0000 22.9069 0.0000
# 6 0.0000 0.0000 0.0000 2.4543 0.0000 17.2804
#
#
#
# Elastic Compliance Matrix: (Units=1/GPa)
#
#
# Indices 1 2 3 4 5 6 
#
# 1 0.015077 -0.003828 -0.007858 0.000000 0.000977 0.000000
# 2 -0.003828 0.010267 -0.001498 0.000000 0.002812 0.000000
# 3 -0.007858 -0.001498 0.018645 0.000000 -0.005819 0.000000
# 4 0.000000 0.000000 0.000000 0.043544 0.000000 -0.006184
# 5 0.000977 0.002812 -0.005819 0.000000 0.046033 0.000000
# 6 0.000000 0.000000 0.000000 -0.006184 0.000000 0.058747
#
#
# Mechanical properties :
#
#
# Convention : Reuss Voigt Hill
#
# Bulk Modulus (GPa) = 56.75090 59.54327 58.14708
# Shear Modulus (GPa) = 22.26622 24.74931 23.50777
#
# Velocity S-wave (km/s) = 3.42782 3.61390 3.52209
# Velocity P-wave (km/s) = 6.75383 6.98819 6.87201
#
# Compressibility (1/GPa) = 0.01762087
#
# Stress axis : x y z
#
# Youngs Moduli (GPa) = 66.32494 97.40196 53.63320
#
# Poissons Ratio (x) = 0.37289 0.42147
# Poissons Ratio (y) = 0.25391 0.08032
# Poissons Ratio (z) = 0.52120 0.14586
#
# Static dielectric constant tensor:
#      x y z
#    x 3.352780 0.000000 -0.001820 
#    y 0.000000 3.757840 0.000000 
#    z -0.001820 0.000000 3.369430 
# 
# 
# High freq. dielectric constant tensor:
#      x y z
#    x 1.717140 0.000000 0.006620 
#    y 0.000000 1.752070 0.000000 
#    z 0.006620 0.000000 1.725820 
# 
# From -- ./inp_files/79215.got.cif
#   From: 2010.06.25/outbox.cif.g09.slc.cpg/sg15_40_cif.got.tgz:79215.got - 2010.06.28 07:06:18.
