data_PCOD8137647
_publ_section_title
;
Structure prediction by ZEFSAII (Michael W. Deem and Ramdas Pophale) SiO2 
 PCOD8137647
Probable space group: C 2/C
;
_chemical_formula_sum "Si O2"
_cell_formula_units_Z 48
_cell_length_a 13.569121
_cell_length_b 18.260561
_cell_length_c 9.029974
_cell_angle_alpha 90.000000
_cell_angle_beta 93.316121
_cell_angle_gamma 90.000000
_cell_volume 2233.698385
_symmetry_space_group_name_H-M "C 2/C"
_symmetry_group_IT_number 15
_symmetry_cell_setting 'monoclinic'
loop_
_space_group_symop_operation_xyz
x,y,z
-x,y,1/2-z
-x,-y,-z
x,-y,1/2+z
1/2+x,1/2+y,z
1/2-x,1/2+y,1/2-z
1/2-x,1/2-y,-z
1/2+x,1/2-y,1/2+z
loop_
_atom_site_type_symbol
_atom_site_label
_atom_site_fract_x
_atom_site_fract_y
_atom_site_fract_z
Si Si1 0.000000 0.473820 0.250000
Si Si2 0.943478 0.342250 0.436490
Si Si3 0.282198 0.368613 0.561946
Si Si4 0.831452 0.585654 0.163683
Si Si5 0.000000 0.988392 0.250000
Si Si6 0.637543 0.524725 0.011545
Si Si7 0.637397 0.779972 0.359991
O O1 0.034479 0.424811 0.115089
O O2 0.093402 0.519118 0.313855
O O3 0.887754 0.346540 0.589267
O O4 0.876785 0.301143 0.311294
O O5 0.046020 0.299019 0.460040
O O6 0.202182 0.392820 0.676324
O O7 0.345137 0.437570 0.510519
O O8 0.352329 0.307517 0.639842
O O9 0.230618 0.327565 0.420429
O O10 0.741087 0.564426 0.046709
O O11 0.077284 0.943361 0.362664
O O12 0.068585 0.037757 0.148949
#
# Coordination Sequence:
#
# PCOD8137647 Si02
#       7
#     4   8   8   8   4   8   8
#     4  10  20  36  61 101 128 158 186 256 326 376
#     4  10  21  39  61  88 124 157 205 248 306 372
#     4  11  22  39  62  85 125 162 202 248 301 367
#     4  12  22  36  67  98 124 154 200 260 316 369
#     4  10  24  40  59  87 126 158 212 240 316 354
#     4  11  22  42  61  94 121 164 200 263 306 367
#     4   9  22  41  57  83 120 169 202 244 298 361
#
# _framework density 21.489025000000002
#
# number of rings (size 3 to 8) (size 9 to 14) (size 15 to 20)
#    0.000    1.667    1.667    4.500    2.333    2.000 
#    0.000    3.333    0.000    0.000    0.000    0.000 
#    0.000    0.000    0.000    0.000    0.000    0.000 
#
# Total GULP energy -297474.755123 kJ/mol
# GULP energy per Si atom -12394.781463 kJ/mol
# Density = 2.144011 g / cm^3
# Si number density = 21.489025 Si / 1000 Ang^3
#
#
#
# Elastic Constant Matrix: (Units=GPa)
#
#
# Indices 1 2 3 4 5 6 
#
# 1 89.0870 16.2046 20.8537 0.0000 4.4654 0.0000
# 2 16.2046 81.8269 5.8642 0.0000 -4.4589 0.0000
# 3 20.8537 5.8642 69.7093 0.0000 -7.8321 0.0000
# 4 0.0000 0.0000 0.0000 16.2254 0.0000 13.7396
# 5 4.4654 -4.4589 -7.8321 0.0000 43.0557 0.0000
# 6 0.0000 0.0000 0.0000 13.7396 0.0000 27.6132
#
#
#
# Elastic Compliance Matrix: (Units=1/GPa)
#
#
# Indices 1 2 3 4 5 6 
#
# 1 0.012667 -0.002356 -0.003845 0.000000 -0.002257 0.000000
# 2 -0.002356 0.012785 -0.000199 0.000000 0.001532 0.000000
# 3 -0.003845 -0.000199 0.015879 0.000000 0.003267 0.000000
# 4 0.000000 0.000000 0.000000 0.106509 0.000000 -0.052996
# 5 -0.002257 0.001532 0.003267 0.000000 0.024213 0.000000
# 6 0.000000 0.000000 0.000000 -0.052996 0.000000 0.062584
#
#
# Mechanical properties :
#
#
# Convention : Reuss Voigt Hill
#
# Bulk Modulus (GPa) = 35.04756 36.27425 35.66091
# Shear Modulus (GPa) = 19.45929 30.55887 25.00908
#
# Velocity S-wave (km/s) = 3.01249 3.77512 3.41516
# Velocity P-wave (km/s) = 5.33339 5.99325 5.67293
#
# Compressibility (1/GPa) = 0.02853265
#
# Stress axis : x y z
#
# Youngs Moduli (GPa) = 78.94771 78.21539 62.97561
#
# Poissons Ratio (x) = 0.18427 0.24212
# Poissons Ratio (y) = 0.18599 0.01251
# Poissons Ratio (z) = 0.30353 0.01553
#
# Static dielectric constant tensor:
#      x y z
#    x 4.124040 0.000000 0.129980 
#    y 0.000000 3.612410 0.000000 
#    z 0.129980 0.000000 3.988340 
# 
# 
# High freq. dielectric constant tensor:
#      x y z
#    x 1.861630 0.000000 0.010590 
#    y 0.000000 1.808550 0.000000 
#    z 0.010590 0.000000 1.848840 
# 
# From -- ./inp_files/40307.got.cif
#   From: 2010.06.25/outbox.cif.g09.slc.cpg/sg15_21_cif.got.tgz:40307.got - 2010.06.28 07:06:18.
