data_PCOD8138270
_publ_section_title
;
Structure prediction by ZEFSAII (Michael W. Deem and Ramdas Pophale) SiO2 
 PCOD8138270
Probable space group: C 2/C
;
_chemical_formula_sum "Si O2"
_cell_formula_units_Z 44
_cell_length_a 7.580752
_cell_length_b 27.248504
_cell_length_c 10.490560
_cell_angle_alpha 90.000000
_cell_angle_beta 113.192020
_cell_angle_gamma 90.000000
_cell_volume 1991.860912
_symmetry_space_group_name_H-M "C 2/C"
_symmetry_group_IT_number 15
_symmetry_cell_setting 'monoclinic'
loop_
_space_group_symop_operation_xyz
x,y,z
-x,y,1/2-z
-x,-y,-z
x,-y,1/2+z
1/2+x,1/2+y,z
1/2-x,1/2+y,1/2-z
1/2-x,1/2-y,-z
1/2+x,1/2-y,1/2+z
loop_
_atom_site_type_symbol
_atom_site_label
_atom_site_fract_x
_atom_site_fract_y
_atom_site_fract_z
Si Si1 0.806378 0.777336 0.845580
Si Si2 0.807418 0.034739 0.269861
Si Si3 0.603164 0.900096 0.508875
Si Si4 0.522809 0.206301 0.059608
Si Si5 0.491270 0.623430 0.400430
Si Si6 0.000000 0.459979 0.250000
O O1 0.618940 0.770036 0.877397
O O2 0.738793 0.781766 0.676846
O O3 0.896973 0.827570 0.925407
O O4 0.965654 0.734185 0.911145
O O5 0.654543 0.060537 0.131938
O O6 0.867630 0.074378 0.396975
O O7 0.000000 0.016098 0.250000
O O8 0.696425 0.991556 0.311632
O O9 0.497021 0.852258 0.536878
O O10 0.472965 0.926798 0.367615
O O11 0.792300 0.880900 0.486654
O O12 0.500000 0.624216 0.250000
#
# Coordination Sequence:
#
# PCOD8138270 Si02
#       6
#     8   8   8   8   8   4
#     4  10  20  37  62  87 117 163 200 243 318 360
#     4   9  21  40  62  87 119 158 209 247 302 376
#     4  10  22  40  56  89 121 150 209 244 306 367
#     4  10  21  37  60  89 121 157 203 252 298 383
#     4   9  18  37  59  84 112 155 200 242 294 378
#     4  12  24  38  62  92 120 166 198 266 310 346
#
# _framework density 22.089894999999999
#
# number of rings (size 3 to 8) (size 9 to 14) (size 15 to 20)
#    0.000    2.545    3.636    0.545    2.545    5.091 
#    4.909    0.000    0.000    0.000    0.000    0.000 
#    0.000    0.000    0.000    0.000    0.000    0.000 
#
# Total GULP energy -272557.232832 kJ/mol
# GULP energy per Si atom -12388.965129 kJ/mol
# Density = 2.203962 g / cm^3
# Si number density = 22.089895 Si / 1000 Ang^3
#
#
#
# Elastic Constant Matrix: (Units=GPa)
#
#
# Indices 1 2 3 4 5 6 
#
# 1 38.7817 25.6330 8.2934 0.0000 11.5115 0.0000
# 2 25.6330 103.9224 46.9799 0.0000 11.8853 0.0000
# 3 8.2934 46.9799 63.9850 0.0000 10.8720 0.0000
# 4 0.0000 0.0000 0.0000 28.7268 0.0000 -2.2499
# 5 11.5115 11.8853 10.8720 0.0000 21.3447 0.0000
# 6 0.0000 0.0000 0.0000 -2.2499 0.0000 36.0416
#
#
#
# Elastic Compliance Matrix: (Units=1/GPa)
#
#
# Indices 1 2 3 4 5 6 
#
# 1 0.035714 -0.009116 0.004898 0.000000 -0.016680 0.000000
# 2 -0.009116 0.016894 -0.011451 0.000000 0.001342 0.000000
# 3 0.004898 -0.011451 0.024924 0.000000 -0.008961 0.000000
# 4 0.000000 0.000000 0.000000 0.034982 0.000000 0.002184
# 5 -0.016680 0.001342 -0.008961 0.000000 0.059663 0.000000
# 6 0.000000 0.000000 0.000000 0.002184 0.000000 0.027882
#
#
# Mechanical properties :
#
#
# Convention : Reuss Voigt Hill
#
# Bulk Modulus (GPa) = 21.64707 40.94464 31.29585
# Shear Modulus (GPa) = 20.25985 25.60812 22.93399
#
# Velocity S-wave (km/s) = 3.03174 3.40850 3.22562
# Velocity P-wave (km/s) = 4.69852 5.83662 5.29822
#
# Compressibility (1/GPa) = 0.04619564
#
# Stress axis : x y z
#
# Youngs Moduli (GPa) = 28.00014 59.19257 40.12242
#
# Poissons Ratio (x) = 0.53959 -0.19653
# Poissons Ratio (y) = 0.25524 0.45942
# Poissons Ratio (z) = -0.13715 0.67779
#
# Static dielectric constant tensor:
#      x y z
#    x 3.858500 0.000000 0.483500 
#    y 0.000000 4.123280 0.000000 
#    z 0.483500 0.000000 4.031230 
# 
# 
# High freq. dielectric constant tensor:
#      x y z
#    x 1.852870 0.000000 0.028040 
#    y 0.000000 1.868180 0.000000 
#    z 0.028040 0.000000 1.839480 
# 
# From -- ./inp_files/79991.got.cif
#   From: 2010.06.25/outbox.cif.g09.slc.cpg/sg15_40_cif.got.tgz:79991.got - 2010.06.28 07:06:18.
