data_PCOD8138614
_publ_section_title
;
Structure prediction by ZEFSAII (Michael W. Deem and Ramdas Pophale) SiO2 
 PCOD8138614
Probable space group: C 2/C
;
_chemical_formula_sum "Si O2"
_cell_formula_units_Z 56
_cell_length_a 21.169866
_cell_length_b 26.005634
_cell_length_c 5.293424
_cell_angle_alpha 90.000000
_cell_angle_beta 68.508994
_cell_angle_gamma 90.000000
_cell_volume 2711.608504
_symmetry_space_group_name_H-M "C 2/C"
_symmetry_group_IT_number 15
_symmetry_cell_setting 'monoclinic'
loop_
_space_group_symop_operation_xyz
x,y,z
-x,y,1/2-z
-x,-y,-z
x,-y,1/2+z
1/2+x,1/2+y,z
1/2-x,1/2+y,1/2-z
1/2-x,1/2-y,-z
1/2+x,1/2-y,1/2+z
loop_
_atom_site_type_symbol
_atom_site_label
_atom_site_fract_x
_atom_site_fract_y
_atom_site_fract_z
Si Si1 0.090778 0.698590 0.965081
Si Si2 0.207208 0.141119 0.529721
Si Si3 0.764629 0.467666 0.879653
Si Si4 0.500000 0.888849 0.750000
Si Si5 0.000000 0.243531 0.250000
Si Si6 0.424340 0.299933 0.250466
Si Si7 0.732259 0.191012 0.551621
Si Si8 0.918648 0.532071 0.098296
O O1 0.021817 0.719217 0.940668
O O2 0.151273 0.685744 0.686486
O O3 0.068086 0.644372 0.110581
O O4 0.111913 0.745878 0.116493
O O5 0.215154 0.079958 0.511094
O O6 0.126815 0.153571 0.620996
O O7 0.234220 0.165730 0.749640
O O8 0.247157 0.162634 0.232336
O O9 0.749533 0.492471 0.628599
O O10 0.842191 0.447388 0.758666
O O11 0.524068 0.924227 0.948705
O O12 0.937059 0.207480 0.430780
O O13 0.500000 0.311310 0.250000
O O14 0.750000 0.250000 0.500000
O O15 0.929701 0.488883 0.299616
#
# Coordination Sequence:
#
# PCOD8138614 Si02
#       8
#     8   8   8   4   4   8   8   8
#     4  11  23  37  56  90 130 171 217 264 306 375
#     4  12  25  42  70  96 128 178 214 265 348 385
#     4  10  22  44  68  94 123 161 220 282 330 386
#     4  12  22  38  57  90 120 169 220 252 314 368
#     4  10  20  38  59  80 128 181 204 250 306 384
#     4  10  22  41  60  90 130 173 205 249 319 404
#     4  12  25  40  62  97 137 175 219 272 315 391
#     4  10  23  42  61  83 120 161 214 270 317 364
#
# _framework density 20.651949999999999
#
# number of rings (size 3 to 8) (size 9 to 14) (size 15 to 20)
#    0.000    1.143    3.571    3.429    4.000    4.571 
#    0.000    0.000    0.000    0.857    0.000    0.000 
#    0.000    0.000    0.000    0.000    0.000    0.000 
#
# Total GULP energy -346929.292881 kJ/mol
# GULP energy per Si atom -12390.331889 kJ/mol
# Density = 2.060495 g / cm^3
# Si number density = 20.651950 Si / 1000 Ang^3
#
#
#
# Elastic Constant Matrix: (Units=GPa)
#
#
# Indices 1 2 3 4 5 6 
#
# 1 44.1260 29.9474 -15.9286 0.0000 -19.1244 0.0000
# 2 29.9474 101.3835 14.7321 0.0000 -8.1129 0.0000
# 3 -15.9286 14.7321 53.3836 0.0000 1.4108 0.0000
# 4 0.0000 0.0000 0.0000 24.9199 0.0000 -4.0376
# 5 -19.1244 -8.1129 1.4108 0.0000 37.3545 0.0000
# 6 0.0000 0.0000 0.0000 -4.0376 0.0000 38.7697
#
#
#
# Elastic Compliance Matrix: (Units=1/GPa)
#
#
# Indices 1 2 3 4 5 6 
#
# 1 0.048753 -0.015376 0.018237 0.000000 0.020932 0.000000
# 2 -0.015376 0.015334 -0.008708 0.000000 -0.004213 0.000000
# 3 0.018237 -0.008708 0.026407 0.000000 0.006448 0.000000
# 4 0.000000 0.000000 0.000000 0.040817 0.000000 0.004251
# 5 0.020932 -0.004213 0.006448 0.000000 0.036328 0.000000
# 6 0.000000 0.000000 0.000000 0.004251 0.000000 0.026236
#
#
# Mechanical properties :
#
#
# Convention : Reuss Voigt Hill
#
# Bulk Modulus (GPa) = 12.69054 28.48829 20.58942
# Shear Modulus (GPa) = 21.56702 31.55163 26.55932
#
# Velocity S-wave (km/s) = 3.23508 3.91292 3.59004
# Velocity P-wave (km/s) = 4.48471 5.85141 5.21305
#
# Compressibility (1/GPa) = 0.07879883
#
# Stress axis : x y z
#
# Youngs Moduli (GPa) = 20.51163 65.21593 37.86923
#
# Poissons Ratio (x) = 1.00276 -0.69062
# Poissons Ratio (y) = 0.31539 0.32977
# Poissons Ratio (z) = -0.37407 0.56791
#
# Static dielectric constant tensor:
#      x y z
#    x 3.788550 0.000000 -0.063590 
#    y 0.000000 3.554560 0.000000 
#    z -0.063590 0.000000 4.154910 
# 
# 
# High freq. dielectric constant tensor:
#      x y z
#    x 1.798330 0.000000 -0.002840 
#    y 0.000000 1.789310 0.000000 
#    z -0.002840 0.000000 1.830360 
# 
# From -- ./inp_files/13888.got.cif
#   From: 2010.06.25/outbox.cif.g09.slc.cpg/sg15_7_cif.got.tgz:13888.got - 2010.06.28 07:06:18.
