data_PCOD8138101
_publ_section_title
;
Structure prediction by ZEFSAII (Michael W. Deem and Ramdas Pophale) SiO2 
 PCOD8138101
Probable space group: C 2/C
;
_chemical_formula_sum "Si O2"
_cell_formula_units_Z 52
_cell_length_a 11.382705
_cell_length_b 15.244578
_cell_length_c 30.541744
_cell_angle_alpha 90.000000
_cell_angle_beta 150.564272
_cell_angle_gamma 90.000000
_cell_volume 2604.541845
_symmetry_space_group_name_H-M "C 2/C"
_symmetry_group_IT_number 15
_symmetry_cell_setting 'monoclinic'
loop_
_space_group_symop_operation_xyz
x,y,z
-x,y,1/2-z
-x,-y,-z
x,-y,1/2+z
1/2+x,1/2+y,z
1/2-x,1/2+y,1/2-z
1/2-x,1/2-y,-z
1/2+x,1/2-y,1/2+z
loop_
_atom_site_type_symbol
_atom_site_label
_atom_site_fract_x
_atom_site_fract_y
_atom_site_fract_z
Si Si1 0.590895 0.062151 0.211360
Si Si2 0.653190 0.600700 0.121089
Si Si3 0.486068 0.330882 0.794323
Si Si4 0.659342 0.047895 0.936172
Si Si5 0.649205 0.017107 0.091263
Si Si6 0.576926 0.222225 0.643782
Si Si7 0.000000 0.117101 0.750000
O O1 0.367444 0.119655 0.156567
O O2 0.761134 0.043882 0.308590
O O3 0.742096 0.113592 0.223511
O O4 0.469032 0.974224 0.151972
O O5 0.558611 0.694981 0.105823
O O6 0.447256 0.543134 0.030396
O O7 0.500000 0.292014 0.750000
O O8 0.717149 0.392172 0.874155
O O9 0.495438 0.250080 0.830654
O O10 0.547345 0.978603 0.933947
O O11 0.604241 0.148093 0.931732
O O12 0.844848 0.942730 0.166657
O O13 0.500000 0.000000 0.000000
O O14 0.840671 0.179649 0.729001
#
# Coordination Sequence:
#
# PCOD8138101 Si02
#       7
#     8   8   8   8   8   8   4
#     4  10  20  37  59  85 110 153 193 233 286 342
#     4  10  21  37  60  85 115 153 193 235 291 351
#     4  11  19  38  57  82 120 157 188 235 298 351
#     4  11  21  37  59  89 116 145 196 247 281 343
#     4  11  21  35  63  91 116 152 201 242 289 345
#     4  10  21  35  60  86 115 151 191 236 295 341
#     4  10  20  40  60  92 116 150 198 250 278 346
#
# _framework density 19.965122999999998
#
# number of rings (size 3 to 8) (size 9 to 14) (size 15 to 20)
#    0.000    1.538    2.308    5.538    0.000    1.231 
#    2.769    0.000    3.385    1.846    0.000    0.000 
#    0.000    0.000    0.000    0.000    0.000    0.000 
#
# Total GULP energy -322179.723612 kJ/mol
# GULP energy per Si atom -12391.527831 kJ/mol
# Density = 1.991968 g / cm^3
# Si number density = 19.965123 Si / 1000 Ang^3
#
#
#
# Elastic Constant Matrix: (Units=GPa)
#
#
# Indices 1 2 3 4 5 6 
#
# 1 101.9798 22.7159 29.6322 -0.0003 7.6401 -0.0001
# 2 22.7159 57.0514 33.3069 0.0003 -7.1578 0.0000
# 3 29.6322 33.3069 119.4985 0.0008 3.4144 0.0005
# 4 -0.0003 0.0003 0.0008 11.9695 0.0001 0.4710
# 5 7.6401 -7.1578 3.4144 0.0001 29.1302 0.0000
# 6 -0.0001 0.0000 0.0005 0.4710 0.0000 30.7469
#
#
#
# Elastic Compliance Matrix: (Units=1/GPa)
#
#
# Indices 1 2 3 4 5 6 
#
# 1 0.011473 -0.004123 -0.001586 0.000000 -0.003836 0.000000
# 2 -0.004123 0.023459 -0.005731 0.000000 0.007517 0.000000
# 3 -0.001586 -0.005731 0.010422 -0.000001 -0.002214 0.000000
# 4 0.000000 0.000000 -0.000001 0.083596 0.000000 -0.001281
# 5 -0.003836 0.007517 -0.002214 0.000000 0.037441 0.000000
# 6 0.000000 0.000000 0.000000 -0.001281 0.000000 0.032543
#
#
# Mechanical properties :
#
#
# Convention : Reuss Voigt Hill
#
# Bulk Modulus (GPa) = 44.49766 49.98220 47.23993
# Shear Modulus (GPa) = 21.80500 27.22763 24.51631
#
# Velocity S-wave (km/s) = 3.30836 3.69692 3.50802
# Velocity P-wave (km/s) = 6.07699 6.58119 6.33411
#
# Compressibility (1/GPa) = 0.02247309
#
# Stress axis : x y z
#
# Youngs Moduli (GPa) = 87.16428 42.62824 95.94977
#
# Poissons Ratio (x) = 0.17577 0.15217
# Poissons Ratio (y) = 0.35941 0.54986
# Poissons Ratio (z) = 0.13824 0.24429
#
# Static dielectric constant tensor:
#      x y z
#    x 4.388480 0.000000 0.240270 
#    y 0.000000 3.434590 0.000000 
#    z 0.240270 0.000000 3.722560 
# 
# 
# High freq. dielectric constant tensor:
#      x y z
#    x 1.790720 0.000000 0.012860 
#    y 0.000000 1.748530 0.000000 
#    z 0.012860 0.000000 1.783850 
# 
# From -- ./inp_files/311519.got.cif
#   From: 2010.06.25/outbox.cif.g09.slc.cpg/sg15_156_cif.got.tgz:311519.got - 2010.06.28 07:06:18.
