data_PCOD8138667
_publ_section_title
;
Structure prediction by ZEFSAII (Michael W. Deem and Ramdas Pophale) SiO2 
 PCOD8138667
Probable space group: C 2/C
;
_chemical_formula_sum "Si O2"
_cell_formula_units_Z 52
_cell_length_a 27.091495
_cell_length_b 19.191140
_cell_length_c 10.307845
_cell_angle_alpha 90.000000
_cell_angle_beta 32.534497
_cell_angle_gamma 90.000000
_cell_volume 2882.227926
_symmetry_space_group_name_H-M "C 2/C"
_symmetry_group_IT_number 15
_symmetry_cell_setting 'monoclinic'
loop_
_space_group_symop_operation_xyz
x,y,z
-x,y,1/2-z
-x,-y,-z
x,-y,1/2+z
1/2+x,1/2+y,z
1/2-x,1/2+y,1/2-z
1/2-x,1/2-y,-z
1/2+x,1/2-y,1/2+z
loop_
_atom_site_type_symbol
_atom_site_label
_atom_site_fract_x
_atom_site_fract_y
_atom_site_fract_z
Si Si1 0.387168 0.212148 0.723044
Si Si2 0.098863 0.906571 0.046172
Si Si3 0.765013 0.017157 0.664439
Si Si4 0.500000 0.724976 0.750000
Si Si5 0.647732 0.982953 0.676243
Si Si6 0.011464 0.597415 0.874967
Si Si7 0.197454 0.856032 0.573306
O O1 0.448306 0.223786 0.460772
O O2 0.452218 0.175905 0.685594
O O3 0.354978 0.285899 0.852011
O O4 0.301989 0.162448 0.877532
O O5 0.151085 0.896217 0.795137
O O6 0.161825 0.953620 0.999353
O O7 0.000000 0.945779 0.250000
O O8 0.074717 0.827952 0.154105
O O9 0.810638 0.091366 0.529414
O O10 0.690945 0.999868 0.719577
O O11 0.723184 0.029421 0.899215
O O12 0.586377 0.047436 0.770960
O O13 0.584774 0.914359 0.836423
O O14 0.000000 0.580648 0.750000
#
# Coordination Sequence:
#
# PCOD8138667 Si02
#       7
#     8   8   8   4   8   8   8
#     4  10  20  38  60  84 121 163 200 242 291 375
#     4   9  20  39  59  88 118 160 200 254 302 344
#     4  12  20  40  61  92 121 155 205 251 302 360
#     4   8  20  38  58  92 112 166 202 234 304 366
#     4  11  24  36  61  93 122 159 197 251 312 357
#     4  11  22  38  59  89 129 155 196 254 306 354
#     4  10  21  37  61  87 117 162 204 239 306 359
#
# _framework density 18.041599000000001
#
# number of rings (size 3 to 8) (size 9 to 14) (size 15 to 20)
#    0.462    1.231    4.615    0.000    2.154    0.615 
#    0.000    2.308    0.000    1.846    0.000    0.000 
#    0.000    0.000    0.000    0.000    0.000    0.000 
#
# Total GULP energy -322175.484896 kJ/mol
# GULP energy per Si atom -12391.364804 kJ/mol
# Density = 1.800054 g / cm^3
# Si number density = 18.041599 Si / 1000 Ang^3
#
#
#
# Elastic Constant Matrix: (Units=GPa)
#
#
# Indices 1 2 3 4 5 6 
#
# 1 87.8734 46.8020 32.2502 0.0000 -6.5482 0.0000
# 2 46.8020 93.7113 44.6844 0.0000 -6.7176 0.0000
# 3 32.2502 44.6844 121.0838 0.0000 -5.6007 0.0000
# 4 0.0000 0.0000 0.0000 4.8757 0.0000 17.1203
# 5 -6.5482 -6.7176 -5.6007 0.0000 17.6199 0.0000
# 6 0.0000 0.0000 0.0000 17.1203 0.0000 -10.9205
#
#
#
# Elastic Compliance Matrix: (Units=1/GPa)
#
#
# Indices 1 2 3 4 5 6 
#
# 1 0.015873 -0.007009 -0.001514 0.000000 0.002746 0.000000
# 2 -0.007009 0.016257 -0.004026 0.000000 0.002314 0.000000
# 3 -0.001514 -0.004026 0.010201 0.000000 0.001145 0.000000
# 4 0.000000 0.000000 0.000000 0.031530 0.000000 0.049431
# 5 0.002746 0.002314 0.001145 0.000000 0.059020 0.000000
# 6 0.000000 0.000000 0.000000 0.049431 0.000000 -0.014077
#
#
# Mechanical properties :
#
#
# Convention : Reuss Voigt Hill
#
# Bulk Modulus (GPa) = 58.02653 61.12687 59.57670
# Shear Modulus (GPa) = 33.41226 14.24381 23.82804
#
# Velocity S-wave (km/s) = 4.30811 2.81285 3.63812
# Velocity P-wave (km/s) = 7.54843 6.67114 7.12330
#
# Compressibility (1/GPa) = 0.01723350
#
# Stress axis : x y z
#
# Youngs Moduli (GPa) = 62.99922 61.51290 98.03315
#
# Poissons Ratio (x) = 0.43112 0.14845
# Poissons Ratio (y) = 0.44154 0.39464
# Poissons Ratio (z) = 0.09540 0.24763
#
# Static dielectric constant tensor:
#      x y z
#    x 3.175830 0.000000 -0.141130 
#    y 0.000000 3.434350 0.000000 
#    z -0.141130 0.000000 3.634410 
# 
# 
# High freq. dielectric constant tensor:
#      x y z
#    x 1.666800 0.000000 -0.011420 
#    y 0.000000 1.699820 0.000000 
#    z -0.011420 0.000000 1.716960 
# 
# From -- ./inp_files/63372.got.cif
#   From: 2010.06.25/outbox.cif.g09.slc.cpg/sg15_32_cif.got.tgz:63372.got - 2010.06.28 07:06:18.
