data_PCOD8138413
_publ_section_title
;
Structure prediction by ZEFSAII (Michael W. Deem and Ramdas Pophale) SiO2 
 PCOD8138413
Probable space group: C 2/C
;
_chemical_formula_sum "Si O2"
_cell_formula_units_Z 64
_cell_length_a 12.509601
_cell_length_b 26.344955
_cell_length_c 13.494681
_cell_angle_alpha 90.000000
_cell_angle_beta 136.997979
_cell_angle_gamma 90.000000
_cell_volume 3033.215726
_symmetry_space_group_name_H-M "C 2/C"
_symmetry_group_IT_number 15
_symmetry_cell_setting 'monoclinic'
loop_
_space_group_symop_operation_xyz
x,y,z
-x,y,1/2-z
-x,-y,-z
x,-y,1/2+z
1/2+x,1/2+y,z
1/2-x,1/2+y,1/2-z
1/2-x,1/2-y,-z
1/2+x,1/2-y,1/2+z
loop_
_atom_site_type_symbol
_atom_site_label
_atom_site_fract_x
_atom_site_fract_y
_atom_site_fract_z
Si Si1 0.511193 0.153246 0.494931
Si Si2 0.467186 0.759142 0.840364
Si Si3 0.233570 0.092547 0.227180
Si Si4 0.876606 0.560066 0.843204
Si Si5 0.419868 0.228422 0.597702
Si Si6 0.384997 0.300414 0.893464
Si Si7 0.219154 0.476306 0.570316
Si Si8 0.669691 0.500783 0.565664
O O1 0.574376 0.194036 0.456673
O O2 0.406593 0.113167 0.364253
O O3 0.644393 0.119670 0.639680
O O4 0.412007 0.184989 0.508732
O O5 0.500000 0.746821 0.750000
O O6 0.286464 0.774973 0.726870
O O7 0.518551 0.710256 0.939468
O O8 0.117539 0.138794 0.122685
O O9 0.180087 0.060925 0.288977
O O10 0.248308 0.053556 0.144986
O O11 0.825350 0.527433 0.902772
O O12 0.764986 0.548137 0.675406
O O13 0.055677 0.550464 0.929191
O O14 0.500000 0.204950 0.750000
O O15 0.250000 0.250000 0.500000
O O16 0.524001 0.276333 0.636278
O O17 0.328135 0.490854 0.550814
O O18 0.500000 0.500000 0.500000
#
# Coordination Sequence:
#
# PCOD8138413 Si02
#       8
#     8   8   8   8   8   8   8   8
#     4   9  20  37  59  92 118 156 218 259 299 386
#     4  10  20  37  64  91 130 167 209 263 317 372
#     4   9  20  40  60  85 119 163 210 248 329 375
#     4   9  19  37  59  89 115 158 215 260 313 373
#     4  11  22  40  61  91 131 168 208 266 322 374
#     4  10  21  41  61  91 130 162 215 259 311 395
#     4   9  19  38  64  83 117 160 209 268 306 376
#     4  11  23  39  57  89 129 162 208 271 330 381
#
# _framework density 21.099719
#
# number of rings (size 3 to 8) (size 9 to 14) (size 15 to 20)
#    0.000    2.250    0.000    3.750    0.000    6.000 
#   15.750    0.000    2.750    0.000    0.000    0.000 
#    0.000    0.000    0.000    0.000    0.000    0.000 
#
# Total GULP energy -396569.720015 kJ/mol
# GULP energy per Si atom -12392.803750 kJ/mol
# Density = 2.105170 g / cm^3
# Si number density = 21.099719 Si / 1000 Ang^3
#
#
#
# Elastic Constant Matrix: (Units=GPa)
#
#
# Indices 1 2 3 4 5 6 
#
# 1 116.4060 37.0331 42.1767 0.0000 -13.6029 0.0000
# 2 37.0331 123.8074 44.0970 0.0000 -12.7272 0.0000
# 3 42.1767 44.0970 79.2369 0.0000 -11.8449 0.0000
# 4 0.0000 0.0000 0.0000 43.8558 0.0000 -3.2508
# 5 -13.6029 -12.7272 -11.8449 0.0000 37.1584 0.0000
# 6 0.0000 0.0000 0.0000 -3.2508 0.0000 17.2534
#
#
#
# Elastic Compliance Matrix: (Units=1/GPa)
#
#
# Indices 1 2 3 4 5 6 
#
# 1 0.011000 -0.001377 -0.004785 0.000000 0.002030 0.000000
# 2 -0.001377 0.010355 -0.004804 0.000000 0.001511 0.000000
# 3 -0.004785 -0.004804 0.018200 0.000000 0.002405 0.000000
# 4 0.000000 0.000000 0.000000 0.023125 0.000000 0.004357
# 5 0.002030 0.001511 0.002405 0.000000 0.028939 0.000000
# 6 0.000000 0.000000 0.000000 0.004357 0.000000 0.058780
#
#
# Mechanical properties :
#
#
# Convention : Reuss Voigt Hill
#
# Bulk Modulus (GPa) = 56.74458 62.89599 59.82028
# Shear Modulus (GPa) = 28.05726 32.72976 30.39351
#
# Velocity S-wave (km/s) = 3.65052 3.94279 3.79947
# Velocity P-wave (km/s) = 6.68733 7.11345 6.90368
#
# Compressibility (1/GPa) = 0.01762283
#
# Stress axis : x y z
#
# Youngs Moduli (GPa) = 90.91139 96.56753 54.94383
#
# Poissons Ratio (x) = 0.13300 0.26291
# Poissons Ratio (y) = 0.12521 0.26395
# Poissons Ratio (z) = 0.43502 0.46391
#
# Static dielectric constant tensor:
#      x y z
#    x 3.538400 0.000000 -0.216930 
#    y 0.000000 4.096180 0.000000 
#    z -0.216930 0.000000 4.084720 
# 
# 
# High freq. dielectric constant tensor:
#      x y z
#    x 1.803940 0.000000 -0.017910 
#    y 0.000000 1.828090 0.000000 
#    z -0.017910 0.000000 1.830270 
# 
# From -- ./inp_files/148773.got.cif
#   From: 2010.06.25/outbox.cif.g09.slc.cpg/sg15_75_cif.got.tgz:148773.got - 2010.06.28 07:06:18.
