data_PCOD8138368
_publ_section_title
;
Structure prediction by ZEFSAII (Michael W. Deem and Ramdas Pophale) SiO2 
 PCOD8138368
Probable space group: C 2/C
;
_chemical_formula_sum "Si O2"
_cell_formula_units_Z 52
_cell_length_a 16.406061
_cell_length_b 9.475544
_cell_length_c 18.327382
_cell_angle_alpha 90.000000
_cell_angle_beta 57.299754
_cell_angle_gamma 90.000000
_cell_volume 2397.548462
_symmetry_space_group_name_H-M "C 2/C"
_symmetry_group_IT_number 15
_symmetry_cell_setting 'monoclinic'
loop_
_space_group_symop_operation_xyz
x,y,z
-x,y,1/2-z
-x,-y,-z
x,-y,1/2+z
1/2+x,1/2+y,z
1/2-x,1/2+y,1/2-z
1/2-x,1/2-y,-z
1/2+x,1/2-y,1/2+z
loop_
_atom_site_type_symbol
_atom_site_label
_atom_site_fract_x
_atom_site_fract_y
_atom_site_fract_z
Si Si1 0.009501 0.776447 0.948625
Si Si2 0.469521 0.579034 0.920530
Si Si3 0.500000 0.527300 0.750000
Si Si4 0.252929 0.619944 0.053000
Si Si5 0.296305 0.439230 0.808225
Si Si6 0.681236 0.872214 0.005103
Si Si7 0.778243 0.266113 0.185996
O O1 0.111327 0.696356 0.889957
O O2 0.023134 0.928385 0.902811
O O3 0.927459 0.682138 0.952043
O O4 0.986362 0.803341 0.046075
O O5 0.482939 0.626604 0.829695
O O6 0.358824 0.550195 0.996322
O O7 0.406193 0.427304 0.785031
O O8 0.229638 0.669944 0.146248
O O9 0.250000 0.750000 0.000000
O O10 0.176688 0.499439 0.066197
O O11 0.221564 0.433918 0.910578
O O12 0.282517 0.590295 0.775327
O O13 0.272645 0.312205 0.765593
O O14 0.750000 0.750000 0.000000
#
# Coordination Sequence:
#
# PCOD8138368 Si02
#       7
#     8   8   4   8   8   8   8
#     4  10  22  41  66  96 132 178 223 273 330 403
#     4  10  20  37  63  91 129 179 219 263 333 401
#     4  12  20  40  62  96 128 178 222 264 324 412
#     4  11  21  44  64  95 136 174 223 276 330 393
#     4  12  27  43  69 101 136 176 225 279 341 397
#     4  12  24  41  71 103 130 180 234 271 327 410
#     4  11  26  46  67  99 138 179 220 285 340 400
#
# _framework density 21.688821999999998
#
# number of rings (size 3 to 8) (size 9 to 14) (size 15 to 20)
#    0.000    0.923    6.154    0.000    4.308    0.615 
#    0.000    1.538    0.000    0.000    0.000    0.000 
#    0.000    0.000    0.000    0.000    0.000    0.000 
#
# Total GULP energy -322470.090559 kJ/mol
# GULP energy per Si atom -12402.695791 kJ/mol
# Density = 2.163946 g / cm^3
# Si number density = 21.688822 Si / 1000 Ang^3
#
#
#
# Elastic Constant Matrix: (Units=GPa)
#
#
# Indices 1 2 3 4 5 6 
#
# 1 126.5743 51.6679 23.4322 0.0000 11.9134 0.0000
# 2 51.6679 99.4374 10.1543 0.0000 7.9402 0.0001
# 3 23.4322 10.1543 61.5057 0.0000 17.7177 0.0000
# 4 0.0000 0.0000 0.0000 31.3319 0.0000 9.0313
# 5 11.9134 7.9402 17.7177 0.0000 33.7780 0.0000
# 6 0.0000 0.0001 0.0000 9.0313 0.0000 41.5765
#
#
#
# Elastic Compliance Matrix: (Units=1/GPa)
#
#
# Indices 1 2 3 4 5 6 
#
# 1 0.010636 -0.005148 -0.002910 0.000000 -0.001015 0.000000
# 2 -0.005148 0.012814 0.000224 0.000000 -0.001314 0.000000
# 3 -0.002910 0.000224 0.020084 0.000000 -0.009561 0.000000
# 4 0.000000 0.000000 0.000000 0.034048 0.000000 -0.007396
# 5 -0.001015 -0.001314 -0.009561 0.000000 0.035287 0.000000
# 6 0.000000 0.000000 0.000000 -0.007396 0.000000 0.025659
#
#
# Mechanical properties :
#
#
# Convention : Reuss Voigt Hill
#
# Bulk Modulus (GPa) = 35.88492 50.89179 43.38836
# Shear Modulus (GPa) = 30.58382 34.82149 32.70265
#
# Velocity S-wave (km/s) = 3.75923 4.01122 3.88727
# Velocity P-wave (km/s) = 5.95178 6.70587 6.34004
#
# Compressibility (1/GPa) = 0.02786686
#
# Stress axis : x y z
#
# Youngs Moduli (GPa) = 94.01749 78.04126 49.78967
#
# Poissons Ratio (x) = 0.40179 0.14488
# Poissons Ratio (y) = 0.48405 -0.01118
# Poissons Ratio (z) = 0.27358 -0.01752
#
# Static dielectric constant tensor:
#      x y z
#    x 4.356980 0.000000 0.246060 
#    y 0.000000 3.719390 0.000000 
#    z 0.246060 0.000000 3.887640 
# 
# 
# High freq. dielectric constant tensor:
#      x y z
#    x 1.868270 0.000000 0.018620 
#    y 0.000000 1.828290 0.000000 
#    z 0.018620 0.000000 1.845520 
# 
# From -- ./inp_files/209470.got.cif
#   From: 2010.06.25/outbox.cif.g09.slc.cpg/sg15_105_cif.got.tgz:209470.got - 2010.06.28 07:06:18.
