data_PCOD8138924
_publ_section_title
;
Structure prediction by ZEFSAII (Michael W. Deem and Ramdas Pophale) SiO2 
 PCOD8138924
Probable space group: C 2/C
;
_chemical_formula_sum "Si O2"
_cell_formula_units_Z 56
_cell_length_a 16.919186
_cell_length_b 8.885926
_cell_length_c 26.140223
_cell_angle_alpha 90.000000
_cell_angle_beta 43.709339
_cell_angle_gamma 90.000000
_cell_volume 2715.624044
_symmetry_space_group_name_H-M "C 2/C"
_symmetry_group_IT_number 15
_symmetry_cell_setting 'monoclinic'
loop_
_space_group_symop_operation_xyz
x,y,z
-x,y,1/2-z
-x,-y,-z
x,-y,1/2+z
1/2+x,1/2+y,z
1/2-x,1/2+y,1/2-z
1/2-x,1/2-y,-z
1/2+x,1/2-y,1/2+z
loop_
_atom_site_type_symbol
_atom_site_label
_atom_site_fract_x
_atom_site_fract_y
_atom_site_fract_z
Si Si1 0.421052 0.781889 0.536714
Si Si2 0.698720 0.375238 0.487295
Si Si3 0.228883 0.191133 0.345168
Si Si4 0.089759 0.454492 0.386337
Si Si5 0.798215 0.677460 0.425420
Si Si6 0.537607 0.546805 0.902919
Si Si7 0.052764 0.690755 0.319713
O O1 0.312469 0.699106 0.563211
O O2 0.493243 0.847665 0.455837
O O3 0.494490 0.657817 0.534257
O O4 0.371283 0.915388 0.593414
O O5 0.750000 0.250000 0.500000
O O6 0.795095 0.500176 0.437019
O O7 0.575167 0.451249 0.560659
O O8 0.197269 0.344261 0.329294
O O9 0.226297 0.219565 0.407951
O O10 0.357276 0.156057 0.267083
O O11 0.142650 0.059694 0.368900
O O12 0.047534 0.536254 0.355082
O O13 0.750000 0.750000 0.500000
O O14 0.928603 0.722220 0.354104
O O15 0.582634 0.658071 0.837384
#
# Coordination Sequence:
#
# PCOD8138924 Si02
#       7
#     8   8   8   8   8   8   8
#     4  10  20  38  62  99 126 163 215 269 320 378
#     4  12  23  37  63  96 127 161 212 271 323 368
#     4  12  24  43  68  94 132 173 216 268 331 394
#     4  10  22  36  68  95 126 162 218 267 316 389
#     4  12  26  42  66  95 129 171 217 269 325 384
#     4  11  22  42  66  95 130 170 215 265 327 388
#     4  11  25  44  64  96 132 174 216 267 331 396
#
# _framework density 20.621410999999998
#
# number of rings (size 3 to 8) (size 9 to 14) (size 15 to 20)
#    0.000    0.857    4.286    3.429    6.000    0.000 
#    0.000    0.000    0.000    0.000    0.000    0.000 
#    0.000    0.000    0.000    0.000    0.000    0.000 
#
# Total GULP energy -346963.055830 kJ/mol
# GULP energy per Si atom -12391.537708 kJ/mol
# Density = 2.057448 g / cm^3
# Si number density = 20.621411 Si / 1000 Ang^3
#
#
#
# Elastic Constant Matrix: (Units=GPa)
#
#
# Indices 1 2 3 4 5 6 
#
# 1 102.4584 47.2692 35.8434 0.0000 -2.8916 0.0001
# 2 47.2692 128.3010 28.4867 0.0000 -1.7047 0.0006
# 3 35.8434 28.4867 86.5356 0.0000 -12.7749 0.0001
# 4 0.0000 0.0000 0.0000 17.5788 0.0000 0.4810
# 5 -2.8916 -1.7047 -12.7749 0.0000 31.6754 0.0000
# 6 0.0001 0.0006 0.0001 0.4810 0.0000 43.2848
#
#
#
# Elastic Compliance Matrix: (Units=1/GPa)
#
#
# Indices 1 2 3 4 5 6 
#
# 1 0.012997 -0.003861 -0.004219 0.000000 -0.000723 0.000000
# 2 -0.003861 0.009571 -0.001624 0.000000 -0.000492 0.000000
# 3 -0.004219 -0.001624 0.014640 0.000000 0.005432 0.000000
# 4 0.000000 0.000000 0.000000 0.056904 0.000000 -0.000632
# 5 -0.000723 -0.000492 0.005432 0.000000 0.033668 0.000000
# 6 0.000000 0.000000 0.000000 -0.000632 0.000000 0.023110
#
#
# Mechanical properties :
#
#
# Convention : Reuss Voigt Hill
#
# Bulk Modulus (GPa) = 56.18217 60.05484 58.11850
# Shear Modulus (GPa) = 28.37175 32.22084 30.29630
#
# Velocity S-wave (km/s) = 3.71326 3.95713 3.83713
# Velocity P-wave (km/s) = 6.75930 7.07561 6.91926
#
# Compressibility (1/GPa) = 0.01779924
#
# Stress axis : x y z
#
# Youngs Moduli (GPa) = 76.94071 104.48477 68.30627
#
# Poissons Ratio (x) = 0.40344 0.28819
# Poissons Ratio (y) = 0.29709 0.11093
# Poissons Ratio (z) = 0.32462 0.16968
#
# Static dielectric constant tensor:
#      x y z
#    x 3.786760 0.000020 0.023630 
#    y 0.000020 5.951760 -0.000010 
#    z 0.023630 -0.000010 3.516870 
# 
# 
# High freq. dielectric constant tensor:
#      x y z
#    x 1.808720 0.000000 -0.001250 
#    y 0.000000 1.828890 0.000000 
#    z -0.001250 0.000000 1.780920 
# 
# From -- ./inp_files/298511.got.cif
#   From: 2010.06.25/outbox.cif.g09.slc.cpg/sg15_150_cif.got.tgz:298511.got - 2010.06.28 07:06:18.
