data_PCOD8138729
_publ_section_title
;
Structure prediction by ZEFSAII (Michael W. Deem and Ramdas Pophale) SiO2 
 PCOD8138729
Probable space group: C 2/C
;
_chemical_formula_sum "Si O2"
_cell_formula_units_Z 56
_cell_length_a 17.366397
_cell_length_b 14.622349
_cell_length_c 19.707159
_cell_angle_alpha 90.000000
_cell_angle_beta 148.568548
_cell_angle_gamma 90.000000
_cell_volume 2609.678257
_symmetry_space_group_name_H-M "C 2/C"
_symmetry_group_IT_number 15
_symmetry_cell_setting 'monoclinic'
loop_
_space_group_symop_operation_xyz
x,y,z
-x,y,1/2-z
-x,-y,-z
x,-y,1/2+z
1/2+x,1/2+y,z
1/2-x,1/2+y,1/2-z
1/2-x,1/2-y,-z
1/2+x,1/2-y,1/2+z
loop_
_atom_site_type_symbol
_atom_site_label
_atom_site_fract_x
_atom_site_fract_y
_atom_site_fract_z
Si Si1 0.380708 0.400691 0.808811
Si Si2 0.669115 0.258420 0.367571
Si Si3 0.670535 0.198266 0.739558
Si Si4 0.103514 0.691535 0.886832
Si Si5 0.793552 0.079172 0.950618
Si Si6 0.827814 0.898138 0.240932
Si Si7 0.634798 0.610684 0.045814
O O1 0.291657 0.307336 0.727150
O O2 0.297396 0.492093 0.719064
O O3 0.410312 0.409083 0.911194
O O4 0.543542 0.398005 0.897039
O O5 0.500000 0.228145 0.250000
O O6 0.750000 0.250000 0.500000
O O7 0.677635 0.360376 0.340665
O O8 0.751715 0.194016 0.375467
O O9 0.493212 0.184523 0.617524
O O10 0.766437 0.149171 0.868524
O O11 0.704327 0.154793 0.691933
O O12 0.166230 0.591891 0.911770
O O13 0.000000 0.733513 0.750000
O O14 0.250000 0.750000 0.000000
O O15 0.776714 0.976182 0.914586
O O16 0.987791 0.872841 0.391604
#
# Coordination Sequence:
#
# PCOD8138729 Si02
#       7
#     8   8   8   8   8   8   8
#     4  11  20  37  69  99 134 181 230 284 352 416
#     4  12  26  45  70 100 138 184 235 293 355 414
#     4  11  20  35  65  97 134 174 229 281 341 414
#     4  10  21  36  58  93 135 172 214 269 338 404
#     4  10  20  38  60  97 131 173 229 271 341 419
#     4  11  22  41  67 100 135 179 241 283 349 427
#     4  11  21  40  72  97 132 179 233 290 349 419
#
# _framework density 21.458583999999998
#
# number of rings (size 3 to 8) (size 9 to 14) (size 15 to 20)
#    0.000    1.143    7.143    0.857    0.000    1.714 
#    0.000    5.000    3.143    2.571    0.000    0.000 
#    0.000    0.000    0.000    0.000    0.000    0.000 
#
# Total GULP energy -347049.059509 kJ/mol
# GULP energy per Si atom -12394.609268 kJ/mol
# Density = 2.140974 g / cm^3
# Si number density = 21.458584 Si / 1000 Ang^3
#
#
#
# Elastic Constant Matrix: (Units=GPa)
#
#
# Indices 1 2 3 4 5 6 
#
# 1 111.5481 49.0370 45.1470 0.0015 14.6498 0.0003
# 2 49.0370 137.2370 41.9482 0.0028 2.7383 0.0003
# 3 45.1470 41.9482 91.9510 0.0054 7.6159 0.0014
# 4 0.0015 0.0028 0.0054 33.5346 0.0007 0.2307
# 5 14.6498 2.7383 7.6159 0.0007 35.9140 -0.0003
# 6 0.0003 0.0003 0.0014 0.2307 -0.0003 36.5463
#
#
#
# Elastic Compliance Matrix: (Units=1/GPa)
#
#
# Indices 1 2 3 4 5 6 
#
# 1 0.012651 -0.003071 -0.004481 0.000000 -0.003976 0.000000
# 2 -0.003071 0.009214 -0.002790 0.000000 0.001142 0.000000
# 3 -0.004481 -0.002790 0.014433 -0.000002 -0.001020 0.000000
# 4 0.000000 0.000000 -0.000002 0.029821 0.000000 -0.000188
# 5 -0.003976 0.001142 -0.001020 0.000000 0.029595 0.000000
# 6 0.000000 0.000000 0.000000 -0.000188 0.000000 0.027364
#
#
# Mechanical properties :
#
#
# Convention : Reuss Voigt Hill
#
# Bulk Modulus (GPa) = 64.04945 68.11116 66.08030
# Shear Modulus (GPa) = 33.56453 34.83924 34.20189
#
# Velocity S-wave (km/s) = 3.95923 4.03371 3.99664
# Velocity P-wave (km/s) = 7.12835 7.31465 7.22210
#
# Compressibility (1/GPa) = 0.01561294
#
# Stress axis : x y z
#
# Youngs Moduli (GPa) = 79.04754 108.52889 69.28685
#
# Poissons Ratio (x) = 0.33332 0.31047
# Poissons Ratio (y) = 0.24278 0.19332
# Poissons Ratio (z) = 0.35420 0.30281
#
# Static dielectric constant tensor:
#      x y z
#    x 4.563820 0.000020 0.324340 
#    y 0.000020 4.129820 -0.000010 
#    z 0.324340 -0.000010 3.655660 
# 
# 
# High freq. dielectric constant tensor:
#      x y z
#    x 1.852050 0.000000 0.015440 
#    y 0.000000 1.844090 0.000000 
#    z 0.015440 0.000000 1.817140 
# 
# From -- ./inp_files/249214.got.cif
#   From: 2010.06.25/outbox.cif.g09.slc.cpg/sg15_125_cif.got.tgz:249214.got - 2010.06.28 07:06:18.
