data_PCOD8138255
_publ_section_title
;
Structure prediction by ZEFSAII (Michael W. Deem and Ramdas Pophale) SiO2 
 PCOD8138255
Probable space group: C 2/C
;
_chemical_formula_sum "Si O2"
_cell_formula_units_Z 40
_cell_length_a 7.332686
_cell_length_b 17.635762
_cell_length_c 15.601770
_cell_angle_alpha 90.000000
_cell_angle_beta 83.729228
_cell_angle_gamma 90.000000
_cell_volume 2005.510384
_symmetry_space_group_name_H-M "C 2/C"
_symmetry_group_IT_number 15
_symmetry_cell_setting 'monoclinic'
loop_
_space_group_symop_operation_xyz
x,y,z
-x,y,1/2-z
-x,-y,-z
x,-y,1/2+z
1/2+x,1/2+y,z
1/2-x,1/2+y,1/2-z
1/2-x,1/2-y,-z
1/2+x,1/2-y,1/2+z
loop_
_atom_site_type_symbol
_atom_site_label
_atom_site_fract_x
_atom_site_fract_y
_atom_site_fract_z
Si Si1 0.532492 0.836070 0.524009
Si Si2 0.078184 0.167583 0.561271
Si Si3 0.805515 0.088161 0.785618
Si Si4 0.024918 0.464696 0.846094
Si Si5 0.790957 0.403052 0.395419
O O1 0.753409 0.847437 0.512197
O O2 0.490557 0.750477 0.554185
O O3 0.441243 0.851716 0.436295
O O4 0.437547 0.891916 0.597358
O O5 0.156711 0.159153 0.653640
O O6 0.911970 0.108097 0.553893
O O7 0.692594 0.023917 0.842002
O O8 0.702830 0.119848 0.706014
O O9 0.000000 0.050322 0.750000
O O10 0.000000 0.436896 0.750000
O O11 0.846971 0.508010 0.894856
#
# Coordination Sequence:
#
# PCOD8138255 Si02
#       5
#     8   8   8   8   8
#     4  11  22  38  58  87 118 146 188 242 277 332
#     4  10  22  37  59  86 115 151 191 225 289 337
#     4   9  19  38  60  83 111 154 192 226 282 349
#     4  10  21  38  59  83 116 149 190 237 284 327
#     4  10  20  37  62  82 111 152 190 230 277 343
#
# _framework density 19.945048
#
# number of rings (size 3 to 8) (size 9 to 14) (size 15 to 20)
#    0.000    2.000    2.000    1.200    0.000    3.200 
#    7.200    0.000    0.000    0.000    0.000    0.000 
#    0.000    0.000    0.000    0.000    0.000    0.000 
#
# Total GULP energy -247889.853381 kJ/mol
# GULP energy per Si atom -12394.492669 kJ/mol
# Density = 1.989965 g / cm^3
# Si number density = 19.945048 Si / 1000 Ang^3
#
#
#
# Elastic Constant Matrix: (Units=GPa)
#
#
# Indices 1 2 3 4 5 6 
#
# 1 97.4138 36.2031 39.0226 0.0000 -6.1598 0.0000
# 2 36.2031 91.0140 61.2959 0.0000 7.4601 0.0000
# 3 39.0226 61.2959 81.8049 0.0000 8.7826 0.0000
# 4 0.0000 0.0000 0.0000 26.0524 0.0000 2.3183
# 5 -6.1598 7.4601 8.7826 0.0000 38.0431 0.0000
# 6 0.0000 0.0000 0.0000 2.3183 0.0000 17.1268
#
#
#
# Elastic Compliance Matrix: (Units=1/GPa)
#
#
# Indices 1 2 3 4 5 6 
#
# 1 0.013376 -0.002140 -0.005183 0.000000 0.003782 0.000000
# 2 -0.002140 0.022533 -0.015741 0.000000 -0.001131 0.000000
# 3 -0.005183 -0.015741 0.026918 0.000000 -0.003967 0.000000
# 4 0.000000 0.000000 0.000000 0.038852 0.000000 -0.005259
# 5 0.003782 -0.001131 -0.003967 0.000000 0.028036 0.000000
# 6 0.000000 0.000000 0.000000 -0.005259 0.000000 0.059100
#
#
# Mechanical properties :
#
#
# Convention : Reuss Voigt Hill
#
# Bulk Modulus (GPa) = 59.89029 60.36398 60.12714
# Shear Modulus (GPa) = 20.78918 25.15854 22.97386
#
# Velocity S-wave (km/s) = 3.23200 3.55546 3.39758
# Velocity P-wave (km/s) = 6.63481 6.86920 6.75302
#
# Compressibility (1/GPa) = 0.01669720
#
# Stress axis : x y z
#
# Youngs Moduli (GPa) = 74.75906 44.37995 37.15034
#
# Poissons Ratio (x) = 0.09497 0.19257
# Poissons Ratio (y) = 0.15997 0.58480
# Poissons Ratio (z) = 0.38751 0.69860
#
# Static dielectric constant tensor:
#      x y z
#    x 3.872810 0.000000 -0.002410 
#    y 0.000000 3.330430 0.000000 
#    z -0.002410 0.000000 3.655050 
# 
# 
# High freq. dielectric constant tensor:
#      x y z
#    x 1.789950 0.000000 -0.000680 
#    y 0.000000 1.744760 0.000000 
#    z -0.000680 0.000000 1.777380 
# 
# From -- ./inp_files/133829.got.cif
#   From: 2010.06.25/outbox.cif.g09.slc.cpg/sg15_67_cif.got.tgz:133829.got - 2010.06.28 07:06:18.
