data_PCOD8138575
_publ_section_title
;
Structure prediction by ZEFSAII (Michael W. Deem and Ramdas Pophale) SiO2 
 PCOD8138575
Probable space group: C 2/C
;
_chemical_formula_sum "Si O2"
_cell_formula_units_Z 64
_cell_length_a 26.844538
_cell_length_b 21.878481
_cell_length_c 11.979125
_cell_angle_alpha 90.000000
_cell_angle_beta 153.629575
_cell_angle_gamma 90.000000
_cell_volume 3125.000765
_symmetry_space_group_name_H-M "C 2/C"
_symmetry_group_IT_number 15
_symmetry_cell_setting 'monoclinic'
loop_
_space_group_symop_operation_xyz
x,y,z
-x,y,1/2-z
-x,-y,-z
x,-y,1/2+z
1/2+x,1/2+y,z
1/2-x,1/2+y,1/2-z
1/2-x,1/2-y,-z
1/2+x,1/2-y,1/2+z
loop_
_atom_site_type_symbol
_atom_site_label
_atom_site_fract_x
_atom_site_fract_y
_atom_site_fract_z
Si Si1 0.619602 0.951947 0.931873
Si Si2 0.093585 0.589063 0.842437
Si Si3 0.022896 0.881008 0.976734
Si Si4 0.928570 0.053345 0.708314
Si Si5 0.245628 0.644039 0.307523
Si Si6 0.868083 0.232106 0.684365
Si Si7 0.850924 0.923456 0.483424
Si Si8 0.929878 0.641181 0.352055
O O1 0.500000 0.944128 0.750000
O O2 0.629166 0.906433 0.847606
O O3 0.639934 0.019927 0.924156
O O4 0.716825 0.933377 0.215917
O O5 0.000000 0.587282 0.750000
O O6 0.047752 0.613208 0.631877
O O7 0.193387 0.635659 0.079040
O O8 0.011001 0.929240 0.054351
O O9 0.064436 0.814964 0.101919
O O10 0.113872 0.907621 0.071947
O O11 0.900763 0.872336 0.669712
O O12 0.803882 0.080766 0.458234
O O13 0.000000 0.082424 0.750000
O O14 0.917260 0.981581 0.666058
O O15 0.336503 0.699302 0.502059
O O16 0.145341 0.654593 0.191998
O O17 0.750000 0.250000 0.500000
O O18 0.943759 0.292937 0.817821
#
# Coordination Sequence:
#
# PCOD8138575 Si02
#       8
#     8   8   8   8   8   8   8   8
#     4  11  22  38  56  87 118 156 195 237 302 356
#     4   9  18  34  54  83 111 141 189 238 286 343
#     4  10  22  39  58  90 119 153 201 246 297 362
#     4  11  20  35  56  87 121 153 189 237 308 358
#     4   9  18  36  57  82 115 149 190 232 294 351
#     4   9  18  36  60  84 115 151 198 241 293 345
#     4  11  21  37  59  85 121 156 197 246 298 354
#     4  10  20  38  58  83 113 152 196 246 286 344
#
# _framework density 20.479996
#
# number of rings (size 3 to 8) (size 9 to 14) (size 15 to 20)
#    0.000    2.000    2.500    3.000    0.000    0.000 
#   18.000    2.500    0.000    0.750    0.000    0.000 
#    0.000    0.000    0.000    0.000    0.000    0.000 
#
# Total GULP energy -396463.707327 kJ/mol
# GULP energy per Si atom -12389.490854 kJ/mol
# Density = 2.043338 g / cm^3
# Si number density = 20.479996 Si / 1000 Ang^3
#
#
#
# Elastic Constant Matrix: (Units=GPa)
#
#
# Indices 1 2 3 4 5 6 
#
# 1 43.8292 17.9628 29.3772 0.0000 -15.2483 0.0000
# 2 17.9628 140.4728 71.1067 0.0000 -20.7025 0.0000
# 3 29.3772 71.1067 178.5947 0.0000 -20.3249 0.0000
# 4 0.0000 0.0000 0.0000 28.4646 0.0000 0.2834
# 5 -15.2483 -20.7025 -20.3249 0.0000 29.3550 0.0000
# 6 0.0000 0.0000 0.0000 0.2834 0.0000 19.2565
#
#
#
# Elastic Compliance Matrix: (Units=1/GPa)
#
#
# Indices 1 2 3 4 5 6 
#
# 1 0.029629 -0.000199 -0.003320 0.000000 0.012951 0.000000
# 2 -0.000199 0.009410 -0.003224 0.000000 0.004300 0.000000
# 3 -0.003320 -0.003224 0.007571 0.000000 0.001243 0.000000
# 4 0.000000 0.000000 0.000000 0.035137 0.000000 -0.000517
# 5 0.012951 0.004300 0.001243 0.000000 0.044687 0.000000
# 6 0.000000 0.000000 0.000000 -0.000517 0.000000 0.051938
#
#
# Mechanical properties :
#
#
# Convention : Reuss Voigt Hill
#
# Bulk Modulus (GPa) = 30.19196 66.64335 48.41766
# Shear Modulus (GPa) = 24.64268 31.71187 28.17727
#
# Velocity S-wave (km/s) = 3.47256 3.93928 3.71326
# Velocity P-wave (km/s) = 5.55450 7.30082 6.48669
#
# Compressibility (1/GPa) = 0.03312140
#
# Stress axis : x y z
#
# Youngs Moduli (GPa) = 33.75098 106.26643 132.08769
#
# Poissons Ratio (x) = 0.02118 0.43859
# Poissons Ratio (y) = 0.00673 0.42591
# Poissons Ratio (z) = 0.11207 0.34265
#
# Static dielectric constant tensor:
#      x y z
#    x 3.333360 0.000000 -0.220640 
#    y 0.000000 4.057560 0.000000 
#    z -0.220640 0.000000 4.167570 
# 
# 
# High freq. dielectric constant tensor:
#      x y z
#    x 1.753620 0.000000 -0.014730 
#    y 0.000000 1.795610 0.000000 
#    z -0.014730 0.000000 1.818990 
# 
# From -- ./inp_files/124456.got.cif
#   From: 2010.06.25/outbox.cif.g09.slc.cpg/sg15_63_cif.got.tgz:124456.got - 2010.06.28 07:06:18.
