data_PCOD8138023
_publ_section_title
;
Structure prediction by ZEFSAII (Michael W. Deem and Ramdas Pophale) SiO2 
 PCOD8138023
Probable space group: C 2/C
;
_chemical_formula_sum "Si O2"
_cell_formula_units_Z 40
_cell_length_a 8.599736
_cell_length_b 23.909787
_cell_length_c 12.261921
_cell_angle_alpha 90.000000
_cell_angle_beta 54.526671
_cell_angle_gamma 90.000000
_cell_volume 2053.286273
_symmetry_space_group_name_H-M "C 2/C"
_symmetry_group_IT_number 15
_symmetry_cell_setting 'monoclinic'
loop_
_space_group_symop_operation_xyz
x,y,z
-x,y,1/2-z
-x,-y,-z
x,-y,1/2+z
1/2+x,1/2+y,z
1/2-x,1/2+y,1/2-z
1/2-x,1/2-y,-z
1/2+x,1/2-y,1/2+z
loop_
_atom_site_type_symbol
_atom_site_label
_atom_site_fract_x
_atom_site_fract_y
_atom_site_fract_z
Si Si1 0.438520 0.322751 0.395854
Si Si2 0.271923 0.389390 0.863974
Si Si3 0.639759 0.510811 0.291292
Si Si4 0.869331 0.918350 0.049192
Si Si5 0.015221 0.305443 0.616670
O O1 0.500000 0.338433 0.250000
O O2 0.543021 0.362323 0.437752
O O3 0.211486 0.331303 0.493407
O O4 0.497625 0.260034 0.405160
O O5 0.500000 0.381240 0.750000
O O6 0.206350 0.445787 0.824429
O O7 0.160778 0.334882 0.871477
O O8 0.225389 0.399446 0.011313
O O9 0.500000 0.490527 0.250000
O O10 0.729956 0.455987 0.314103
O O11 0.535501 0.545257 0.428305
O O12 0.000000 0.316811 0.750000
#
# Coordination Sequence:
#
# PCOD8138023 Si02
#       5
#     8   8   8   8   8
#     4  10  21  35  56  81 109 146 184 230 277 325
#     4   9  18  32  56  83 107 143 186 228 275 327
#     4   8  15  28  52  77 103 144 183 216 267 329
#     4   9  16  30  52  77 106 140 180 225 273 315
#     4  10  20  37  57  80 109 146 189 223 274 340
#
# _framework density 19.480965999999999
#
# number of rings (size 3 to 8) (size 9 to 14) (size 15 to 20)
#    0.000    3.200    0.000    3.000    0.000    0.800 
#    0.000    1.000    0.000   52.800    0.000    0.000 
#    0.000    0.000    0.000    0.000    0.000    0.000 
#
# Total GULP energy -247785.749719 kJ/mol
# GULP energy per Si atom -12389.287486 kJ/mol
# Density = 1.943663 g / cm^3
# Si number density = 19.480966 Si / 1000 Ang^3
#
#
#
# Elastic Constant Matrix: (Units=GPa)
#
#
# Indices 1 2 3 4 5 6 
#
# 1 72.4517 73.6157 42.5845 0.0000 12.3251 0.0000
# 2 73.6157 113.3091 51.5934 0.0000 25.4885 0.0000
# 3 42.5845 51.5934 99.2325 0.0000 12.7320 0.0000
# 4 0.0000 0.0000 0.0000 10.0843 0.0000 10.9368
# 5 12.3251 25.4885 12.7320 0.0000 25.0746 0.0000
# 6 0.0000 0.0000 0.0000 10.9368 0.0000 22.6552
#
#
#
# Elastic Compliance Matrix: (Units=1/GPa)
#
#
# Indices 1 2 3 4 5 6 
#
# 1 0.044343 -0.028580 -0.005456 0.000000 0.010026 0.000000
# 2 -0.028580 0.032447 -0.002327 0.000000 -0.017752 0.000000
# 3 -0.005456 -0.002327 0.013886 0.000000 -0.002003 0.000000
# 4 0.000000 0.000000 0.000000 0.208135 0.000000 -0.100477
# 5 0.010026 -0.017752 -0.002003 0.000000 0.054015 0.000000
# 6 0.000000 0.000000 0.000000 -0.100477 0.000000 0.092645
#
#
# Mechanical properties :
#
#
# Convention : Reuss Voigt Hill
#
# Bulk Modulus (GPa) = 55.71558 68.95339 62.33449
# Shear Modulus (GPa) = 9.53871 19.37613 14.45742
#
# Velocity S-wave (km/s) = 2.21519 3.15718 2.72716
# Velocity P-wave (km/s) = 5.93337 6.98301 6.47948
#
# Compressibility (1/GPa) = 0.01794830
#
# Stress axis : x y z
#
# Youngs Moduli (GPa) = 22.55156 30.81992 72.01595
#
# Poissons Ratio (x) = 0.88083 0.39293
# Poissons Ratio (y) = 0.64452 0.16760
# Poissons Ratio (z) = 0.12304 0.07173
#
# Static dielectric constant tensor:
#      x y z
#    x 3.197210 0.000000 0.370830 
#    y 0.000000 3.757030 0.000000 
#    z 0.370830 0.000000 3.804730 
# 
# 
# High freq. dielectric constant tensor:
#      x y z
#    x 1.718450 0.000000 0.035150 
#    y 0.000000 1.769380 0.000000 
#    z 0.035150 0.000000 1.761460 
# 
# From -- ./inp_files/78630.got.cif
#   From: 2010.06.25/outbox.cif.g09.slc.cpg/sg15_40_cif.got.tgz:78630.got - 2010.06.28 07:06:18.
