data_PCOD8138867
_publ_section_title
;
Structure prediction by ZEFSAII (Michael W. Deem and Ramdas Pophale) SiO2 
 PCOD8138867
Probable space group: C 2/C
;
_chemical_formula_sum "Si O2"
_cell_formula_units_Z 44
_cell_length_a 13.242616
_cell_length_b 16.126292
_cell_length_c 25.819996
_cell_angle_alpha 90.000000
_cell_angle_beta 156.880289
_cell_angle_gamma 90.000000
_cell_volume 2165.080180
_symmetry_space_group_name_H-M "C 2/C"
_symmetry_group_IT_number 15
_symmetry_cell_setting 'monoclinic'
loop_
_space_group_symop_operation_xyz
x,y,z
-x,y,1/2-z
-x,-y,-z
x,-y,1/2+z
1/2+x,1/2+y,z
1/2-x,1/2+y,1/2-z
1/2-x,1/2-y,-z
1/2+x,1/2-y,1/2+z
loop_
_atom_site_type_symbol
_atom_site_label
_atom_site_fract_x
_atom_site_fract_y
_atom_site_fract_z
Si Si1 0.652791 0.144445 0.995801
Si Si2 0.500000 0.399113 0.750000
Si Si3 0.131439 0.339914 0.933196
Si Si4 0.401898 0.690634 0.368586
Si Si5 0.450887 0.024626 0.418466
Si Si6 0.782426 0.929598 0.901981
O O1 0.794300 0.152382 0.118902
O O2 0.840771 0.158585 0.036755
O O3 0.425735 0.211537 0.890258
O O4 0.517044 0.057329 0.917216
O O5 0.352740 0.452867 0.724980
O O6 0.276463 0.391514 0.956868
O O7 0.835614 0.326314 0.780354
O O8 0.127431 0.398501 0.982324
O O9 0.250000 0.250000 0.000000
O O10 0.366634 0.646655 0.406473
O O11 0.500000 0.000000 0.500000
O O12 0.500000 0.962906 0.750000
O O13 0.000000 0.000000 0.000000
#
# Coordination Sequence:
#
# PCOD8138867 Si02
#       6
#     8   4   8   8   8   8
#     4  10  21  39  64  93 129 167 215 264 328 382
#     4  10  20  38  62  88 132 158 214 262 316 392
#     4  11  24  43  66  97 133 168 217 271 326 388
#     4  10  22  41  63  94 130 170 212 271 317 396
#     4  10  22  38  63  93 125 168 211 265 318 382
#     4  10  23  45  67  93 133 173 222 271 330 398
#
# _framework density 20.322572999999998
#
# number of rings (size 3 to 8) (size 9 to 14) (size 15 to 20)
#    0.000    1.818    1.818    1.091    5.091    2.909 
#   16.364    0.000    0.000    0.000    0.000    0.000 
#    0.000    0.000    0.000    0.000    0.000    0.000 
#
# Total GULP energy -272623.679758 kJ/mol
# GULP energy per Si atom -12391.985444 kJ/mol
# Density = 2.027632 g / cm^3
# Si number density = 20.322573 Si / 1000 Ang^3
#
#
#
# Elastic Constant Matrix: (Units=GPa)
#
#
# Indices 1 2 3 4 5 6 
#
# 1 120.0872 68.0437 39.5888 -0.0045 9.2469 0.0007
# 2 68.0437 165.0567 44.8499 0.0032 18.5395 0.0000
# 3 39.5888 44.8499 52.7183 -0.0080 14.8545 -0.0052
# 4 -0.0045 0.0032 -0.0080 32.1337 -0.0025 5.3663
# 5 9.2469 18.5395 14.8545 -0.0025 31.9700 -0.0015
# 6 0.0007 0.0000 -0.0052 5.3663 -0.0015 35.9354
#
#
#
# Elastic Compliance Matrix: (Units=1/GPa)
#
#
# Indices 1 2 3 4 5 6 
#
# 1 0.012406 -0.003433 -0.006841 0.000001 0.001581 -0.000001
# 2 -0.003433 0.008909 -0.004401 -0.000003 -0.002128 0.000000
# 3 -0.006841 -0.004401 0.030577 0.000006 -0.009676 0.000003
# 4 0.000001 -0.000003 0.000006 0.031916 0.000001 -0.004766
# 5 0.001581 -0.002128 -0.009676 0.000001 0.036552 0.000000
# 6 -0.000001 0.000000 0.000003 -0.004766 0.000000 0.028539
#
#
# Mechanical properties :
#
#
# Convention : Reuss Voigt Hill
#
# Bulk Modulus (GPa) = 44.36437 71.42521 57.89479
# Shear Modulus (GPa) = 26.91583 32.36648 29.64115
#
# Velocity S-wave (km/s) = 3.64322 3.99511 3.82322
# Velocity P-wave (km/s) = 6.29086 7.51687 6.93102
#
# Compressibility (1/GPa) = 0.02254061
#
# Stress axis : x y z
#
# Youngs Moduli (GPa) = 80.60565 112.24881 32.70415
#
# Poissons Ratio (x) = 0.38535 0.22374
# Poissons Ratio (y) = 0.27672 0.14394
# Poissons Ratio (z) = 0.55144 0.49405
#
# Static dielectric constant tensor:
#      x y z
#    x 4.136010 0.000300 0.830480 
#    y 0.000300 4.227760 0.000410 
#    z 0.830480 0.000410 5.153350 
# 
# 
# High freq. dielectric constant tensor:
#      x y z
#    x 1.811130 0.000000 0.017580 
#    y 0.000000 1.795870 0.000000 
#    z 0.017580 0.000000 1.782710 
# 
# From -- ./inp_files/244473.got.cif
#   From: 2010.06.25/outbox.cif.g09.slc.cpg/sg15_123_cif.got.tgz:244473.got - 2010.06.28 07:06:18.
