data_PCOD8138995
_publ_section_title
;
Structure prediction by ZEFSAII (Michael W. Deem and Ramdas Pophale) SiO2 
 PCOD8138995
Probable space group: C 2/C
;
_chemical_formula_sum "Si O2"
_cell_formula_units_Z 60
_cell_length_a 24.482360
_cell_length_b 11.109114
_cell_length_c 21.109821
_cell_angle_alpha 90.000000
_cell_angle_beta 151.077454
_cell_angle_gamma 90.000000
_cell_volume 2776.691632
_symmetry_space_group_name_H-M "C 2/C"
_symmetry_group_IT_number 15
_symmetry_cell_setting 'monoclinic'
loop_
_space_group_symop_operation_xyz
x,y,z
-x,y,1/2-z
-x,-y,-z
x,-y,1/2+z
1/2+x,1/2+y,z
1/2-x,1/2+y,1/2-z
1/2-x,1/2-y,-z
1/2+x,1/2-y,1/2+z
loop_
_atom_site_type_symbol
_atom_site_label
_atom_site_fract_x
_atom_site_fract_y
_atom_site_fract_z
Si Si1 0.272013 0.566378 0.998089
Si Si2 0.312213 0.322817 0.268377
Si Si3 0.895309 0.413084 0.379207
Si Si4 0.959197 0.774382 0.534312
Si Si5 0.000000 0.035650 0.750000
Si Si6 0.745720 0.920464 0.849941
Si Si7 0.508549 0.544344 0.898330
Si Si8 0.895684 0.297938 0.098237
O O1 0.245254 0.456244 0.923504
O O2 0.166118 0.582069 0.937984
O O3 0.387191 0.538618 0.152246
O O4 0.300108 0.693565 0.992985
O O5 0.189889 0.388538 0.148021
O O6 0.350424 0.285744 0.378049
O O7 0.309936 0.208841 0.218998
O O8 0.404587 0.412693 0.334109
O O9 0.824063 0.473493 0.252084
O O10 0.000000 0.500000 0.500000
O O11 0.938360 0.281423 0.401980
O O12 0.936058 0.678510 0.567395
O O13 0.993969 0.898889 0.603937
O O14 0.986596 0.102254 0.668346
O O15 0.872603 0.916456 0.949547
O O16 0.000000 0.263989 0.250000
#
# Coordination Sequence:
#
# PCOD8138995 Si02
#       8
#     8   8   8   8   4   8   8   8
#     4  10  20  38  63  96 136 171 220 282 339 406
#     4  12  26  43  70  98 138 191 227 289 347 420
#     4  12  26  41  62 101 141 174 231 285 344 409
#     4  12  23  40  69 102 138 181 224 285 350 416
#     4  10  20  42  68  96 126 176 228 286 322 416
#     4  11  23  45  65  97 142 177 232 290 341 417
#     4  11  24  46  72 100 134 185 239 278 356 419
#     4  11  20  36  65 102 135 175 218 278 353 395
#
# _framework density 21.608447999999999
#
# number of rings (size 3 to 8) (size 9 to 14) (size 15 to 20)
#    0.000    0.800    6.000    2.000    1.867    4.267 
#    0.000    2.667    4.400    0.000    0.000    0.000 
#    0.000    0.000    0.000    0.000    0.000    0.000 
#
# Total GULP energy -371732.874958 kJ/mol
# GULP energy per Si atom -12391.095832 kJ/mol
# Density = 2.155927 g / cm^3
# Si number density = 21.608448 Si / 1000 Ang^3
#
#
#
# Elastic Constant Matrix: (Units=GPa)
#
#
# Indices 1 2 3 4 5 6 
#
# 1 129.7513 35.4833 58.7790 0.0000 11.1113 0.0000
# 2 35.4833 72.8642 36.7224 0.0000 4.0495 0.0000
# 3 58.7790 36.7224 117.8427 0.0000 2.6294 0.0000
# 4 0.0000 0.0000 0.0000 33.3256 0.0000 7.2036
# 5 11.1113 4.0495 2.6294 0.0000 37.0184 0.0000
# 6 0.0000 0.0000 0.0000 7.2036 0.0000 30.1556
#
#
#
# Elastic Compliance Matrix: (Units=1/GPa)
#
#
# Indices 1 2 3 4 5 6 
#
# 1 0.010697 -0.002854 -0.004389 0.000000 -0.002587 0.000000
# 2 -0.002854 0.017118 -0.003894 0.000000 -0.000739 0.000000
# 3 -0.004389 -0.003894 0.011868 0.000000 0.000900 0.000000
# 4 0.000000 0.000000 0.000000 0.031641 0.000000 -0.007558
# 5 -0.002587 -0.000739 0.000900 0.000000 0.027807 0.000000
# 6 0.000000 0.000000 0.000000 -0.007558 0.000000 0.034967
#
#
# Mechanical properties :
#
#
# Convention : Reuss Voigt Hill
#
# Bulk Modulus (GPa) = 57.43897 64.71416 61.07657
# Shear Modulus (GPa) = 30.83103 32.73150 31.78126
#
# Velocity S-wave (km/s) = 3.78140 3.89621 3.83923
# Velocity P-wave (km/s) = 6.76053 7.08902 6.92672
#
# Compressibility (1/GPa) = 0.01740978
#
# Stress axis : x y z
#
# Youngs Moduli (GPa) = 93.48335 58.41939 84.25755
#
# Poissons Ratio (x) = 0.16671 0.36978
# Poissons Ratio (y) = 0.26677 0.32813
# Poissons Ratio (z) = 0.41026 0.22750
#
# Static dielectric constant tensor:
#      x y z
#    x 3.940580 0.000000 0.209760 
#    y 0.000000 3.590780 0.000000 
#    z 0.209760 0.000000 4.157870 
# 
# 
# High freq. dielectric constant tensor:
#      x y z
#    x 1.845210 0.000000 0.009670 
#    y 0.000000 1.814050 0.000000 
#    z 0.009670 0.000000 1.864100 
# 
# From -- ./inp_files/255581.got.cif
#   From: 2010.06.25/outbox.cif.g09.slc.cpg/sg15_128_cif.got.tgz:255581.got - 2010.06.28 07:06:18.
