data_PCOD8138111
_publ_section_title
;
Structure prediction by ZEFSAII (Michael W. Deem and Ramdas Pophale) SiO2 
 PCOD8138111
Probable space group: C 2/C
;
_chemical_formula_sum "Si O2"
_cell_formula_units_Z 48
_cell_length_a 28.003540
_cell_length_b 9.536387
_cell_length_c 14.801551
_cell_angle_alpha 90.000000
_cell_angle_beta 37.195159
_cell_angle_gamma 90.000000
_cell_volume 2389.588877
_symmetry_space_group_name_H-M "C 2/C"
_symmetry_group_IT_number 15
_symmetry_cell_setting 'monoclinic'
loop_
_space_group_symop_operation_xyz
x,y,z
-x,y,1/2-z
-x,-y,-z
x,-y,1/2+z
1/2+x,1/2+y,z
1/2-x,1/2+y,1/2-z
1/2-x,1/2-y,-z
1/2+x,1/2-y,1/2+z
loop_
_atom_site_type_symbol
_atom_site_label
_atom_site_fract_x
_atom_site_fract_y
_atom_site_fract_z
Si Si1 0.151850 0.616689 0.822073
Si Si2 0.904338 0.080308 0.058919
Si Si3 0.671354 0.393226 0.459835
Si Si4 0.065482 0.062617 0.285757
Si Si5 0.889683 0.594502 0.979917
Si Si6 0.058171 0.609035 0.790528
O O1 0.107659 0.752751 0.927932
O O2 0.238905 0.651102 0.651690
O O3 0.099523 0.552345 0.818900
O O4 0.169382 0.504414 0.875214
O O5 0.898327 0.025465 0.170994
O O6 0.833072 0.010925 0.110841
O O7 0.988049 0.034346 0.887159
O O8 0.630367 0.460647 0.610260
O O9 0.627331 0.258782 0.483735
O O10 0.043119 0.225209 0.317234
O O11 0.887100 0.563382 0.876697
O O12 0.971998 0.546551 0.902813
#
# Coordination Sequence:
#
# PCOD8138111 Si02
#       6
#     8   8   8   8   8   8
#     4  11  23  35  57  91 118 145 190 248 292 330
#     4  10  20  37  59  87 113 148 198 240 285 340
#     4  11  21  37  60  84 119 153 189 237 291 348
#     4   9  19  37  63  83 105 156 202 232 274 355
#     4  10  20  38  60  80 112 155 192 229 288 351
#     4   9  19  38  61  80 108 156 196 229 278 354
#
# _framework density 20.087137999999999
#
# number of rings (size 3 to 8) (size 9 to 14) (size 15 to 20)
#    0.000    2.000    1.667    2.000    0.000    7.333 
#    6.000    0.000    0.000    4.000    0.000    0.000 
#    0.000    0.000    0.000    0.000    0.000    0.000 
#
# Total GULP energy -297460.368118 kJ/mol
# GULP energy per Si atom -12394.182005 kJ/mol
# Density = 2.004142 g / cm^3
# Si number density = 20.087138 Si / 1000 Ang^3
#
#
#
# Elastic Constant Matrix: (Units=GPa)
#
#
# Indices 1 2 3 4 5 6 
#
# 1 80.6771 36.6499 43.7230 0.0000 13.3725 0.0000
# 2 36.6499 54.3276 42.7440 0.0000 20.2557 0.0001
# 3 43.7230 42.7440 112.8937 0.0000 7.4278 0.0000
# 4 0.0000 0.0000 0.0000 26.1267 0.0000 7.1508
# 5 13.3725 20.2557 7.4278 0.0000 28.5502 0.0000
# 6 0.0000 0.0001 0.0000 7.1508 0.0000 28.3903
#
#
#
# Elastic Compliance Matrix: (Units=1/GPa)
#
#
# Indices 1 2 3 4 5 6 
#
# 1 0.018842 -0.009367 -0.003671 0.000000 -0.001225 0.000000
# 2 -0.009367 0.041285 -0.010546 0.000000 -0.022160 0.000000
# 3 -0.003671 -0.010546 0.013905 0.000000 0.005584 0.000000
# 4 0.000000 0.000000 0.000000 0.041109 0.000000 -0.010354
# 5 -0.001225 -0.022160 0.005584 0.000000 0.049869 0.000000
# 6 0.000000 0.000000 0.000000 -0.010354 0.000000 0.037831
#
#
# Mechanical properties :
#
#
# Convention : Reuss Voigt Hill
#
# Bulk Modulus (GPa) = 37.22079 54.90356 46.06217
# Shear Modulus (GPa) = 19.30774 24.93221 22.11997
#
# Velocity S-wave (km/s) = 3.10368 3.52689 3.32203
# Velocity P-wave (km/s) = 5.60479 6.63154 6.13967
#
# Compressibility (1/GPa) = 0.02686671
#
# Stress axis : x y z
#
# Youngs Moduli (GPa) = 53.07163 24.22181 71.91670
#
# Poissons Ratio (x) = 0.22687 0.26398
# Poissons Ratio (y) = 0.49710 0.75842
# Poissons Ratio (z) = 0.19480 0.25544
#
# Static dielectric constant tensor:
#      x y z
#    x 3.743220 0.000000 0.137930 
#    y 0.000000 3.354500 0.000000 
#    z 0.137930 0.000000 3.613530 
# 
# 
# High freq. dielectric constant tensor:
#      x y z
#    x 1.791430 0.000000 0.005500 
#    y 0.000000 1.755710 0.000000 
#    z 0.005500 0.000000 1.782440 
# 
# From -- ./inp_files/176847.got.cif
#   From: 2010.06.25/outbox.cif.g09.slc.cpg/sg15_89_cif.got.tgz:176847.got - 2010.06.28 07:06:18.
