data_PCOD8138401
_publ_section_title
;
Structure prediction by ZEFSAII (Michael W. Deem and Ramdas Pophale) SiO2 
 PCOD8138401
Probable space group: C 2/C
;
_chemical_formula_sum "Si O2"
_cell_formula_units_Z 64
_cell_length_a 29.836733
_cell_length_b 11.510577
_cell_length_c 14.594461
_cell_angle_alpha 90.000000
_cell_angle_beta 37.946591
_cell_angle_gamma 90.000000
_cell_volume 3082.192365
_symmetry_space_group_name_H-M "C 2/C"
_symmetry_group_IT_number 15
_symmetry_cell_setting 'monoclinic'
loop_
_space_group_symop_operation_xyz
x,y,z
-x,y,1/2-z
-x,-y,-z
x,-y,1/2+z
1/2+x,1/2+y,z
1/2-x,1/2+y,1/2-z
1/2-x,1/2-y,-z
1/2+x,1/2-y,1/2+z
loop_
_atom_site_type_symbol
_atom_site_label
_atom_site_fract_x
_atom_site_fract_y
_atom_site_fract_z
Si Si1 0.325089 0.059639 0.763256
Si Si2 0.146588 0.530663 0.580985
Si Si3 0.630417 0.377705 0.973040
Si Si4 0.055868 0.746136 0.739399
Si Si5 0.703321 0.141828 0.312898
Si Si6 0.047611 0.259613 0.460021
Si Si7 0.063384 0.698889 0.212192
Si Si8 0.668953 0.367932 0.452215
O O1 0.309674 0.054150 0.896031
O O2 0.398438 0.129647 0.621371
O O3 0.254417 0.117151 0.832090
O O4 0.334438 0.929379 0.708473
O O5 0.073370 0.609281 0.699458
O O6 0.198371 0.564192 0.413296
O O7 0.127586 0.394934 0.607855
O O8 0.712497 0.331635 0.840642
O O9 0.587510 0.344957 0.949475
O O10 0.629124 0.516869 0.981360
O O11 0.592201 0.320684 0.123922
O O12 0.028552 0.773749 0.886113
O O13 0.129253 0.822524 0.608143
O O14 0.000000 0.784653 0.750000
O O15 0.660930 0.264319 0.390114
O O16 0.969763 0.285656 0.632740
O O17 0.000000 0.648743 0.250000
#
# Coordination Sequence:
#
# PCOD8138401 Si02
#       8
#     8   8   8   8   8   8   8   8
#     4  10  21  38  63  98 116 159 208 259 312 368
#     4  10  22  36  64  93 124 156 204 260 315 365
#     4  10  21  38  60  88 120 165 209 243 307 366
#     4  10  23  39  60  92 122 164 208 256 306 367
#     4  10  20  37  64  87 125 160 198 259 311 355
#     4  10  21  39  67  87 125 166 208 246 311 370
#     4  10  21  37  59  91 126 163 204 253 301 371
#     4  10  22  39  60  87 128 158 207 259 296 374
#
# _framework density 20.764441999999999
#
# number of rings (size 3 to 8) (size 9 to 14) (size 15 to 20)
#    0.000    2.000    1.250    1.875    3.500    8.000 
#    0.000    6.250    2.750    0.000    0.000    0.000 
#    0.000    0.000    0.000    0.000    0.000    0.000 
#
# Total GULP energy -396732.408812 kJ/mol
# GULP energy per Si atom -12397.887775 kJ/mol
# Density = 2.071718 g / cm^3
# Si number density = 20.764442 Si / 1000 Ang^3
#
#
#
# Elastic Constant Matrix: (Units=GPa)
#
#
# Indices 1 2 3 4 5 6 
#
# 1 86.9549 35.7151 37.3595 0.0000 13.5394 0.0000
# 2 35.7151 127.4845 33.8704 0.0000 -0.1778 0.0000
# 3 37.3595 33.8704 116.2524 0.0000 13.9166 0.0000
# 4 0.0000 0.0000 0.0000 24.9134 0.0000 -4.6103
# 5 13.5394 -0.1778 13.9166 0.0000 25.2419 0.0000
# 6 0.0000 0.0000 0.0000 -4.6103 0.0000 20.5520
#
#
#
# Elastic Compliance Matrix: (Units=1/GPa)
#
#
# Indices 1 2 3 4 5 6 
#
# 1 0.015274 -0.003458 -0.003123 0.000000 -0.006495 0.000000
# 2 -0.003458 0.009341 -0.001970 0.000000 0.003007 0.000000
# 3 -0.003123 -0.001970 0.010686 0.000000 -0.004230 0.000000
# 4 0.000000 0.000000 0.000000 0.041877 0.000000 0.009394
# 5 -0.006495 0.003007 -0.004230 0.000000 0.045454 0.000000
# 6 0.000000 0.000000 0.000000 0.009394 0.000000 0.050764
#
#
# Mechanical properties :
#
#
# Convention : Reuss Voigt Hill
#
# Bulk Modulus (GPa) = 54.95349 60.50910 57.73130
# Shear Modulus (GPa) = 25.43688 29.05792 27.24740
#
# Velocity S-wave (km/s) = 3.50383 3.74492 3.62638
# Velocity P-wave (km/s) = 6.54918 6.92122 6.73777
#
# Compressibility (1/GPa) = 0.01819721
#
# Stress axis : x y z
#
# Youngs Moduli (GPa) = 65.47128 107.06051 93.57981
#
# Poissons Ratio (x) = 0.37024 0.29229
# Poissons Ratio (y) = 0.22642 0.18435
# Poissons Ratio (z) = 0.20449 0.21091
#
# Static dielectric constant tensor:
#      x y z
#    x 3.533720 0.000000 0.152930 
#    y 0.000000 3.750840 0.000000 
#    z 0.152930 0.000000 3.892090 
# 
# 
# High freq. dielectric constant tensor:
#      x y z
#    x 1.790930 0.000000 0.006740 
#    y 0.000000 1.809500 0.000000 
#    z 0.006740 0.000000 1.822850 
# 
# From -- ./inp_files/181760.got.cif
#   From: 2010.06.25/outbox.cif.g09.slc.cpg/sg15_91_cif.got.tgz:181760.got - 2010.06.28 07:06:18.
