data_PCOD8138799
_publ_section_title
;
Structure prediction by ZEFSAII (Michael W. Deem and Ramdas Pophale) SiO2 
 PCOD8138799
Probable space group: C 2/C
;
_chemical_formula_sum "Si O2"
_cell_formula_units_Z 60
_cell_length_a 19.551270
_cell_length_b 15.133195
_cell_length_c 13.999306
_cell_angle_alpha 90.000000
_cell_angle_beta 39.482904
_cell_angle_gamma 90.000000
_cell_volume 2633.694434
_symmetry_space_group_name_H-M "C 2/C"
_symmetry_group_IT_number 15
_symmetry_cell_setting 'monoclinic'
loop_
_space_group_symop_operation_xyz
x,y,z
-x,y,1/2-z
-x,-y,-z
x,-y,1/2+z
1/2+x,1/2+y,z
1/2-x,1/2+y,1/2-z
1/2-x,1/2-y,-z
1/2+x,1/2-y,1/2+z
loop_
_atom_site_type_symbol
_atom_site_label
_atom_site_fract_x
_atom_site_fract_y
_atom_site_fract_z
Si Si1 0.431003 0.568445 0.517684
Si Si2 0.173041 0.628340 0.420730
Si Si3 0.927362 0.365635 0.735014
Si Si4 0.895760 0.185438 0.240503
Si Si5 0.000000 0.677480 0.750000
Si Si6 0.174948 0.778471 0.261675
Si Si7 0.705740 0.005021 0.719280
Si Si8 0.611435 0.828701 0.401057
O O1 0.500000 0.500000 0.500000
O O2 0.506319 0.615494 0.357481
O O3 0.391577 0.634557 0.642984
O O4 0.333515 0.519309 0.567244
O O5 0.279956 0.637269 0.371345
O O6 0.063742 0.618931 0.602404
O O7 0.164704 0.714855 0.364573
O O8 0.183508 0.540941 0.345397
O O9 0.864235 0.271716 0.792729
O O10 0.843083 0.447119 0.815830
O O11 0.000000 0.371502 0.750000
O O12 0.005125 0.370518 0.559934
O O13 0.905905 0.259180 0.311048
O O14 0.912650 0.234614 0.120690
O O15 0.298628 0.809802 0.114312
O O16 0.652395 0.101856 0.777007
#
# Coordination Sequence:
#
# PCOD8138799 Si02
#       8
#     8   8   8   8   4   8   8   8
#     4  11  19  38  71  89 118 168 230 277 311 389
#     4  10  20  38  61  92 128 169 216 261 327 401
#     4  11  22  39  62  95 134 166 214 276 341 396
#     4  11  21  39  63  93 122 175 219 264 330 390
#     4  12  22  36  60  94 138 168 206 272 336 402
#     4   9  20  38  64  88 117 174 223 257 330 398
#     4  10  22  40  64  96 125 171 221 271 330 397
#     4  10  21  41  64  85 126 169 222 270 322 405
#
# _framework density 22.781685
#
# number of rings (size 3 to 8) (size 9 to 14) (size 15 to 20)
#    0.000    1.600    4.000    1.600    0.000    0.533 
#    4.800    0.000    1.467    0.000    0.000    0.000 
#    0.000    0.000    0.000    0.000    0.000    0.000 
#
# Total GULP energy -371898.255670 kJ/mol
# GULP energy per Si atom -12396.608522 kJ/mol
# Density = 2.272983 g / cm^3
# Si number density = 22.781685 Si / 1000 Ang^3
#
#
#
# Elastic Constant Matrix: (Units=GPa)
#
#
# Indices 1 2 3 4 5 6 
#
# 1 121.5633 40.0117 13.9799 0.0000 -26.1894 0.0000
# 2 40.0117 94.2214 20.8070 0.0000 -18.4172 0.0000
# 3 13.9799 20.8070 69.9110 0.0000 -24.7956 0.0000
# 4 0.0000 0.0000 0.0000 29.8699 0.0000 -13.6449
# 5 -26.1894 -18.4172 -24.7956 0.0000 36.8518 0.0000
# 6 0.0000 0.0000 0.0000 -13.6449 0.0000 39.9020
#
#
#
# Elastic Compliance Matrix: (Units=1/GPa)
#
#
# Indices 1 2 3 4 5 6 
#
# 1 0.010676 -0.003508 0.001285 0.000000 0.006699 0.000000
# 2 -0.003508 0.013102 -0.002311 0.000000 0.002500 0.000000
# 3 0.001285 -0.002311 0.019241 0.000000 0.012704 0.000000
# 4 0.000000 0.000000 0.000000 0.039676 0.000000 0.013568
# 5 0.006699 0.002500 0.012704 0.000000 0.041693 0.000000
# 6 0.000000 0.000000 0.000000 0.013568 0.000000 0.029701
#
#
# Mechanical properties :
#
#
# Convention : Reuss Voigt Hill
#
# Bulk Modulus (GPa) = 29.45511 48.36587 38.91049
# Shear Modulus (GPa) = 28.65733 35.38454 32.02094
#
# Velocity S-wave (km/s) = 3.55055 3.94534 3.75314
# Velocity P-wave (km/s) = 5.45582 6.48310 5.99151
#
# Compressibility (1/GPa) = 0.03394996
#
# Stress axis : x y z
#
# Youngs Moduli (GPa) = 93.66615 76.32382 51.97329
#
# Poissons Ratio (x) = 0.26775 -0.06679
# Poissons Ratio (y) = 0.32859 0.12013
# Poissons Ratio (z) = -0.12036 0.17641
#
# Static dielectric constant tensor:
#      x y z
#    x 4.405710 0.000000 -0.611350 
#    y 0.000000 4.258250 0.000000 
#    z -0.611350 0.000000 3.964050 
# 
# 
# High freq. dielectric constant tensor:
#      x y z
#    x 1.900390 0.000000 -0.042660 
#    y 0.000000 1.899450 0.000000 
#    z -0.042660 0.000000 1.872920 
# 
# From -- ./inp_files/168613.got.cif
#   From: 2010.06.25/outbox.cif.g09.slc.cpg/sg15_85_cif.got.tgz:168613.got - 2010.06.28 07:06:18.
