data_PCOD8138644
_publ_section_title
;
Structure prediction by ZEFSAII (Michael W. Deem and Ramdas Pophale) SiO2 
 PCOD8138644
Probable space group: C 2/C
;
_chemical_formula_sum "Si O2"
_cell_formula_units_Z 56
_cell_length_a 14.941464
_cell_length_b 7.069634
_cell_length_c 25.525852
_cell_angle_alpha 90.000000
_cell_angle_beta 99.395685
_cell_angle_gamma 90.000000
_cell_volume 2660.140653
_symmetry_space_group_name_H-M "C 2/C"
_symmetry_group_IT_number 15
_symmetry_cell_setting 'monoclinic'
loop_
_space_group_symop_operation_xyz
x,y,z
-x,y,1/2-z
-x,-y,-z
x,-y,1/2+z
1/2+x,1/2+y,z
1/2-x,1/2+y,1/2-z
1/2-x,1/2-y,-z
1/2+x,1/2-y,1/2+z
loop_
_atom_site_type_symbol
_atom_site_label
_atom_site_fract_x
_atom_site_fract_y
_atom_site_fract_z
Si Si1 0.674978 0.158074 0.700717
Si Si2 0.482401 0.085195 0.646627
Si Si3 0.229717 0.370050 0.622441
Si Si4 0.393960 0.411178 0.578782
Si Si5 0.129047 0.368224 0.505565
Si Si6 0.208792 0.478016 0.317673
Si Si7 0.037589 0.316270 0.944341
O O1 0.734320 0.327633 0.681127
O O2 0.564637 0.169037 0.690129
O O3 0.689434 0.972001 0.668289
O O4 0.709880 0.129450 0.762494
O O5 0.396177 0.010863 0.672857
O O6 0.509703 0.906110 0.612340
O O7 0.466071 0.256727 0.604774
O O8 0.330184 0.454075 0.622421
O O9 0.179552 0.409045 0.563774
O O10 0.234641 0.146703 0.635443
O O11 0.335263 0.310426 0.525781
O O12 0.438740 0.601499 0.564417
O O13 0.126150 0.558337 0.469045
O O14 0.026770 0.310867 0.511494
#
# Coordination Sequence:
#
# PCOD8138644 Si02
#       7
#     8   8   8   8   8   8   8
#     4  12  23  43  68  88 127 171 209 275 331 378
#     4  10  23  41  65  95 126 166 212 264 324 387
#     4  11  23  41  62  93 126 165 217 261 324 387
#     4  10  22  38  62  94 129 164 212 259 313 396
#     4  10  21  36  60  91 129 165 209 262 313 386
#     4  11  25  43  65  93 126 164 218 275 322 389
#     4  10  20  38  59  92 129 162 210 259 313 389
#
# _framework density 21.05152
#
# number of rings (size 3 to 8) (size 9 to 14) (size 15 to 20)
#    0.000    1.429    2.857    2.143    2.000    1.714 
#    0.000    0.000    0.000    0.000    0.000    0.000 
#    0.000    0.000    0.000    0.000    0.000    0.000 
#
# Total GULP energy -346916.302231 kJ/mol
# GULP energy per Si atom -12389.867937 kJ/mol
# Density = 2.100361 g / cm^3
# Si number density = 21.051520 Si / 1000 Ang^3
#
#
#
# Elastic Constant Matrix: (Units=GPa)
#
#
# Indices 1 2 3 4 5 6 
#
# 1 74.0827 32.7734 9.5860 0.0000 -8.6431 0.0000
# 2 32.7734 97.7267 15.2028 0.0000 -2.5712 0.0000
# 3 9.5860 15.2028 71.4899 0.0000 2.1912 0.0000
# 4 0.0000 0.0000 0.0000 27.8362 0.0000 -8.8199
# 5 -8.6431 -2.5712 2.1912 0.0000 34.8975 0.0000
# 6 0.0000 0.0000 0.0000 -8.8199 0.0000 30.4920
#
#
#
# Elastic Compliance Matrix: (Units=1/GPa)
#
#
# Indices 1 2 3 4 5 6 
#
# 1 0.016398 -0.005213 -0.001205 0.000000 0.003753 0.000000
# 2 -0.005213 0.012270 -0.001902 0.000000 -0.000268 0.000000
# 3 -0.001205 -0.001902 0.014596 0.000000 -0.001355 0.000000
# 4 0.000000 0.000000 0.000000 0.039549 0.000000 0.011440
# 5 0.003753 -0.000268 -0.001355 0.000000 0.029650 0.000000
# 6 0.000000 0.000000 0.000000 0.011440 0.000000 0.036104
#
#
# Mechanical properties :
#
#
# Convention : Reuss Voigt Hill
#
# Bulk Modulus (GPa) = 37.56154 39.82487 38.69321
# Shear Modulus (GPa) = 28.72199 31.02761 29.87480
#
# Velocity S-wave (km/s) = 3.69774 3.84329 3.77122
# Velocity P-wave (km/s) = 6.00936 6.21719 6.11416
#
# Compressibility (1/GPa) = 0.02662298
#
# Stress axis : x y z
#
# Youngs Moduli (GPa) = 60.98129 81.50148 68.51376
#
# Poissons Ratio (x) = 0.42488 0.08258
# Poissons Ratio (y) = 0.31790 0.13031
# Poissons Ratio (z) = 0.07350 0.15502
#
# Static dielectric constant tensor:
#      x y z
#    x 4.008490 0.000000 -0.210290 
#    y 0.000000 3.712240 0.000000 
#    z -0.210290 0.000000 3.940140 
# 
# 
# High freq. dielectric constant tensor:
#      x y z
#    x 1.826420 0.000000 -0.015090 
#    y 0.000000 1.816350 0.000000 
#    z -0.015090 0.000000 1.831680 
# 
# From -- ./inp_files/297777.got.cif
#   From: 2010.06.25/outbox.cif.g09.slc.cpg/sg15_149_cif.got.tgz:297777.got - 2010.06.28 07:06:18.
