data_PCOD8138842
_publ_section_title
;
Structure prediction by ZEFSAII (Michael W. Deem and Ramdas Pophale) SiO2 
 PCOD8138842
Probable space group: C 2/C
;
_chemical_formula_sum "Si O2"
_cell_formula_units_Z 56
_cell_length_a 21.302485
_cell_length_b 9.708006
_cell_length_c 13.968924
_cell_angle_alpha 90.000000
_cell_angle_beta 74.576356
_cell_angle_gamma 90.000000
_cell_volume 2784.799079
_symmetry_space_group_name_H-M "C 2/C"
_symmetry_group_IT_number 15
_symmetry_cell_setting 'monoclinic'
loop_
_space_group_symop_operation_xyz
x,y,z
-x,y,1/2-z
-x,-y,-z
x,-y,1/2+z
1/2+x,1/2+y,z
1/2-x,1/2+y,1/2-z
1/2-x,1/2-y,-z
1/2+x,1/2-y,1/2+z
loop_
_atom_site_type_symbol
_atom_site_label
_atom_site_fract_x
_atom_site_fract_y
_atom_site_fract_z
Si Si1 0.178608 0.853740 0.546556
Si Si2 0.579831 0.011302 0.363539
Si Si3 0.051271 0.371004 0.559068
Si Si4 0.362505 0.065498 0.853053
Si Si5 0.763367 0.333735 0.856044
Si Si6 0.151266 0.150726 0.548159
Si Si7 0.793767 0.322718 0.630161
O O1 0.149067 0.723638 0.614475
O O2 0.186278 0.820998 0.429686
O O3 0.247646 0.894609 0.568599
O O4 0.135010 0.990355 0.573242
O O5 0.522404 0.124419 0.370359
O O6 0.643710 0.083433 0.379185
O O7 0.551219 0.894728 0.445053
O O8 0.594588 0.934501 0.259575
O O9 0.096428 0.492323 0.581476
O O10 0.081100 0.222095 0.569215
O O11 0.294829 0.983834 0.862492
O O12 0.809686 0.214527 0.878657
O O13 0.756144 0.299876 0.745771
O O14 0.692627 0.327836 0.933621
#
# Coordination Sequence:
#
# PCOD8138842 Si02
#       7
#     8   8   8   8   8   8   8
#     4  11  22  35  57  91 126 150 187 259 312 349
#     4  10  21  38  65  85 110 162 213 241 278 356
#     4  10  21  40  62  85 116 158 209 245 279 357
#     4  10  20  38  62  87 116 155 202 247 297 355
#     4   9  20  36  58  84 119 164 198 240 295 363
#     4  10  22  36  56  89 125 156 193 248 308 351
#     4  10  21  36  59  87 120 157 201 241 300 357
#
# _framework density 20.109171
#
# number of rings (size 3 to 8) (size 9 to 14) (size 15 to 20)
#    0.000    2.000    1.429    2.143    6.000    2.286 
#    0.000    0.714    0.000    5.143    0.000    0.000 
#    0.000    0.000    0.000    0.000    0.000    0.000 
#
# Total GULP energy -347104.695012 kJ/mol
# GULP energy per Si atom -12396.596250 kJ/mol
# Density = 2.006340 g / cm^3
# Si number density = 20.109171 Si / 1000 Ang^3
#
#
#
# Elastic Constant Matrix: (Units=GPa)
#
#
# Indices 1 2 3 4 5 6 
#
# 1 71.3935 36.9127 32.8083 0.0000 -13.2349 0.0000
# 2 36.9127 151.1615 42.7817 0.0000 -2.0992 0.0000
# 3 32.8083 42.7817 122.4972 0.0000 10.0619 0.0000
# 4 0.0000 0.0000 0.0000 15.2850 0.0000 -0.1512
# 5 -13.2349 -2.0992 10.0619 0.0000 23.3395 0.0000
# 6 0.0000 0.0000 0.0000 -0.1512 0.0000 19.1951
#
#
#
# Elastic Compliance Matrix: (Units=1/GPa)
#
#
# Indices 1 2 3 4 5 6 
#
# 1 0.020872 -0.003326 -0.005574 0.000000 0.013939 0.000000
# 2 -0.003326 0.007947 -0.001854 0.000000 -0.000372 0.000000
# 3 -0.005574 -0.001854 0.010965 0.000000 -0.008055 0.000000
# 4 0.000000 0.000000 0.000000 0.065429 0.000000 0.000515
# 5 0.013939 -0.000372 -0.008055 0.000000 0.054189 0.000000
# 6 0.000000 0.000000 0.000000 0.000515 0.000000 0.052101
#
#
# Mechanical properties :
#
#
# Convention : Reuss Voigt Hill
#
# Bulk Modulus (GPa) = 54.71280 63.33975 59.02628
# Shear Modulus (GPa) = 20.91154 27.06721 23.98937
#
# Velocity S-wave (km/s) = 3.22825 3.67279 3.45767
# Velocity P-wave (km/s) = 6.41579 7.03933 6.73478
#
# Compressibility (1/GPa) = 0.01827726
#
# Stress axis : x y z
#
# Youngs Moduli (GPa) = 47.91172 125.83049 91.19593
#
# Poissons Ratio (x) = 0.41848 0.50828
# Poissons Ratio (y) = 0.15934 0.16910
# Poissons Ratio (z) = 0.26704 0.23332
#
# Static dielectric constant tensor:
#      x y z
#    x 3.588210 0.000000 0.084470 
#    y 0.000000 3.449990 0.000000 
#    z 0.084470 0.000000 3.914270 
# 
# 
# High freq. dielectric constant tensor:
#      x y z
#    x 1.766700 0.000000 0.006880 
#    y 0.000000 1.765570 0.000000 
#    z 0.006880 0.000000 1.800220 
# 
# From -- ./inp_files/171809.got.cif
#   From: 2010.06.25/outbox.cif.g09.slc.cpg/sg15_86_cif.got.tgz:171809.got - 2010.06.28 07:06:18.
