data_PCOD8138774
_publ_section_title
;
Structure prediction by ZEFSAII (Michael W. Deem and Ramdas Pophale) SiO2 
 PCOD8138774
Probable space group: C 2/C
;
_chemical_formula_sum "Si O2"
_cell_formula_units_Z 48
_cell_length_a 10.386957
_cell_length_b 18.569741
_cell_length_c 22.988862
_cell_angle_alpha 90.000000
_cell_angle_beta 145.529886
_cell_angle_gamma 90.000000
_cell_volume 2509.631114
_symmetry_space_group_name_H-M "C 2/C"
_symmetry_group_IT_number 15
_symmetry_cell_setting 'monoclinic'
loop_
_space_group_symop_operation_xyz
x,y,z
-x,y,1/2-z
-x,-y,-z
x,-y,1/2+z
1/2+x,1/2+y,z
1/2-x,1/2+y,1/2-z
1/2-x,1/2-y,-z
1/2+x,1/2-y,1/2+z
loop_
_atom_site_type_symbol
_atom_site_label
_atom_site_fract_x
_atom_site_fract_y
_atom_site_fract_z
Si Si1 0.141114 0.676070 0.473791
Si Si2 0.294511 0.185302 0.441314
Si Si3 0.008073 0.058778 0.185319
Si Si4 0.094542 0.639507 0.224266
Si Si5 0.471150 0.389589 0.306325
Si Si6 0.393451 0.777611 0.335470
O O1 0.250000 0.750000 0.500000
O O2 0.308364 0.631600 0.575977
O O3 0.899513 0.688219 0.415902
O O4 0.103975 0.638231 0.397850
O O5 0.490751 0.203154 0.560260
O O6 0.204748 0.103686 0.421098
O O7 0.089169 0.244365 0.366387
O O8 0.225973 0.083436 0.231967
O O9 0.000000 0.079403 0.250000
O O10 0.021095 0.974290 0.180864
O O11 0.197522 0.718867 0.272544
O O12 0.000000 0.610443 0.250000
O O13 0.500000 0.368385 0.250000
O O14 0.236900 0.348665 0.239415
#
# Coordination Sequence:
#
# PCOD8138774 Si02
#       6
#     8   8   8   8   8   8
#     4  12  22  36  62  92 120 162 211 255 304 367
#     4  10  21  37  60  91 120 162 202 249 310 365
#     4  10  22  39  61  92 124 164 204 251 310 372
#     4  11  22  40  62  86 123 165 209 254 310 358
#     4  11  22  38  62  95 126 156 208 255 307 365
#     4  10  20  38  61  88 126 154 200 259 307 357
#
# _framework density 19.126317
#
# number of rings (size 3 to 8) (size 9 to 14) (size 15 to 20)
#    0.000    1.333    5.000    1.500    0.000    2.000 
#    0.000    2.500    0.000    0.000    0.000    0.000 
#    0.000    0.000    0.000    0.000    0.000    0.000 
#
# Total GULP energy -297423.542732 kJ/mol
# GULP energy per Si atom -12392.647614 kJ/mol
# Density = 1.908278 g / cm^3
# Si number density = 19.126317 Si / 1000 Ang^3
#
#
#
# Elastic Constant Matrix: (Units=GPa)
#
#
# Indices 1 2 3 4 5 6 
#
# 1 139.9103 53.7239 56.9568 0.0001 -2.5382 0.0000
# 2 53.7239 119.8429 54.8716 -0.0002 5.8514 -0.0002
# 3 56.9568 54.8716 128.1608 0.0006 -6.1967 0.0003
# 4 0.0001 -0.0002 0.0006 14.7470 0.0001 -5.3272
# 5 -2.5382 5.8514 -6.1967 0.0001 30.9555 0.0001
# 6 0.0000 -0.0002 0.0003 -5.3272 0.0001 20.3376
#
#
#
# Elastic Compliance Matrix: (Units=1/GPa)
#
#
# Indices 1 2 3 4 5 6 
#
# 1 0.009481 -0.002953 -0.002913 0.000000 0.000753 0.000000
# 2 -0.002953 0.011559 -0.003791 0.000000 -0.003186 0.000000
# 3 -0.002913 -0.003791 0.010848 -0.000001 0.002649 0.000000
# 4 0.000000 0.000000 -0.000001 0.074898 -0.000001 0.019618
# 5 0.000753 -0.003186 0.002649 -0.000001 0.033499 0.000000
# 6 0.000000 0.000000 0.000000 0.019618 0.000000 0.054309
#
#
# Mechanical properties :
#
#
# Convention : Reuss Voigt Hill
#
# Bulk Modulus (GPa) = 79.52144 79.89099 79.70622
# Shear Modulus (GPa) = 22.92546 28.03212 25.47879
#
# Velocity S-wave (km/s) = 3.46589 3.83251 3.65380
# Velocity P-wave (km/s) = 7.59498 7.83869 7.71780
#
# Compressibility (1/GPa) = 0.01257522
#
# Stress axis : x y z
#
# Youngs Moduli (GPa) = 105.47602 86.51024 92.18158
#
# Poissons Ratio (x) = 0.25549 0.26849
# Poissons Ratio (y) = 0.31150 0.34943
# Poissons Ratio (z) = 0.30721 0.32793
#
# Static dielectric constant tensor:
#      x y z
#    x 3.536280 0.000000 0.034710 
#    y 0.000000 3.414210 0.000000 
#    z 0.034710 0.000000 3.462280 
# 
# 
# High freq. dielectric constant tensor:
#      x y z
#    x 1.737580 0.000000 0.006290 
#    y 0.000000 1.738690 0.000000 
#    z 0.006290 0.000000 1.755460 
# 
# From -- ./inp_files/191948.got.cif
#   From: 2010.06.25/outbox.cif.g09.slc.cpg/sg15_96_cif.got.tgz:191948.got - 2010.06.28 07:06:18.
