data_PCOD8138407
_publ_section_title
;
Structure prediction by ZEFSAII (Michael W. Deem and Ramdas Pophale) SiO2 
 PCOD8138407
Probable space group: C 2/C
;
_chemical_formula_sum "Si O2"
_cell_formula_units_Z 52
_cell_length_a 12.782166
_cell_length_b 28.851644
_cell_length_c 9.078537
_cell_angle_alpha 90.000000
_cell_angle_beta 129.272367
_cell_angle_gamma 90.000000
_cell_volume 2591.871885
_symmetry_space_group_name_H-M "C 2/C"
_symmetry_group_IT_number 15
_symmetry_cell_setting 'monoclinic'
loop_
_space_group_symop_operation_xyz
x,y,z
-x,y,1/2-z
-x,-y,-z
x,-y,1/2+z
1/2+x,1/2+y,z
1/2-x,1/2+y,1/2-z
1/2-x,1/2-y,-z
1/2+x,1/2-y,1/2+z
loop_
_atom_site_type_symbol
_atom_site_label
_atom_site_fract_x
_atom_site_fract_y
_atom_site_fract_z
Si Si1 0.221589 0.700810 0.628445
Si Si2 0.519958 0.645446 0.603705
Si Si3 0.500000 0.503131 0.750000
Si Si4 0.251347 0.696085 0.316981
Si Si5 0.485069 0.147161 0.562704
Si Si6 0.643817 0.554910 0.620973
Si Si7 0.540034 0.954035 0.120878
O O1 0.377578 0.688488 0.797275
O O2 0.189743 0.697795 0.426132
O O3 0.199711 0.751865 0.677078
O O4 0.124373 0.664354 0.618051
O O5 0.500000 0.625023 0.750000
O O6 0.378250 0.662145 0.411455
O O7 0.579533 0.605917 0.551392
O O8 0.597650 0.532911 0.733834
O O9 0.402317 0.472771 0.562750
O O10 0.138628 0.678097 0.104076
O O11 0.500000 0.151960 0.750000
O O12 0.462212 0.092861 0.498316
O O13 0.803699 0.557398 0.760411
O O14 0.500000 0.965437 0.250000
O O15 0.500000 0.000000 0.000000
#
# Coordination Sequence:
#
# PCOD8138407 Si02
#       7
#     8   8   4   8   8   8   8
#     4  10  20  42  64  91 124 162 211 263 303 373
#     4  10  20  37  64  90 124 157 203 262 312 365
#     4  10  24  36  66  88 120 156 206 258 318 368
#     4  10  22  38  67  94 119 164 214 254 315 375
#     4  11  24  40  61  92 132 163 202 260 319 382
#     4  11  21  42  60  91 121 161 203 262 310 377
#     4  11  25  43  63  88 126 170 215 262 313 383
#
# _framework density 20.062721
#
# number of rings (size 3 to 8) (size 9 to 14) (size 15 to 20)
#    0.000    1.538    2.308    2.308    0.000    9.231 
#    0.000    0.000    0.000    0.000    0.000    0.000 
#    0.000    0.000    0.000    0.000    0.000    0.000 
#
# Total GULP energy -322428.304932 kJ/mol
# GULP energy per Si atom -12401.088651 kJ/mol
# Density = 2.001706 g / cm^3
# Si number density = 20.062721 Si / 1000 Ang^3
#
#
#
# Elastic Constant Matrix: (Units=GPa)
#
#
# Indices 1 2 3 4 5 6 
#
# 1 92.3475 42.6993 40.2135 0.0000 4.1197 0.0000
# 2 42.6993 149.0507 57.0208 0.0000 -6.8225 0.0000
# 3 40.2135 57.0208 101.3661 0.0000 6.1346 0.0000
# 4 0.0000 0.0000 0.0000 -70.9868 0.0000 88.8161
# 5 4.1197 -6.8225 6.1346 0.0000 30.0848 0.0000
# 6 0.0000 0.0000 0.0000 88.8161 0.0000 -48.4755
#
#
#
# Elastic Compliance Matrix: (Units=1/GPa)
#
#
# Indices 1 2 3 4 5 6 
#
# 1 0.013786 -0.002511 -0.003957 0.000000 -0.001651 0.000000
# 2 -0.002511 0.009274 -0.004423 0.000000 0.003349 0.000000
# 3 -0.003957 -0.004423 0.014125 0.000000 -0.003342 0.000000
# 4 0.000000 0.000000 0.000000 0.010900 0.000000 0.019971
# 5 -0.001651 0.003349 -0.003342 0.000000 0.034906 0.000000
# 6 0.000000 0.000000 0.000000 0.019971 0.000000 0.015962
#
#
# Mechanical properties :
#
#
# Convention : Reuss Voigt Hill
#
# Bulk Modulus (GPa) = 64.92160 69.18128 67.05144
# Shear Modulus (GPa) = 39.72304 -4.35347 17.68479
#
# Velocity S-wave (km/s) = 4.45448 -1.47467 2.97219
# Velocity P-wave (km/s) = 7.67373 5.62653 6.72845
#
# Compressibility (1/GPa) = 0.01540319
#
# Stress axis : x y z
#
# Youngs Moduli (GPa) = 72.53489 107.82830 70.79478
#
# Poissons Ratio (x) = 0.27079 0.28012
# Poissons Ratio (y) = 0.18216 0.31314
# Poissons Ratio (z) = 0.28700 0.47695
#
# Static dielectric constant tensor:
#      x y z
#    x 3.719010 0.000000 -0.013870 
#    y 0.000000 3.808600 0.000000 
#    z -0.013870 0.000000 3.422080 
# 
# 
# High freq. dielectric constant tensor:
#      x y z
#    x 1.792920 0.000000 0.006020 
#    y 0.000000 1.800310 0.000000 
#    z 0.006020 0.000000 1.768380 
# 
# From -- ./inp_files/34415.got.cif
#   From: 2010.06.25/outbox.cif.g09.slc.cpg/sg15_18_cif.got.tgz:34415.got - 2010.06.28 07:06:18.
