data_PCOD8138818
_publ_section_title
;
Structure prediction by ZEFSAII (Michael W. Deem and Ramdas Pophale) SiO2 
 PCOD8138818
Probable space group: C 2/C
;
_chemical_formula_sum "Si O2"
_cell_formula_units_Z 60
_cell_length_a 8.820806
_cell_length_b 11.524979
_cell_length_c 29.819213
_cell_angle_alpha 90.000000
_cell_angle_beta 70.411545
_cell_angle_gamma 90.000000
_cell_volume 2855.966645
_symmetry_space_group_name_H-M "C 2/C"
_symmetry_group_IT_number 15
_symmetry_cell_setting 'monoclinic'
loop_
_space_group_symop_operation_xyz
x,y,z
-x,y,1/2-z
-x,-y,-z
x,-y,1/2+z
1/2+x,1/2+y,z
1/2-x,1/2+y,1/2-z
1/2-x,1/2-y,-z
1/2+x,1/2-y,1/2+z
loop_
_atom_site_type_symbol
_atom_site_label
_atom_site_fract_x
_atom_site_fract_y
_atom_site_fract_z
Si Si1 0.991302 0.758189 0.507121
Si Si2 0.744127 0.766420 0.220172
Si Si3 0.804759 0.838254 0.937032
Si Si4 0.569958 0.603902 0.169279
Si Si5 0.937345 0.845743 0.350544
Si Si6 0.000000 0.456232 0.250000
Si Si7 0.696031 0.151615 0.197091
Si Si8 0.801444 0.900760 0.459412
O O1 0.041417 0.783274 0.553304
O O2 0.146391 0.736749 0.460904
O O3 0.897080 0.866360 0.494831
O O4 0.878572 0.646684 0.520112
O O5 0.627443 0.672448 0.207722
O O6 0.640608 0.870235 0.253581
O O7 0.844386 0.705687 0.249958
O O8 0.872854 0.818904 0.172747
O O9 0.833328 0.841123 0.881465
O O10 0.781060 0.963134 0.961179
O O11 0.607615 0.466660 0.169981
O O12 0.381708 0.616632 0.178589
O O13 0.833739 0.741746 0.339684
O O14 0.896656 0.852243 0.406869
O O15 0.919265 0.537584 0.296688
#
# Coordination Sequence:
#
# PCOD8138818 Si02
#       8
#     8   8   8   8   8   4   8   8
#     4  10  20  38  62  84 120 148 190 230 290 344
#     4  12  24  40  60  85 117 156 195 240 289 343
#     4  10  21  38  60  88 115 152 188 237 284 345
#     4  11  24  39  61  87 119 151 197 240 290 339
#     4  11  24  39  61  87 119 151 197 240 290 339
#     4  12  24  40  60  84 116 154 198 240 288 342
#     4  12  24  40  60  85 117 156 195 240 289 343
#     4  10  21  38  60  88 115 152 188 237 284 345
#
# _framework density 21.008647
#
# number of rings (size 3 to 8) (size 9 to 14) (size 15 to 20)
#    0.000    1.067    4.000    2.400    1.867    1.067 
#    0.000    0.000    2.933    0.000    0.000    0.000 
#    0.000    0.000    0.000    0.000    0.000    0.000 
#
# Total GULP energy -372011.703068 kJ/mol
# GULP energy per Si atom -12400.390102 kJ/mol
# Density = 2.096083 g / cm^3
# Si number density = 21.008647 Si / 1000 Ang^3
#
#
#
# Elastic Constant Matrix: (Units=GPa)
#
#
# Indices 1 2 3 4 5 6 
#
# 1 104.0968 30.7740 7.6936 0.0000 -9.4695 0.0000
# 2 30.7740 77.5934 12.9102 0.0000 16.3714 0.0000
# 3 7.6936 12.9102 35.1002 0.0000 -3.9853 0.0000
# 4 0.0000 0.0000 0.0000 34.3882 0.0000 -4.8946
# 5 -9.4695 16.3714 -3.9853 0.0000 42.6588 0.0000
# 6 0.0000 0.0000 0.0000 -4.8946 0.0000 23.8212
#
#
#
# Elastic Compliance Matrix: (Units=1/GPa)
#
#
# Indices 1 2 3 4 5 6 
#
# 1 0.011711 -0.005662 0.000058 0.000000 0.004778 0.000000
# 2 -0.005662 0.018050 -0.006395 0.000000 -0.008782 0.000000
# 3 0.000058 -0.006395 0.031443 0.000000 0.005405 0.000000
# 4 0.000000 0.000000 0.000000 0.029956 0.000000 0.006155
# 5 0.004778 -0.008782 0.005405 0.000000 0.028378 0.000000
# 6 0.000000 0.000000 0.000000 0.006155 0.000000 0.043244
#
#
# Mechanical properties :
#
#
# Convention : Reuss Voigt Hill
#
# Bulk Modulus (GPa) = 26.87755 35.50513 31.19134
# Shear Modulus (GPa) = 25.10270 31.20114 28.15192
#
# Velocity S-wave (km/s) = 3.46045 3.85795 3.66459
# Velocity P-wave (km/s) = 5.36541 6.06482 5.72580
#
# Compressibility (1/GPa) = 0.03720577
#
# Stress axis : x y z
#
# Youngs Moduli (GPa) = 85.39156 55.40076 31.80363
#
# Poissons Ratio (x) = 0.31370 -0.00185
# Poissons Ratio (y) = 0.48352 0.20339
# Poissons Ratio (z) = -0.00498 0.35429
#
# Static dielectric constant tensor:
#      x y z
#    x 3.744980 0.000000 -0.159970 
#    y 0.000000 3.909310 0.000000 
#    z -0.159970 0.000000 3.641770 
# 
# 
# High freq. dielectric constant tensor:
#      x y z
#    x 1.832490 0.000000 -0.018730 
#    y 0.000000 1.832520 0.000000 
#    z -0.018730 0.000000 1.811060 
# 
# From -- ./inp_files/288022.got.cif
#   From: 2010.06.25/outbox.cif.g09.slc.cpg/sg15_145_cif.got.tgz:288022.got - 2010.06.28 07:06:18.
