data_PCOD8138483
_publ_section_title
;
Structure prediction by ZEFSAII (Michael W. Deem and Ramdas Pophale) SiO2 
 PCOD8138483
Probable space group: C 2/C
;
_chemical_formula_sum "Si O2"
_cell_formula_units_Z 48
_cell_length_a 21.007441
_cell_length_b 9.915967
_cell_length_c 18.794002
_cell_angle_alpha 90.000000
_cell_angle_beta 37.202835
_cell_angle_gamma 90.000000
_cell_volume 2367.136544
_symmetry_space_group_name_H-M "C 2/C"
_symmetry_group_IT_number 15
_symmetry_cell_setting 'monoclinic'
loop_
_space_group_symop_operation_xyz
x,y,z
-x,y,1/2-z
-x,-y,-z
x,-y,1/2+z
1/2+x,1/2+y,z
1/2-x,1/2+y,1/2-z
1/2-x,1/2-y,-z
1/2+x,1/2-y,1/2+z
loop_
_atom_site_type_symbol
_atom_site_label
_atom_site_fract_x
_atom_site_fract_y
_atom_site_fract_z
Si Si1 0.213319 0.354661 0.974090
Si Si2 0.806735 0.198922 0.236066
Si Si3 0.641073 0.590236 0.859202
Si Si4 0.320076 0.378025 0.424877
Si Si5 0.486769 0.432469 0.161896
Si Si6 0.477374 0.288199 0.906556
O O1 0.266718 0.334285 0.850654
O O2 0.238098 0.501139 0.983467
O O3 0.250000 0.250000 0.000000
O O4 0.086745 0.330601 0.075878
O O5 0.733110 0.302576 0.258862
O O6 0.921891 0.270746 0.140735
O O7 0.812025 0.060476 0.186470
O O8 0.543110 0.605383 0.892303
O O9 0.599844 0.624526 0.973981
O O10 0.250000 0.250000 0.500000
O O11 0.401223 0.359266 0.287665
O O12 0.392436 0.392659 0.430738
O O13 0.477440 0.594443 0.185987
#
# Coordination Sequence:
#
# PCOD8138483 Si02
#       6
#     8   8   8   8   8   8
#     4  11  21  39  63  91 120 161 219 255 294 373
#     4  10  21  40  58  92 122 161 200 263 307 363
#     4  10  21  38  62  89 120 157 211 243 313 373
#     4  11  23  39  62  92 123 163 202 251 319 364
#     4  10  20  40  63  82 125 167 193 249 312 370
#     4  10  20  37  66  91 110 167 211 244 312 367
#
# _framework density 20.277664000000001
#
# number of rings (size 3 to 8) (size 9 to 14) (size 15 to 20)
#    0.000    1.667    5.000    2.000    0.000    3.333 
#    3.000    3.333    0.000    0.000    0.000    0.000 
#    0.000    0.000    0.000    0.000    0.000    0.000 
#
# Total GULP energy -297400.501690 kJ/mol
# GULP energy per Si atom -12391.687570 kJ/mol
# Density = 2.023151 g / cm^3
# Si number density = 20.277664 Si / 1000 Ang^3
#
#
#
# Elastic Constant Matrix: (Units=GPa)
#
#
# Indices 1 2 3 4 5 6 
#
# 1 98.1233 63.2322 23.2059 0.0000 -37.3045 0.0000
# 2 63.2322 122.5740 47.1224 -0.0002 -34.8925 0.0001
# 3 23.2059 47.1224 66.1072 -0.0001 -26.3916 0.0000
# 4 0.0000 -0.0002 -0.0001 41.1707 0.0000 -9.1566
# 5 -37.3045 -34.8925 -26.3916 0.0000 45.9104 0.0000
# 6 0.0000 0.0001 0.0000 -9.1566 0.0000 32.9071
#
#
#
# Elastic Compliance Matrix: (Units=1/GPa)
#
#
# Indices 1 2 3 4 5 6 
#
# 1 0.018642 -0.007748 0.003472 0.000000 0.011255 0.000000
# 2 -0.007748 0.015464 -0.007949 0.000000 0.000888 0.000000
# 3 0.003472 -0.007949 0.023736 0.000000 0.010425 0.000000
# 4 0.000000 0.000000 0.000000 0.025891 0.000000 0.007204
# 5 0.011255 0.000888 0.010425 0.000000 0.037594 0.000000
# 6 0.000000 0.000000 0.000000 0.007204 0.000000 0.032393
#
#
# Mechanical properties :
#
#
# Convention : Reuss Voigt Hill
#
# Bulk Modulus (GPa) = 29.94657 61.54726 45.74692
# Shear Modulus (GPa) = 26.41320 34.21391 30.31356
#
# Velocity S-wave (km/s) = 3.61304 4.11210 3.87062
# Velocity P-wave (km/s) = 5.67501 7.27763 6.52570
#
# Compressibility (1/GPa) = 0.03339281
#
# Stress axis : x y z
#
# Youngs Moduli (GPa) = 53.64316 64.66799 42.13048
#
# Poissons Ratio (x) = 0.50102 -0.14628
# Poissons Ratio (y) = 0.41560 0.33488
# Poissons Ratio (z) = -0.18625 0.51402
#
# Static dielectric constant tensor:
#      x y z
#    x 4.595630 0.000000 -0.781100 
#    y 0.000000 2.967940 0.000000 
#    z -0.781100 0.000000 4.204610 
# 
# 
# High freq. dielectric constant tensor:
#      x y z
#    x 1.803800 0.000000 -0.013570 
#    y 0.000000 1.765000 0.000000 
#    z -0.013570 0.000000 1.794650 
# 
# From -- ./inp_files/252501.got.cif
#   From: 2010.06.25/outbox.cif.g09.slc.cpg/sg15_127_cif.got.tgz:252501.got - 2010.06.28 07:06:18.
