data_PCOD8138610
_publ_section_title
;
Structure prediction by ZEFSAII (Michael W. Deem and Ramdas Pophale) SiO2 
 PCOD8138610
Probable space group: C 2/C
;
_chemical_formula_sum "Si O2"
_cell_formula_units_Z 48
_cell_length_a 22.298528
_cell_length_b 9.362654
_cell_length_c 13.872774
_cell_angle_alpha 90.000000
_cell_angle_beta 118.133919
_cell_angle_gamma 90.000000
_cell_volume 2554.066214
_symmetry_space_group_name_H-M "C 2/C"
_symmetry_group_IT_number 15
_symmetry_cell_setting 'monoclinic'
loop_
_space_group_symop_operation_xyz
x,y,z
-x,y,1/2-z
-x,-y,-z
x,-y,1/2+z
1/2+x,1/2+y,z
1/2-x,1/2+y,1/2-z
1/2-x,1/2-y,-z
1/2+x,1/2-y,1/2+z
loop_
_atom_site_type_symbol
_atom_site_label
_atom_site_fract_x
_atom_site_fract_y
_atom_site_fract_z
Si Si1 0.920682 0.577292 0.196952
Si Si2 0.810420 0.089933 0.098488
Si Si3 0.325256 0.297811 0.027262
Si Si4 0.836853 0.559467 0.315763
Si Si5 0.297251 0.270624 0.790952
Si Si6 0.845109 0.635516 0.527497
O O1 0.897659 0.589819 0.289139
O O2 0.898966 0.419543 0.146601
O O3 0.000000 0.605148 0.250000
O O4 0.881397 0.683238 0.096781
O O5 0.827063 0.147442 0.219149
O O6 0.839224 0.195676 0.038708
O O7 0.730084 0.066845 0.019062
O O8 0.845410 0.939354 0.102485
O O9 0.332900 0.319672 0.917379
O O10 0.250000 0.250000 0.000000
O O11 0.781047 0.683249 0.257910
O O12 0.803598 0.400933 0.281501
O O13 0.872899 0.588671 0.444798
#
# Coordination Sequence:
#
# PCOD8138610 Si02
#       6
#     8   8   8   8   8   8
#     4  12  25  41  60  90 132 176 206 246 316 385
#     4  10  21  35  64  92 126 150 207 267 319 352
#     4  12  21  39  62  90 125 160 212 266 306 361
#     4  11  22  36  63  95 124 158 211 258 319 361
#     4  11  21  35  63  96 122 154 204 271 317 354
#     4  10  20  38  58  93 117 161 202 263 306 363
#
# _framework density 18.793561
#
# number of rings (size 3 to 8) (size 9 to 14) (size 15 to 20)
#    0.000    1.000    6.667    1.000    4.667    0.667 
#    0.000    0.833    0.000    2.000    0.000    0.000 
#    0.000    0.000    0.000    0.000    0.000    0.000 
#
# Total GULP energy -297489.352044 kJ/mol
# GULP energy per Si atom -12395.389669 kJ/mol
# Density = 1.875079 g / cm^3
# Si number density = 18.793561 Si / 1000 Ang^3
#
#
#
# Elastic Constant Matrix: (Units=GPa)
#
#
# Indices 1 2 3 4 5 6 
#
# 1 93.8390 40.6330 50.2327 0.0000 -6.9895 0.0000
# 2 40.6330 80.8309 37.8589 0.0000 -13.0922 0.0000
# 3 50.2327 37.8589 103.0852 0.0000 -17.1703 0.0000
# 4 0.0000 0.0000 0.0000 32.9703 0.0000 -6.0539
# 5 -6.9895 -13.0922 -17.1703 0.0000 30.5163 0.0000
# 6 0.0000 0.0000 0.0000 -6.0539 0.0000 15.2569
#
#
#
# Elastic Compliance Matrix: (Units=1/GPa)
#
#
# Indices 1 2 3 4 5 6 
#
# 1 0.016255 -0.005610 -0.006225 0.000000 -0.002186 0.000000
# 2 -0.005610 0.017259 -0.002853 0.000000 0.004514 0.000000
# 3 -0.006225 -0.002853 0.014720 0.000000 0.005633 0.000000
# 4 0.000000 0.000000 0.000000 0.032714 0.000000 0.012981
# 5 -0.002186 0.004514 0.005633 0.000000 0.037375 0.000000
# 6 0.000000 0.000000 0.000000 0.012981 0.000000 0.070695
#
#
# Mechanical properties :
#
#
# Convention : Reuss Voigt Hill
#
# Bulk Modulus (GPa) = 53.02567 59.46713 56.24640
# Shear Modulus (GPa) = 22.25403 25.68409 23.96906
#
# Velocity S-wave (km/s) = 3.44485 3.70082 3.57513
# Velocity P-wave (km/s) = 6.64069 7.06912 6.85825
#
# Compressibility (1/GPa) = 0.01885879
#
# Stress axis : x y z
#
# Youngs Moduli (GPa) = 61.51955 57.94102 67.93490
#
# Poissons Ratio (x) = 0.32504 0.42288
# Poissons Ratio (y) = 0.34511 0.19381
# Poissons Ratio (z) = 0.38295 0.16530
#
# Static dielectric constant tensor:
#      x y z
#    x 3.126600 0.000000 -0.339540 
#    y 0.000000 3.599280 0.000000 
#    z -0.339540 0.000000 3.757270 
# 
# 
# High freq. dielectric constant tensor:
#      x y z
#    x 1.682140 0.000000 -0.036270 
#    y 0.000000 1.740540 0.000000 
#    z -0.036270 0.000000 1.737950 
# 
# From -- ./inp_files/166378.got.cif
#   From: 2010.06.25/outbox.cif.g09.slc.cpg/sg15_84_cif.got.tgz:166378.got - 2010.06.28 07:06:18.
