data_PCOD8138688
_publ_section_title
;
Structure prediction by ZEFSAII (Michael W. Deem and Ramdas Pophale) SiO2 
 PCOD8138688
Probable space group: C 2/C
;
_chemical_formula_sum "Si O2"
_cell_formula_units_Z 60
_cell_length_a 14.643152
_cell_length_b 20.320358
_cell_length_c 15.825415
_cell_angle_alpha 90.000000
_cell_angle_beta 39.514738
_cell_angle_gamma 90.000000
_cell_volume 2996.174066
_symmetry_space_group_name_H-M "C 2/C"
_symmetry_group_IT_number 15
_symmetry_cell_setting 'monoclinic'
loop_
_space_group_symop_operation_xyz
x,y,z
-x,y,1/2-z
-x,-y,-z
x,-y,1/2+z
1/2+x,1/2+y,z
1/2-x,1/2+y,1/2-z
1/2-x,1/2-y,-z
1/2+x,1/2-y,1/2+z
loop_
_atom_site_type_symbol
_atom_site_label
_atom_site_fract_x
_atom_site_fract_y
_atom_site_fract_z
Si Si1 0.432279 0.914742 0.620909
Si Si2 0.858871 0.145751 0.400663
Si Si3 0.498366 0.563318 0.560488
Si Si4 0.507359 0.695605 0.453348
Si Si5 0.281507 0.204426 0.155954
Si Si6 0.500000 0.940223 0.750000
Si Si7 0.209053 0.540738 0.847055
Si Si8 0.777743 0.998208 0.978823
O O1 0.319159 0.868333 0.658396
O O2 0.444307 0.895825 0.711704
O O3 0.587660 0.907942 0.464691
O O4 0.368632 0.988251 0.658552
O O5 0.762728 0.193788 0.410554
O O6 0.000000 0.123687 0.250000
O O7 0.894542 0.184730 0.459406
O O8 0.789857 0.079225 0.485618
O O9 0.500000 0.500000 0.500000
O O10 0.548240 0.629639 0.476553
O O11 0.335265 0.577435 0.706458
O O12 0.603797 0.545870 0.562749
O O13 0.419774 0.748648 0.572151
O O14 0.650537 0.727720 0.309973
O O15 0.622698 0.986354 0.625845
O O16 0.284453 0.507339 0.873558
#
# Coordination Sequence:
#
# PCOD8138688 Si02
#       8
#     8   8   8   8   8   4   8   8
#     4  10  21  38  62  85 125 157 198 251 310 365
#     4  10  20  38  60  87 122 163 199 250 312 364
#     4  12  22  36  62  91 121 154 207 257 306 361
#     4  11  25  39  63  88 124 167 210 255 306 365
#     4  11  23  43  61  85 124 170 207 251 307 373
#     4  10  22  36  56  94 120 154 198 246 316 362
#     4  10  21  36  61  93 116 157 198 249 310 368
#     4  11  20  36  60  91 125 154 195 256 308 369
#
# _framework density 20.025539999999999
#
# number of rings (size 3 to 8) (size 9 to 14) (size 15 to 20)
#    0.000    1.333    2.667    4.000    1.867    0.000 
#    2.400    0.000    2.933    2.400    0.000    0.000 
#    0.000    0.000    0.000    0.000    0.000    0.000 
#
# Total GULP energy -371897.307521 kJ/mol
# GULP energy per Si atom -12396.576917 kJ/mol
# Density = 1.997996 g / cm^3
# Si number density = 20.025540 Si / 1000 Ang^3
#
#
#
# Elastic Constant Matrix: (Units=GPa)
#
#
# Indices 1 2 3 4 5 6 
#
# 1 89.9796 5.8868 21.0012 -0.0002 4.2633 -0.0004
# 2 5.8868 57.7098 21.6674 -0.0007 -4.5835 0.0004
# 3 21.0012 21.6674 92.0120 -0.0005 -0.1656 0.0005
# 4 -0.0002 -0.0007 -0.0005 22.8505 0.0001 -6.4102
# 5 4.2633 -4.5835 -0.1656 0.0001 26.9814 0.0001
# 6 -0.0004 0.0004 0.0005 -6.4102 0.0001 25.4446
#
#
#
# Elastic Compliance Matrix: (Units=1/GPa)
#
#
# Indices 1 2 3 4 5 6 
#
# 1 0.011842 -0.000381 -0.002617 0.000000 -0.001952 0.000000
# 2 -0.000381 0.019302 -0.004452 0.000000 0.003312 0.000000
# 3 -0.002617 -0.004452 0.012513 0.000000 -0.000266 0.000000
# 4 0.000000 0.000000 0.000000 0.047091 0.000000 0.011864
# 5 -0.001952 0.003312 -0.000266 0.000000 0.037932 0.000000
# 6 0.000000 0.000000 0.000000 0.011864 0.000000 0.042290
#
#
# Mechanical properties :
#
#
# Convention : Reuss Voigt Hill
#
# Bulk Modulus (GPa) = 34.77362 37.42360 36.09861
# Shear Modulus (GPa) = 25.58143 27.79838 26.68991
#
# Velocity S-wave (km/s) = 3.57801 3.72983 3.65470
# Velocity P-wave (km/s) = 5.87127 6.10551 5.98954
#
# Compressibility (1/GPa) = 0.02875743
#
# Stress axis : x y z
#
# Youngs Moduli (GPa) = 84.44707 51.80922 79.91440
#
# Poissons Ratio (x) = 0.01971 0.20911
# Poissons Ratio (y) = 0.03213 0.35581
# Poissons Ratio (z) = 0.22097 0.23068
#
# Static dielectric constant tensor:
#      x y z
#    x 3.874900 0.000000 0.054790 
#    y 0.000000 3.194040 0.000000 
#    z 0.054790 0.000000 3.874770 
# 
# 
# High freq. dielectric constant tensor:
#      x y z
#    x 1.789550 0.000000 -0.004970 
#    y 0.000000 1.743880 0.000000 
#    z -0.004970 0.000000 1.795380 
# 
# From -- ./inp_files/156334.got.cif
#   From: 2010.06.25/outbox.cif.g09.slc.cpg/sg15_79_cif.got.tgz:156334.got - 2010.06.28 07:06:18.
