data_PCOD8138000
_publ_section_title
;
Structure prediction by ZEFSAII (Michael W. Deem and Ramdas Pophale) SiO2 
 PCOD8138000
Probable space group: C 2/C
;
_chemical_formula_sum "Si O2"
_cell_formula_units_Z 48
_cell_length_a 29.450453
_cell_length_b 14.968852
_cell_length_c 8.909631
_cell_angle_alpha 90.000000
_cell_angle_beta 137.232554
_cell_angle_gamma 90.000000
_cell_volume 2667.015337
_symmetry_space_group_name_H-M "C 2/C"
_symmetry_group_IT_number 15
_symmetry_cell_setting 'monoclinic'
loop_
_space_group_symop_operation_xyz
x,y,z
-x,y,1/2-z
-x,-y,-z
x,-y,1/2+z
1/2+x,1/2+y,z
1/2-x,1/2+y,1/2-z
1/2-x,1/2-y,-z
1/2+x,1/2-y,1/2+z
loop_
_atom_site_type_symbol
_atom_site_label
_atom_site_fract_x
_atom_site_fract_y
_atom_site_fract_z
Si Si1 0.651631 0.006769 0.090465
Si Si2 0.792136 0.376070 0.023845
Si Si3 0.550898 0.754301 0.737479
Si Si4 0.438565 0.933912 0.876807
Si Si5 0.852356 0.799779 0.788766
Si Si6 0.480490 0.589912 0.534078
O O1 0.590388 0.054167 0.027634
O O2 0.693494 0.946252 0.307237
O O3 0.695735 0.081236 0.111430
O O4 0.619511 0.945342 0.885972
O O5 0.837981 0.286950 0.149117
O O6 0.714690 0.353932 0.845342
O O7 0.500000 0.773008 0.750000
O O8 0.541493 0.831547 0.593256
O O9 0.529772 0.666821 0.592029
O O10 0.622873 0.738479 0.989774
O O11 0.500000 0.000000 0.000000
O O12 0.904512 0.870463 0.839224
O O13 0.500000 0.569633 0.750000
O O14 0.500000 0.500000 0.500000
#
# Coordination Sequence:
#
# PCOD8138000 Si02
#       6
#     8   8   8   8   8   8
#     4  10  22  33  55  83 114 136 194 220 275 347
#     4  10  20  37  56  83 111 154 182 232 272 350
#     4   9  18  34  57  78 107 145 183 224 279 340
#     4  11  20  34  53  83 114 147 173 229 287 334
#     4   9  19  37  61  73 113 153 189 217 295 331
#     4   9  20  37  56  79 103 140 189 237 275 332
#
# _framework density 17.997646
#
# number of rings (size 3 to 8) (size 9 to 14) (size 15 to 20)
#    0.000    2.667    1.667    1.500    7.000    2.667 
#    3.000    0.833    0.000    0.000    0.000    0.000 
#    0.000    0.000    0.000    0.000    0.000    0.000 
#
# Total GULP energy -297326.244955 kJ/mol
# GULP energy per Si atom -12388.593540 kJ/mol
# Density = 1.795668 g / cm^3
# Si number density = 17.997646 Si / 1000 Ang^3
#
#
#
# Elastic Constant Matrix: (Units=GPa)
#
#
# Indices 1 2 3 4 5 6 
#
# 1 90.6263 71.2622 40.8566 0.0000 3.2650 0.0000
# 2 71.2622 162.5906 45.2963 0.0000 8.7044 0.0000
# 3 40.8566 45.2963 76.4359 0.0000 19.9601 0.0000
# 4 0.0000 0.0000 0.0000 26.2560 0.0000 -3.7668
# 5 3.2650 8.7044 19.9601 0.0000 25.2229 0.0000
# 6 0.0000 0.0000 0.0000 -3.7668 0.0000 38.6249
#
#
#
# Elastic Compliance Matrix: (Units=1/GPa)
#
#
# Indices 1 2 3 4 5 6 
#
# 1 0.019812 -0.006722 -0.008246 0.000000 0.006281 0.000000
# 2 -0.006722 0.009674 -0.001885 0.000000 -0.000977 0.000000
# 3 -0.008246 -0.001885 0.022889 0.000000 -0.016395 0.000000
# 4 0.000000 0.000000 0.000000 0.038627 0.000000 0.003767
# 5 0.006281 -0.000977 -0.016395 0.000000 0.052145 0.000000
# 6 0.000000 0.000000 0.000000 0.003767 0.000000 0.026257
#
#
# Mechanical properties :
#
#
# Convention : Reuss Voigt Hill
#
# Bulk Modulus (GPa) = 53.56670 71.60922 62.58796
# Shear Modulus (GPa) = 23.88543 29.50328 26.69436
#
# Velocity S-wave (km/s) = 3.64695 4.05320 3.85543
# Velocity P-wave (km/s) = 6.89648 7.85997 7.39393
#
# Compressibility (1/GPa) = 0.01866831
#
# Stress axis : x y z
#
# Youngs Moduli (GPa) = 50.47571 103.36961 43.68934
#
# Poissons Ratio (x) = 0.69487 0.36027
# Poissons Ratio (y) = 0.33931 0.08234
# Poissons Ratio (z) = 0.41624 0.19481
#
# Static dielectric constant tensor:
#      x y z
#    x 3.168090 0.000000 0.067050 
#    y 0.000000 3.753350 0.000000 
#    z 0.067050 0.000000 3.375670 
# 
# 
# High freq. dielectric constant tensor:
#      x y z
#    x 1.673980 0.000000 0.009690 
#    y 0.000000 1.709800 0.000000 
#    z 0.009690 0.000000 1.697310 
# 
# From -- ./inp_files/70002.got.cif
#   From: 2010.06.25/outbox.cif.g09.slc.cpg/sg15_36_cif.got.tgz:70002.got - 2010.06.28 07:06:18.
