data_PCOD8138871
_publ_section_title
;
Structure prediction by ZEFSAII (Michael W. Deem and Ramdas Pophale) SiO2 
 PCOD8138871
Probable space group: C 2/C
;
_chemical_formula_sum "Si O2"
_cell_formula_units_Z 48
_cell_length_a 9.649263
_cell_length_b 29.241347
_cell_length_c 16.296788
_cell_angle_alpha 90.000000
_cell_angle_beta 148.655103
_cell_angle_gamma 90.000000
_cell_volume 2391.962058
_symmetry_space_group_name_H-M "C 2/C"
_symmetry_group_IT_number 15
_symmetry_cell_setting 'monoclinic'
loop_
_space_group_symop_operation_xyz
x,y,z
-x,y,1/2-z
-x,-y,-z
x,-y,1/2+z
1/2+x,1/2+y,z
1/2-x,1/2+y,1/2-z
1/2-x,1/2-y,-z
1/2+x,1/2-y,1/2+z
loop_
_atom_site_type_symbol
_atom_site_label
_atom_site_fract_x
_atom_site_fract_y
_atom_site_fract_z
Si Si1 0.972032 0.213923 0.638199
Si Si2 0.349805 0.867446 0.588882
Si Si3 0.476068 0.732254 0.333528
Si Si4 0.930458 0.964274 0.809558
Si Si5 0.875134 0.135129 0.275895
Si Si6 0.623872 0.971117 0.898348
O O1 0.750000 0.250000 0.500000
O O2 0.898819 0.165679 0.557618
O O3 0.000000 0.208147 0.750000
O O4 0.249382 0.232046 0.743306
O O5 0.500000 0.853522 0.750000
O O6 0.254159 0.919924 0.545111
O O7 0.552503 0.863954 0.613894
O O8 0.500000 0.725168 0.250000
O O9 0.750000 0.750000 0.500000
O O10 0.449123 0.681797 0.361501
O O11 0.617837 0.977393 0.659074
O O12 0.000000 0.966803 0.750000
O O13 0.969395 0.912459 0.865936
O O14 0.125353 0.996927 0.957469
O O15 0.000000 0.135634 0.250000
O O16 0.500000 0.986224 0.750000
#
# Coordination Sequence:
#
# PCOD8138871 Si02
#       6
#     8   8   8   8   8   8
#     4  12  24  40  64  89 118 158 202 245 293 355
#     4  10  22  40  63  88 120 161 199 244 296 353
#     4  11  24  40  59  87 121 155 197 244 296 348
#     4  10  20  38  62  89 116 159 198 242 295 355
#     4   9  20  38  61  81 122 158 194 234 307 347
#     4  10  21  39  62  89 123 157 196 244 300 353
#
# _framework density 20.067208000000001
#
# number of rings (size 3 to 8) (size 9 to 14) (size 15 to 20)
#    0.000    1.667    1.667    2.500    4.667    0.667 
#    3.000    0.833    0.000    0.000    0.000    0.000 
#    0.000    0.000    0.000    0.000    0.000    0.000 
#
# Total GULP energy -297332.555277 kJ/mol
# GULP energy per Si atom -12388.856470 kJ/mol
# Density = 2.002153 g / cm^3
# Si number density = 20.067208 Si / 1000 Ang^3
#
#
#
# Elastic Constant Matrix: (Units=GPa)
#
#
# Indices 1 2 3 4 5 6 
#
# 1 77.2451 26.6095 21.8553 0.0000 10.1680 0.0000
# 2 26.6095 173.7500 91.0390 0.0000 0.3306 0.0000
# 3 21.8553 91.0390 122.9483 0.0000 4.7763 0.0000
# 4 0.0000 0.0000 0.0000 41.0833 0.0000 5.3091
# 5 10.1680 0.3306 4.7763 0.0000 38.1913 0.0000
# 6 0.0000 0.0000 0.0000 5.3091 0.0000 22.1477
#
#
#
# Elastic Compliance Matrix: (Units=1/GPa)
#
#
# Indices 1 2 3 4 5 6 
#
# 1 0.014308 -0.001513 -0.001282 0.000000 -0.003636 0.000000
# 2 -0.001513 0.009588 -0.006876 0.000000 0.001180 0.000000
# 3 -0.001282 -0.006876 0.013503 0.000000 -0.001288 0.000000
# 4 0.000000 0.000000 0.000000 0.025119 0.000000 -0.006021
# 5 -0.003636 0.001180 -0.001288 0.000000 0.027303 0.000000
# 6 0.000000 0.000000 0.000000 -0.006021 0.000000 0.046595
#
#
# Mechanical properties :
#
#
# Convention : Reuss Voigt Hill
#
# Bulk Modulus (GPa) = 55.38032 72.55012 63.96522
# Shear Modulus (GPa) = 30.90675 35.91378 33.41026
#
# Velocity S-wave (km/s) = 3.92875 4.23504 4.08477
# Velocity P-wave (km/s) = 6.94532 7.75540 7.36151
#
# Compressibility (1/GPa) = 0.01805696
#
# Stress axis : x y z
#
# Youngs Moduli (GPa) = 69.88982 104.29942 74.05658
#
# Poissons Ratio (x) = 0.15776 0.09496
# Poissons Ratio (y) = 0.10571 0.50924
# Poissons Ratio (z) = 0.08961 0.71720
#
# Static dielectric constant tensor:
#      x y z
#    x 4.101110 0.000000 0.342780 
#    y 0.000000 4.282660 0.000000 
#    z 0.342780 0.000000 3.497330 
# 
# 
# High freq. dielectric constant tensor:
#      x y z
#    x 1.797950 0.000000 0.019120 
#    y 0.000000 1.801880 0.000000 
#    z 0.019120 0.000000 1.755920 
# 
# From -- ./inp_files/194320.got.cif
#   From: 2010.06.25/outbox.cif.g09.slc.cpg/sg15_98_cif.got.tgz:194320.got - 2010.06.28 07:06:18.
