data_PCOD8138085
_publ_section_title
;
Structure prediction by ZEFSAII (Michael W. Deem and Ramdas Pophale) SiO2 
 PCOD8138085
Probable space group: C 2/C
;
_chemical_formula_sum "Si O2"
_cell_formula_units_Z 40
_cell_length_a 9.786342
_cell_length_b 18.479237
_cell_length_c 13.645516
_cell_angle_alpha 90.000000
_cell_angle_beta 121.224833
_cell_angle_gamma 90.000000
_cell_volume 2110.237979
_symmetry_space_group_name_H-M "C 2/C"
_symmetry_group_IT_number 15
_symmetry_cell_setting 'monoclinic'
loop_
_space_group_symop_operation_xyz
x,y,z
-x,y,1/2-z
-x,-y,-z
x,-y,1/2+z
1/2+x,1/2+y,z
1/2-x,1/2+y,1/2-z
1/2-x,1/2-y,-z
1/2+x,1/2-y,1/2+z
loop_
_atom_site_type_symbol
_atom_site_label
_atom_site_fract_x
_atom_site_fract_y
_atom_site_fract_z
Si Si1 0.409427 0.456017 0.818020
Si Si2 0.101769 0.630339 0.192667
Si Si3 0.345499 0.713290 0.762155
Si Si4 0.296036 0.829075 0.473360
Si Si5 0.505010 0.603449 0.552232
O O1 0.500000 0.451514 0.750000
O O2 0.226697 0.434449 0.724697
O O3 0.410848 0.535713 0.864165
O O4 0.493332 0.403809 0.930188
O O5 0.205682 0.704110 0.238350
O O6 0.000000 0.612765 0.250000
O O7 0.974936 0.643056 0.058686
O O8 0.500000 0.713176 0.750000
O O9 0.209856 0.673612 0.647475
O O10 0.384788 0.672445 0.878543
O O11 0.250000 0.750000 0.500000
O O12 0.174304 0.888004 0.472638
#
# Coordination Sequence:
#
# PCOD8138085 Si02
#       5
#     8   8   8   8   8
#     4  11  23  38  56  83 119 157 179 224 296 356
#     4  11  19  33  60  88 113 141 196 244 274 330
#     4   9  17  30  57  87 109 141 194 244 276 315
#     4  11  16  31  61  94 106 137 200 255 272 307
#     4  10  20  37  59  78 118 151 188 229 289 336
#
# _framework density 18.955207999999999
#
# number of rings (size 3 to 8) (size 9 to 14) (size 15 to 20)
#    0.000    1.600    8.000    1.800    0.000    0.000 
#    0.000    5.000    0.000    0.000    0.000    0.000 
#    0.000    0.000    0.000    0.000    0.000    0.000 
#
# Total GULP energy -247839.541374 kJ/mol
# GULP energy per Si atom -12391.977069 kJ/mol
# Density = 1.891207 g / cm^3
# Si number density = 18.955208 Si / 1000 Ang^3
#
#
#
# Elastic Constant Matrix: (Units=GPa)
#
#
# Indices 1 2 3 4 5 6 
#
# 1 50.8456 26.7714 38.0605 0.0000 8.7680 0.0000
# 2 26.7714 69.6475 20.1923 0.0000 15.5440 0.0000
# 3 38.0605 20.1923 122.4482 0.0000 14.1700 0.0000
# 4 0.0000 0.0000 0.0000 36.9863 0.0000 12.2904
# 5 8.7680 15.5440 14.1700 0.0000 29.6431 0.0000
# 6 0.0000 0.0000 0.0000 12.2904 0.0000 20.7924
#
#
#
# Elastic Compliance Matrix: (Units=1/GPa)
#
#
# Indices 1 2 3 4 5 6 
#
# 1 0.030601 -0.009389 -0.007924 0.000000 -0.000340 0.000000
# 2 -0.009389 0.019523 0.000595 0.000000 -0.007745 0.000000
# 3 -0.007924 0.000595 0.010899 0.000000 -0.003178 0.000000
# 4 0.000000 0.000000 0.000000 0.033646 0.000000 -0.019888
# 5 -0.000340 -0.007745 -0.003178 0.000000 0.039416 0.000000
# 6 0.000000 0.000000 0.000000 -0.019888 0.000000 0.059850
#
#
# Mechanical properties :
#
#
# Convention : Reuss Voigt Hill
#
# Bulk Modulus (GPa) = 36.24847 45.88773 41.06810
# Shear Modulus (GPa) = 21.13560 28.01219 24.57389
#
# Velocity S-wave (km/s) = 3.34283 3.84840 3.60449
# Velocity P-wave (km/s) = 5.83644 6.63385 6.24788
#
# Compressibility (1/GPa) = 0.02758737
#
# Stress axis : x y z
#
# Youngs Moduli (GPa) = 32.67830 51.22155 91.74818
#
# Poissons Ratio (x) = 0.48094 0.72702
# Poissons Ratio (y) = 0.30683 -0.05462
# Poissons Ratio (z) = 0.25895 -0.03049
#
# Static dielectric constant tensor:
#      x y z
#    x 2.981600 0.000000 0.183950 
#    y 0.000000 3.558650 0.000000 
#    z 0.183950 0.000000 4.417170 
# 
# 
# High freq. dielectric constant tensor:
#      x y z
#    x 1.667840 0.000000 0.009650 
#    y 0.000000 1.732810 0.000000 
#    z 0.009650 0.000000 1.767000 
# 
# From -- ./inp_files/134605.got.cif
#   From: 2010.06.25/outbox.cif.g09.slc.cpg/sg15_68_cif.got.tgz:134605.got - 2010.06.28 07:06:18.
