data_PCOD8138603
_publ_section_title
;
Structure prediction by ZEFSAII (Michael W. Deem and Ramdas Pophale) SiO2 
 PCOD8138603
Probable space group: C 2/C
;
_chemical_formula_sum "Si O2"
_cell_formula_units_Z 44
_cell_length_a 8.600845
_cell_length_b 25.090188
_cell_length_c 11.749158
_cell_angle_alpha 90.000000
_cell_angle_beta 59.704824
_cell_angle_gamma 90.000000
_cell_volume 2189.187461
_symmetry_space_group_name_H-M "C 2/C"
_symmetry_group_IT_number 15
_symmetry_cell_setting 'monoclinic'
loop_
_space_group_symop_operation_xyz
x,y,z
-x,y,1/2-z
-x,-y,-z
x,-y,1/2+z
1/2+x,1/2+y,z
1/2-x,1/2+y,1/2-z
1/2-x,1/2-y,-z
1/2+x,1/2-y,1/2+z
loop_
_atom_site_type_symbol
_atom_site_label
_atom_site_fract_x
_atom_site_fract_y
_atom_site_fract_z
Si Si1 0.344864 0.456963 0.037690
Si Si2 0.997153 0.661221 0.936049
Si Si3 0.957932 0.747583 0.397528
Si Si4 0.796609 0.843329 0.145169
Si Si5 0.610557 0.052574 0.432719
Si Si6 0.500000 0.983556 0.750000
O O1 0.378909 0.403064 0.097600
O O2 0.147000 0.477586 0.141914
O O3 0.500000 0.500000 0.000000
O O4 0.313632 0.446575 0.912960
O O5 0.189174 0.666487 0.802425
O O6 0.832748 0.670991 0.911213
O O7 0.962336 0.700895 0.053465
O O8 0.002967 0.601898 0.980699
O O9 0.750000 0.750000 0.500000
O O10 0.000000 0.735435 0.250000
O O11 0.036205 0.803716 0.411420
O O12 0.612674 0.054497 0.294511
O O13 0.500000 0.000000 0.500000
#
# Coordination Sequence:
#
# PCOD8138603 Si02
#       6
#     8   8   8   8   8   4
#     4  10  21  39  63  93 124 165 217 259 318 390
#     4  10  21  41  69  90 124 173 213 265 324 388
#     4  12  25  43  63  97 129 164 223 274 327 387
#     4  10  21  43  66  90 126 170 217 263 325 386
#     4   9  19  36  60  91 121 161 203 250 318 380
#     4  10  20  38  58  90 128 160 202 264 316 380
#
# _framework density 20.098780999999999
#
# number of rings (size 3 to 8) (size 9 to 14) (size 15 to 20)
#    0.000    1.818    1.818    3.818    1.273    3.636 
#    3.273    0.000    0.000    0.000    0.000    0.000 
#    0.000    0.000    0.000    0.000    0.000    0.000 
#
# Total GULP energy -272625.582160 kJ/mol
# GULP energy per Si atom -12392.071916 kJ/mol
# Density = 2.005303 g / cm^3
# Si number density = 20.098781 Si / 1000 Ang^3
#
#
#
# Elastic Constant Matrix: (Units=GPa)
#
#
# Indices 1 2 3 4 5 6 
#
# 1 102.9040 75.5776 54.6560 0.0000 3.3247 0.0000
# 2 75.5776 144.5818 65.9099 0.0000 2.9103 0.0000
# 3 54.6560 65.9099 101.5510 0.0000 17.6019 0.0000
# 4 0.0000 0.0000 0.0000 32.1018 0.0000 -1.2733
# 5 3.3247 2.9103 17.6019 0.0000 41.6537 0.0000
# 6 0.0000 0.0000 0.0000 -1.2733 0.0000 38.4139
#
#
#
# Elastic Compliance Matrix: (Units=1/GPa)
#
#
# Indices 1 2 3 4 5 6 
#
# 1 0.017396 -0.006746 -0.005207 0.000000 0.001283 0.000000
# 2 -0.006746 0.012623 -0.004858 0.000000 0.001710 0.000000
# 3 -0.005207 -0.004858 0.016911 0.000000 -0.006391 0.000000
# 4 0.000000 0.000000 0.000000 0.031192 0.000000 0.001034
# 5 0.001283 0.001710 -0.006391 0.000000 0.026486 0.000000
# 6 0.000000 0.000000 0.000000 0.001034 0.000000 0.026067
#
#
# Mechanical properties :
#
#
# Convention : Reuss Voigt Hill
#
# Bulk Modulus (GPa) = 75.14474 82.36930 78.75702
# Shear Modulus (GPa) = 29.63242 32.62675 31.12958
#
# Velocity S-wave (km/s) = 3.84388 4.03342 3.93979
# Velocity P-wave (km/s) = 7.56105 7.92228 7.74377
#
# Compressibility (1/GPa) = 0.01330765
#
# Stress axis : x y z
#
# Youngs Moduli (GPa) = 57.48293 79.21964 59.13330
#
# Poissons Ratio (x) = 0.53440 0.30792
# Poissons Ratio (y) = 0.38777 0.28730
# Poissons Ratio (z) = 0.29933 0.38489
#
# Static dielectric constant tensor:
#      x y z
#    x 3.948850 0.000000 0.612000 
#    y 0.000000 3.726100 0.000000 
#    z 0.612000 0.000000 3.712570 
# 
# 
# High freq. dielectric constant tensor:
#      x y z
#    x 1.792140 0.000000 0.023520 
#    y 0.000000 1.786910 0.000000 
#    z 0.023520 0.000000 1.777740 
# 
# From -- ./inp_files/79681.got.cif
#   From: 2010.06.25/outbox.cif.g09.slc.cpg/sg15_40_cif.got.tgz:79681.got - 2010.06.28 07:06:18.
