data_PCOD8138788
_publ_section_title
;
Structure prediction by ZEFSAII (Michael W. Deem and Ramdas Pophale) SiO2 
 PCOD8138788
Probable space group: C 2/C
;
_chemical_formula_sum "Si O2"
_cell_formula_units_Z 60
_cell_length_a 19.486899
_cell_length_b 17.139799
_cell_length_c 8.794151
_cell_angle_alpha 90.000000
_cell_angle_beta 98.796265
_cell_angle_gamma 90.000000
_cell_volume 2902.712890
_symmetry_space_group_name_H-M "C 2/C"
_symmetry_group_IT_number 15
_symmetry_cell_setting 'monoclinic'
loop_
_space_group_symop_operation_xyz
x,y,z
-x,y,1/2-z
-x,-y,-z
x,-y,1/2+z
1/2+x,1/2+y,z
1/2-x,1/2+y,1/2-z
1/2-x,1/2-y,-z
1/2+x,1/2-y,1/2+z
loop_
_atom_site_type_symbol
_atom_site_label
_atom_site_fract_x
_atom_site_fract_y
_atom_site_fract_z
Si Si1 0.829318 0.766813 0.204440
Si Si2 0.259493 0.896965 0.679357
Si Si3 0.397455 0.790776 0.020681
Si Si4 0.816997 0.333628 0.268951
Si Si5 0.818137 0.488423 0.441500
Si Si6 0.120508 0.181752 0.089009
Si Si7 0.044079 0.554602 0.915207
Si Si8 0.500000 0.690914 0.250000
O O1 0.803608 0.680212 0.145680
O O2 0.876734 0.759131 0.368354
O O3 0.763403 0.819775 0.222592
O O4 0.873943 0.814360 0.093461
O O5 0.259966 0.956249 0.537602
O O6 0.180156 0.872534 0.682431
O O7 0.289771 0.935815 0.842361
O O8 0.330970 0.824908 0.092059
O O9 0.445250 0.864200 0.991149
O O10 0.440977 0.736759 0.144443
O O11 0.839192 0.420397 0.329179
O O12 0.867576 0.272290 0.366972
O O13 0.881784 0.511242 0.574674
O O14 0.046760 0.148283 0.132709
O O15 0.000000 0.571171 0.750000
O O16 0.000000 0.500000 0.000000
#
# Coordination Sequence:
#
# PCOD8138788 Si02
#       8
#     8   8   8   8   8   8   8   4
#     4  11  20  39  64  92 121 160 211 263 313 362
#     4  11  22  38  61  94 123 164 205 266 313 364
#     4  11  22  37  57  88 124 169 204 253 307 364
#     4  10  20  38  61  90 126 155 207 267 312 361
#     4  12  22  38  61  91 127 170 212 255 307 367
#     4  10  21  42  64  87 122 161 211 265 321 367
#     4  12  25  38  53  85 136 180 210 236 290 376
#     4  10  24  42  62  82 122 162 210 262 314 380
#
# _framework density 20.670318999999999
#
# number of rings (size 3 to 8) (size 9 to 14) (size 15 to 20)
#    0.000    1.067    4.667    3.600    1.867    0.533 
#    0.000    0.000    0.000    0.800    0.000    0.000 
#    0.000    0.000    0.000    0.000    0.000    0.000 
#
# Total GULP energy -371676.758900 kJ/mol
# GULP energy per Si atom -12389.225297 kJ/mol
# Density = 2.062327 g / cm^3
# Si number density = 20.670319 Si / 1000 Ang^3
#
#
#
# Elastic Constant Matrix: (Units=GPa)
#
#
# Indices 1 2 3 4 5 6 
#
# 1 125.8321 23.9791 60.5565 0.0000 -14.5238 0.0000
# 2 23.9791 53.6598 20.9406 0.0000 10.4025 0.0000
# 3 60.5565 20.9406 115.4989 0.0000 4.3272 0.0000
# 4 0.0000 0.0000 0.0000 25.8922 0.0000 1.4138
# 5 -14.5238 10.4025 4.3272 0.0000 36.5620 0.0000
# 6 0.0000 0.0000 0.0000 1.4138 0.0000 16.8791
#
#
#
# Elastic Compliance Matrix: (Units=1/GPa)
#
#
# Indices 1 2 3 4 5 6 
#
# 1 0.012514 -0.004611 -0.005987 0.000000 0.006992 0.000000
# 2 -0.004611 0.022831 -0.001416 0.000000 -0.008160 0.000000
# 3 -0.005987 -0.001416 0.012182 0.000000 -0.003417 0.000000
# 4 0.000000 0.000000 0.000000 0.038799 0.000000 -0.003250
# 5 0.006992 -0.008160 -0.003417 0.000000 0.032854 0.000000
# 6 0.000000 0.000000 0.000000 -0.003250 0.000000 0.059517
#
#
# Mechanical properties :
#
#
# Convention : Reuss Voigt Hill
#
# Bulk Modulus (GPa) = 42.55601 56.21590 49.38596
# Shear Modulus (GPa) = 23.74635 28.50097 26.12366
#
# Velocity S-wave (km/s) = 3.39309 3.71730 3.55889
# Velocity P-wave (km/s) = 5.99862 6.75869 6.38997
#
# Compressibility (1/GPa) = 0.02349844
#
# Stress axis : x y z
#
# Youngs Moduli (GPa) = 79.90997 43.80011 82.08896
#
# Poissons Ratio (x) = 0.20197 0.49147
# Poissons Ratio (y) = 0.36848 0.11624
# Poissons Ratio (z) = 0.47843 0.06202
#
# Static dielectric constant tensor:
#      x y z
#    x 4.062860 0.000000 -0.008320 
#    y 0.000000 3.428680 0.000000 
#    z -0.008320 0.000000 4.088140 
# 
# 
# High freq. dielectric constant tensor:
#      x y z
#    x 1.795750 0.000000 -0.010410 
#    y 0.000000 1.781830 0.000000 
#    z -0.010410 0.000000 1.818870 
# 
# From -- ./inp_files/56645.got.cif
#   From: 2010.06.25/outbox.cif.g09.slc.cpg/sg15_29_cif.got.tgz:56645.got - 2010.06.28 07:06:18.
