data_PCOD8138913
_publ_section_title
;
Structure prediction by ZEFSAII (Michael W. Deem and Ramdas Pophale) SiO2 
 PCOD8138913
Probable space group: C 2/C
;
_chemical_formula_sum "Si O2"
_cell_formula_units_Z 60
_cell_length_a 15.790324
_cell_length_b 12.424709
_cell_length_c 23.263962
_cell_angle_alpha 90.000000
_cell_angle_beta 35.872522
_cell_angle_gamma 90.000000
_cell_volume 2674.524391
_symmetry_space_group_name_H-M "C 2/C"
_symmetry_group_IT_number 15
_symmetry_cell_setting 'monoclinic'
loop_
_space_group_symop_operation_xyz
x,y,z
-x,y,1/2-z
-x,-y,-z
x,-y,1/2+z
1/2+x,1/2+y,z
1/2-x,1/2+y,1/2-z
1/2-x,1/2-y,-z
1/2+x,1/2-y,1/2+z
loop_
_atom_site_type_symbol
_atom_site_label
_atom_site_fract_x
_atom_site_fract_y
_atom_site_fract_z
Si Si1 0.151171 0.328740 0.698974
Si Si2 0.281274 0.268311 0.148944
Si Si3 0.876340 0.874118 0.205449
Si Si4 0.675779 0.086172 0.552234
Si Si5 0.062272 0.780699 0.552762
Si Si6 0.207567 0.138989 0.495462
Si Si7 0.500000 0.164232 0.750000
Si Si8 0.772159 0.903069 0.742019
O O1 0.159697 0.209290 0.723372
O O2 0.274010 0.348958 0.583531
O O3 0.174059 0.416412 0.737983
O O4 0.000000 0.345143 0.750000
O O5 0.292616 0.357662 0.191741
O O6 0.113863 0.259772 0.220574
O O7 0.322972 0.156653 0.157274
O O8 0.396517 0.293221 0.036401
O O9 0.822302 0.993140 0.249675
O O10 0.043792 0.881415 0.100376
O O11 0.830286 0.146502 0.468248
O O12 0.577512 0.153130 0.560868
O O13 0.595801 0.087702 0.657407
O O14 0.700256 0.959340 0.526601
O O15 0.901680 0.823487 0.650481
O O16 0.250000 0.250000 0.500000
#
# Coordination Sequence:
#
# PCOD8138913 Si02
#       8
#     8   8   8   8   8   8   4   8
#     4  11  26  46  67 100 136 178 227 282 338 413
#     4  10  23  39  65  99 135 167 217 286 336 404
#     4  11  25  46  67  98 134 183 235 273 342 414
#     4  10  22  36  66  98 135 169 226 276 336 409
#     4  10  20  41  63 103 133 168 220 287 344 397
#     4  12  25  43  68  97 134 188 228 276 333 418
#     4  10  20  38  62  94 130 164 210 274 352 380
#     4  11  23  44  72  97 134 178 230 283 340 406
#
# _framework density 22.433895
#
# number of rings (size 3 to 8) (size 9 to 14) (size 15 to 20)
#    0.000    1.333    4.000    0.800    4.667    2.133 
#    1.200    0.000    0.000    4.800    0.000    0.000 
#    0.000    0.000    0.000    0.000    0.000    0.000 
#
# Total GULP energy -371753.655898 kJ/mol
# GULP energy per Si atom -12391.788530 kJ/mol
# Density = 2.238283 g / cm^3
# Si number density = 22.433895 Si / 1000 Ang^3
#
#
#
# Elastic Constant Matrix: (Units=GPa)
#
#
# Indices 1 2 3 4 5 6 
#
# 1 84.6089 17.6143 -8.0211 0.0000 -4.0252 0.0000
# 2 17.6143 125.6523 10.4828 0.0000 1.6510 0.0000
# 3 -8.0211 10.4828 30.0842 -0.0002 2.3100 0.0001
# 4 0.0000 0.0000 -0.0002 22.2820 0.0001 -1.8759
# 5 -4.0252 1.6510 2.3100 0.0001 22.8129 0.0000
# 6 0.0000 0.0000 0.0001 -1.8759 0.0000 24.5483
#
#
#
# Elastic Compliance Matrix: (Units=1/GPa)
#
#
# Indices 1 2 3 4 5 6 
#
# 1 0.012739 -0.002145 0.003990 0.000000 0.001999 0.000000
# 2 -0.002145 0.008560 -0.003505 0.000000 -0.000643 0.000000
# 3 0.003990 -0.003505 0.035730 0.000000 -0.002660 0.000000
# 4 0.000000 0.000000 0.000000 0.045170 0.000000 0.003452
# 5 0.001999 -0.000643 -0.002660 0.000000 0.044503 0.000000
# 6 0.000000 0.000000 0.000000 0.003452 0.000000 0.041000
#
#
# Mechanical properties :
#
#
# Convention : Reuss Voigt Hill
#
# Bulk Modulus (GPa) = 18.61884 31.16638 24.89261
# Shear Modulus (GPa) = 23.93212 28.61328 26.27270
#
# Velocity S-wave (km/s) = 3.26971 3.57522 3.42587
# Velocity P-wave (km/s) = 4.75101 5.56467 5.17386
#
# Compressibility (1/GPa) = 0.05370905
#
# Stress axis : x y z
#
# Youngs Moduli (GPa) = 78.49891 116.82193 27.98803
#
# Poissons Ratio (x) = 0.25058 -0.11168
# Poissons Ratio (y) = 0.16838 0.09810
# Poissons Ratio (z) = -0.31324 0.40949
#
# Static dielectric constant tensor:
#      x y z
#    x 4.159050 0.000000 0.080350 
#    y 0.000000 3.855360 0.000000 
#    z 0.080350 0.000000 4.137120 
# 
# 
# High freq. dielectric constant tensor:
#      x y z
#    x 1.882060 0.000000 -0.004980 
#    y 0.000000 1.878750 0.000000 
#    z -0.004980 0.000000 1.885490 
# 
# From -- ./inp_files/277264.got.cif
#   From: 2010.06.25/outbox.cif.g09.slc.cpg/sg15_139_cif.got.tgz:277264.got - 2010.06.28 07:06:18.
