data_PCOD8138376
_publ_section_title
;
Structure prediction by ZEFSAII (Michael W. Deem and Ramdas Pophale) SiO2 
 PCOD8138376
Probable space group: C 2/C
;
_chemical_formula_sum "Si O2"
_cell_formula_units_Z 60
_cell_length_a 17.029772
_cell_length_b 21.103555
_cell_length_c 12.573034
_cell_angle_alpha 90.000000
_cell_angle_beta 37.208857
_cell_angle_gamma 90.000000
_cell_volume 2732.501971
_symmetry_space_group_name_H-M "C 2/C"
_symmetry_group_IT_number 15
_symmetry_cell_setting 'monoclinic'
loop_
_space_group_symop_operation_xyz
x,y,z
-x,y,1/2-z
-x,-y,-z
x,-y,1/2+z
1/2+x,1/2+y,z
1/2-x,1/2+y,1/2-z
1/2-x,1/2-y,-z
1/2+x,1/2-y,1/2+z
loop_
_atom_site_type_symbol
_atom_site_label
_atom_site_fract_x
_atom_site_fract_y
_atom_site_fract_z
Si Si1 0.235563 0.061392 0.436246
Si Si2 0.987510 0.360019 0.646300
Si Si3 0.371123 0.462045 0.659495
Si Si4 0.776347 0.077936 0.473601
Si Si5 0.672415 0.681895 0.909643
Si Si6 0.462288 0.783593 0.101625
Si Si7 0.500000 0.878549 0.250000
Si Si8 0.734445 0.411188 0.169844
O O1 0.381949 0.084164 0.259605
O O2 0.157242 0.081440 0.414021
O O3 0.184942 0.093980 0.600206
O O4 0.213876 0.985854 0.467664
O O5 0.965036 0.303350 0.586707
O O6 0.118303 0.393266 0.469854
O O7 0.000000 0.329128 0.750000
O O8 0.500000 0.500000 0.500000
O O9 0.372110 0.420865 0.767000
O O10 0.263610 0.516363 0.793650
O O11 0.817283 0.139124 0.496411
O O12 0.627602 0.079381 0.594438
O O13 0.804839 0.725306 0.756879
O O14 0.648719 0.636339 0.833342
O O15 0.540702 0.722780 0.060040
O O16 0.481289 0.838692 0.164683
#
# Coordination Sequence:
#
# PCOD8138376 Si02
#       8
#     8   8   8   8   8   8   4   8
#     4  10  20  37  63  93 124 168 200 262 322 383
#     4   9  19  38  65  93 123 158 211 269 320 372
#     4  11  23  39  57  92 133 171 205 245 318 395
#     4  10  22  37  65  91 130 163 209 264 322 381
#     4  10  21  46  64  95 122 172 215 273 315 373
#     4  10  22  41  66  86 132 162 223 265 317 376
#     4  10  22  40  58 102 120 158 224 262 312 386
#     4   9  20  38  60  91 128 159 207 261 314 385
#
# _framework density 21.957898
#
# number of rings (size 3 to 8) (size 9 to 14) (size 15 to 20)
#    0.000    2.133    1.333    0.800    4.667    4.800 
#    7.200    6.000    0.000    0.000    0.000    0.000 
#    0.000    0.000    0.000    0.000    0.000    0.000 
#
# Total GULP energy -371779.611546 kJ/mol
# GULP energy per Si atom -12392.653718 kJ/mol
# Density = 2.190792 g / cm^3
# Si number density = 21.957898 Si / 1000 Ang^3
#
#
#
# Elastic Constant Matrix: (Units=GPa)
#
#
# Indices 1 2 3 4 5 6 
#
# 1 99.8629 33.0621 48.5268 -0.0006 28.3471 0.0009
# 2 33.0621 65.6442 29.5779 -0.0017 0.0042 0.0019
# 3 48.5268 29.5779 104.7220 -0.0023 26.0271 0.0029
# 4 -0.0006 -0.0017 -0.0023 -4.0366 0.0023 -0.9964
# 5 28.3471 0.0042 26.0271 0.0023 27.7971 -0.0033
# 6 0.0009 0.0019 0.0029 -0.9964 -0.0033 36.0097
#
#
#
# Elastic Compliance Matrix: (Units=1/GPa)
#
#
# Indices 1 2 3 4 5 6 
#
# 1 0.018672 -0.008513 -0.001975 -0.000008 -0.017190 -0.000002
# 2 -0.008513 0.022143 -0.005821 0.000003 0.014128 0.000001
# 3 -0.001975 -0.005821 0.015128 -0.000012 -0.012149 -0.000002
# 4 -0.000008 0.000003 -0.000012 -0.246054 0.000039 -0.006808
# 5 -0.017190 0.014128 -0.012149 0.000039 0.064879 0.000008
# 6 -0.000002 0.000001 -0.000002 -0.006808 0.000008 0.027582
#
#
# Mechanical properties :
#
#
# Convention : Reuss Voigt Hill
#
# Bulk Modulus (GPa) = 42.87307 54.72918 48.80112
# Shear Modulus (GPa) = -87.32457 22.55821 -32.38318
#
# Velocity S-wave (km/s) = -6.31312 3.20869 -3.84446
# Velocity P-wave (km/s) = 5.79423 6.22144 1.60207
#
# Compressibility (1/GPa) = 0.02332467
#
# Stress axis : x y z
#
# Youngs Moduli (GPa) = 53.55710 45.16114 66.10258
#
# Poissons Ratio (x) = 0.38445 0.13058
# Poissons Ratio (y) = 0.45592 0.38476
# Poissons Ratio (z) = 0.10580 0.26287
#
# Static dielectric constant tensor:
#      x y z
#    x 3.794590 0.000720 -0.112320 
#    y 0.000720 5.951280 0.000820 
#    z -0.112320 0.000820 4.123480 
# 
# 
# High freq. dielectric constant tensor:
#      x y z
#    x 1.870190 0.000000 0.014780 
#    y 0.000000 1.830410 0.000000 
#    z 0.014780 0.000000 1.877980 
# 
# From -- ./inp_files/107610.got.cif
#   From: 2010.06.25/outbox.cif.g09.slc.cpg/sg15_54_cif.got.tgz:107610.got - 2010.06.28 07:06:18.
