data_PCOD8138441
_publ_section_title
;
Structure prediction by ZEFSAII (Michael W. Deem and Ramdas Pophale) SiO2 
 PCOD8138441
Probable space group: C 2/C
;
_chemical_formula_sum "Si O2"
_cell_formula_units_Z 56
_cell_length_a 17.909533
_cell_length_b 8.302204
_cell_length_c 27.025530
_cell_angle_alpha 90.000000
_cell_angle_beta 39.506751
_cell_angle_gamma 90.000000
_cell_volume 2556.374495
_symmetry_space_group_name_H-M "C 2/C"
_symmetry_group_IT_number 15
_symmetry_cell_setting 'monoclinic'
loop_
_space_group_symop_operation_xyz
x,y,z
-x,y,1/2-z
-x,-y,-z
x,-y,1/2+z
1/2+x,1/2+y,z
1/2-x,1/2+y,1/2-z
1/2-x,1/2-y,-z
1/2+x,1/2-y,1/2+z
loop_
_atom_site_type_symbol
_atom_site_label
_atom_site_fract_x
_atom_site_fract_y
_atom_site_fract_z
Si Si1 0.434970 0.471374 0.654485
Si Si2 0.747290 0.345769 0.689887
Si Si3 0.337248 0.408719 0.012820
Si Si4 0.719002 0.519923 0.355616
Si Si5 0.380386 0.054814 0.034120
Si Si6 0.665036 0.096721 0.042841
Si Si7 0.904434 0.671461 0.199090
O O1 0.387587 0.353684 0.722051
O O2 0.572895 0.471041 0.575242
O O3 0.381810 0.413967 0.628976
O O4 0.388816 0.640364 0.698214
O O5 0.766665 0.166389 0.662988
O O6 0.775512 0.456871 0.627875
O O7 0.835186 0.409748 0.688293
O O8 0.325821 0.533780 0.064906
O O9 0.376305 0.232453 0.010794
O O10 0.216358 0.435331 0.043803
O O11 0.840273 0.616441 0.282963
O O12 0.500000 0.000000 0.000000
O O13 0.356490 0.927290 0.004059
O O14 0.540421 0.125580 0.132907
O O15 0.750000 0.250000 0.000000
#
# Coordination Sequence:
#
# PCOD8138441 Si02
#       7
#     8   8   8   8   8   8   8
#     4  10  20  37  64  97 131 169 223 279 329 394
#     4   9  20  39  64  96 123 170 234 280 319 390
#     4  11  24  41  64  99 133 179 221 276 344 408
#     4   9  21  38  63  93 130 172 229 272 328 397
#     4  11  24  44  70  96 128 180 232 272 330 402
#     4  12  25  42  66  98 141 173 218 279 346 409
#     4  10  20  39  63  93 131 175 218 274 337 395
#
# _framework density 21.906023999999999
#
# number of rings (size 3 to 8) (size 9 to 14) (size 15 to 20)
#    0.000    1.714    2.857    0.857    2.000    5.143 
#    0.000    0.714    0.000    0.000    0.000    0.000 
#    0.000    0.000    0.000    0.000    0.000    0.000 
#
# Total GULP energy -346894.803975 kJ/mol
# GULP energy per Si atom -12389.100142 kJ/mol
# Density = 2.185616 g / cm^3
# Si number density = 21.906024 Si / 1000 Ang^3
#
#
#
# Elastic Constant Matrix: (Units=GPa)
#
#
# Indices 1 2 3 4 5 6 
#
# 1 89.8729 30.2000 23.4932 0.0024 -2.2582 0.0162
# 2 30.2000 49.4811 19.1600 0.0050 -3.4258 0.0184
# 3 23.4932 19.1600 145.6910 -0.0008 -3.0742 -0.0003
# 4 0.0024 0.0050 -0.0008 36.1586 0.0001 -0.3468
# 5 -2.2582 -3.4258 -3.0742 0.0001 34.9819 0.0044
# 6 0.0162 0.0184 -0.0003 -0.3468 0.0044 31.8686
#
#
#
# Elastic Compliance Matrix: (Units=1/GPa)
#
#
# Indices 1 2 3 4 5 6 
#
# 1 0.014198 -0.008196 -0.001211 0.000000 0.000007 -0.000002
# 2 -0.008196 0.026144 -0.002078 -0.000003 0.001849 -0.000011
# 3 -0.001211 -0.002078 0.007340 0.000001 0.000363 0.000002
# 4 0.000000 -0.000003 0.000001 0.027659 0.000000 0.000301
# 5 0.000007 0.001849 0.000363 0.000000 0.028800 -0.000005
# 6 -0.000002 -0.000011 0.000002 0.000301 -0.000005 0.031382
#
#
# Mechanical properties :
#
#
# Convention : Reuss Voigt Hill
#
# Bulk Modulus (GPa) = 40.46537 47.86126 44.16332
# Shear Modulus (GPa) = 29.98858 34.74793 32.36826
#
# Velocity S-wave (km/s) = 3.70397 3.98707 3.84812
# Velocity P-wave (km/s) = 6.06670 6.56441 6.32046
#
# Compressibility (1/GPa) = 0.02471249
#
# Stress axis : x y z
#
# Youngs Moduli (GPa) = 70.43390 38.24908 136.23796
#
# Poissons Ratio (x) = 0.31348 0.16504
# Poissons Ratio (y) = 0.57726 0.28306
# Poissons Ratio (z) = 0.08533 0.07947
#
# Static dielectric constant tensor:
#      x y z
#    x 3.989640 -0.000020 0.209020 
#    y -0.000020 3.780230 0.000000 
#    z 0.209020 0.000000 4.224200 
# 
# 
# High freq. dielectric constant tensor:
#      x y z
#    x 1.839600 0.000000 0.007090 
#    y 0.000000 1.851360 0.000000 
#    z 0.007090 0.000000 1.878810 
# 
# From -- ./inp_files/298495.got.cif
#   From: 2010.06.25/outbox.cif.g09.slc.cpg/sg15_150_cif.got.tgz:298495.got - 2010.06.28 07:06:18.
