data_PCOD8138034
_publ_section_title
;
Structure prediction by ZEFSAII (Michael W. Deem and Ramdas Pophale) SiO2 
 PCOD8138034
Probable space group: C 2/C
;
_chemical_formula_sum "Si O2"
_cell_formula_units_Z 64
_cell_length_a 28.514174
_cell_length_b 12.147899
_cell_length_c 14.417009
_cell_angle_alpha 90.000000
_cell_angle_beta 40.234966
_cell_angle_gamma 90.000000
_cell_volume 3225.658234
_symmetry_space_group_name_H-M "C 2/C"
_symmetry_group_IT_number 15
_symmetry_cell_setting 'monoclinic'
loop_
_space_group_symop_operation_xyz
x,y,z
-x,y,1/2-z
-x,-y,-z
x,-y,1/2+z
1/2+x,1/2+y,z
1/2-x,1/2+y,1/2-z
1/2-x,1/2-y,-z
1/2+x,1/2-y,1/2+z
loop_
_atom_site_type_symbol
_atom_site_label
_atom_site_fract_x
_atom_site_fract_y
_atom_site_fract_z
Si Si1 0.652231 0.548199 0.283214
Si Si2 0.338095 0.832000 0.648453
Si Si3 0.918215 0.946473 0.795275
Si Si4 0.678565 0.739524 0.363116
Si Si5 0.571704 0.376514 0.520385
Si Si6 0.573120 0.690382 0.681456
Si Si7 0.320935 0.828834 0.880972
Si Si8 0.689961 0.033938 0.921385
O O1 0.648193 0.554133 0.177542
O O2 0.645263 0.676088 0.325083
O O3 0.588975 0.471074 0.419064
O O4 0.725294 0.494582 0.212625
O O5 0.264661 0.770561 0.733394
O O6 0.402561 0.743676 0.550208
O O7 0.326266 0.880629 0.770288
O O8 0.354806 0.927730 0.547357
O O9 0.890839 0.905573 0.936903
O O10 0.984585 0.870420 0.660508
O O11 0.950053 0.069285 0.752559
O O12 0.640459 0.683219 0.508844
O O13 0.665229 0.870449 0.387003
O O14 0.500000 0.747252 0.750000
O O15 0.604808 0.758230 0.720363
O O16 0.250000 0.750000 0.000000
O O17 0.324042 0.927946 0.951531
#
# Coordination Sequence:
#
# PCOD8138034 Si02
#       8
#     8   8   8   8   8   8   8   8
#     4  11  20  34  61  89 120 161 200 256 316 370
#     4  11  22  39  62  85 124 172 204 259 306 375
#     4  11  22  35  59  93 126 160 194 256 326 384
#     4  10  20  37  57  85 123 155 209 256 302 359
#     4  11  21  39  57  90 127 159 200 254 320 371
#     4  11  19  34  60  94 126 153 202 266 315 361
#     4  11  20  39  64  92 122 171 216 257 311 382
#     4  10  22  37  58  90 122 157 213 263 307 360
#
# _framework density 19.840911999999999
#
# number of rings (size 3 to 8) (size 9 to 14) (size 15 to 20)
#    0.000    1.250    6.250    1.875    0.000    1.000 
#    2.250    1.250   11.000    3.750    0.000    0.000 
#    0.000    0.000    0.000    0.000    0.000    0.000 
#
# Total GULP energy -396558.273710 kJ/mol
# GULP energy per Si atom -12392.446053 kJ/mol
# Density = 1.979575 g / cm^3
# Si number density = 19.840912 Si / 1000 Ang^3
#
#
#
# Elastic Constant Matrix: (Units=GPa)
#
#
# Indices 1 2 3 4 5 6 
#
# 1 90.4143 36.2507 13.3987 0.0000 13.2159 0.0000
# 2 36.2507 90.3930 31.8722 0.0000 1.2453 0.0000
# 3 13.3987 31.8722 55.3204 0.0000 7.6741 0.0000
# 4 0.0000 0.0000 0.0000 26.5177 0.0000 4.2013
# 5 13.2159 1.2453 7.6741 0.0000 36.6396 0.0000
# 6 0.0000 0.0000 0.0000 4.2013 0.0000 24.2555
#
#
#
# Elastic Compliance Matrix: (Units=1/GPa)
#
#
# Indices 1 2 3 4 5 6 
#
# 1 0.014010 -0.005769 0.000623 0.000000 -0.004988 0.000000
# 2 -0.005769 0.016314 -0.008459 0.000000 0.003298 0.000000
# 3 0.000623 -0.008459 0.023473 0.000000 -0.004853 0.000000
# 4 0.000000 0.000000 0.000000 0.038775 0.000000 -0.006716
# 5 -0.004988 0.003298 -0.004853 0.000000 0.029996 0.000000
# 6 0.000000 0.000000 0.000000 -0.006716 0.000000 0.042391
#
#
# Mechanical properties :
#
#
# Convention : Reuss Voigt Hill
#
# Bulk Modulus (GPa) = 37.61567 44.35230 40.98398
# Shear Modulus (GPa) = 24.87165 27.78964 26.33064
#
# Velocity S-wave (km/s) = 3.54440 3.74655 3.64687
# Velocity P-wave (km/s) = 5.97914 6.41233 6.19952
#
# Compressibility (1/GPa) = 0.02658466
#
# Stress axis : x y z
#
# Youngs Moduli (GPa) = 71.37674 61.29803 42.60279
#
# Poissons Ratio (x) = 0.35365 -0.02652
# Poissons Ratio (y) = 0.41180 0.36038
# Poissons Ratio (z) = -0.04444 0.51853
#
# Static dielectric constant tensor:
#      x y z
#    x 3.732760 0.000000 0.144760 
#    y 0.000000 3.629960 0.000000 
#    z 0.144760 0.000000 3.404890 
# 
# 
# High freq. dielectric constant tensor:
#      x y z
#    x 1.774220 0.000000 0.009250 
#    y 0.000000 1.754800 0.000000 
#    z 0.009250 0.000000 1.755190 
# 
# From -- ./inp_files/181754.got.cif
#   From: 2010.06.25/outbox.cif.g09.slc.cpg/sg15_91_cif.got.tgz:181754.got - 2010.06.28 07:06:18.
