data_PCOD8138127
_publ_section_title
;
Structure prediction by ZEFSAII (Michael W. Deem and Ramdas Pophale) SiO2 
 PCOD8138127
Probable space group: C 2/C
;
_chemical_formula_sum "Si O2"
_cell_formula_units_Z 36
_cell_length_a 20.724415
_cell_length_b 14.083492
_cell_length_c 5.305722
_cell_angle_alpha 90.000000
_cell_angle_beta 85.396641
_cell_angle_gamma 90.000000
_cell_volume 1543.596908
_symmetry_space_group_name_H-M "C 2/C"
_symmetry_group_IT_number 15
_symmetry_cell_setting 'monoclinic'
loop_
_space_group_symop_operation_xyz
x,y,z
-x,y,1/2-z
-x,-y,-z
x,-y,1/2+z
1/2+x,1/2+y,z
1/2-x,1/2+y,1/2-z
1/2-x,1/2-y,-z
1/2+x,1/2-y,1/2+z
loop_
_atom_site_type_symbol
_atom_site_label
_atom_site_fract_x
_atom_site_fract_y
_atom_site_fract_z
Si Si1 0.500000 0.342558 0.750000
Si Si2 0.364060 0.398820 0.921718
Si Si3 0.810342 0.889101 0.439219
Si Si4 0.534260 0.160321 0.985874
Si Si5 0.667153 0.938542 0.473739
O O1 0.441765 0.408167 0.870425
O O2 0.526797 0.274639 0.965954
O O3 0.333854 0.341104 0.693646
O O4 0.332197 0.501454 0.963310
O O5 0.345403 0.342047 0.184613
O O6 0.733484 0.879265 0.434095
O O7 0.500000 0.111852 0.750000
O O8 0.500000 0.122598 0.250000
O O9 0.609528 0.136001 0.966665
O O10 0.663624 0.012902 0.247526
#
# Coordination Sequence:
#
# PCOD8138127 Si02
#       5
#     4   8   8   8   8
#     4  10  26  42  60  84 130 172 194 240 292 372
#     4  10  20  37  63  85 128 150 203 245 301 349
#     4  10  20  37  60 100 111 152 203 258 298 349
#     4  10  25  43  58  91 123 162 207 236 300 366
#     4  12  21  40  69  90 123 151 197 264 305 348
#
# _framework density 23.322154000000001
#
# number of rings (size 3 to 8) (size 9 to 14) (size 15 to 20)
#    0.667    0.889    4.444    1.333    3.111    6.222 
#    0.000    2.222    0.000    0.000    0.000    0.000 
#    0.000    0.000    0.000    0.000    0.000    0.000 
#
# Total GULP energy -223075.642716 kJ/mol
# GULP energy per Si atom -12393.091262 kJ/mol
# Density = 2.326907 g / cm^3
# Si number density = 23.322154 Si / 1000 Ang^3
#
#
#
# Elastic Constant Matrix: (Units=GPa)
#
#
# Indices 1 2 3 4 5 6 
#
# 1 145.9601 10.8967 34.2068 0.0000 -29.4380 0.0000
# 2 10.8967 7.6176 2.2885 0.0000 -3.0429 0.0000
# 3 34.2068 2.2885 179.2082 0.0000 6.6252 0.0000
# 4 0.0000 0.0000 0.0000 3.2361 0.0000 -11.3304
# 5 -29.4380 -3.0429 6.6252 0.0000 50.0217 0.0000
# 6 0.0000 0.0000 0.0000 -11.3304 0.0000 -0.7172
#
#
#
# Elastic Compliance Matrix: (Units=1/GPa)
#
#
# Indices 1 2 3 4 5 6 
#
# 1 0.009038 -0.010430 -0.001774 0.000000 0.004919 0.000000
# 2 -0.010430 0.147322 0.000005 0.000000 0.002823 0.000000
# 3 -0.001774 0.000005 0.005986 0.000000 -0.001836 0.000000
# 4 0.000000 0.000000 0.000000 0.005487 0.000000 -0.086691
# 5 0.004919 0.002823 -0.001836 0.000000 0.023301 0.000000
# 6 0.000000 0.000000 0.000000 -0.086691 0.000000 -0.024760
#
#
# Mechanical properties :
#
#
# Convention : Reuss Voigt Hill
#
# Bulk Modulus (GPa) = 7.24910 47.50777 27.37844
# Shear Modulus (GPa) = 21.11893 29.53439 25.32666
#
# Velocity S-wave (km/s) = 3.01247 3.56246 3.29895
# Velocity P-wave (km/s) = 3.90063 6.11032 5.12596
#
# Compressibility (1/GPa) = 0.13794820
#
# Stress axis : x y z
#
# Youngs Moduli (GPa) = 110.64797 6.78787 167.04263
#
# Poissons Ratio (x) = 0.07080 0.29629
# Poissons Ratio (y) = 1.15409 -0.00088
# Poissons Ratio (z) = 0.19626 -0.00004
#
# Static dielectric constant tensor:
#      x y z
#    x 4.380410 0.000000 0.384740 
#    y 0.000000 3.373720 0.000000 
#    z 0.384740 0.000000 5.598940 
# 
# 
# High freq. dielectric constant tensor:
#      x y z
#    x 1.938250 0.000000 0.003350 
#    y 0.000000 1.855260 0.000000 
#    z 0.003350 0.000000 1.951890 
# 
# From -- ./inp_files/9727.got.cif
#   From: 2010.06.25/outbox.cif.g09.slc.cpg/sg15_5_cif.got.tgz:9727.got - 2010.06.28 07:06:18.
