data_PCOD8138294
_publ_section_title
;
Structure prediction by ZEFSAII (Michael W. Deem and Ramdas Pophale) SiO2 
 PCOD8138294
Probable space group: C 2/C
;
_chemical_formula_sum "Si O2"
_cell_formula_units_Z 48
_cell_length_a 12.328665
_cell_length_b 21.852379
_cell_length_c 15.224309
_cell_angle_alpha 90.000000
_cell_angle_beta 144.070973
_cell_angle_gamma 90.000000
_cell_volume 2406.742567
_symmetry_space_group_name_H-M "C 2/C"
_symmetry_group_IT_number 15
_symmetry_cell_setting 'monoclinic'
loop_
_space_group_symop_operation_xyz
x,y,z
-x,y,1/2-z
-x,-y,-z
x,-y,1/2+z
1/2+x,1/2+y,z
1/2-x,1/2+y,1/2-z
1/2-x,1/2-y,-z
1/2+x,1/2-y,1/2+z
loop_
_atom_site_type_symbol
_atom_site_label
_atom_site_fract_x
_atom_site_fract_y
_atom_site_fract_z
Si Si1 0.057993 0.812709 0.576939
Si Si2 0.789268 0.590270 0.919463
Si Si3 0.830222 0.134882 0.080193
Si Si4 0.823565 0.491903 0.073612
Si Si5 0.595791 0.812764 0.576834
Si Si6 0.549698 0.590304 0.919511
O O1 0.261906 0.808534 0.750054
O O2 0.050402 0.868828 0.505680
O O3 0.904331 0.822767 0.550656
O O4 0.017602 0.749956 0.500125
O O5 0.669926 0.622077 0.919916
O O6 0.660747 0.579500 0.749967
O O7 0.860678 0.524398 0.003128
O O8 0.961011 0.631086 0.005710
O O9 0.696886 0.177179 0.050550
O O10 0.000000 0.109102 0.250000
O O11 0.715312 0.079152 0.965191
O O12 0.000000 0.500760 0.250000
O O13 0.645634 0.524449 0.003267
#
# Coordination Sequence:
#
# PCOD8138294 Si02
#       6
#     8   8   8   8   8   8
#     4  11  23  39  61  86 118 156 197 241 288 344
#     4   9  20  39  61  87 119 152 191 240 292 346
#     4  10  23  41  59  85 119 158 197 238 287 344
#     4  10  20  37  62  91 117 150 193 240 294 346
#     4  11  23  39  61  86 118 156 197 241 288 344
#     4   9  20  39  61  87 119 152 191 240 292 346
#
# _framework density 19.943968999999999
#
# number of rings (size 3 to 8) (size 9 to 14) (size 15 to 20)
#    1.000    1.000    0.000    3.500    0.000    4.667 
#    0.000    0.000    0.000    0.000    0.000    0.000 
#    0.000    0.000    0.000    0.000    0.000    0.000 
#
# Total GULP energy -297549.988269 kJ/mol
# GULP energy per Si atom -12397.916178 kJ/mol
# Density = 1.989858 g / cm^3
# Si number density = 19.943969 Si / 1000 Ang^3
#
#
#
# Elastic Constant Matrix: (Units=GPa)
#
#
# Indices 1 2 3 4 5 6 
#
# 1 37.9621 -13.7033 16.9997 0.0001 -0.1031 0.0001
# 2 -13.7033 65.6881 39.9942 0.0000 1.5147 0.0000
# 3 16.9997 39.9942 160.5634 0.0001 3.6284 0.0002
# 4 0.0001 0.0000 0.0001 38.1271 0.0001 0.2945
# 5 -0.1031 1.5147 3.6284 0.0001 9.3439 0.0001
# 6 0.0001 0.0000 0.0002 0.2945 0.0001 25.8904
#
#
#
# Elastic Compliance Matrix: (Units=1/GPa)
#
#
# Indices 1 2 3 4 5 6 
#
# 1 0.032917 0.010584 -0.006145 0.000000 0.001034 0.000000
# 2 0.010584 0.021361 -0.006422 0.000000 -0.000852 0.000000
# 3 -0.006145 -0.006422 0.008531 0.000000 -0.002340 0.000000
# 4 0.000000 0.000000 0.000000 0.026230 0.000000 -0.000298
# 5 0.001034 -0.000852 -0.002340 0.000000 0.108079 0.000000
# 6 0.000000 0.000000 0.000000 -0.000298 0.000000 0.038628
#
#
# Mechanical properties :
#
#
# Convention : Reuss Voigt Hill
#
# Bulk Modulus (GPa) = 16.99392 38.97718 27.98555
# Shear Modulus (GPa) = 19.28065 29.40049 24.34057
#
# Velocity S-wave (km/s) = 3.11262 3.84364 3.49728
# Velocity P-wave (km/s) = 4.63219 6.26768 5.51094
#
# Compressibility (1/GPa) = 0.05884458
#
# Stress axis : x y z
#
# Youngs Moduli (GPa) = 30.37910 46.81358 117.21650
#
# Poissons Ratio (x) = -0.49550 0.72029
# Poissons Ratio (y) = -0.32155 0.75279
# Poissons Ratio (z) = 0.18668 0.30065
#
# Static dielectric constant tensor:
#      x y z
#    x 3.526130 0.000000 0.006400 
#    y 0.000000 3.319720 0.000000 
#    z 0.006400 0.000000 3.753870 
# 
# 
# High freq. dielectric constant tensor:
#      x y z
#    x 1.769280 0.000000 0.000700 
#    y 0.000000 1.766770 0.000000 
#    z 0.000700 0.000000 1.793840 
# 
# From -- ./inp_files/147446.got.cif
#   From: 2010.06.25/outbox.cif.g09.slc.cpg/sg15_74_cif.got.tgz:147446.got - 2010.06.28 07:06:18.
