data_PCOD8138660
_publ_section_title
;
Structure prediction by ZEFSAII (Michael W. Deem and Ramdas Pophale) SiO2 
 PCOD8138660
Probable space group: C 2/C
;
_chemical_formula_sum "Si O2"
_cell_formula_units_Z 40
_cell_length_a 4.911557
_cell_length_b 22.178287
_cell_length_c 17.613408
_cell_angle_alpha 90.000000
_cell_angle_beta 81.985225
_cell_angle_gamma 90.000000
_cell_volume 1899.886270
_symmetry_space_group_name_H-M "C 2/C"
_symmetry_group_IT_number 15
_symmetry_cell_setting 'monoclinic'
loop_
_space_group_symop_operation_xyz
x,y,z
-x,y,1/2-z
-x,-y,-z
x,-y,1/2+z
1/2+x,1/2+y,z
1/2-x,1/2+y,1/2-z
1/2-x,1/2-y,-z
1/2+x,1/2-y,1/2+z
loop_
_atom_site_type_symbol
_atom_site_label
_atom_site_fract_x
_atom_site_fract_y
_atom_site_fract_z
Si Si1 0.948765 0.240498 0.601598
Si Si2 0.199639 0.509501 0.601597
Si Si3 0.500000 0.915546 0.250000
Si Si4 0.500000 0.665544 0.750000
Si Si5 0.961250 0.811481 0.558487
Si Si6 0.269736 0.438519 0.941514
O O1 0.643396 0.260184 0.590965
O O2 0.931806 0.206828 0.681287
O O3 0.049724 0.194147 0.532501
O O4 0.150371 0.299017 0.599402
O O5 0.515641 0.489816 0.590965
O O6 0.167778 0.555853 0.532502
O O7 0.136905 0.543169 0.681288
O O8 0.000230 0.450982 0.599400
O O9 0.735446 0.875001 0.279107
O O10 0.085170 0.875000 0.579661
#
# Coordination Sequence:
#
# PCOD8138660 Si02
#       6
#     8   8   4   4   8   8
#     4  10  22  37  58  87 114 148 198 236 283 353
#     4  10  22  37  58  87 114 148 198 236 283 353
#     4  12  24  40  61  86 119 152 190 248 304 346
#     4  12  24  40  61  86 119 152 190 248 304 346
#     4  10  20  38  60  83 115 153 192 238 285 340
#     4  10  20  38  60  83 115 153 192 238 285 340
#
# _framework density 21.053892999999999
#
# number of rings (size 3 to 8) (size 9 to 14) (size 15 to 20)
#    0.000    1.600    0.000    4.800    0.000    6.400 
#    0.000    6.000    0.000    0.000    0.000    0.000 
#    0.000    0.000    0.000    0.000    0.000    0.000 
#
# Total GULP energy -248028.870104 kJ/mol
# GULP energy per Si atom -12401.443505 kJ/mol
# Density = 2.100597 g / cm^3
# Si number density = 21.053893 Si / 1000 Ang^3
#
#
#
# Elastic Constant Matrix: (Units=GPa)
#
#
# Indices 1 2 3 4 5 6 
#
# 1 90.4109 2.7984 20.9361 0.0000 -1.3618 0.0000
# 2 2.7984 69.7663 33.4795 0.0000 2.5515 0.0000
# 3 20.9361 33.4795 127.9881 0.0000 4.4873 0.0000
# 4 0.0000 0.0000 0.0000 15.2339 0.0000 -0.5052
# 5 -1.3618 2.5515 4.4873 0.0000 27.0337 0.0000
# 6 0.0000 0.0000 0.0000 -0.5052 0.0000 21.3145
#
#
#
# Elastic Compliance Matrix: (Units=1/GPa)
#
#
# Indices 1 2 3 4 5 6 
#
# 1 0.011532 0.000486 -0.002044 0.000000 0.000874 0.000000
# 2 0.000486 0.016431 -0.004349 0.000000 -0.000804 0.000000
# 3 -0.002044 -0.004349 0.009329 0.000000 -0.001241 0.000000
# 4 0.000000 0.000000 0.000000 0.065695 0.000000 0.001557
# 5 0.000874 -0.000804 -0.001241 0.000000 0.037317 0.000000
# 6 0.000000 0.000000 0.000000 0.001557 0.000000 0.046953
#
#
# Mechanical properties :
#
#
# Convention : Reuss Voigt Hill
#
# Bulk Modulus (GPa) = 39.25071 44.73259 41.99165
# Shear Modulus (GPa) = 24.08903 28.11317 26.10110
#
# Velocity S-wave (km/s) = 3.38621 3.65813 3.52480
# Velocity P-wave (km/s) = 5.82855 6.25583 6.04597
#
# Compressibility (1/GPa) = 0.02547725
#
# Stress axis : x y z
#
# Youngs Moduli (GPa) = 86.71430 60.86192 107.19428
#
# Poissons Ratio (x) = -0.02961 0.21914
# Poissons Ratio (y) = -0.04219 0.46623
# Poissons Ratio (z) = 0.17727 0.26471
#
# Static dielectric constant tensor:
#      x y z
#    x 4.130980 0.000000 -0.049520 
#    y 0.000000 3.592950 0.000000 
#    z -0.049520 0.000000 3.535380 
# 
# 
# High freq. dielectric constant tensor:
#      x y z
#    x 1.850380 0.000000 -0.003770 
#    y 0.000000 1.813420 0.000000 
#    z -0.003770 0.000000 1.804990 
# 
# From -- ./inp_files/184637.got.cif
#   From: 2010.06.25/outbox.cif.g09.slc.cpg/sg15_93_cif.got.tgz:184637.got - 2010.06.28 07:06:18.
