data_PCOD8138808
_publ_section_title
;
Structure prediction by ZEFSAII (Michael W. Deem and Ramdas Pophale) SiO2 
 PCOD8138808
Probable space group: C 2/C
;
_chemical_formula_sum "Si O2"
_cell_formula_units_Z 48
_cell_length_a 24.512710
_cell_length_b 19.778177
_cell_length_c 10.870275
_cell_angle_alpha 90.000000
_cell_angle_beta 156.401308
_cell_angle_gamma 90.000000
_cell_volume 2109.765601
_symmetry_space_group_name_H-M "C 2/C"
_symmetry_group_IT_number 15
_symmetry_cell_setting 'monoclinic'
loop_
_space_group_symop_operation_xyz
x,y,z
-x,y,1/2-z
-x,-y,-z
x,-y,1/2+z
1/2+x,1/2+y,z
1/2-x,1/2+y,1/2-z
1/2-x,1/2-y,-z
1/2+x,1/2-y,1/2+z
loop_
_atom_site_type_symbol
_atom_site_label
_atom_site_fract_x
_atom_site_fract_y
_atom_site_fract_z
Si Si1 0.287260 0.860834 0.968795
Si Si2 0.199548 0.891216 0.235042
Si Si3 0.073876 0.128058 0.230726
Si Si4 0.226234 0.763132 0.624357
Si Si5 0.481818 0.766404 0.994745
Si Si6 0.581378 0.001044 0.795208
O O1 0.162953 0.886908 0.795193
O O2 0.224810 0.806310 0.745743
O O3 0.410150 0.827095 0.303330
O O4 0.347807 0.927124 0.029391
O O5 0.258026 0.816938 0.329895
O O6 0.312706 0.942136 0.511628
O O7 0.137385 0.913043 0.975470
O O8 0.085156 0.893939 0.107053
O O9 0.067930 0.209200 0.246313
O O10 0.351349 0.793670 0.801943
O O11 0.077257 0.769276 0.251139
O O12 0.500000 0.981480 0.750000
O O13 0.500000 0.000000 0.500000
#
# Coordination Sequence:
#
# PCOD8138808 Si02
#       6
#     8   8   8   8   8   8
#     4  12  23  41  68 103 141 176 240 302 350 425
#     4  10  22  44  66  94 141 186 231 278 362 430
#     4  10  22  41  66  96 135 185 231 283 351 426
#     4  10  21  37  65  96 133 182 227 296 351 405
#     4  10  20  38  61  98 137 174 231 291 351 414
#     4  12  27  47  73 105 141 189 238 296 366 432
#
# _framework density 22.751344
#
# number of rings (size 3 to 8) (size 9 to 14) (size 15 to 20)
#    0.000    1.333    1.667    4.000    0.000    4.000 
#    0.000    3.333    0.000    0.000    0.000    0.000 
#    0.000    0.000    0.000    0.000    0.000    0.000 
#
# Total GULP energy -297428.372209 kJ/mol
# GULP energy per Si atom -12392.848842 kJ/mol
# Density = 2.269956 g / cm^3
# Si number density = 22.751344 Si / 1000 Ang^3
#
#
#
# Elastic Constant Matrix: (Units=GPa)
#
#
# Indices 1 2 3 4 5 6 
#
# 1 116.0075 30.5122 63.5135 0.0000 9.7591 0.0000
# 2 30.5122 105.5165 65.1017 0.0000 6.0010 0.0000
# 3 63.5135 65.1017 123.4717 0.0000 0.2863 0.0000
# 4 0.0000 0.0000 0.0000 44.2154 0.0000 4.5289
# 5 9.7591 6.0010 0.2863 0.0000 38.5588 0.0000
# 6 0.0000 0.0000 0.0000 4.5289 0.0000 25.8427
#
#
#
# Elastic Compliance Matrix: (Units=1/GPa)
#
#
# Indices 1 2 3 4 5 6 
#
# 1 0.012398 0.000782 -0.006782 0.000000 -0.003209 0.000000
# 2 0.000782 0.014273 -0.007923 0.000000 -0.002360 0.000000
# 3 -0.006782 -0.007923 0.015758 0.000000 0.002833 0.000000
# 4 0.000000 0.000000 0.000000 0.023030 0.000000 -0.004036
# 5 -0.003209 -0.002360 0.002833 0.000000 0.027093 0.000000
# 6 0.000000 0.000000 0.000000 -0.004036 0.000000 0.039403
#
#
# Mechanical properties :
#
#
# Convention : Reuss Voigt Hill
#
# Bulk Modulus (GPa) = 68.56864 73.69449 71.13156
# Shear Modulus (GPa) = 30.36522 34.11460 32.23991
#
# Velocity S-wave (km/s) = 3.65726 3.87648 3.76846
# Velocity P-wave (km/s) = 6.93093 7.24553 7.08997
#
# Compressibility (1/GPa) = 0.01458393
#
# Stress axis : x y z
#
# Youngs Moduli (GPa) = 80.66063 70.06051 63.45819
#
# Poissons Ratio (x) = -0.05478 0.43038
# Poissons Ratio (y) = -0.06307 0.50275
# Poissons Ratio (z) = 0.54705 0.55506
#
# Static dielectric constant tensor:
#      x y z
#    x 3.951460 0.000000 -0.002550 
#    y 0.000000 3.889820 0.000000 
#    z -0.002550 0.000000 4.415960 
# 
# 
# High freq. dielectric constant tensor:
#      x y z
#    x 1.886450 0.000000 0.007230 
#    y 0.000000 1.877510 0.000000 
#    z 0.007230 0.000000 1.911990 
# 
# From -- ./inp_files/124329.got.cif
#   From: 2010.06.25/outbox.cif.g09.slc.cpg/sg15_63_cif.got.tgz:124329.got - 2010.06.28 07:06:18.
