data_PCOD8138283
_publ_section_title
;
Structure prediction by ZEFSAII (Michael W. Deem and Ramdas Pophale) SiO2 
 PCOD8138283
Probable space group: C 2/C
;
_chemical_formula_sum "Si O2"
_cell_formula_units_Z 56
_cell_length_a 14.427005
_cell_length_b 17.701055
_cell_length_c 12.375332
_cell_angle_alpha 90.000000
_cell_angle_beta 58.759506
_cell_angle_gamma 90.000000
_cell_volume 2702.074105
_symmetry_space_group_name_H-M "C 2/C"
_symmetry_group_IT_number 15
_symmetry_cell_setting 'monoclinic'
loop_
_space_group_symop_operation_xyz
x,y,z
-x,y,1/2-z
-x,-y,-z
x,-y,1/2+z
1/2+x,1/2+y,z
1/2-x,1/2+y,1/2-z
1/2-x,1/2-y,-z
1/2+x,1/2-y,1/2+z
loop_
_atom_site_type_symbol
_atom_site_label
_atom_site_fract_x
_atom_site_fract_y
_atom_site_fract_z
Si Si1 0.100697 0.814691 0.270132
Si Si2 0.767903 0.210352 0.264226
Si Si3 0.952358 0.125851 0.028669
Si Si4 0.619958 0.157319 0.696154
Si Si5 0.287692 0.925983 0.559534
Si Si6 0.120866 0.982531 0.506359
Si Si7 0.236987 0.562463 0.784951
O O1 0.179840 0.742160 0.231645
O O2 0.178342 0.886253 0.196710
O O3 0.000000 0.802050 0.250000
O O4 0.048129 0.824315 0.420334
O O5 0.874199 0.183762 0.135977
O O6 0.799938 0.270610 0.339161
O O7 0.713515 0.139888 0.353360
O O8 0.893299 0.073857 0.972547
O O9 0.005312 0.060907 0.072288
O O10 0.500000 0.188898 0.750000
O O11 0.639241 0.100710 0.584287
O O12 0.637075 0.111399 0.797406
O O13 0.170151 0.946985 0.584406
O O14 0.323525 0.001484 0.602130
O O15 0.196669 0.972672 0.355086
#
# Coordination Sequence:
#
# PCOD8138283 Si02
#       7
#     8   8   8   8   8   8   8
#     4  10  22  40  60  89 127 164 204 253 310 368
#     4  11  24  38  61  94 128 158 205 256 312 377
#     4  10  20  37  62  89 128 154 205 255 307 373
#     4  10  24  39  60  90 125 166 209 248 309 376
#     4  11  21  38  65  85 126 161 206 263 312 348
#     4   9  19  35  58  96 116 152 203 262 305 362
#     4   9  19  40  59  88 121 156 212 259 295 364
#
# _framework density 20.724819
#
# number of rings (size 3 to 8) (size 9 to 14) (size 15 to 20)
#    0.000    2.000    1.429    2.143    4.000    1.143 
#    0.000    0.714    0.000    0.000    0.000    0.000 
#    0.000    0.000    0.000    0.000    0.000    0.000 
#
# Total GULP energy -346873.403593 kJ/mol
# GULP energy per Si atom -12388.335843 kJ/mol
# Density = 2.067765 g / cm^3
# Si number density = 20.724819 Si / 1000 Ang^3
#
#
#
# Elastic Constant Matrix: (Units=GPa)
#
#
# Indices 1 2 3 4 5 6 
#
# 1 96.0550 31.1625 11.3584 0.0000 1.8126 0.0000
# 2 31.1625 101.8484 25.0715 0.0000 8.0287 0.0000
# 3 11.3584 25.0715 45.0717 0.0000 4.9773 0.0000
# 4 0.0000 0.0000 0.0000 32.7408 0.0000 -5.7792
# 5 1.8126 8.0287 4.9773 0.0000 19.3453 0.0000
# 6 0.0000 0.0000 0.0000 -5.7792 0.0000 28.6018
#
#
#
# Elastic Compliance Matrix: (Units=1/GPa)
#
#
# Indices 1 2 3 4 5 6 
#
# 1 0.011611 -0.003317 -0.001146 0.000000 0.000583 0.000000
# 2 -0.003317 0.012517 -0.005751 0.000000 -0.003405 0.000000
# 3 -0.001146 -0.005751 0.026142 0.000000 -0.004232 0.000000
# 4 0.000000 0.000000 0.000000 0.031673 0.000000 0.006400
# 5 0.000583 -0.003405 -0.004232 0.000000 0.054139 0.000000
# 6 0.000000 0.000000 0.000000 0.006400 0.000000 0.036256
#
#
# Mechanical properties :
#
#
# Convention : Reuss Voigt Hill
#
# Bulk Modulus (GPa) = 33.50775 42.01777 37.76276
# Shear Modulus (GPa) = 24.66541 27.82976 26.24759
#
# Velocity S-wave (km/s) = 3.45358 3.66843 3.56263
# Velocity P-wave (km/s) = 5.66622 6.18557 5.93158
#
# Compressibility (1/GPa) = 0.02984385
#
# Stress axis : x y z
#
# Youngs Moduli (GPa) = 86.12406 79.88871 38.25255
#
# Poissons Ratio (x) = 0.26496 0.04382
# Poissons Ratio (y) = 0.28564 0.22000
# Poissons Ratio (z) = 0.09866 0.45945
#
# Static dielectric constant tensor:
#      x y z
#    x 3.772740 0.000000 0.057440 
#    y 0.000000 3.889510 0.000000 
#    z 0.057440 0.000000 3.488720 
# 
# 
# High freq. dielectric constant tensor:
#      x y z
#    x 1.806890 0.000000 0.006780 
#    y 0.000000 1.816020 0.000000 
#    z 0.006780 0.000000 1.782660 
# 
# From -- ./inp_files/98660.got.cif
#   From: 2010.06.25/outbox.cif.g09.slc.cpg/sg15_50_cif.got.tgz:98660.got - 2010.06.28 07:06:18.
