data_PCOD8138247
_publ_section_title
;
Structure prediction by ZEFSAII (Michael W. Deem and Ramdas Pophale) SiO2 
 PCOD8138247
Probable space group: C 2/C
;
_chemical_formula_sum "Si O2"
_cell_formula_units_Z 52
_cell_length_a 17.790048
_cell_length_b 9.590038
_cell_length_c 16.147978
_cell_angle_alpha 90.000000
_cell_angle_beta 111.156461
_cell_angle_gamma 90.000000
_cell_volume 2569.272867
_symmetry_space_group_name_H-M "C 2/C"
_symmetry_group_IT_number 15
_symmetry_cell_setting 'monoclinic'
loop_
_space_group_symop_operation_xyz
x,y,z
-x,y,1/2-z
-x,-y,-z
x,-y,1/2+z
1/2+x,1/2+y,z
1/2-x,1/2+y,1/2-z
1/2-x,1/2-y,-z
1/2+x,1/2-y,1/2+z
loop_
_atom_site_type_symbol
_atom_site_label
_atom_site_fract_x
_atom_site_fract_y
_atom_site_fract_z
Si Si1 0.646237 0.618047 0.404844
Si Si2 0.000000 0.224903 0.250000
Si Si3 0.082068 0.263169 0.687952
Si Si4 0.037765 0.566677 0.633731
Si Si5 0.191652 0.288184 0.580951
Si Si6 0.385807 0.941367 0.505970
Si Si7 0.102006 0.190110 0.881586
O O1 0.559525 0.630962 0.327319
O O2 0.711327 0.701972 0.373371
O O3 0.654868 0.686436 0.497825
O O4 0.650218 0.451424 0.420986
O O5 0.947248 0.315858 0.292377
O O6 0.080257 0.429585 0.685257
O O7 0.149669 0.226789 0.646365
O O8 0.114265 0.215758 0.789144
O O9 0.994181 0.194840 0.633518
O O10 0.068264 0.619004 0.556454
O O11 0.943260 0.534062 0.587510
O O12 0.180545 0.451397 0.552469
O O13 0.353436 0.810745 0.546673
#
# Coordination Sequence:
#
# PCOD8138247 Si02
#       7
#     8   4   8   8   8   8   8
#     4  11  25  39  59  89 129 159 200 248 315 361
#     4  12  20  36  60  86 118 158 202 246 286 384
#     4   9  19  38  64  87 124 155 206 259 304 347
#     4   9  17  31  61  93 106 155 206 248 292 363
#     4  10  22  44  59  85 127 166 193 252 311 366
#     4   9  17  36  62  84 115 151 206 245 297 361
#     4  10  20  37  61  95 117 159 205 257 298 364
#
# _framework density 20.239190000000001
#
# number of rings (size 3 to 8) (size 9 to 14) (size 15 to 20)
#    0.000    2.154    1.538    3.692    0.000    1.231 
#    8.308    0.000    0.000    0.000    0.000    0.000 
#    0.000    0.000    0.000    0.000    0.000    0.000 
#
# Total GULP energy -322117.549632 kJ/mol
# GULP energy per Si atom -12389.136524 kJ/mol
# Density = 2.019312 g / cm^3
# Si number density = 20.239190 Si / 1000 Ang^3
#
#
#
# Elastic Constant Matrix: (Units=GPa)
#
#
# Indices 1 2 3 4 5 6 
#
# 1 90.4891 24.3997 41.3022 0.0000 -22.9215 0.0000
# 2 24.3997 84.4012 47.9241 0.0000 -8.8631 0.0000
# 3 41.3022 47.9241 86.8114 0.0000 -14.5265 0.0000
# 4 0.0000 0.0000 0.0000 6.7468 0.0000 -4.8449
# 5 -22.9215 -8.8631 -14.5265 0.0000 32.3640 0.0000
# 6 0.0000 0.0000 0.0000 -4.8449 0.0000 17.5366
#
#
#
# Elastic Compliance Matrix: (Units=1/GPa)
#
#
# Indices 1 2 3 4 5 6 
#
# 1 0.016064 -0.000318 -0.006031 0.000000 0.008583 0.000000
# 2 -0.000318 0.017271 -0.009330 0.000000 0.000317 0.000000
# 3 -0.006031 -0.009330 0.019891 0.000000 0.002102 0.000000
# 4 0.000000 0.000000 0.000000 0.184902 0.000000 0.051084
# 5 0.008583 0.000317 0.002102 0.000000 0.038007 0.000000
# 6 0.000000 0.000000 0.000000 0.051084 0.000000 0.071137
#
#
# Mechanical properties :
#
#
# Convention : Reuss Voigt Hill
#
# Bulk Modulus (GPa) = 45.73005 54.32819 50.02912
# Shear Modulus (GPa) = 12.95609 21.20120 17.07865
#
# Velocity S-wave (km/s) = 2.53286 3.24007 2.90804
# Velocity P-wave (km/s) = 5.58549 6.39521 6.00402
#
# Compressibility (1/GPa) = 0.02186746
#
# Stress axis : x y z
#
# Youngs Moduli (GPa) = 62.25271 57.89993 50.27459
#
# Poissons Ratio (x) = 0.01843 0.30319
# Poissons Ratio (y) = 0.01981 0.46907
# Poissons Ratio (z) = 0.37542 0.54021
#
# Static dielectric constant tensor:
#      x y z
#    x 3.604320 0.000000 -0.181010 
#    y 0.000000 3.582770 0.000000 
#    z -0.181010 0.000000 3.599440 
# 
# 
# High freq. dielectric constant tensor:
#      x y z
#    x 1.773060 0.000000 -0.012580 
#    y 0.000000 1.783270 0.000000 
#    z -0.012580 0.000000 1.787330 
# 
# From -- ./inp_files/209237.got.cif
#   From: 2010.06.25/outbox.cif.g09.slc.cpg/sg15_105_cif.got.tgz:209237.got - 2010.06.28 07:06:18.
