data_PCOD8138155
_publ_section_title
;
Structure prediction by ZEFSAII (Michael W. Deem and Ramdas Pophale) SiO2 
 PCOD8138155
Probable space group: C 2/C
;
_chemical_formula_sum "Si O2"
_cell_formula_units_Z 56
_cell_length_a 20.459913
_cell_length_b 8.717625
_cell_length_c 17.519131
_cell_angle_alpha 90.000000
_cell_angle_beta 114.111774
_cell_angle_gamma 90.000000
_cell_volume 2852.111408
_symmetry_space_group_name_H-M "C 2/C"
_symmetry_group_IT_number 15
_symmetry_cell_setting 'monoclinic'
loop_
_space_group_symop_operation_xyz
x,y,z
-x,y,1/2-z
-x,-y,-z
x,-y,1/2+z
1/2+x,1/2+y,z
1/2-x,1/2+y,1/2-z
1/2-x,1/2-y,-z
1/2+x,1/2-y,1/2+z
loop_
_atom_site_type_symbol
_atom_site_label
_atom_site_fract_x
_atom_site_fract_y
_atom_site_fract_z
Si Si1 0.299333 0.523919 0.865416
Si Si2 0.617315 0.243544 0.604827
Si Si3 0.914175 0.449153 0.550136
Si Si4 0.208449 0.324811 0.550217
Si Si5 0.731835 0.420005 0.319525
Si Si6 0.456159 0.081516 0.802214
Si Si7 0.843162 0.369277 0.665877
O O1 0.371189 0.421713 0.912668
O O2 0.314086 0.696858 0.898469
O O3 0.282560 0.504675 0.768383
O O4 0.231547 0.459300 0.879978
O O5 0.573970 0.156772 0.517964
O O6 0.695219 0.171979 0.649417
O O7 0.578057 0.224225 0.668013
O O8 0.865815 0.598750 0.510922
O O9 0.876312 0.350467 0.598003
O O10 0.992674 0.495621 0.614293
O O11 0.250000 0.250000 0.500000
O O12 0.262477 0.446090 0.614797
O O13 0.667701 0.303168 0.308850
O O14 0.500000 0.145304 0.750000
O O15 0.395363 0.962106 0.747303
#
# Coordination Sequence:
#
# PCOD8138155 Si02
#       7
#     8   8   8   8   8   8   8
#     4  11  21  36  60  89 123 152 199 255 309 367
#     4  10  21  36  60  87 115 154 200 251 304 355
#     4  10  22  37  60  85 119 162 203 249 305 375
#     4  11  22  36  59  94 123 159 196 258 313 359
#     4  10  22  34  61  87 122 153 199 252 310 367
#     4  10  21  39  63  84 118 165 212 248 302 378
#     4  10  20  37  60  87 116 156 203 252 304 361
#
# _framework density 19.634577
#
# number of rings (size 3 to 8) (size 9 to 14) (size 15 to 20)
#    0.000    1.714    2.857    2.143    4.000    1.714 
#    0.000    0.714    0.000    0.857    0.000    0.000 
#    0.000    0.000    0.000    0.000    0.000    0.000 
#
# Total GULP energy -347217.993480 kJ/mol
# GULP energy per Si atom -12400.642624 kJ/mol
# Density = 1.958989 g / cm^3
# Si number density = 19.634577 Si / 1000 Ang^3
#
#
#
# Elastic Constant Matrix: (Units=GPa)
#
#
# Indices 1 2 3 4 5 6 
#
# 1 76.5715 36.7303 28.5601 0.0000 -10.7410 0.0000
# 2 36.7303 96.5890 24.5825 0.0000 -4.7809 0.0000
# 3 28.5601 24.5825 84.3872 0.0000 -4.4430 0.0000
# 4 0.0000 0.0000 0.0000 23.8403 0.0000 -5.5898
# 5 -10.7410 -4.7809 -4.4430 0.0000 29.2494 0.0000
# 6 0.0000 0.0000 0.0000 -5.5898 0.0000 26.5844
#
#
#
# Elastic Compliance Matrix: (Units=1/GPa)
#
#
# Indices 1 2 3 4 5 6 
#
# 1 0.017988 -0.005517 -0.004214 0.000000 0.005064 0.000000
# 2 -0.005517 0.012927 -0.001909 0.000000 -0.000203 0.000000
# 3 -0.004214 -0.001909 0.013845 0.000000 0.000244 0.000000
# 4 0.000000 0.000000 0.000000 0.044121 0.000000 0.009277
# 5 0.005064 -0.000203 0.000244 0.000000 0.036052 0.000000
# 6 0.000000 0.000000 0.000000 0.009277 0.000000 0.039567
#
#
# Mechanical properties :
#
#
# Convention : Reuss Voigt Hill
#
# Bulk Modulus (GPa) = 46.55596 48.58819 47.57207
# Shear Modulus (GPa) = 25.64865 27.11313 26.38089
#
# Velocity S-wave (km/s) = 3.61820 3.72006 3.66948
# Velocity P-wave (km/s) = 6.42011 6.57661 6.49883
#
# Compressibility (1/GPa) = 0.02147953
#
# Stress axis : x y z
#
# Youngs Moduli (GPa) = 55.59118 77.35689 72.22637
#
# Poissons Ratio (x) = 0.42681 0.30438
# Poissons Ratio (y) = 0.30672 0.13789
# Poissons Ratio (z) = 0.23427 0.14768
#
# Static dielectric constant tensor:
#      x y z
#    x 3.556810 0.000000 -0.097170 
#    y 0.000000 3.697050 0.000000 
#    z -0.097170 0.000000 3.712360 
# 
# 
# High freq. dielectric constant tensor:
#      x y z
#    x 1.756080 0.000000 -0.013670 
#    y 0.000000 1.752930 0.000000 
#    z -0.013670 0.000000 1.776310 
# 
# From -- ./inp_files/209624.got.cif
#   From: 2010.06.25/outbox.cif.g09.slc.cpg/sg15_105_cif.got.tgz:209624.got - 2010.06.28 07:06:18.
