data_PCOD8138959
_publ_section_title
;
Structure prediction by ZEFSAII (Michael W. Deem and Ramdas Pophale) SiO2 
 PCOD8138959
Probable space group: C 2/C
;
_chemical_formula_sum "Si O2"
_cell_formula_units_Z 52
_cell_length_a 16.526799
_cell_length_b 11.478192
_cell_length_c 14.368241
_cell_angle_alpha 90.000000
_cell_angle_beta 75.868014
_cell_angle_gamma 90.000000
_cell_volume 2643.134670
_symmetry_space_group_name_H-M "C 2/C"
_symmetry_group_IT_number 15
_symmetry_cell_setting 'monoclinic'
loop_
_space_group_symop_operation_xyz
x,y,z
-x,y,1/2-z
-x,-y,-z
x,-y,1/2+z
1/2+x,1/2+y,z
1/2-x,1/2+y,1/2-z
1/2-x,1/2-y,-z
1/2+x,1/2-y,1/2+z
loop_
_atom_site_type_symbol
_atom_site_label
_atom_site_fract_x
_atom_site_fract_y
_atom_site_fract_z
Si Si1 0.379179 0.987259 0.523460
Si Si2 0.014436 0.453249 0.343788
Si Si3 0.574490 0.526142 0.548898
Si Si4 0.621531 0.275694 0.778048
Si Si5 0.288045 0.352580 0.931297
Si Si6 0.000000 0.962899 0.750000
Si Si7 0.667034 0.247196 0.964734
O O1 0.430515 0.965179 0.604288
O O2 0.379271 0.125504 0.504447
O O3 0.426927 0.925311 0.423073
O O4 0.286028 0.943435 0.568337
O O5 0.062466 0.337035 0.297173
O O6 0.000000 0.521408 0.250000
O O7 0.500000 0.500000 0.500000
O O8 0.641678 0.420307 0.528506
O O9 0.548465 0.542930 0.663752
O O10 0.608357 0.651024 0.514838
O O11 0.677581 0.290402 0.670794
O O12 0.560421 0.386208 0.798731
O O13 0.683045 0.269555 0.850034
O O14 0.250000 0.250000 0.000000
O O15 0.750000 0.250000 0.000000
#
# Coordination Sequence:
#
# PCOD8138959 Si02
#       7
#     8   8   8   8   8   4   8
#     4  10  23  38  63  94 128 164 215 261 320 392
#     4  10  20  38  63  90 125 167 204 260 325 376
#     4  11  23  42  67  92 130 173 217 268 326 392
#     4  10  21  38  66  90 126 169 209 265 321 388
#     4  11  24  42  65  99 128 167 223 271 316 396
#     4  10  20  38  64  92 120 170 224 252 322 392
#     4  11  22  43  61  90 133 168 206 272 332 377
#
# _framework density 19.673608000000002
#
# number of rings (size 3 to 8) (size 9 to 14) (size 15 to 20)
#    0.000    1.538    3.846    0.923    2.154    2.462 
#    9.692    0.000    0.000    0.000    0.000    0.000 
#    0.000    0.000    0.000    0.000    0.000    0.000 
#
# Total GULP energy -322240.752792 kJ/mol
# GULP energy per Si atom -12393.875107 kJ/mol
# Density = 1.962883 g / cm^3
# Si number density = 19.673608 Si / 1000 Ang^3
#
#
#
# Elastic Constant Matrix: (Units=GPa)
#
#
# Indices 1 2 3 4 5 6 
#
# 1 140.8483 44.5175 72.4718 0.0000 10.1771 0.0000
# 2 44.5175 105.7578 61.7933 0.0000 -9.9726 0.0000
# 3 72.4718 61.7933 148.7250 0.0000 0.7790 0.0000
# 4 0.0000 0.0000 0.0000 31.9649 0.0000 -6.4865
# 5 10.1771 -9.9726 0.7790 0.0000 45.0527 0.0000
# 6 0.0000 0.0000 0.0000 -6.4865 0.0000 26.1386
#
#
#
# Elastic Compliance Matrix: (Units=1/GPa)
#
#
# Indices 1 2 3 4 5 6 
#
# 1 0.010016 -0.002145 -0.003976 0.000000 -0.002669 0.000000
# 2 -0.002145 0.013324 -0.004509 0.000000 0.003512 0.000000
# 3 -0.003976 -0.004509 0.010536 0.000000 -0.000282 0.000000
# 4 0.000000 0.000000 0.000000 0.032943 0.000000 0.008175
# 5 -0.002669 0.003512 -0.000282 0.000000 0.023581 0.000000
# 6 0.000000 0.000000 0.000000 0.008175 0.000000 0.040286
#
#
# Mechanical properties :
#
#
# Convention : Reuss Voigt Hill
#
# Bulk Modulus (GPa) = 79.25807 83.65513 81.45660
# Shear Modulus (GPa) = 32.01991 35.06781 33.54386
#
# Velocity S-wave (km/s) = 4.03868 4.22652 4.13367
# Velocity P-wave (km/s) = 7.88174 8.15057 8.01728
#
# Compressibility (1/GPa) = 0.01261701
#
# Stress axis : x y z
#
# Youngs Moduli (GPa) = 99.83827 75.05058 94.91180
#
# Poissons Ratio (x) = 0.16098 0.37733
# Poissons Ratio (y) = 0.21415 0.42798
# Poissons Ratio (z) = 0.39692 0.33842
#
# Static dielectric constant tensor:
#      x y z
#    x 3.903020 0.000000 0.329270 
#    y 0.000000 3.498610 0.000000 
#    z 0.329270 0.000000 3.507780 
# 
# 
# High freq. dielectric constant tensor:
#      x y z
#    x 1.776240 0.000000 0.007330 
#    y 0.000000 1.753730 0.000000 
#    z 0.007330 0.000000 1.778260 
# 
# From -- ./inp_files/160386.got.cif
#   From: 2010.06.25/outbox.cif.g09.slc.cpg/sg15_81_cif.got.tgz:160386.got - 2010.06.28 07:06:18.
