data_PCOD8138893
_publ_section_title
;
Structure prediction by ZEFSAII (Michael W. Deem and Ramdas Pophale) SiO2 
 PCOD8138893
Probable space group: C 2/C
;
_chemical_formula_sum "Si O2"
_cell_formula_units_Z 48
_cell_length_a 15.335576
_cell_length_b 18.205132
_cell_length_c 8.797803
_cell_angle_alpha 90.000000
_cell_angle_beta 91.233206
_cell_angle_gamma 90.000000
_cell_volume 2455.656144
_symmetry_space_group_name_H-M "C 2/C"
_symmetry_group_IT_number 15
_symmetry_cell_setting 'monoclinic'
loop_
_space_group_symop_operation_xyz
x,y,z
-x,y,1/2-z
-x,-y,-z
x,-y,1/2+z
1/2+x,1/2+y,z
1/2-x,1/2+y,1/2-z
1/2-x,1/2-y,-z
1/2+x,1/2-y,1/2+z
loop_
_atom_site_type_symbol
_atom_site_label
_atom_site_fract_x
_atom_site_fract_y
_atom_site_fract_z
Si Si1 0.022691 0.585537 0.419913
Si Si2 0.157153 0.570527 0.986810
Si Si3 0.680141 0.299601 0.583278
Si Si4 0.994195 0.241303 0.576195
Si Si5 0.791234 0.563450 0.159066
Si Si6 0.338547 0.764453 0.087663
O O1 0.125356 0.573434 0.451440
O O2 0.000000 0.561843 0.250000
O O3 0.946797 0.544364 0.519813
O O4 0.013160 0.672187 0.442699
O O5 0.190296 0.577075 0.162535
O O6 0.224616 0.522291 0.885951
O O7 0.151072 0.648540 0.906890
O O8 0.750000 0.250000 0.500000
O O9 0.588388 0.302222 0.493672
O O10 0.714461 0.383307 0.601298
O O11 0.664324 0.264583 0.744083
O O12 0.083503 0.220290 0.493294
O O13 0.000000 0.216398 0.750000
O O14 0.250000 0.750000 0.000000
#
# Coordination Sequence:
#
# PCOD8138893 Si02
#       6
#     8   8   8   8   8   8
#     4   8  16  33  54  82 123 159 192 240 299 368
#     4  10  22  36  58  85 126 164 202 252 306 369
#     4  12  23  37  62  93 126 166 209 252 306 377
#     4  10  20  38  62  92 123 157 206 262 311 361
#     4  11  21  37  55  90 125 164 202 245 310 372
#     4  11  22  41  62  91 121 160 208 260 310 358
#
# _framework density 19.546710000000001
#
# number of rings (size 3 to 8) (size 9 to 14) (size 15 to 20)
#    0.000    1.667    3.333    3.000    2.333    0.000 
#    0.000    1.667    0.000    1.000    0.000    0.000 
#    0.000    0.000    0.000    0.000    0.000    0.000 
#
# Total GULP energy -297354.825765 kJ/mol
# GULP energy per Si atom -12389.784407 kJ/mol
# Density = 1.950222 g / cm^3
# Si number density = 19.546710 Si / 1000 Ang^3
#
#
#
# Elastic Constant Matrix: (Units=GPa)
#
#
# Indices 1 2 3 4 5 6 
#
# 1 144.1020 47.6712 58.3208 0.0000 5.8181 0.0000
# 2 47.6712 77.0764 49.0975 0.0000 -8.0990 0.0000
# 3 58.3208 49.0975 100.7578 0.0000 -1.1262 0.0000
# 4 0.0000 0.0000 0.0000 28.6583 0.0000 -4.0317
# 5 5.8181 -8.0990 -1.1262 0.0000 34.2563 0.0000
# 6 0.0000 0.0000 0.0000 -4.0317 0.0000 31.8766
#
#
#
# Elastic Compliance Matrix: (Units=1/GPa)
#
#
# Indices 1 2 3 4 5 6 
#
# 1 0.009919 -0.003984 -0.003831 0.000000 -0.002752 0.000000
# 2 -0.003984 0.021022 -0.007878 0.000000 0.005388 0.000000
# 3 -0.003831 -0.007878 0.015973 0.000000 -0.000687 0.000000
# 4 0.000000 0.000000 0.000000 0.035526 0.000000 0.004493
# 5 -0.002752 0.005388 -0.000687 0.000000 0.030910 0.000000
# 6 0.000000 0.000000 0.000000 0.004493 0.000000 0.031939
#
#
# Mechanical properties :
#
#
# Convention : Reuss Voigt Hill
#
# Bulk Modulus (GPa) = 64.39235 70.23500 67.31367
# Shear Modulus (GPa) = 27.49500 30.08136 28.78818
#
# Velocity S-wave (km/s) = 3.75458 3.92720 3.84186
# Velocity P-wave (km/s) = 7.19792 7.52155 7.36152
#
# Compressibility (1/GPa) = 0.01552979
#
# Stress axis : x y z
#
# Youngs Moduli (GPa) = 100.81688 47.56855 62.60511
#
# Poissons Ratio (x) = 0.18950 0.23983
# Poissons Ratio (y) = 0.40163 0.49318
# Poissons Ratio (z) = 0.38621 0.37473
#
# Static dielectric constant tensor:
#      x y z
#    x 3.829080 0.000000 -0.119630 
#    y 0.000000 3.614280 0.000000 
#    z -0.119630 0.000000 3.454690 
# 
# 
# High freq. dielectric constant tensor:
#      x y z
#    x 1.756970 0.000000 -0.007930 
#    y 0.000000 1.752450 0.000000 
#    z -0.007930 0.000000 1.764060 
# 
# From -- ./inp_files/39652.got.cif
#   From: 2010.06.25/outbox.cif.g09.slc.cpg/sg15_20_cif.got.tgz:39652.got - 2010.06.28 07:06:18.
