data_PCOD8138858
_publ_section_title
;
Structure prediction by ZEFSAII (Michael W. Deem and Ramdas Pophale) SiO2 
 PCOD8138858
Probable space group: C 2/C
;
_chemical_formula_sum "Si O2"
_cell_formula_units_Z 36
_cell_length_a 14.970189
_cell_length_b 14.890434
_cell_length_c 11.616961
_cell_angle_alpha 90.000000
_cell_angle_beta 39.103625
_cell_angle_gamma 90.000000
_cell_volume 1633.304471
_symmetry_space_group_name_H-M "C 2/C"
_symmetry_group_IT_number 15
_symmetry_cell_setting 'monoclinic'
loop_
_space_group_symop_operation_xyz
x,y,z
-x,y,1/2-z
-x,-y,-z
x,-y,1/2+z
1/2+x,1/2+y,z
1/2-x,1/2+y,1/2-z
1/2-x,1/2-y,-z
1/2+x,1/2-y,1/2+z
loop_
_atom_site_type_symbol
_atom_site_label
_atom_site_fract_x
_atom_site_fract_y
_atom_site_fract_z
Si Si1 0.906220 0.387237 0.665534
Si Si2 0.414886 0.088262 0.724665
Si Si3 0.000000 0.750000 0.250000
Si Si4 0.093780 0.112763 0.477975
Si Si5 0.085114 0.911738 0.554437
O O1 0.942409 0.482140 0.687813
O O2 0.750000 0.392095 0.764991
O O3 0.021582 0.363692 0.452438
O O4 0.902582 0.312167 0.767647
O O5 0.500000 0.124774 0.750000
O O6 0.250000 0.113428 0.900577
O O7 0.902582 0.812167 0.427188
O O8 0.978418 0.136308 0.495602
O O9 0.057591 0.017860 0.572630
O O10 0.000000 0.875226 0.750000
#
# Coordination Sequence:
#
# PCOD8138858 Si02
#       5
#     8   8   4   8   8
#     4  10  22  37  59  90 124 161 201 247 303 360
#     4  10  20  38  62  88 120 161 206 250 295 359
#     4  12  22  40  62  94 126 158 196 256 302 364
#     4  10  22  37  59  90 124 161 201 247 303 360
#     4  10  20  38  62  88 120 161 206 250 295 359
#
# _framework density 22.041205999999999
#
# number of rings (size 3 to 8) (size 9 to 14) (size 15 to 20)
#    0.000    1.778    2.222    2.000    0.000    5.333 
#    0.000    1.111    0.000    5.333    0.000    0.000 
#    0.000    0.000    0.000    0.000    0.000    0.000 
#
# Total GULP energy -223230.647780 kJ/mol
# GULP energy per Si atom -12401.702654 kJ/mol
# Density = 2.199104 g / cm^3
# Si number density = 22.041206 Si / 1000 Ang^3
#
#
#
# Elastic Constant Matrix: (Units=GPa)
#
#
# Indices 1 2 3 4 5 6 
#
# 1 163.9105 24.2907 77.4437 0.0000 -4.9025 0.0000
# 2 24.2907 54.6946 18.7558 0.0000 11.9789 0.0000
# 3 77.4437 18.7558 166.4356 0.0001 -0.5629 0.0000
# 4 0.0000 0.0000 0.0001 20.8087 0.0000 13.3420
# 5 -4.9025 11.9789 -0.5629 0.0000 34.9740 0.0000
# 6 0.0000 0.0000 0.0000 13.3420 0.0000 26.9734
#
#
#
# Elastic Compliance Matrix: (Units=1/GPa)
#
#
# Indices 1 2 3 4 5 6 
#
# 1 0.008252 -0.002924 -0.003503 0.000000 0.002102 0.000000
# 2 -0.002924 0.021683 -0.001109 0.000000 -0.007854 0.000000
# 3 -0.003503 -0.001109 0.007763 0.000000 0.000014 0.000000
# 4 0.000000 0.000000 0.000000 0.070377 0.000000 -0.034811
# 5 0.002102 -0.007854 0.000014 0.000000 0.031578 0.000000
# 6 0.000000 0.000000 0.000000 -0.034811 0.000000 0.054292
#
#
# Mechanical properties :
#
#
# Convention : Reuss Voigt Hill
#
# Bulk Modulus (GPa) = 44.19889 69.55792 56.87840
# Shear Modulus (GPa) = 23.08831 34.18791 28.63811
#
# Velocity S-wave (km/s) = 3.24003 3.94266 3.60849
# Velocity P-wave (km/s) = 5.83896 7.23552 6.57443
#
# Compressibility (1/GPa) = 0.02262500
#
# Stress axis : x y z
#
# Youngs Moduli (GPa) = 121.17886 46.12002 128.80824
#
# Poissons Ratio (x) = 0.13485 0.45124
# Poissons Ratio (y) = 0.35432 0.14291
# Poissons Ratio (z) = 0.42452 0.05117
#
# Static dielectric constant tensor:
#      x y z
#    x 3.874020 0.000000 0.028890 
#    y 0.000000 3.667530 0.000000 
#    z 0.028890 0.000000 3.860670 
# 
# 
# High freq. dielectric constant tensor:
#      x y z
#    x 1.868910 0.000000 -0.001130 
#    y 0.000000 1.843460 0.000000 
#    z -0.001130 0.000000 1.869430 
# 
# From -- ./inp_files/45865.got.cif
#   From: 2010.06.25/outbox.cif.g09.slc.cpg/sg15_23_cif.got.tgz:45865.got - 2010.06.28 07:06:18.
