data_PCOD8138410
_publ_section_title
;
Structure prediction by ZEFSAII (Michael W. Deem and Ramdas Pophale) SiO2 
 PCOD8138410
Probable space group: C 2/C
;
_chemical_formula_sum "Si O2"
_cell_formula_units_Z 48
_cell_length_a 8.985431
_cell_length_b 20.706265
_cell_length_c 15.111784
_cell_angle_alpha 90.000000
_cell_angle_beta 48.634449
_cell_angle_gamma 90.000000
_cell_volume 2110.143843
_symmetry_space_group_name_H-M "C 2/C"
_symmetry_group_IT_number 15
_symmetry_cell_setting 'monoclinic'
loop_
_space_group_symop_operation_xyz
x,y,z
-x,y,1/2-z
-x,-y,-z
x,-y,1/2+z
1/2+x,1/2+y,z
1/2-x,1/2+y,1/2-z
1/2-x,1/2-y,-z
1/2+x,1/2-y,1/2+z
loop_
_atom_site_type_symbol
_atom_site_label
_atom_site_fract_x
_atom_site_fract_y
_atom_site_fract_z
Si Si1 0.117722 0.346926 0.294116
Si Si2 0.231659 0.356493 0.854239
Si Si3 0.446056 0.618862 0.548898
Si Si4 0.669245 0.054125 0.524205
Si Si5 0.520021 0.291793 0.615525
Si Si6 0.900455 0.416882 0.885177
O O1 0.346031 0.366930 0.184108
O O2 0.098445 0.274866 0.339676
O O3 0.000000 0.351503 0.250000
O O4 0.020137 0.397341 0.399427
O O5 0.386675 0.348064 0.713261
O O6 0.271334 0.295690 0.908751
O O7 0.014605 0.359872 0.893638
O O8 0.271250 0.424607 0.891190
O O9 0.324332 0.563341 0.544350
O O10 0.430537 0.686554 0.502602
O O11 0.671912 0.600153 0.470520
O O12 0.584614 0.982036 0.562005
O O13 0.000000 0.427765 0.750000
#
# Coordination Sequence:
#
# PCOD8138410 Si02
#       6
#     8   8   8   8   8   8
#     4  10  20  37  64  91 117 155 212 251 289 347
#     4  10  21  38  61  90 117 159 200 249 299 349
#     4  10  22  38  63  93 118 166 197 248 306 353
#     4  10  23  38  64  91 120 161 203 249 295 356
#     4  10  20  39  64  87 115 160 211 245 290 364
#     4  12  22  40  61  91 131 154 200 246 309 364
#
# _framework density 22.747264000000001
#
# number of rings (size 3 to 8) (size 9 to 14) (size 15 to 20)
#    0.000    1.667    3.333    2.500    2.333    2.000 
#    0.000    1.667    3.667    0.000    0.000    0.000 
#    0.000    0.000    0.000    0.000    0.000    0.000 
#
# Total GULP energy -297330.796101 kJ/mol
# GULP energy per Si atom -12388.783171 kJ/mol
# Density = 2.269549 g / cm^3
# Si number density = 22.747264 Si / 1000 Ang^3
#
#
#
# Elastic Constant Matrix: (Units=GPa)
#
#
# Indices 1 2 3 4 5 6 
#
# 1 64.9293 26.3253 31.7648 0.0000 -24.8188 0.0000
# 2 26.3253 92.8015 44.3017 0.0000 -16.6705 0.0000
# 3 31.7648 44.3017 110.6331 0.0000 -33.3784 0.0000
# 4 0.0000 0.0000 0.0000 23.2267 0.0000 -6.9820
# 5 -24.8188 -16.6705 -33.3784 0.0000 33.3476 0.0000
# 6 0.0000 0.0000 0.0000 -6.9820 0.0000 10.8546
#
#
#
# Elastic Compliance Matrix: (Units=1/GPa)
#
#
# Indices 1 2 3 4 5 6 
#
# 1 0.022685 -0.003480 -0.000789 0.000000 0.014354 0.000000
# 2 -0.003480 0.013940 -0.004673 0.000000 -0.000299 0.000000
# 3 -0.000789 -0.004673 0.014691 0.000000 0.011781 0.000000
# 4 0.000000 0.000000 0.000000 0.053374 0.000000 0.034332
# 5 0.014354 -0.000299 0.011781 0.000000 0.052313 0.000000
# 6 0.000000 0.000000 0.000000 0.034332 0.000000 0.114210
#
#
# Mechanical properties :
#
#
# Convention : Reuss Voigt Hill
#
# Bulk Modulus (GPa) = 29.91170 52.57194 41.24182
# Shear Modulus (GPa) = 16.65325 24.55058 20.60191
#
# Velocity S-wave (km/s) = 2.70867 3.28880 3.01273
# Velocity P-wave (km/s) = 4.79173 6.13050 5.50199
#
# Compressibility (1/GPa) = 0.03343173
#
# Stress axis : x y z
#
# Youngs Moduli (GPa) = 44.08208 71.73579 68.06771
#
# Poissons Ratio (x) = 0.24963 0.05372
# Poissons Ratio (y) = 0.15340 0.31809
# Poissons Ratio (z) = 0.03479 0.33523
#
# Static dielectric constant tensor:
#      x y z
#    x 3.897720 0.000000 -0.047340 
#    y 0.000000 3.921790 0.000000 
#    z -0.047340 0.000000 4.731700 
# 
# 
# High freq. dielectric constant tensor:
#      x y z
#    x 1.863410 0.000000 -0.003290 
#    y 0.000000 1.878850 0.000000 
#    z -0.003290 0.000000 1.920370 
# 
# From -- ./inp_files/191940.got.cif
#   From: 2010.06.25/outbox.cif.g09.slc.cpg/sg15_96_cif.got.tgz:191940.got - 2010.06.28 07:06:18.
