data_PCOD8138538
_publ_section_title
;
Structure prediction by ZEFSAII (Michael W. Deem and Ramdas Pophale) SiO2 
 PCOD8138538
Probable space group: C 2/C
;
_chemical_formula_sum "Si O2"
_cell_formula_units_Z 56
_cell_length_a 19.218807
_cell_length_b 16.327120
_cell_length_c 12.292209
_cell_angle_alpha 90.000000
_cell_angle_beta 48.040953
_cell_angle_gamma 90.000000
_cell_volume 2868.261248
_symmetry_space_group_name_H-M "C 2/C"
_symmetry_group_IT_number 15
_symmetry_cell_setting 'monoclinic'
loop_
_space_group_symop_operation_xyz
x,y,z
-x,y,1/2-z
-x,-y,-z
x,-y,1/2+z
1/2+x,1/2+y,z
1/2-x,1/2+y,1/2-z
1/2-x,1/2-y,-z
1/2+x,1/2-y,1/2+z
loop_
_atom_site_type_symbol
_atom_site_label
_atom_site_fract_x
_atom_site_fract_y
_atom_site_fract_z
Si Si1 0.098471 0.034510 0.940839
Si Si2 0.073966 0.272744 0.316440
Si Si3 0.095746 0.452339 0.372475
Si Si4 0.248358 0.603809 0.874059
Si Si5 0.110054 0.204359 0.039246
Si Si6 0.740871 0.266157 0.771061
Si Si7 0.254462 0.929908 0.872024
O O1 0.160523 0.061669 0.773097
O O2 0.152603 0.962148 0.945299
O O3 0.090498 0.107860 0.038163
O O4 0.000000 0.000000 0.000000
O O5 0.081794 0.371155 0.313794
O O6 0.103619 0.230905 0.171291
O O7 0.132173 0.228824 0.351026
O O8 0.966212 0.253126 0.452154
O O9 0.151669 0.431408 0.424735
O O10 0.161547 0.507104 0.228798
O O11 0.000000 0.500000 0.500000
O O12 0.255176 0.701050 0.851545
O O13 0.249753 0.591468 0.999006
O O14 0.210077 0.232651 0.890048
O O15 0.779510 0.352253 0.770961
#
# Coordination Sequence:
#
# PCOD8138538 Si02
#       7
#     8   8   8   8   8   8   8
#     4  10  22  39  57  85 118 146 186 241 289 338
#     4  10  21  36  57  83 111 148 189 230 282 345
#     4  10  22  39  57  85 118 146 186 241 289 338
#     4   9  22  38  55  82 113 145 191 231 281 347
#     4  10  21  36  57  83 111 148 189 230 282 345
#     4  10  20  38  56  77 113 150 187 233 281 336
#     4  11  22  36  60  83 108 151 188 232 288 341
#
# _framework density 19.524023
#
# number of rings (size 3 to 8) (size 9 to 14) (size 15 to 20)
#    0.000    2.000    0.000    3.429    0.000   10.286 
#    0.000    0.000    0.000    5.143    0.000    0.000 
#    0.000    0.000    0.000    0.000    0.000    0.000 
#
# Total GULP energy -347100.675820 kJ/mol
# GULP energy per Si atom -12396.452708 kJ/mol
# Density = 1.947959 g / cm^3
# Si number density = 19.524023 Si / 1000 Ang^3
#
#
#
# Elastic Constant Matrix: (Units=GPa)
#
#
# Indices 1 2 3 4 5 6 
#
# 1 92.3480 43.2376 32.7521 0.0000 -11.1681 0.0000
# 2 43.2376 130.6979 38.4879 0.0000 4.4228 0.0000
# 3 32.7521 38.4879 63.9678 0.0000 5.6166 0.0000
# 4 0.0000 0.0000 0.0000 30.3053 0.0000 -0.1297
# 5 -11.1681 4.4228 5.6166 0.0000 33.0541 0.0000
# 6 0.0000 0.0000 0.0000 -0.1297 0.0000 34.9120
#
#
#
# Elastic Compliance Matrix: (Units=1/GPa)
#
#
# Indices 1 2 3 4 5 6 
#
# 1 0.015583 -0.003476 -0.006487 0.000000 0.006833 0.000000
# 2 -0.003476 0.010077 -0.004123 0.000000 -0.001822 0.000000
# 3 -0.006487 -0.004123 0.021906 0.000000 -0.005362 0.000000
# 4 0.000000 0.000000 0.000000 0.032998 0.000000 0.000123
# 5 0.006833 -0.001822 -0.005362 0.000000 0.033717 0.000000
# 6 0.000000 0.000000 0.000000 0.000123 0.000000 0.028644
#
#
# Mechanical properties :
#
#
# Convention : Reuss Voigt Hill
#
# Bulk Modulus (GPa) = 51.56460 57.32985 54.44723
# Shear Modulus (GPa) = 28.15904 31.15670 29.65787
#
# Velocity S-wave (km/s) = 3.80185 3.99910 3.90172
# Velocity P-wave (km/s) = 6.76316 7.12399 6.94592
#
# Compressibility (1/GPa) = 0.01939315
#
# Stress axis : x y z
#
# Youngs Moduli (GPa) = 64.17186 99.23478 45.64936
#
# Poissons Ratio (x) = 0.34495 0.29613
# Poissons Ratio (y) = 0.22307 0.18823
# Poissons Ratio (z) = 0.41629 0.40918
#
# Static dielectric constant tensor:
#      x y z
#    x 3.694560 0.000000 -0.234170 
#    y 0.000000 3.772270 0.000000 
#    z -0.234170 0.000000 3.371980 
# 
# 
# High freq. dielectric constant tensor:
#      x y z
#    x 1.771150 0.000000 -0.010000 
#    y 0.000000 1.774530 0.000000 
#    z -0.010000 0.000000 1.748690 
# 
# From -- ./inp_files/105632.got.cif
#   From: 2010.06.25/outbox.cif.g09.slc.cpg/sg15_53_cif.got.tgz:105632.got - 2010.06.28 07:06:18.
