data_PCOD8138875
_publ_section_title
;
Structure prediction by ZEFSAII (Michael W. Deem and Ramdas Pophale) SiO2 
 PCOD8138875
Probable space group: C 2/C
;
_chemical_formula_sum "Si O2"
_cell_formula_units_Z 60
_cell_length_a 26.390192
_cell_length_b 19.328600
_cell_length_c 5.293411
_cell_angle_alpha 90.000000
_cell_angle_beta 79.078398
_cell_angle_gamma 90.000000
_cell_volume 2651.186188
_symmetry_space_group_name_H-M "C 2/C"
_symmetry_group_IT_number 15
_symmetry_cell_setting 'monoclinic'
loop_
_space_group_symop_operation_xyz
x,y,z
-x,y,1/2-z
-x,-y,-z
x,-y,1/2+z
1/2+x,1/2+y,z
1/2-x,1/2+y,1/2-z
1/2-x,1/2-y,-z
1/2+x,1/2-y,1/2+z
loop_
_atom_site_type_symbol
_atom_site_label
_atom_site_fract_x
_atom_site_fract_y
_atom_site_fract_z
Si Si1 0.302814 0.310673 0.717619
Si Si2 0.500000 0.734807 0.250000
Si Si3 0.561082 0.538457 0.704568
Si Si4 0.915390 0.815785 0.487202
Si Si5 0.246288 0.336438 0.261935
Si Si6 0.086944 0.531082 0.213575
Si Si7 0.296364 0.028309 0.509844
Si Si8 0.555723 0.816012 0.817028
O O1 0.363883 0.321121 0.704117
O O2 0.287549 0.334889 0.450875
O O3 0.287821 0.230756 0.749783
O O4 0.275282 0.352851 0.970568
O O5 0.530016 0.684287 0.413199
O O6 0.455186 0.785671 0.395463
O O7 0.500000 0.536223 0.750000
O O8 0.582786 0.500446 0.432197
O O9 0.581203 0.617627 0.698141
O O10 0.910242 0.742999 0.347260
O O11 0.205420 0.394849 0.377011
O O12 0.059801 0.488139 0.470203
O O13 0.086202 0.612159 0.283996
O O14 0.145175 0.505512 0.109177
O O15 0.269744 0.019158 0.257546
O O16 0.500000 0.827895 0.750000
#
# Coordination Sequence:
#
# PCOD8138875 Si02
#       8
#     8   4   8   8   8   8   8   8
#     4  10  23  39  67  90 126 156 208 254 317 358
#     4  10  24  40  64  92 128 164 218 260 324 374
#     4  10  23  40  63  89 122 162 205 255 316 379
#     4  11  24  42  65  95 125 169 210 269 307 390
#     4  10  21  42  60  95 121 162 202 260 305 372
#     4  10  23  39  61  92 127 167 217 257 306 373
#     4  10  20  38  62  89 121 164 204 248 305 370
#     4  10  23  40  60  90 124 170 214 262 317 364
#
# _framework density 22.631378999999999
#
# number of rings (size 3 to 8) (size 9 to 14) (size 15 to 20)
#    0.000    1.867    0.000    2.800   10.267    0.533 
#    4.800    4.000    0.000    0.000    0.000    0.000 
#    0.000    0.000    0.000    0.000    0.000    0.000 
#
# Total GULP energy -371730.719030 kJ/mol
# GULP energy per Si atom -12391.023968 kJ/mol
# Density = 2.257987 g / cm^3
# Si number density = 22.631379 Si / 1000 Ang^3
#
#
#
# Elastic Constant Matrix: (Units=GPa)
#
#
# Indices 1 2 3 4 5 6 
#
# 1 42.0540 14.3630 27.6504 0.0000 -5.0219 0.0000
# 2 14.3630 102.9261 40.5525 0.0000 6.0699 0.0000
# 3 27.6504 40.5525 160.4094 0.0000 9.8916 0.0000
# 4 0.0000 0.0000 0.0000 30.9199 0.0000 -5.9587
# 5 -5.0219 6.0699 9.8916 0.0000 19.5983 0.0000
# 6 0.0000 0.0000 0.0000 -5.9587 0.0000 19.8097
#
#
#
# Elastic Compliance Matrix: (Units=1/GPa)
#
#
# Indices 1 2 3 4 5 6 
#
# 1 0.029331 -0.002754 -0.005032 0.000000 0.010909 0.000000
# 2 -0.002754 0.011128 -0.002149 0.000000 -0.003067 0.000000
# 3 -0.005032 -0.002149 0.007930 0.000000 -0.004626 0.000000
# 4 0.000000 0.000000 0.000000 0.034332 0.000000 0.010327
# 5 0.010909 -0.003067 -0.004626 0.000000 0.057105 0.000000
# 6 0.000000 0.000000 0.000000 0.010327 0.000000 0.053587
#
#
# Mechanical properties :
#
#
# Convention : Reuss Voigt Hill
#
# Bulk Modulus (GPa) = 35.06562 52.28015 43.67288
# Shear Modulus (GPa) = 22.44277 28.92048 25.68162
#
# Velocity S-wave (km/s) = 3.15249 3.57864 3.37230
# Velocity P-wave (km/s) = 5.36459 6.34243 5.87389
#
# Compressibility (1/GPa) = 0.02851796
#
# Stress axis : x y z
#
# Youngs Moduli (GPa) = 34.09378 89.86596 126.10074
#
# Poissons Ratio (x) = 0.24745 0.63459
# Poissons Ratio (y) = 0.09388 0.27104
# Poissons Ratio (z) = 0.17157 0.19315
#
# Static dielectric constant tensor:
#      x y z
#    x 3.589110 0.000000 0.097040 
#    y 0.000000 3.958960 0.000000 
#    z 0.097040 0.000000 4.740290 
# 
# 
# High freq. dielectric constant tensor:
#      x y z
#    x 1.852280 0.000000 -0.002250 
#    y 0.000000 1.889800 0.000000 
#    z -0.002250 0.000000 1.914980 
# 
# From -- ./inp_files/18431.got.cif
#   From: 2010.06.25/outbox.cif.g09.slc.cpg/sg15_10_cif.got.tgz:18431.got - 2010.06.28 07:06:18.
