data_PCOD8138847
_publ_section_title
;
Structure prediction by ZEFSAII (Michael W. Deem and Ramdas Pophale) SiO2 
 PCOD8138847
Probable space group: C 2/C
;
_chemical_formula_sum "Si O2"
_cell_formula_units_Z 60
_cell_length_a 11.126765
_cell_length_b 14.133052
_cell_length_c 17.143866
_cell_angle_alpha 90.000000
_cell_angle_beta 110.455330
_cell_angle_gamma 90.000000
_cell_volume 2525.967196
_symmetry_space_group_name_H-M "C 2/C"
_symmetry_group_IT_number 15
_symmetry_cell_setting 'monoclinic'
loop_
_space_group_symop_operation_xyz
x,y,z
-x,y,1/2-z
-x,-y,-z
x,-y,1/2+z
1/2+x,1/2+y,z
1/2-x,1/2+y,1/2-z
1/2-x,1/2-y,-z
1/2+x,1/2-y,1/2+z
loop_
_atom_site_type_symbol
_atom_site_label
_atom_site_fract_x
_atom_site_fract_y
_atom_site_fract_z
Si Si1 0.813699 0.376924 0.001712
Si Si2 0.713024 0.079491 0.550800
Si Si3 0.272616 0.099567 0.675074
Si Si4 0.991920 0.117620 0.587907
Si Si5 0.898841 0.686027 0.119075
Si Si6 0.951507 0.801582 0.556154
Si Si7 0.500000 0.038548 0.250000
Si Si8 0.310225 0.775967 0.322980
O O1 0.805801 0.378678 0.093633
O O2 0.920958 0.299068 0.004555
O O3 0.855879 0.478101 0.976100
O O4 0.678072 0.342614 0.934901
O O5 0.866602 0.058518 0.583915
O O6 0.680995 0.153408 0.474704
O O7 0.673841 0.126789 0.623231
O O8 0.370420 0.022142 0.730783
O O9 0.286179 0.195648 0.728296
O O10 0.122840 0.067019 0.647873
O O11 0.984787 0.222905 0.621809
O O12 0.995006 0.124263 0.494792
O O13 0.989803 0.601933 0.169760
O O14 0.801469 0.711257 0.167126
O O15 0.057967 0.783698 0.645881
#
# Coordination Sequence:
#
# PCOD8138847 Si02
#       8
#     8   8   8   8   8   8   4   8
#     4  10  23  39  60  90 129 164 208 258 307 364
#     4  11  21  40  66  94 119 158 212 271 297 372
#     4  11  24  39  59  91 126 170 197 262 309 374
#     4  10  21  41  65  89 124 159 214 253 321 362
#     4  11  21  40  62  96 121 159 203 272 302 379
#     4  10  20  38  62  87 120 165 209 244 308 383
#     4  12  24  38  58  90 130 156 216 244 326 360
#     4  11  22  39  64  91 122 163 209 253 321 364
#
# _framework density 23.753278999999999
#
# number of rings (size 3 to 8) (size 9 to 14) (size 15 to 20)
#    0.000    1.333    4.000    2.400    0.000    6.400 
#    0.000    1.333    0.000    4.800    0.000    0.000 
#    0.000    0.000    0.000    0.000    0.000    0.000 
#
# Total GULP energy -371959.124759 kJ/mol
# GULP energy per Si atom -12398.637492 kJ/mol
# Density = 2.369922 g / cm^3
# Si number density = 23.753279 Si / 1000 Ang^3
#
#
#
# Elastic Constant Matrix: (Units=GPa)
#
#
# Indices 1 2 3 4 5 6 
#
# 1 64.6895 -3.1743 19.9427 0.0000 18.9226 0.0000
# 2 -3.1743 78.7002 3.7709 0.0000 7.4059 0.0000
# 3 19.9427 3.7709 79.9477 0.0000 16.5796 0.0000
# 4 0.0000 0.0000 0.0000 35.9433 0.0000 3.0114
# 5 18.9226 7.4059 16.5796 0.0000 28.6710 0.0000
# 6 0.0000 0.0000 0.0000 3.0114 0.0000 20.9776
#
#
#
# Elastic Compliance Matrix: (Units=1/GPa)
#
#
# Indices 1 2 3 4 5 6 
#
# 1 0.019914 0.002074 -0.002532 0.000000 -0.012214 0.000000
# 2 0.002074 0.013240 -0.000169 0.000000 -0.004691 0.000000
# 3 -0.002532 -0.000169 0.014535 0.000000 -0.006690 0.000000
# 4 0.000000 0.000000 0.000000 0.028160 0.000000 -0.004043
# 5 -0.012214 -0.004691 -0.006690 0.000000 0.048020 0.000000
# 6 0.000000 0.000000 0.000000 -0.004043 0.000000 0.048250
#
#
# Mechanical properties :
#
#
# Convention : Reuss Voigt Hill
#
# Bulk Modulus (GPa) = 21.53595 29.37955 25.45775
# Shear Modulus (GPa) = 26.47576 30.63826 28.55701
#
# Velocity S-wave (km/s) = 3.34221 3.59535 3.47109
# Velocity P-wave (km/s) = 4.89694 5.44342 5.17740
#
# Compressibility (1/GPa) = 0.04643398
#
# Stress axis : x y z
#
# Youngs Moduli (GPa) = 50.21669 75.53083 68.79821
#
# Poissons Ratio (x) = -0.15664 0.17421
# Poissons Ratio (y) = -0.10414 0.01163
# Poissons Ratio (z) = 0.12716 0.01276
#
# Static dielectric constant tensor:
#      x y z
#    x 4.311250 0.000000 0.283930 
#    y 0.000000 4.188930 0.000000 
#    z 0.283930 0.000000 4.088590 
# 
# 
# High freq. dielectric constant tensor:
#      x y z
#    x 1.944580 0.000000 0.021030 
#    y 0.000000 1.931000 0.000000 
#    z 0.021030 0.000000 1.922220 
# 
# From -- ./inp_files/198388.got.cif
#   From: 2010.06.25/outbox.cif.g09.slc.cpg/sg15_100_cif.got.tgz:198388.got - 2010.06.28 07:06:18.
