data_PCOD8138271
_publ_section_title
;
Structure prediction by ZEFSAII (Michael W. Deem and Ramdas Pophale) SiO2 
 PCOD8138271
Probable space group: C 2/C
;
_chemical_formula_sum "Si O2"
_cell_formula_units_Z 64
_cell_length_a 23.600554
_cell_length_b 14.443826
_cell_length_c 9.816713
_cell_angle_alpha 90.000000
_cell_angle_beta 83.222257
_cell_angle_gamma 90.000000
_cell_volume 3322.957498
_symmetry_space_group_name_H-M "C 2/C"
_symmetry_group_IT_number 15
_symmetry_cell_setting 'monoclinic'
loop_
_space_group_symop_operation_xyz
x,y,z
-x,y,1/2-z
-x,-y,-z
x,-y,1/2+z
1/2+x,1/2+y,z
1/2-x,1/2+y,1/2-z
1/2-x,1/2-y,-z
1/2+x,1/2-y,1/2+z
loop_
_atom_site_type_symbol
_atom_site_label
_atom_site_fract_x
_atom_site_fract_y
_atom_site_fract_z
Si Si1 0.498534 0.587150 0.596326
Si Si2 0.961325 0.467998 0.134221
Si Si3 0.130241 0.616809 0.276154
Si Si4 0.620326 0.323504 0.342919
Si Si5 0.362073 0.151004 0.543927
Si Si6 0.771987 0.508410 0.642707
Si Si7 0.805359 0.977325 0.084068
Si Si8 0.378661 0.647541 0.969053
O O1 0.500000 0.549460 0.750000
O O2 0.500000 0.500000 0.500000
O O3 0.443375 0.650540 0.593559
O O4 0.552874 0.649503 0.542731
O O5 0.926425 0.558601 0.185067
O O6 0.918981 0.384869 0.103527
O O7 0.000000 0.433960 0.250000
O O8 0.000000 0.500000 0.000000
O O9 0.124839 0.713797 0.356239
O O10 0.185160 0.571372 0.326843
O O11 0.137125 0.624069 0.113643
O O12 0.662723 0.378099 0.433055
O O13 0.638094 0.352473 0.184833
O O14 0.305553 0.106328 0.627158
O O15 0.356831 0.261932 0.556585
O O16 0.747439 0.481128 0.502935
O O17 0.718996 0.512516 0.758094
O O18 0.851473 0.058216 0.047618
#
# Coordination Sequence:
#
# PCOD8138271 Si02
#       8
#     8   8   8   8   8   8   8   8
#     4  10  20  37  62  87 121 154 197 254 301 363
#     4  11  22  38  64  94 126 162 204 252 307 367
#     4  10  22  40  62  93 124 165 206 252 307 368
#     4  10  22  38  64  93 122 161 211 249 307 374
#     4  10  22  41  63  92 124 163 207 252 307 371
#     4  11  24  40  64  88 127 159 208 265 304 357
#     4  12  22  40  64  92 119 167 210 256 310 358
#     4  10  22  39  65  92 120 164 211 247 308 376
#
# _framework density 19.25995
#
# number of rings (size 3 to 8) (size 9 to 14) (size 15 to 20)
#    0.000    1.500    5.000    0.000    1.750    2.500 
#    0.000    1.875    0.000    0.000    0.000    0.000 
#    0.000    0.000    0.000    0.000    0.000    0.000 
#
# Total GULP energy -396824.029779 kJ/mol
# GULP energy per Si atom -12400.750931 kJ/mol
# Density = 1.921611 g / cm^3
# Si number density = 19.259950 Si / 1000 Ang^3
#
#
#
# Elastic Constant Matrix: (Units=GPa)
#
#
# Indices 1 2 3 4 5 6 
#
# 1 111.0456 49.4027 29.7855 0.0000 7.4738 0.0000
# 2 49.4027 131.6650 34.6155 0.0000 3.0330 0.0000
# 3 29.7855 34.6155 61.5316 0.0000 -2.6904 0.0000
# 4 0.0000 0.0000 0.0000 30.1941 0.0000 0.6361
# 5 7.4738 3.0330 -2.6904 0.0000 37.9554 0.0000
# 6 0.0000 0.0000 0.0000 0.6361 0.0000 17.6908
#
#
#
# Elastic Compliance Matrix: (Units=1/GPa)
#
#
# Indices 1 2 3 4 5 6 
#
# 1 0.011675 -0.003304 -0.003894 0.000000 -0.002311 0.000000
# 2 -0.003304 0.009892 -0.003984 0.000000 -0.000422 0.000000
# 3 -0.003894 -0.003984 0.020489 0.000000 0.002537 0.000000
# 4 0.000000 0.000000 0.000000 0.033144 0.000000 -0.001192
# 5 -0.002311 -0.000422 0.002537 0.000000 0.027015 0.000000
# 6 0.000000 0.000000 0.000000 -0.001192 0.000000 0.056570
#
#
# Mechanical properties :
#
#
# Convention : Reuss Voigt Hill
#
# Bulk Modulus (GPa) = 50.78109 59.09442 54.93775
# Shear Modulus (GPa) = 26.63647 29.86395 28.25021
#
# Velocity S-wave (km/s) = 3.72290 3.94200 3.83402
# Velocity P-wave (km/s) = 6.70100 7.17414 6.94160
#
# Compressibility (1/GPa) = 0.01969237
#
# Stress axis : x y z
#
# Youngs Moduli (GPa) = 85.65242 101.09409 48.80665
#
# Poissons Ratio (x) = 0.33398 0.19006
# Poissons Ratio (y) = 0.28297 0.19445
# Poissons Ratio (z) = 0.33354 0.40276
#
# Static dielectric constant tensor:
#      x y z
#    x 3.939900 0.000000 -0.068270 
#    y 0.000000 3.545810 0.000000 
#    z -0.068270 0.000000 3.525610 
# 
# 
# High freq. dielectric constant tensor:
#      x y z
#    x 1.766460 0.000000 -0.004410 
#    y 0.000000 1.745440 0.000000 
#    z -0.004410 0.000000 1.745060 
# 
# From -- ./inp_files/61911.got.cif
#   From: 2010.06.25/outbox.cif.g09.slc.cpg/sg15_31_cif.got.tgz:61911.got - 2010.06.28 07:06:18.
