data_PCOD8138103
_publ_section_title
;
Structure prediction by ZEFSAII (Michael W. Deem and Ramdas Pophale) SiO2 
 PCOD8138103
Probable space group: C 2/C
;
_chemical_formula_sum "Si O2"
_cell_formula_units_Z 52
_cell_length_a 18.535458
_cell_length_b 9.058521
_cell_length_c 17.837549
_cell_angle_alpha 90.000000
_cell_angle_beta 125.190267
_cell_angle_gamma 90.000000
_cell_volume 2447.636399
_symmetry_space_group_name_H-M "C 2/C"
_symmetry_group_IT_number 15
_symmetry_cell_setting 'monoclinic'
loop_
_space_group_symop_operation_xyz
x,y,z
-x,y,1/2-z
-x,-y,-z
x,-y,1/2+z
1/2+x,1/2+y,z
1/2-x,1/2+y,1/2-z
1/2-x,1/2-y,-z
1/2+x,1/2-y,1/2+z
loop_
_atom_site_type_symbol
_atom_site_label
_atom_site_fract_x
_atom_site_fract_y
_atom_site_fract_z
Si Si1 0.604262 0.678606 0.560556
Si Si2 0.801424 0.080988 0.447650
Si Si3 0.867457 0.025349 0.763980
Si Si4 0.000000 0.788615 0.250000
Si Si5 0.363362 0.842440 0.573990
Si Si6 0.091045 0.223642 0.115942
Si Si7 0.665750 0.008088 0.599970
O O1 0.658395 0.584802 0.530129
O O2 0.614265 0.600175 0.645584
O O3 0.502300 0.682676 0.476484
O O4 0.646007 0.837495 0.594885
O O5 0.695279 0.080600 0.395228
O O6 0.834207 0.173249 0.539487
O O7 0.828683 0.165638 0.388435
O O8 0.767735 0.036902 0.677237
O O9 0.924387 0.104538 0.735404
O O10 0.896906 0.852989 0.795157
O O11 0.962206 0.677505 0.164296
O O12 0.362778 0.943207 0.500202
O O13 0.106641 0.400803 0.125899
#
# Coordination Sequence:
#
# PCOD8138103 Si02
#       7
#     8   8   8   4   8   8   8
#     4  11  22  38  62  88 120 159 199 245 297 358
#     4   9  18  37  59  83 112 149 195 239 290 350
#     4  11  22  38  62  86 115 157 205 248 295 363
#     4  12  22  38  64  88 112 158 212 252 302 360
#     4  10  21  38  61  86 119 156 196 248 299 355
#     4  10  20  37  59  85 115 152 198 244 290 349
#     4  11  23  38  58  90 125 157 193 247 307 354
#
# _framework density 21.244983999999999
#
# number of rings (size 3 to 8) (size 9 to 14) (size 15 to 20)
#    0.000    1.538    0.000    8.769    0.000    1.846 
#    0.000    1.538    0.000    1.846    0.000    0.000 
#    0.000    0.000    0.000    0.000    0.000    0.000 
#
# Total GULP energy -322244.002590 kJ/mol
# GULP energy per Si atom -12394.000100 kJ/mol
# Density = 2.119663 g / cm^3
# Si number density = 21.244984 Si / 1000 Ang^3
#
#
#
# Elastic Constant Matrix: (Units=GPa)
#
#
# Indices 1 2 3 4 5 6 
#
# 1 61.9569 28.8789 14.9438 0.0000 3.5838 0.0000
# 2 28.8789 115.0448 11.2573 0.0000 8.3986 0.0000
# 3 14.9438 11.2573 93.4137 0.0000 14.2620 0.0000
# 4 0.0000 0.0000 0.0000 21.3196 0.0000 -10.0516
# 5 3.5838 8.3986 14.2620 0.0000 18.4068 0.0000
# 6 0.0000 0.0000 0.0000 -10.0516 0.0000 21.1027
#
#
#
# Elastic Compliance Matrix: (Units=1/GPa)
#
#
# Indices 1 2 3 4 5 6 
#
# 1 0.018828 -0.004505 -0.002522 0.000000 0.000343 0.000000
# 2 -0.004505 0.010092 0.000083 0.000000 -0.003792 0.000000
# 3 -0.002522 0.000083 0.012509 0.000000 -0.009239 0.000000
# 4 0.000000 0.000000 0.000000 0.060489 0.000000 0.028812
# 5 0.000343 -0.003792 -0.009239 0.000000 0.063150 0.000000
# 6 0.000000 0.000000 0.000000 0.028812 0.000000 0.061111
#
#
# Mechanical properties :
#
#
# Convention : Reuss Voigt Hill
#
# Bulk Modulus (GPa) = 36.30630 42.28614 39.29622
# Shear Modulus (GPa) = 20.06049 26.52151 23.29100
#
# Velocity S-wave (km/s) = 3.07619 3.53706 3.31464
# Velocity P-wave (km/s) = 5.45378 6.05213 5.76073
#
# Compressibility (1/GPa) = 0.02754343
#
# Stress axis : x y z
#
# Youngs Moduli (GPa) = 53.11163 99.09122 79.94221
#
# Poissons Ratio (x) = 0.44637 0.20158
# Poissons Ratio (y) = 0.23925 -0.00667
# Poissons Ratio (z) = 0.13393 -0.00827
#
# Static dielectric constant tensor:
#      x y z
#    x 3.931070 0.000000 0.119190 
#    y 0.000000 4.331940 0.000000 
#    z 0.119190 0.000000 3.792340 
# 
# 
# High freq. dielectric constant tensor:
#      x y z
#    x 1.825620 0.000000 0.015320 
#    y 0.000000 1.833290 0.000000 
#    z 0.015320 0.000000 1.828340 
# 
# From -- ./inp_files/214353.got.cif
#   From: 2010.06.25/outbox.cif.g09.slc.cpg/sg15_108_cif.got.tgz:214353.got - 2010.06.28 07:06:18.
