data_PCOD8138313
_publ_section_title
;
Structure prediction by ZEFSAII (Michael W. Deem and Ramdas Pophale) SiO2 
 PCOD8138313
Probable space group: C 2/C
;
_chemical_formula_sum "Si O2"
_cell_formula_units_Z 56
_cell_length_a 9.054900
_cell_length_b 22.159420
_cell_length_c 14.984698
_cell_angle_alpha 90.000000
_cell_angle_beta 116.475247
_cell_angle_gamma 90.000000
_cell_volume 2691.378142
_symmetry_space_group_name_H-M "C 2/C"
_symmetry_group_IT_number 15
_symmetry_cell_setting 'monoclinic'
loop_
_space_group_symop_operation_xyz
x,y,z
-x,y,1/2-z
-x,-y,-z
x,-y,1/2+z
1/2+x,1/2+y,z
1/2-x,1/2+y,1/2-z
1/2-x,1/2-y,-z
1/2+x,1/2-y,1/2+z
loop_
_atom_site_type_symbol
_atom_site_label
_atom_site_fract_x
_atom_site_fract_y
_atom_site_fract_z
Si Si1 0.702560 0.014856 0.646080
Si Si2 0.085992 0.084507 0.361427
Si Si3 0.057617 0.578286 0.444403
Si Si4 0.334734 0.211623 0.656399
Si Si5 0.415571 0.435853 0.985067
Si Si6 0.884460 0.885913 0.301234
Si Si7 0.135036 0.677237 0.036670
O O1 0.585722 0.054736 0.552601
O O2 0.774986 0.055126 0.746092
O O3 0.860260 0.986476 0.634867
O O4 0.590323 0.957708 0.647195
O O5 0.246011 0.120637 0.430111
O O6 0.000000 0.109510 0.250000
O O7 0.957570 0.097706 0.404865
O O8 0.218914 0.564908 0.430722
O O9 0.021916 0.650274 0.450028
O O10 0.500000 0.234384 0.750000
O O11 0.244134 0.162730 0.694607
O O12 0.204879 0.265520 0.608031
O O13 0.397412 0.189464 0.576375
O O14 0.483547 0.399803 0.087356
O O15 0.500000 0.500000 0.000000
O O16 0.000000 0.862893 0.250000
#
# Coordination Sequence:
#
# PCOD8138313 Si02
#       7
#     8   8   8   8   8   8   8
#     4  10  20  37  62  93 133 174 207 267 324 400
#     4  11  21  40  64  94 133 176 215 268 326 405
#     4  10  21  38  63  92 136 169 217 271 324 402
#     4  11  24  43  70  94 126 177 231 282 334 405
#     4  12  22  37  63  97 135 174 210 268 339 400
#     4  12  23  40  64 102 131 167 222 276 335 398
#     4  10  23  45  64  95 129 175 228 276 336 395
#
# _framework density 20.807183999999999
#
# number of rings (size 3 to 8) (size 9 to 14) (size 15 to 20)
#    0.000    1.143    4.286    2.571    0.000    1.143 
#    0.000   10.714    0.000    0.000    0.000    0.000 
#    0.000    0.000    0.000    0.000    0.000    0.000 
#
# Total GULP energy -346987.573727 kJ/mol
# GULP energy per Si atom -12392.413347 kJ/mol
# Density = 2.075983 g / cm^3
# Si number density = 20.807184 Si / 1000 Ang^3
#
#
#
# Elastic Constant Matrix: (Units=GPa)
#
#
# Indices 1 2 3 4 5 6 
#
# 1 128.8707 44.2934 41.4297 0.0000 -7.5363 0.0000
# 2 44.2934 98.7508 33.7060 0.0000 -5.9072 0.0000
# 3 41.4297 33.7060 120.9928 0.0000 -3.2211 0.0000
# 4 0.0000 0.0000 0.0000 188.2769 0.0000 -290.9248
# 5 -7.5363 -5.9072 -3.2211 0.0000 31.5875 0.0000
# 6 0.0000 0.0000 0.0000 -290.9248 0.0000 539.0997
#
#
#
# Elastic Compliance Matrix: (Units=1/GPa)
#
#
# Indices 1 2 3 4 5 6 
#
# 1 0.009804 -0.003512 -0.002340 0.000000 0.001444 0.000000
# 2 -0.003512 0.012550 -0.002259 0.000000 0.001279 0.000000
# 3 -0.002340 -0.002259 0.009696 0.000000 0.000008 0.000000
# 4 0.000000 0.000000 0.000000 0.031970 0.000000 0.017252
# 5 0.001444 0.001279 0.000008 0.000000 0.032242 0.000000
# 6 0.000000 0.000000 0.000000 0.017252 0.000000 0.011165
#
#
# Mechanical properties :
#
#
# Convention : Reuss Voigt Hill
#
# Bulk Modulus (GPa) = 63.18822 65.27471 64.23146
# Shear Modulus (GPa) = 38.78227 167.07182 102.92704
#
# Velocity S-wave (km/s) = 4.32196 8.97048 7.04091
# Velocity P-wave (km/s) = 7.43910 11.77846 9.85069
#
# Compressibility (1/GPa) = 0.01582573
#
# Stress axis : x y z
#
# Youngs Moduli (GPa) = 102.00358 79.68436 103.13702
#
# Poissons Ratio (x) = 0.27987 0.24134
# Poissons Ratio (y) = 0.35826 0.23302
# Poissons Ratio (z) = 0.23869 0.18004
#
# Static dielectric constant tensor:
#      x y z
#    x 8.380240 0.000000 -3.476200 
#    y 0.000000 3.962590 0.000000 
#    z -3.476200 0.000000 6.578570 
# 
# 
# High freq. dielectric constant tensor:
#      x y z
#    x 1.817420 0.000000 0.009980 
#    y 0.000000 1.797070 0.000000 
#    z 0.009980 0.000000 1.819540 
# 
# From -- ./inp_files/137455.got.cif
#   From: 2010.06.25/outbox.cif.g09.slc.cpg/sg15_69_cif.got.tgz:137455.got - 2010.06.28 07:06:18.
