data_PCOD8138486
_publ_section_title
;
Structure prediction by ZEFSAII (Michael W. Deem and Ramdas Pophale) SiO2 
 PCOD8138486
Probable space group: C 2/C
;
_chemical_formula_sum "Si O2"
_cell_formula_units_Z 48
_cell_length_a 13.054435
_cell_length_b 28.163241
_cell_length_c 8.966725
_cell_angle_alpha 90.000000
_cell_angle_beta 46.411458
_cell_angle_gamma 90.000000
_cell_volume 2387.805223
_symmetry_space_group_name_H-M "C 2/C"
_symmetry_group_IT_number 15
_symmetry_cell_setting 'monoclinic'
loop_
_space_group_symop_operation_xyz
x,y,z
-x,y,1/2-z
-x,-y,-z
x,-y,1/2+z
1/2+x,1/2+y,z
1/2-x,1/2+y,1/2-z
1/2-x,1/2-y,-z
1/2+x,1/2-y,1/2+z
loop_
_atom_site_type_symbol
_atom_site_label
_atom_site_fract_x
_atom_site_fract_y
_atom_site_fract_z
Si Si1 0.358337 0.030092 0.158169
Si Si2 0.782576 0.776233 0.124250
Si Si3 0.915820 0.370922 0.492306
Si Si4 0.165568 0.020436 0.073655
Si Si5 0.987827 0.278017 0.939132
Si Si6 0.660878 0.627556 0.059083
O O1 0.423538 0.082624 0.087352
O O2 0.231976 0.023287 0.168748
O O3 0.270472 0.017718 0.394153
O O4 0.500000 0.000000 0.000000
O O5 0.927994 0.760297 0.049558
O O6 0.670235 0.763578 0.362833
O O7 0.750000 0.750000 0.000000
O O8 0.781928 0.833648 0.114663
O O9 0.972713 0.329626 0.539069
O O10 0.750544 0.363712 0.619829
O O11 0.000000 0.376357 0.250000
O O12 0.175692 0.072954 0.985816
O O13 0.000000 0.004224 0.250000
O O14 0.000000 0.274513 0.750000
O O15 0.500000 0.640378 0.250000
#
# Coordination Sequence:
#
# PCOD8138486 Si02
#       6
#     8   8   8   8   8   8
#     4  11  22  37  64  93 126 166 220 268 325 385
#     4  12  22  42  69  92 123 175 219 255 315 396
#     4  11  21  42  64  92 124 169 218 264 313 392
#     4  10  22  40  62  90 131 170 213 271 324 385
#     4  12  26  41  63  97 138 161 207 275 334 374
#     4  10  20  37  66  93 117 162 227 260 297 384
#
# _framework density 20.102142000000001
#
# number of rings (size 3 to 8) (size 9 to 14) (size 15 to 20)
#    0.000    1.000    3.333    5.000    0.000    1.333 
#    0.000    0.000    0.000    0.000    0.000    0.000 
#    0.000    0.000    0.000    0.000    0.000    0.000 
#
# Total GULP energy -297330.981527 kJ/mol
# GULP energy per Si atom -12388.790897 kJ/mol
# Density = 2.005639 g / cm^3
# Si number density = 20.102142 Si / 1000 Ang^3
#
#
#
# Elastic Constant Matrix: (Units=GPa)
#
#
# Indices 1 2 3 4 5 6 
#
# 1 63.7710 2.7226 3.5596 0.0000 -12.4751 0.0000
# 2 2.7226 80.5366 5.1743 0.0000 7.9896 0.0000
# 3 3.5596 5.1743 86.8163 0.0000 -1.0188 0.0000
# 4 0.0000 0.0000 0.0000 31.8871 0.0000 -1.1502
# 5 -12.4751 7.9896 -1.0188 0.0000 41.7511 0.0000
# 6 0.0000 0.0000 0.0000 -1.1502 0.0000 25.6646
#
#
#
# Elastic Compliance Matrix: (Units=1/GPa)
#
#
# Indices 1 2 3 4 5 6 
#
# 1 0.016774 -0.001047 -0.000564 0.000000 0.005199 0.000000
# 2 -0.001047 0.012776 -0.000751 0.000000 -0.002776 0.000000
# 3 -0.000564 -0.000751 0.011590 0.000000 0.000258 0.000000
# 4 0.000000 0.000000 0.000000 0.031411 0.000000 0.001408
# 5 0.005199 -0.002776 0.000258 0.000000 0.026042 0.000000
# 6 0.000000 0.000000 0.000000 0.001408 0.000000 0.039027
#
#
# Mechanical properties :
#
#
# Convention : Reuss Voigt Hill
#
# Bulk Modulus (GPa) = 27.46086 28.22631 27.84359
# Shear Modulus (GPa) = 32.36603 34.50506 33.43555
#
# Velocity S-wave (km/s) = 4.01693 4.14755 4.08276
# Velocity P-wave (km/s) = 5.93335 6.08343 6.00886
#
# Compressibility (1/GPa) = 0.03641546
#
# Stress axis : x y z
#
# Youngs Moduli (GPa) = 59.61511 78.27347 86.28492
#
# Poissons Ratio (x) = 0.08192 0.04870
# Poissons Ratio (y) = 0.06239 0.06481
# Poissons Ratio (z) = 0.03365 0.05879
#
# Static dielectric constant tensor:
#      x y z
#    x 3.825540 0.000000 -0.285380 
#    y 0.000000 3.953900 0.000000 
#    z -0.285380 0.000000 3.640900 
# 
# 
# High freq. dielectric constant tensor:
#      x y z
#    x 1.794360 0.000000 -0.029250 
#    y 0.000000 1.791950 0.000000 
#    z -0.029250 0.000000 1.774750 
# 
# From -- ./inp_files/43778.got.cif
#   From: 2010.06.25/outbox.cif.g09.slc.cpg/sg15_22_cif.got.tgz:43778.got - 2010.06.28 07:06:18.
