data_PCOD8138093
_publ_section_title
;
Structure prediction by ZEFSAII (Michael W. Deem and Ramdas Pophale) SiO2 
 PCOD8138093
Probable space group: C 2/C
;
_chemical_formula_sum "Si O2"
_cell_formula_units_Z 36
_cell_length_a 7.918090
_cell_length_b 30.806508
_cell_length_c 9.306427
_cell_angle_alpha 90.000000
_cell_angle_beta 47.800727
_cell_angle_gamma 90.000000
_cell_volume 1681.723320
_symmetry_space_group_name_H-M "C 2/C"
_symmetry_group_IT_number 15
_symmetry_cell_setting 'monoclinic'
loop_
_space_group_symop_operation_xyz
x,y,z
-x,y,1/2-z
-x,-y,-z
x,-y,1/2+z
1/2+x,1/2+y,z
1/2-x,1/2+y,1/2-z
1/2-x,1/2-y,-z
1/2+x,1/2-y,1/2+z
loop_
_atom_site_type_symbol
_atom_site_label
_atom_site_fract_x
_atom_site_fract_y
_atom_site_fract_z
Si Si1 0.238218 0.850860 0.866123
Si Si2 0.136020 0.699076 0.453462
Si Si3 0.500000 0.492919 0.750000
Si Si4 0.835675 0.792076 0.146457
Si Si5 0.236274 0.949817 0.873701
O O1 0.500000 0.840201 0.750000
O O2 0.238130 0.840924 0.696068
O O3 0.162722 0.900022 0.938316
O O4 0.063414 0.819541 0.053615
O O5 0.138104 0.740455 0.341956
O O6 0.291241 0.705858 0.502545
O O7 0.874131 0.688086 0.643782
O O8 0.672824 0.463642 0.746333
O O9 0.622410 0.522347 0.563066
O O10 0.500000 0.956032 0.750000
#
# Coordination Sequence:
#
# PCOD8138093 Si02
#       5
#     8   8   4   8   8
#     4  11  24  37  58  90 128 162 199 259 310 375
#     4  10  20  37  59  82 113 163 212 255 299 350
#     4  10  22  44  72  96 124 174 200 268 332 388
#     4  10  20  37  59  82 114 161 213 255 296 360
#     4  10  23  42  68  99 131 164 213 263 322 393
#
# _framework density 21.406613
#
# number of rings (size 3 to 8) (size 9 to 14) (size 15 to 20)
#    0.000    1.778    2.222    1.333    3.111    5.333 
#    0.000    0.000    0.000    0.000    0.000    0.000 
#    0.000    0.000    0.000    0.000    0.000    0.000 
#
# Total GULP energy -223061.056059 kJ/mol
# GULP energy per Si atom -12392.280892 kJ/mol
# Density = 2.135789 g / cm^3
# Si number density = 21.406613 Si / 1000 Ang^3
#
#
#
# Elastic Constant Matrix: (Units=GPa)
#
#
# Indices 1 2 3 4 5 6 
#
# 1 97.1696 38.3807 14.5982 0.0000 -12.1381 0.0000
# 2 38.3807 84.7111 18.8519 0.0000 -19.4754 0.0000
# 3 14.5982 18.8519 49.0389 0.0000 -6.8090 0.0000
# 4 0.0000 0.0000 0.0000 19.5092 0.0000 5.5205
# 5 -12.1381 -19.4754 -6.8090 0.0000 32.5601 0.0000
# 6 0.0000 0.0000 0.0000 5.5205 0.0000 29.0368
#
#
#
# Elastic Compliance Matrix: (Units=1/GPa)
#
#
# Indices 1 2 3 4 5 6 
#
# 1 0.012715 -0.005084 -0.001643 0.000000 0.001356 0.000000
# 2 -0.005084 0.016636 -0.003876 0.000000 0.007245 0.000000
# 3 -0.001643 -0.003876 0.022621 0.000000 0.001800 0.000000
# 4 0.000000 0.000000 0.000000 0.054172 0.000000 -0.010299
# 5 0.001356 0.007245 0.001800 0.000000 0.035928 0.000000
# 6 0.000000 0.000000 0.000000 -0.010299 0.000000 0.036397
#
#
# Mechanical properties :
#
#
# Convention : Reuss Voigt Hill
#
# Bulk Modulus (GPa) = 32.50157 41.62014 37.06085
# Shear Modulus (GPa) = 23.81730 26.82712 25.32221
#
# Velocity S-wave (km/s) = 3.33921 3.54392 3.44308
# Velocity P-wave (km/s) = 5.48480 6.01919 5.75820
#
# Compressibility (1/GPa) = 0.03076775
#
# Stress axis : x y z
#
# Youngs Moduli (GPa) = 78.64431 60.10889 44.20676
#
# Poissons Ratio (x) = 0.30558 0.07261
# Poissons Ratio (y) = 0.39981 0.17135
# Poissons Ratio (z) = 0.12918 0.23299
#
# Static dielectric constant tensor:
#      x y z
#    x 4.193060 0.000000 -0.722320 
#    y 0.000000 3.872840 0.000000 
#    z -0.722320 0.000000 9.038800 
# 
# 
# High freq. dielectric constant tensor:
#      x y z
#    x 1.846780 0.000000 -0.005360 
#    y 0.000000 1.824080 0.000000 
#    z -0.005360 0.000000 1.850270 
# 
# From -- ./inp_files/80416.got.cif
#   From: 2010.06.25/outbox.cif.g09.slc.cpg/sg15_41_cif.got.tgz:80416.got - 2010.06.28 07:06:18.
