data_PCOD8138438
_publ_section_title
;
Structure prediction by ZEFSAII (Michael W. Deem and Ramdas Pophale) SiO2 
 PCOD8138438
Probable space group: C 2/C
;
_chemical_formula_sum "Si O2"
_cell_formula_units_Z 64
_cell_length_a 14.491129
_cell_length_b 14.071188
_cell_length_c 16.857000
_cell_angle_alpha 90.000000
_cell_angle_beta 53.183668
_cell_angle_gamma 90.000000
_cell_volume 2751.740532
_symmetry_space_group_name_H-M "C 2/C"
_symmetry_group_IT_number 15
_symmetry_cell_setting 'monoclinic'
loop_
_space_group_symop_operation_xyz
x,y,z
-x,y,1/2-z
-x,-y,-z
x,-y,1/2+z
1/2+x,1/2+y,z
1/2-x,1/2+y,1/2-z
1/2-x,1/2-y,-z
1/2+x,1/2-y,1/2+z
loop_
_atom_site_type_symbol
_atom_site_label
_atom_site_fract_x
_atom_site_fract_y
_atom_site_fract_z
Si Si1 0.742507 0.002148 0.133238
Si Si2 0.366246 0.379218 0.837282
Si Si3 0.776608 0.354565 0.144793
Si Si4 0.145175 0.073394 0.569334
Si Si5 0.331333 0.939891 0.667973
Si Si6 0.893763 0.675660 0.864312
Si Si7 0.022469 0.303412 0.004127
Si Si8 0.097170 0.132190 0.867864
O O1 0.661916 0.055402 0.239344
O O2 0.683368 0.912135 0.122380
O O3 0.856641 0.966343 0.120308
O O4 0.781699 0.080732 0.049390
O O5 0.500000 0.378478 0.750000
O O6 0.345152 0.463402 0.910204
O O7 0.289793 0.393760 0.797907
O O8 0.327520 0.277507 0.893877
O O9 0.700865 0.356587 0.104511
O O10 0.838652 0.454658 0.129590
O O11 0.694948 0.322744 0.259624
O O12 0.884757 0.284537 0.077367
O O13 0.014502 0.107529 0.626378
O O14 0.441419 0.881086 0.580574
O O15 0.000000 0.680603 0.750000
O O16 0.932747 0.659830 0.934422
O O17 0.075446 0.202817 0.951738
#
# Coordination Sequence:
#
# PCOD8138438 Si02
#       8
#     8   8   8   8   8   8   8   8
#     4  11  23  39  62  97 133 167 214 268 324 385
#     4  10  20  37  64  96 131 173 216 264 325 390
#     4  10  23  44  65  90 125 169 216 268 323 388
#     4  11  22  40  66  90 126 174 219 266 327 393
#     4  10  22  40  64  93 131 173 216 262 321 393
#     4  11  23  39  64  99 136 168 210 270 323 380
#     4  12  25  43  68  94 129 174 215 265 332 390
#     4  11  24  41  65  96 131 166 214 275 327 389
#
# _framework density 23.258006999999999
#
# number of rings (size 3 to 8) (size 9 to 14) (size 15 to 20)
#    0.000    1.250    0.000    7.875    0.000    7.000 
#    0.000    1.250    0.000    0.000    0.000    0.000 
#    0.000    0.000    0.000    0.000    0.000    0.000 
#
# Total GULP energy -396852.402520 kJ/mol
# GULP energy per Si atom -12401.637579 kJ/mol
# Density = 2.320507 g / cm^3
# Si number density = 23.258007 Si / 1000 Ang^3
#
#
#
# Elastic Constant Matrix: (Units=GPa)
#
#
# Indices 1 2 3 4 5 6 
#
# 1 110.7411 14.5384 43.7803 0.0000 6.6129 0.0000
# 2 14.5384 47.4096 33.1802 0.0000 0.0940 0.0000
# 3 43.7803 33.1802 146.1462 0.0000 10.2968 0.0000
# 4 0.0000 0.0000 0.0000 22.1978 0.0000 -3.6538
# 5 6.6129 0.0940 10.2968 0.0000 34.3387 0.0000
# 6 0.0000 0.0000 0.0000 -3.6538 0.0000 22.8618
#
#
#
# Elastic Compliance Matrix: (Units=1/GPa)
#
#
# Indices 1 2 3 4 5 6 
#
# 1 0.010345 -0.001259 -0.002731 0.000000 -0.001170 0.000000
# 2 -0.001259 0.025325 -0.005501 0.000000 0.001823 0.000000
# 3 -0.002731 -0.005501 0.009063 0.000000 -0.002177 0.000000
# 4 0.000000 0.000000 0.000000 0.046267 0.000000 0.007394
# 5 -0.001170 0.001823 -0.002177 0.000000 0.029995 0.000000
# 6 0.000000 0.000000 0.000000 0.007394 0.000000 0.044923
#
#
# Mechanical properties :
#
#
# Convention : Reuss Voigt Hill
#
# Bulk Modulus (GPa) = 38.83259 54.14387 46.48823
# Shear Modulus (GPa) = 25.84223 30.06618 27.95420
#
# Velocity S-wave (km/s) = 3.33695 3.59935 3.47063
# Velocity P-wave (km/s) = 5.61958 6.37212 6.00765
#
# Compressibility (1/GPa) = 0.02575157
#
# Stress axis : x y z
#
# Youngs Moduli (GPa) = 96.66744 39.48654 110.34185
#
# Poissons Ratio (x) = 0.04971 0.30131
# Poissons Ratio (y) = 0.12169 0.60699
# Poissons Ratio (z) = 0.26397 0.21721
#
# Static dielectric constant tensor:
#      x y z
#    x 4.193890 0.000000 0.052790 
#    y 0.000000 4.134940 0.000000 
#    z 0.052790 0.000000 4.343710 
# 
# 
# High freq. dielectric constant tensor:
#      x y z
#    x 1.917760 0.000000 -0.000240 
#    y 0.000000 1.901870 0.000000 
#    z -0.000240 0.000000 1.934530 
# 
# From -- ./inp_files/205423.got.cif
#   From: 2010.06.25/outbox.cif.g09.slc.cpg/sg15_103_cif.got.tgz:205423.got - 2010.06.28 07:06:18.
