data_PCOD8138191
_publ_section_title
;
Structure prediction by ZEFSAII (Michael W. Deem and Ramdas Pophale) SiO2 
 PCOD8138191
Probable space group: C 2/C
;
_chemical_formula_sum "Si O2"
_cell_formula_units_Z 60
_cell_length_a 19.800449
_cell_length_b 16.635863
_cell_length_c 12.904082
_cell_angle_alpha 90.000000
_cell_angle_beta 138.018985
_cell_angle_gamma 90.000000
_cell_volume 2843.141722
_symmetry_space_group_name_H-M "C 2/C"
_symmetry_group_IT_number 15
_symmetry_cell_setting 'monoclinic'
loop_
_space_group_symop_operation_xyz
x,y,z
-x,y,1/2-z
-x,-y,-z
x,-y,1/2+z
1/2+x,1/2+y,z
1/2-x,1/2+y,1/2-z
1/2-x,1/2-y,-z
1/2+x,1/2-y,1/2+z
loop_
_atom_site_type_symbol
_atom_site_label
_atom_site_fract_x
_atom_site_fract_y
_atom_site_fract_z
Si Si1 0.425001 0.646095 0.078464
Si Si2 0.773235 0.087398 0.198150
Si Si3 0.500000 0.385458 0.250000
Si Si4 0.640940 0.013529 0.226175
Si Si5 0.951884 0.809372 0.984651
Si Si6 0.481792 0.131495 0.985900
Si Si7 0.904609 0.323055 0.077216
Si Si8 0.824197 0.991525 0.558031
O O1 0.500000 0.608444 0.250000
O O2 0.473619 0.660677 0.021868
O O3 0.385811 0.729789 0.082931
O O4 0.338582 0.578134 0.985047
O O5 0.707361 0.034536 0.200811
O O6 0.843293 0.149063 0.342070
O O7 0.840074 0.032944 0.196749
O O8 0.701262 0.131539 0.030361
O O9 0.494341 0.332039 0.346795
O O10 0.600511 0.436532 0.377998
O O11 0.709385 0.021107 0.406909
O O12 0.602070 0.922012 0.167564
O O13 0.544915 0.073250 0.135659
O O14 0.931296 0.713124 0.972169
O O15 0.568175 0.167213 0.011171
O O16 0.000000 0.358676 0.250000
#
# Coordination Sequence:
#
# PCOD8138191 Si02
#       8
#     8   8   4   8   8   8   8   8
#     4  10  20  37  60  91 126 155 197 256 330 371
#     4  11  22  37  62  93 123 157 212 254 314 378
#     4  12  26  42  60  84 132 174 216 252 296 370
#     4  10  22  42  63  92 122 161 207 256 307 378
#     4  11  23  43  62  90 123 171 210 258 308 371
#     4   9  21  43  65  84 126 165 203 256 310 364
#     4   9  19  35  59  94 125 155 194 259 317 381
#     4  12  23  37  60  95 122 164 201 264 316 374
#
# _framework density 21.103415999999999
#
# number of rings (size 3 to 8) (size 9 to 14) (size 15 to 20)
#    0.000    1.600    3.333    0.800    3.733    1.600 
#    2.400    0.667    0.000    0.000    0.000    0.000 
#    0.000    0.000    0.000    0.000    0.000    0.000 
#
# Total GULP energy -371740.433805 kJ/mol
# GULP energy per Si atom -12391.347793 kJ/mol
# Density = 2.105538 g / cm^3
# Si number density = 21.103416 Si / 1000 Ang^3
#
#
#
# Elastic Constant Matrix: (Units=GPa)
#
#
# Indices 1 2 3 4 5 6 
#
# 1 59.6990 19.8160 6.9108 0.0000 -11.4047 0.0000
# 2 19.8160 103.0797 32.6097 0.0000 -3.4401 0.0000
# 3 6.9108 32.6097 114.0903 0.0000 -6.5953 0.0000
# 4 0.0000 0.0000 0.0000 19.0048 0.0000 -0.3923
# 5 -11.4047 -3.4401 -6.5953 0.0000 30.5152 0.0000
# 6 0.0000 0.0000 0.0000 -0.3923 0.0000 22.7033
#
#
#
# Elastic Compliance Matrix: (Units=1/GPa)
#
#
# Indices 1 2 3 4 5 6 
#
# 1 0.019203 -0.003541 0.000244 0.000000 0.006830 0.000000
# 2 -0.003541 0.011328 -0.003064 0.000000 -0.000709 0.000000
# 3 0.000244 -0.003064 0.009733 0.000000 0.001849 0.000000
# 4 0.000000 0.000000 0.000000 0.052637 0.000000 0.000910
# 5 0.006830 -0.000709 0.001849 0.000000 0.035643 0.000000
# 6 0.000000 0.000000 0.000000 0.000910 0.000000 0.044062
#
#
# Mechanical properties :
#
#
# Convention : Reuss Voigt Hill
#
# Bulk Modulus (GPa) = 36.30977 43.94912 40.12945
# Shear Modulus (GPa) = 25.70590 28.94684 27.32637
#
# Velocity S-wave (km/s) = 3.49390 3.70762 3.60235
# Velocity P-wave (km/s) = 5.78960 6.26094 6.02988
#
# Compressibility (1/GPa) = 0.02754080
#
# Stress axis : x y z
#
# Youngs Moduli (GPa) = 52.07642 88.27986 102.74383
#
# Poissons Ratio (x) = 0.31257 -0.02504
# Poissons Ratio (y) = 0.18438 0.31483
# Poissons Ratio (z) = -0.01269 0.27051
#
# Static dielectric constant tensor:
#      x y z
#    x 3.557220 0.000000 0.152280 
#    y 0.000000 4.027290 0.000000 
#    z 0.152280 0.000000 3.863190 
# 
# 
# High freq. dielectric constant tensor:
#      x y z
#    x 1.805690 0.000000 0.009470 
#    y 0.000000 1.830100 0.000000 
#    z 0.009470 0.000000 1.827060 
# 
# From -- ./inp_files/168665.got.cif
#   From: 2010.06.25/outbox.cif.g09.slc.cpg/sg15_85_cif.got.tgz:168665.got - 2010.06.28 07:06:18.
