data_PCOD8138146
_publ_section_title
;
Structure prediction by ZEFSAII (Michael W. Deem and Ramdas Pophale) SiO2 
 PCOD8138146
Probable space group: C 2/C
;
_chemical_formula_sum "Si O2"
_cell_formula_units_Z 40
_cell_length_a 17.947061
_cell_length_b 6.179311
_cell_length_c 17.388119
_cell_angle_alpha 90.000000
_cell_angle_beta 79.827583
_cell_angle_gamma 90.000000
_cell_volume 1898.038360
_symmetry_space_group_name_H-M "C 2/C"
_symmetry_group_IT_number 15
_symmetry_cell_setting 'monoclinic'
loop_
_space_group_symop_operation_xyz
x,y,z
-x,y,1/2-z
-x,-y,-z
x,-y,1/2+z
1/2+x,1/2+y,z
1/2-x,1/2+y,1/2-z
1/2-x,1/2-y,-z
1/2+x,1/2-y,1/2+z
loop_
_atom_site_type_symbol
_atom_site_label
_atom_site_fract_x
_atom_site_fract_y
_atom_site_fract_z
Si Si1 0.843842 0.635022 0.570093
Si Si2 0.805407 0.982514 0.183259
Si Si3 0.437581 0.252459 0.082826
Si Si4 0.210355 0.875780 0.644052
Si Si5 0.592362 0.449738 0.055703
O O1 0.826277 0.785007 0.646261
O O2 0.923056 0.504186 0.570399
O O3 0.774992 0.466744 0.574511
O O4 0.849801 0.775268 0.491448
O O5 0.789117 0.994178 0.276295
O O6 0.876283 0.823138 0.157497
O O7 0.730674 0.876828 0.155866
O O8 0.520505 0.312549 0.100378
O O9 0.429881 0.376638 0.003881
O O10 0.129817 0.913981 0.618149
#
# Coordination Sequence:
#
# PCOD8138146 Si02
#       5
#     8   8   8   8   8
#     4  10  20  37  60  85 116 155 199 253 302 363
#     4  10  21  37  58  83 121 158 201 252 301 362
#     4   9  21  39  57  85 120 154 199 254 305 364
#     4  11  21  36  59  86 117 158 205 249 306 362
#     4  10  21  37  60  86 117 156 200 251 308 367
#
# _framework density 21.074389
#
# number of rings (size 3 to 8) (size 9 to 14) (size 15 to 20)
#    0.000    2.000    2.000    1.200    0.000    9.600 
#    0.000    0.000    0.000    7.200    0.000    0.000 
#    0.000    0.000    0.000    0.000    0.000    0.000 
#
# Total GULP energy -247915.370579 kJ/mol
# GULP energy per Si atom -12395.768529 kJ/mol
# Density = 2.102642 g / cm^3
# Si number density = 21.074389 Si / 1000 Ang^3
#
#
#
# Elastic Constant Matrix: (Units=GPa)
#
#
# Indices 1 2 3 4 5 6 
#
# 1 111.5247 40.6548 40.0510 0.0000 12.9969 0.0000
# 2 40.6548 105.7114 35.5312 0.0000 5.1843 0.0000
# 3 40.0510 35.5312 52.0633 0.0000 -0.1306 0.0000
# 4 0.0000 0.0000 0.0000 25.0067 0.0000 -4.0195
# 5 12.9969 5.1843 -0.1306 0.0000 24.9204 0.0000
# 6 0.0000 0.0000 0.0000 -4.0195 0.0000 42.2253
#
#
#
# Elastic Compliance Matrix: (Units=1/GPa)
#
#
# Indices 1 2 3 4 5 6 
#
# 1 0.013803 -0.001812 -0.009399 0.000000 -0.006871 0.000000
# 2 -0.001812 0.012684 -0.007266 0.000000 -0.001732 0.000000
# 3 -0.009399 -0.007266 0.031413 0.000000 0.006578 0.000000
# 4 0.000000 0.000000 0.000000 0.040611 0.000000 0.003866
# 5 -0.006871 -0.001732 0.006578 0.000000 0.044106 0.000000
# 6 0.000000 0.000000 0.000000 0.003866 0.000000 0.024050
#
#
# Mechanical properties :
#
#
# Convention : Reuss Voigt Hill
#
# Bulk Modulus (GPa) = 47.74383 55.75263 51.74823
# Shear Modulus (GPa) = 23.74106 28.63464 26.18785
#
# Velocity S-wave (km/s) = 3.36003 3.69011 3.52893
# Velocity P-wave (km/s) = 6.14469 6.68345 6.41972
#
# Compressibility (1/GPa) = 0.02094511
#
# Stress axis : x y z
#
# Youngs Moduli (GPa) = 72.44551 78.83926 31.83362
#
# Poissons Ratio (x) = 0.14289 0.29920
# Poissons Ratio (y) = 0.13130 0.23132
# Poissons Ratio (z) = 0.68091 0.57288
#
# Static dielectric constant tensor:
#      x y z
#    x 3.877240 0.000000 -0.290200 
#    y 0.000000 4.009200 0.000000 
#    z -0.290200 0.000000 3.518360 
# 
# 
# High freq. dielectric constant tensor:
#      x y z
#    x 1.815570 0.000000 -0.025600 
#    y 0.000000 1.834760 0.000000 
#    z -0.025600 0.000000 1.803170 
# 
# From -- ./inp_files/207995.got.cif
#   From: 2010.06.25/outbox.cif.g09.slc.cpg/sg15_104_cif.got.tgz:207995.got - 2010.06.28 07:06:18.
