data_PCOD8138116
_publ_section_title
;
Structure prediction by ZEFSAII (Michael W. Deem and Ramdas Pophale) SiO2 
 PCOD8138116
Probable space group: C 2/C
;
_chemical_formula_sum "Si O2"
_cell_formula_units_Z 48
_cell_length_a 19.083177
_cell_length_b 9.165267
_cell_length_c 28.867731
_cell_angle_alpha 90.000000
_cell_angle_beta 29.918641
_cell_angle_gamma 90.000000
_cell_volume 2518.306348
_symmetry_space_group_name_H-M "C 2/C"
_symmetry_group_IT_number 15
_symmetry_cell_setting 'monoclinic'
loop_
_space_group_symop_operation_xyz
x,y,z
-x,y,1/2-z
-x,-y,-z
x,-y,1/2+z
1/2+x,1/2+y,z
1/2-x,1/2+y,1/2-z
1/2-x,1/2-y,-z
1/2+x,1/2-y,1/2+z
loop_
_atom_site_type_symbol
_atom_site_label
_atom_site_fract_x
_atom_site_fract_y
_atom_site_fract_z
Si Si1 0.911387 0.913148 0.015179
Si Si2 0.889879 0.521323 0.775302
Si Si3 0.394690 0.316678 0.268159
Si Si4 0.671806 0.179461 0.777189
Si Si5 0.080251 0.628909 0.929877
Si Si6 0.917002 0.005362 0.664313
O O1 0.960986 0.750377 0.996332
O O2 0.941393 0.964779 0.944811
O O3 0.751159 0.939826 0.117280
O O4 0.000000 0.000000 0.000000
O O5 0.905639 0.354222 0.749822
O O6 0.917856 0.622637 0.714789
O O7 0.000000 0.567911 0.750000
O O8 0.500000 0.355754 0.250000
O O9 0.227422 0.342263 0.373538
O O10 0.450215 0.416897 0.194072
O O11 0.620592 0.100314 0.853486
O O12 0.670620 0.354580 0.779088
O O13 0.830566 0.117635 0.680882
O O14 0.000000 0.500000 0.000000
#
# Coordination Sequence:
#
# PCOD8138116 Si02
#       6
#     8   8   8   8   8   8
#     4  11  20  38  62  87 117 153 202 243 293 354
#     4  11  23  41  60  88 122 159 195 247 306 351
#     4  10  22  41  59  86 122 156 199 244 304 352
#     4  10  20  37  59  88 116 156 199 239 297 351
#     4  10  22  38  60  91 114 154 205 247 288 357
#     4  10  21  37  62  87 117 158 199 243 293 354
#
# _framework density 19.06043
#
# number of rings (size 3 to 8) (size 9 to 14) (size 15 to 20)
#    0.000    1.667    3.333    2.000    4.667    2.000 
#    3.000    3.333    0.000    0.000    0.000    0.000 
#    0.000    0.000    0.000    0.000    0.000    0.000 
#
# Total GULP energy -297358.186187 kJ/mol
# GULP energy per Si atom -12389.924424 kJ/mol
# Density = 1.901705 g / cm^3
# Si number density = 19.060430 Si / 1000 Ang^3
#
#
#
# Elastic Constant Matrix: (Units=GPa)
#
#
# Indices 1 2 3 4 5 6 
#
# 1 135.9467 56.4951 50.6664 -0.0089 -11.5100 0.0077
# 2 56.4951 94.0092 46.4709 -0.0076 11.5209 0.0020
# 3 50.6664 46.4709 95.4126 -0.0036 -5.3701 0.0049
# 4 -0.0089 -0.0076 -0.0036 32.1695 0.0035 4.3532
# 5 -11.5100 11.5209 -5.3701 0.0035 27.9288 -0.0028
# 6 0.0077 0.0020 0.0049 4.3532 -0.0028 33.4910
#
#
#
# Elastic Compliance Matrix: (Units=1/GPa)
#
#
# Indices 1 2 3 4 5 6 
#
# 1 0.011649 -0.006583 -0.002585 0.000001 0.007020 -0.000001
# 2 -0.006583 0.019311 -0.006582 0.000003 -0.011945 0.000000
# 3 -0.002585 -0.006582 0.015318 -0.000001 0.004595 -0.000001
# 4 0.000001 0.000003 -0.000001 0.031642 -0.000006 -0.004113
# 5 0.007020 -0.011945 0.004595 -0.000006 0.044509 0.000003
# 6 -0.000001 0.000000 -0.000001 -0.004113 0.000003 0.030393
#
#
# Mechanical properties :
#
#
# Convention : Reuss Voigt Hill
#
# Bulk Modulus (GPa) = 67.66628 70.29258 68.97943
# Shear Modulus (GPa) = 26.42051 30.16695 28.29373
#
# Velocity S-wave (km/s) = 3.72714 3.98263 3.85700
# Velocity P-wave (km/s) = 7.35527 7.62282 7.49024
#
# Compressibility (1/GPa) = 0.01477841
#
# Stress axis : x y z
#
# Youngs Moduli (GPa) = 85.84311 51.78450 65.28465
#
# Poissons Ratio (x) = 0.34091 0.16873
# Poissons Ratio (y) = 0.56513 0.42969
# Poissons Ratio (z) = 0.22186 0.34083
#
# Static dielectric constant tensor:
#      x y z
#    x 3.564630 -0.000010 0.049400 
#    y -0.000010 3.513430 0.000010 
#    z 0.049400 0.000010 3.487630 
# 
# 
# High freq. dielectric constant tensor:
#      x y z
#    x 1.739630 0.000000 0.010320 
#    y 0.000000 1.752570 0.000000 
#    z 0.010320 0.000000 1.733520 
# 
# From -- ./inp_files/166134.got.cif
#   From: 2010.06.25/outbox.cif.g09.slc.cpg/sg15_84_cif.got.tgz:166134.got - 2010.06.28 07:06:18.
