data_PCOD8138022
_publ_section_title
;
Structure prediction by ZEFSAII (Michael W. Deem and Ramdas Pophale) SiO2 
 PCOD8138022
Probable space group: C 2/C
;
_chemical_formula_sum "Si O2"
_cell_formula_units_Z 52
_cell_length_a 13.191076
_cell_length_b 25.529892
_cell_length_c 7.930062
_cell_angle_alpha 90.000000
_cell_angle_beta 84.366856
_cell_angle_gamma 90.000000
_cell_volume 2657.684361
_symmetry_space_group_name_H-M "C 2/C"
_symmetry_group_IT_number 15
_symmetry_cell_setting 'monoclinic'
loop_
_space_group_symop_operation_xyz
x,y,z
-x,y,1/2-z
-x,-y,-z
x,-y,1/2+z
1/2+x,1/2+y,z
1/2-x,1/2+y,1/2-z
1/2-x,1/2-y,-z
1/2+x,1/2-y,1/2+z
loop_
_atom_site_type_symbol
_atom_site_label
_atom_site_fract_x
_atom_site_fract_y
_atom_site_fract_z
Si Si1 0.850331 0.527507 0.029112
Si Si2 0.500000 0.970048 0.250000
Si Si3 0.500000 0.129639 0.250000
Si Si4 0.059215 0.283394 0.981132
Si Si5 0.844510 0.270780 0.189908
Si Si6 0.700164 0.925309 0.646828
Si Si7 0.500000 0.302045 0.250000
Si Si8 0.316732 0.330020 0.489807
O O1 0.935260 0.508565 0.145294
O O2 0.778479 0.564726 0.155164
O O3 0.787559 0.479779 0.957805
O O4 0.915681 0.561189 0.876826
O O5 0.432644 0.163710 0.129618
O O6 0.414898 0.096159 0.364146
O O7 0.073268 0.234604 0.851983
O O8 0.145640 0.278027 0.110131
O O9 0.948602 0.283826 0.080616
O O10 0.761476 0.311929 0.140734
O O11 0.814795 0.211172 0.145487
O O12 0.786316 0.886382 0.566331
O O13 0.427703 0.336408 0.383848
#
# Coordination Sequence:
#
# PCOD8138022 Si02
#       8
#     8   4   4   8   8   8   4   8
#     4   9  18  32  51  70 111 145 182 236 269 324
#     4   8  13  30  49  72  98 148 166 203 280 333
#     4  11  19  32  54  84 118 154 180 214 273 357
#     4   9  18  34  53  85 120 149 176 224 276 344
#     4   9  18  36  55  81 116 149 183 228 279 342
#     4  11  21  37  52  80 110 154 190 231 285 334
#     4   9  20  36  57  78 116 150 186 241 283 326
#     4  10  20  37  57  79 112 152 196 236 284 334
#
# _framework density 19.565905999999998
#
# number of rings (size 3 to 8) (size 9 to 14) (size 15 to 20)
#    0.000    2.462    1.538    2.769    2.154    0.615 
#    8.308    0.000    0.000    0.923    0.000    0.000 
#    0.000    0.000    0.000    0.000    0.000    0.000 
#
# Total GULP energy -322101.663553 kJ/mol
# GULP energy per Si atom -12388.525521 kJ/mol
# Density = 1.952137 g / cm^3
# Si number density = 19.565906 Si / 1000 Ang^3
#
#
#
# Elastic Constant Matrix: (Units=GPa)
#
#
# Indices 1 2 3 4 5 6 
#
# 1 42.9574 31.0804 30.1742 0.0000 1.3007 0.0000
# 2 31.0804 86.1176 53.4187 0.0000 -14.7579 0.0000
# 3 30.1742 53.4187 125.4555 0.0000 3.0538 0.0000
# 4 0.0000 0.0000 0.0000 17.6520 0.0000 3.7037
# 5 1.3007 -14.7579 3.0538 0.0000 37.7648 0.0000
# 6 0.0000 0.0000 0.0000 3.7037 0.0000 16.0014
#
#
#
# Elastic Compliance Matrix: (Units=1/GPa)
#
#
# Indices 1 2 3 4 5 6 
#
# 1 0.033722 -0.011020 -0.003292 0.000000 -0.005202 0.000000
# 2 -0.011020 0.021291 -0.006640 0.000000 0.009237 0.000000
# 3 -0.003292 -0.006640 0.011673 0.000000 -0.003425 0.000000
# 4 0.000000 0.000000 0.000000 0.059542 0.000000 -0.013782
# 5 -0.005202 0.009237 -0.003425 0.000000 0.030545 0.000000
# 6 0.000000 0.000000 0.000000 -0.013782 0.000000 0.065684
#
#
# Mechanical properties :
#
#
# Convention : Reuss Voigt Hill
#
# Bulk Modulus (GPa) = 40.35091 53.76412 47.05752
# Shear Modulus (GPa) = 18.34043 23.60747 20.97395
#
# Velocity S-wave (km/s) = 3.06497 3.47733 3.27764
# Velocity P-wave (km/s) = 5.76135 6.60761 6.19894
#
# Compressibility (1/GPa) = 0.02478259
#
# Stress axis : x y z
#
# Youngs Moduli (GPa) = 29.65455 46.96873 85.66537
#
# Poissons Ratio (x) = 0.51759 0.28199
# Poissons Ratio (y) = 0.32679 0.56881
# Poissons Ratio (z) = 0.09762 0.31187
#
# Static dielectric constant tensor:
#      x y z
#    x 3.230730 0.000000 -0.053740 
#    y 0.000000 3.407850 0.000000 
#    z -0.053740 0.000000 4.420110 
# 
# 
# High freq. dielectric constant tensor:
#      x y z
#    x 1.716180 0.000000 -0.005420 
#    y 0.000000 1.731930 0.000000 
#    z -0.005420 0.000000 1.786040 
# 
# From -- ./inp_files/41729.got.cif
#   From: 2010.06.25/outbox.cif.g09.slc.cpg/sg15_21_cif.got.tgz:41729.got - 2010.06.28 07:06:18.
