data_PCOD8138370
_publ_section_title
;
Structure prediction by ZEFSAII (Michael W. Deem and Ramdas Pophale) SiO2 
 PCOD8138370
Probable space group: C 2/C
;
_chemical_formula_sum "Si O2"
_cell_formula_units_Z 52
_cell_length_a 8.763401
_cell_length_b 14.060461
_cell_length_c 32.440847
_cell_angle_alpha 90.000000
_cell_angle_beta 38.545375
_cell_angle_gamma 90.000000
_cell_volume 2490.841156
_symmetry_space_group_name_H-M "C 2/C"
_symmetry_group_IT_number 15
_symmetry_cell_setting 'monoclinic'
loop_
_space_group_symop_operation_xyz
x,y,z
-x,y,1/2-z
-x,-y,-z
x,-y,1/2+z
1/2+x,1/2+y,z
1/2-x,1/2+y,1/2-z
1/2-x,1/2-y,-z
1/2+x,1/2-y,1/2+z
loop_
_atom_site_type_symbol
_atom_site_label
_atom_site_fract_x
_atom_site_fract_y
_atom_site_fract_z
Si Si1 0.867522 0.867437 0.915817
Si Si2 0.936680 0.669642 0.446189
Si Si3 0.755674 0.290380 0.326418
Si Si4 0.000000 0.915541 0.250000
Si Si5 0.885566 0.456932 0.456922
Si Si6 0.006085 0.328489 0.138370
Si Si7 0.057130 0.042493 0.647883
O O1 0.616022 0.845737 0.946163
O O2 0.013898 0.768697 0.884101
O O3 0.026623 0.947723 0.858315
O O4 0.816251 0.904114 0.972643
O O5 0.750000 0.750000 0.500000
O O6 0.809840 0.567247 0.465936
O O7 0.078572 0.700529 0.373847
O O8 0.604518 0.368868 0.332913
O O9 0.000000 0.259006 0.250000
O O10 0.829120 0.328410 0.355805
O O11 0.770638 0.848125 0.290808
O O12 0.972059 0.978747 0.297097
O O13 0.876979 0.410656 0.413934
O O14 0.152939 0.442212 0.421903
#
# Coordination Sequence:
#
# PCOD8138370 Si02
#       7
#     8   8   8   4   8   8   8
#     4  10  20  38  61  90 120 158 200 249 304 360
#     4  10  20  37  63  92 120 160 211 246 299 366
#     4  11  21  39  59  89 125 158 200 259 310 359
#     4  10  20  40  56  82 116 158 204 244 298 368
#     4  10  20  39  64  90 119 159 203 246 301 363
#     4  10  22  39  57  90 119 158 200 248 300 365
#     4  10  20  38  62  83 119 158 198 246 303 361
#
# _framework density 20.876480999999998
#
# number of rings (size 3 to 8) (size 9 to 14) (size 15 to 20)
#    0.000    1.846    1.538    4.154    0.000    0.000 
#   23.538   11.538    0.000    0.000    0.000    0.000 
#    0.000    0.000    0.000    0.000    0.000    0.000 
#
# Total GULP energy -322278.294689 kJ/mol
# GULP energy per Si atom -12395.319026 kJ/mol
# Density = 2.082896 g / cm^3
# Si number density = 20.876481 Si / 1000 Ang^3
#
#
#
# Elastic Constant Matrix: (Units=GPa)
#
#
# Indices 1 2 3 4 5 6 
#
# 1 42.6790 9.7383 14.8316 0.0062 13.9246 0.0011
# 2 9.7383 97.2646 47.3480 -0.0028 11.1837 0.0002
# 3 14.8316 47.3480 119.8400 0.0470 10.3582 0.0011
# 4 0.0062 -0.0028 0.0470 31.5186 -0.0147 0.2872
# 5 13.9246 11.1837 10.3582 -0.0147 22.0951 -0.0006
# 6 0.0011 0.0002 0.0011 0.2872 -0.0006 21.5098
#
#
#
# Elastic Compliance Matrix: (Units=1/GPa)
#
#
# Indices 1 2 3 4 5 6 
#
# 1 0.030028 0.000138 -0.002219 -0.000011 -0.017954 -0.000002
# 2 0.000138 0.013126 -0.004817 0.000006 -0.004473 0.000000
# 3 -0.002219 -0.004817 0.010621 -0.000016 -0.001143 0.000000
# 4 -0.000011 0.000006 -0.000016 0.031731 0.000032 -0.000424
# 5 -0.017954 -0.004473 -0.001143 0.000032 0.059373 0.000002
# 6 -0.000002 0.000000 0.000000 -0.000424 0.000002 0.046496
#
#
# Mechanical properties :
#
#
# Convention : Reuss Voigt Hill
#
# Bulk Modulus (GPa) = 25.01241 44.84660 34.92950
# Shear Modulus (GPa) = 22.88350 27.54907 25.21629
#
# Velocity S-wave (km/s) = 3.31439 3.63660 3.47923
# Velocity P-wave (km/s) = 5.16276 6.25793 5.73654
#
# Compressibility (1/GPa) = 0.03998016
#
# Stress axis : x y z
#
# Youngs Moduli (GPa) = 33.30224 76.18204 94.15416
#
# Poissons Ratio (x) = -0.01052 0.20894
# Poissons Ratio (y) = -0.00460 0.45351
# Poissons Ratio (z) = 0.07390 0.36694
#
# Static dielectric constant tensor:
#      x y z
#    x 3.554300 0.000000 0.056780 
#    y 0.000000 4.206660 0.000010 
#    z 0.056780 0.000010 3.983820 
# 
# 
# High freq. dielectric constant tensor:
#      x y z
#    x 1.795550 0.000000 0.012090 
#    y 0.000000 1.817210 0.000000 
#    z 0.012090 0.000000 1.828410 
# 
# From -- ./inp_files/308196.got.cif
#   From: 2010.06.25/outbox.cif.g09.slc.cpg/sg15_155_cif.got.tgz:308196.got - 2010.06.28 07:06:18.
