data_PCOD8138389
_publ_section_title
;
Structure prediction by ZEFSAII (Michael W. Deem and Ramdas Pophale) SiO2 
 PCOD8138389
Probable space group: C 2/C
;
_chemical_formula_sum "Si O2"
_cell_formula_units_Z 60
_cell_length_a 23.597581
_cell_length_b 14.357411
_cell_length_c 16.766627
_cell_angle_alpha 90.000000
_cell_angle_beta 147.461492
_cell_angle_gamma 90.000000
_cell_volume 3055.369045
_symmetry_space_group_name_H-M "C 2/C"
_symmetry_group_IT_number 15
_symmetry_cell_setting 'monoclinic'
loop_
_space_group_symop_operation_xyz
x,y,z
-x,y,1/2-z
-x,-y,-z
x,-y,1/2+z
1/2+x,1/2+y,z
1/2-x,1/2+y,1/2-z
1/2-x,1/2-y,-z
1/2+x,1/2-y,1/2+z
loop_
_atom_site_type_symbol
_atom_site_label
_atom_site_fract_x
_atom_site_fract_y
_atom_site_fract_z
Si Si1 0.278220 0.535027 0.144333
Si Si2 0.000000 0.927841 0.250000
Si Si3 0.623672 0.890281 0.183907
Si Si4 0.104320 0.151649 0.720412
Si Si5 0.787390 0.662519 0.197165
Si Si6 0.589383 0.050188 0.027760
Si Si7 0.709893 0.510299 0.523611
Si Si8 0.111227 0.818304 0.615672
O O1 0.320349 0.432668 0.216864
O O2 0.158746 0.552154 0.030657
O O3 0.353864 0.607899 0.277077
O O4 0.277738 0.551262 0.049742
O O5 0.061057 0.863882 0.258671
O O6 0.085694 0.994766 0.395245
O O7 0.624508 0.781754 0.170504
O O8 0.598325 0.945363 0.072317
O O9 0.739355 0.916366 0.354656
O O10 0.530945 0.921313 0.136024
O O11 0.173355 0.244792 0.799527
O O12 0.009728 0.159967 0.545937
O O13 0.872058 0.624799 0.360773
O O14 0.770287 0.588089 0.106062
O O15 0.677158 0.677363 0.112135
#
# Coordination Sequence:
#
# PCOD8138389 Si02
#       8
#     8   4   8   8   8   8   8   8
#     4  10  23  37  58  87 123 153 205 235 298 354
#     4  10  22  40  60  84 130 154 196 240 300 350
#     4  10  20  37  64  83 123 153 201 244 302 343
#     4  11  21  40  61  88 119 159 194 249 296 355
#     4  10  20  38  64  88 122 149 202 242 302 345
#     4   9  19  38  58  91 114 157 197 250 288 353
#     4  10  22  41  57  86 120 163 188 249 292 357
#     4  11  21  39  63  91 115 160 200 250 287 356
#
# _framework density 19.637561999999999
#
# number of rings (size 3 to 8) (size 9 to 14) (size 15 to 20)
#    0.000    1.867    2.667    1.200    0.000    3.200 
#    7.200    0.000    0.000    0.000    0.000    0.000 
#    0.000    0.000    0.000    0.000    0.000    0.000 
#
# Total GULP energy -371981.751815 kJ/mol
# GULP energy per Si atom -12399.391727 kJ/mol
# Density = 1.959287 g / cm^3
# Si number density = 19.637562 Si / 1000 Ang^3
#
#
#
# Elastic Constant Matrix: (Units=GPa)
#
#
# Indices 1 2 3 4 5 6 
#
# 1 60.0120 16.9179 9.2776 0.0000 -7.4077 0.0000
# 2 16.9179 94.7063 13.5074 0.0000 -5.9549 0.0000
# 3 9.2776 13.5074 73.6673 0.0000 4.8924 0.0000
# 4 0.0000 0.0000 0.0000 20.3066 0.0000 0.3360
# 5 -7.4077 -5.9549 4.8924 0.0000 23.1013 0.0000
# 6 0.0000 0.0000 0.0000 0.3360 0.0000 25.4328
#
#
#
# Elastic Compliance Matrix: (Units=1/GPa)
#
#
# Indices 1 2 3 4 5 6 
#
# 1 0.018451 -0.002620 -0.002223 0.000000 0.005712 0.000000
# 2 -0.002620 0.011462 -0.001939 0.000000 0.002525 0.000000
# 3 -0.002223 -0.001939 0.014494 0.000000 -0.004282 0.000000
# 4 0.000000 0.000000 0.000000 0.049256 0.000000 -0.000651
# 5 0.005712 0.002525 -0.004282 0.000000 0.046677 0.000000
# 6 0.000000 0.000000 0.000000 -0.000651 0.000000 0.039328
#
#
# Mechanical properties :
#
#
# Convention : Reuss Voigt Hill
#
# Bulk Modulus (GPa) = 32.42165 34.19906 33.31036
# Shear Modulus (GPa) = 24.56845 26.34699 25.45772
#
# Velocity S-wave (km/s) = 3.54092 3.66685 3.60443
# Velocity P-wave (km/s) = 5.76744 5.94816 5.85850
#
# Compressibility (1/GPa) = 0.03084358
#
# Stress axis : x y z
#
# Youngs Moduli (GPa) = 54.19902 87.24218 68.99181
#
# Poissons Ratio (x) = 0.22855 0.15334
# Poissons Ratio (y) = 0.14199 0.13381
# Poissons Ratio (z) = 0.12046 0.16921
#
# Static dielectric constant tensor:
#      x y z
#    x 3.519020 0.000000 0.277610 
#    y 0.000000 3.522580 0.000000 
#    z 0.277610 0.000000 3.717540 
# 
# 
# High freq. dielectric constant tensor:
#      x y z
#    x 1.755330 0.000000 0.017540 
#    y 0.000000 1.762290 0.000000 
#    z 0.017540 0.000000 1.770270 
# 
# From -- ./inp_files/222722.got.cif
#   From: 2010.06.25/outbox.cif.g09.slc.cpg/sg15_112_cif.got.tgz:222722.got - 2010.06.28 07:06:18.
