data_PCOD8138967
_publ_section_title
;
Structure prediction by ZEFSAII (Michael W. Deem and Ramdas Pophale) SiO2 
 PCOD8138967
Probable space group: C 2/C
;
_chemical_formula_sum "Si O2"
_cell_formula_units_Z 56
_cell_length_a 27.689429
_cell_length_b 13.845670
_cell_length_c 11.703494
_cell_angle_alpha 90.000000
_cell_angle_beta 37.984302
_cell_angle_gamma 90.000000
_cell_volume 2761.424350
_symmetry_space_group_name_H-M "C 2/C"
_symmetry_group_IT_number 15
_symmetry_cell_setting 'monoclinic'
loop_
_space_group_symop_operation_xyz
x,y,z
-x,y,1/2-z
-x,-y,-z
x,-y,1/2+z
1/2+x,1/2+y,z
1/2-x,1/2+y,1/2-z
1/2-x,1/2-y,-z
1/2+x,1/2-y,1/2+z
loop_
_atom_site_type_symbol
_atom_site_label
_atom_site_fract_x
_atom_site_fract_y
_atom_site_fract_z
Si Si1 0.051868 0.025689 0.248797
Si Si2 0.915958 0.316793 0.964961
Si Si3 0.572204 0.378385 0.934730
Si Si4 0.232644 0.340597 0.400307
Si Si5 0.456068 0.983273 0.458453
Si Si6 0.314251 0.145633 0.262942
Si Si7 0.801999 0.023738 0.158892
O O1 0.060928 0.110505 0.322057
O O2 0.000000 0.079087 0.250000
O O3 0.004794 0.927509 0.367240
O O4 0.137682 0.990593 0.056358
O O5 0.901559 0.421167 0.049913
O O6 0.000000 0.318253 0.750000
O O7 0.918569 0.233836 0.055131
O O8 0.847157 0.294144 0.002468
O O9 0.651467 0.434800 0.819667
O O10 0.302114 0.261221 0.278935
O O11 0.213150 0.387002 0.559724
O O12 0.262525 0.422945 0.261673
O O13 0.500000 0.972705 0.250000
O O14 0.403887 0.887010 0.573623
O O15 0.500000 0.000000 0.500000
O O16 0.263368 0.098305 0.258284
#
# Coordination Sequence:
#
# PCOD8138967 Si02
#       7
#     8   8   8   8   8   8   8
#     4   9  20  38  57  89 128 162 205 260 335 389
#     4  11  21  40  66  92 125 168 223 264 326 399
#     4  10  20  38  63  91 122 168 209 265 329 398
#     4  11  24  41  65  98 127 172 222 273 341 405
#     4  11  25  48  69  96 135 182 230 280 332 399
#     4  11  23  42  67  94 130 175 221 276 332 403
#     4  11  20  39  62  91 131 158 214 276 330 396
#
# _framework density 20.279388999999998
#
# number of rings (size 3 to 8) (size 9 to 14) (size 15 to 20)
#    0.000    1.429    2.857    3.857    0.000    0.000 
#   15.429    0.714    0.000    0.000    0.000    0.000 
#    0.000    0.000    0.000    0.000    0.000    0.000 
#
# Total GULP energy -346933.897121 kJ/mol
# GULP energy per Si atom -12390.496326 kJ/mol
# Density = 2.023323 g / cm^3
# Si number density = 20.279389 Si / 1000 Ang^3
#
#
#
# Elastic Constant Matrix: (Units=GPa)
#
#
# Indices 1 2 3 4 5 6 
#
# 1 109.1692 32.8499 50.2586 0.0000 15.6245 0.0000
# 2 32.8499 97.8892 34.3652 0.0000 0.6179 0.0000
# 3 50.2586 34.3652 73.9366 0.0000 -8.1938 0.0000
# 4 0.0000 0.0000 0.0000 25.2258 0.0000 -4.1560
# 5 15.6245 0.6179 -8.1938 0.0000 30.1937 0.0000
# 6 0.0000 0.0000 0.0000 -4.1560 0.0000 37.9188
#
#
#
# Elastic Compliance Matrix: (Units=1/GPa)
#
#
# Indices 1 2 3 4 5 6 
#
# 1 0.016897 -0.001307 -0.012212 0.000000 -0.012031 0.000000
# 2 -0.001307 0.012409 -0.004982 0.000000 -0.000929 0.000000
# 3 -0.012212 -0.004982 0.025624 0.000000 0.013375 0.000000
# 4 0.000000 0.000000 0.000000 0.040371 0.000000 0.004425
# 5 -0.012031 -0.000929 0.013375 0.000000 0.042994 0.000000
# 6 0.000000 0.000000 0.000000 0.004425 0.000000 0.026857
#
#
# Mechanical properties :
#
#
# Convention : Reuss Voigt Hill
#
# Bulk Modulus (GPa) = 55.77785 57.32693 56.55239
# Shear Modulus (GPa) = 24.02340 29.56907 26.79623
#
# Velocity S-wave (km/s) = 3.44557 3.82263 3.63899
# Velocity P-wave (km/s) = 6.58739 6.91471 6.75303
#
# Compressibility (1/GPa) = 0.01792827
#
# Stress axis : x y z
#
# Youngs Moduli (GPa) = 59.18090 80.58515 39.02624
#
# Poissons Ratio (x) = 0.10536 0.47657
# Poissons Ratio (y) = 0.07738 0.19443
# Poissons Ratio (z) = 0.72269 0.40147
#
# Static dielectric constant tensor:
#      x y z
#    x 4.086780 0.000000 0.087670 
#    y 0.000000 3.703920 0.000000 
#    z 0.087670 0.000000 3.677130 
# 
# 
# High freq. dielectric constant tensor:
#      x y z
#    x 1.814140 0.000000 -0.003370 
#    y 0.000000 1.785010 0.000000 
#    z -0.003370 0.000000 1.777980 
# 
# From -- ./inp_files/123317.got.cif
#   From: 2010.06.25/outbox.cif.g09.slc.cpg/sg15_62_cif.got.tgz:123317.got - 2010.06.28 07:06:18.
