data_PCOD8138418
_publ_section_title
;
Structure prediction by ZEFSAII (Michael W. Deem and Ramdas Pophale) SiO2 
 PCOD8138418
Probable space group: C 2/C
;
_chemical_formula_sum "Si O2"
_cell_formula_units_Z 60
_cell_length_a 28.758541
_cell_length_b 15.639343
_cell_length_c 14.537843
_cell_angle_alpha 90.000000
_cell_angle_beta 26.093139
_cell_angle_gamma 90.000000
_cell_volume 2875.886796
_symmetry_space_group_name_H-M "C 2/C"
_symmetry_group_IT_number 15
_symmetry_cell_setting 'monoclinic'
loop_
_space_group_symop_operation_xyz
x,y,z
-x,y,1/2-z
-x,-y,-z
x,-y,1/2+z
1/2+x,1/2+y,z
1/2-x,1/2+y,1/2-z
1/2-x,1/2-y,-z
1/2+x,1/2-y,1/2+z
loop_
_atom_site_type_symbol
_atom_site_label
_atom_site_fract_x
_atom_site_fract_y
_atom_site_fract_z
Si Si1 0.500000 0.415154 0.250000
Si Si2 0.724873 0.637190 0.736759
Si Si3 0.519150 0.546464 0.059760
Si Si4 0.170680 0.799444 0.044102
Si Si5 0.107249 0.826950 0.618986
Si Si6 0.092426 0.531381 0.159778
Si Si7 0.046413 0.652551 0.769100
Si Si8 0.110091 0.336894 0.783890
O O1 0.546065 0.475323 0.088444
O O2 0.404283 0.356271 0.385684
O O3 0.773508 0.724676 0.613270
O O4 0.802751 0.558414 0.580654
O O5 0.614937 0.614124 0.881598
O O6 0.706842 0.649772 0.878095
O O7 0.410531 0.597509 0.275706
O O8 0.500000 0.500000 0.000000
O O9 0.265653 0.857242 0.916749
O O10 0.102812 0.756103 0.247016
O O11 0.124559 0.734631 0.637467
O O12 0.000000 0.822766 0.750000
O O13 0.108626 0.436231 0.172790
O O14 0.065220 0.591978 0.294305
O O15 0.000000 0.536578 0.250000
O O16 0.000000 0.649899 0.750000
O O17 0.953997 0.663270 0.007930
#
# Coordination Sequence:
#
# PCOD8138418 Si02
#       8
#     4   8   8   8   8   8   8   8
#     4  12  26  42  68 106 134 172 242 286 336 404
#     4  10  21  43  63  89 134 171 221 274 349 397
#     4  11  24  42  69 100 138 179 229 289 345 409
#     4  10  24  39  70  98 128 181 225 279 343 417
#     4   9  18  39  61  89 121 171 215 275 331 396
#     4  10  23  39  64  99 129 177 223 281 333 410
#     4  10  20  37  64  92 126 171 228 268 330 407
#     4  10  21  40  65  95 134 173 222 271 351 403
#
# _framework density 20.863130999999999
#
# number of rings (size 3 to 8) (size 9 to 14) (size 15 to 20)
#    0.000    1.867    2.000    2.800   11.200    3.200 
#    0.000    1.333    0.000    2.400    0.000    0.000 
#    0.000    0.000    0.000    0.000    0.000    0.000 
#
# Total GULP energy -371885.183094 kJ/mol
# GULP energy per Si atom -12396.172770 kJ/mol
# Density = 2.081565 g / cm^3
# Si number density = 20.863131 Si / 1000 Ang^3
#
#
#
# Elastic Constant Matrix: (Units=GPa)
#
#
# Indices 1 2 3 4 5 6 
#
# 1 87.3960 45.5964 30.7042 0.0000 17.2484 0.0000
# 2 45.5964 136.7913 55.9991 0.0000 13.9842 0.0000
# 3 30.7042 55.9991 121.3915 0.0000 34.3705 0.0000
# 4 0.0000 0.0000 0.0000 26.3003 0.0000 -1.4622
# 5 17.2484 13.9842 34.3705 0.0000 36.7841 0.0000
# 6 0.0000 0.0000 0.0000 -1.4622 0.0000 17.3677
#
#
#
# Elastic Compliance Matrix: (Units=1/GPa)
#
#
# Indices 1 2 3 4 5 6 
#
# 1 0.014777 -0.004270 -0.000361 0.000000 -0.004968 0.000000
# 2 -0.004270 0.010257 -0.004235 0.000000 0.002060 0.000000
# 3 -0.000361 -0.004235 0.013297 0.000000 -0.010645 0.000000
# 4 0.000000 0.000000 0.000000 0.038201 0.000000 0.003216
# 5 -0.004968 0.002060 -0.010645 0.000000 0.038679 0.000000
# 6 0.000000 0.000000 0.000000 0.003216 0.000000 0.057849
#
#
# Mechanical properties :
#
#
# Convention : Reuss Voigt Hill
#
# Bulk Modulus (GPa) = 48.54596 67.79759 58.17177
# Shear Modulus (GPa) = 25.29629 30.30903 27.80266
#
# Velocity S-wave (km/s) = 3.48586 3.81564 3.65447
# Velocity P-wave (km/s) = 6.28656 7.20965 6.76387
#
# Compressibility (1/GPa) = 0.02059904
#
# Stress axis : x y z
#
# Youngs Moduli (GPa) = 67.67115 97.49720 75.20696
#
# Poissons Ratio (x) = 0.41630 0.02717
# Poissons Ratio (y) = 0.28895 0.31848
# Poissons Ratio (z) = 0.02444 0.41287
#
# Static dielectric constant tensor:
#      x y z
#    x 3.539720 0.000000 0.282130 
#    y 0.000000 4.427250 0.000000 
#    z 0.282130 0.000000 3.899960 
# 
# 
# High freq. dielectric constant tensor:
#      x y z
#    x 1.791310 0.000000 0.030170 
#    y 0.000000 1.835040 0.000000 
#    z 0.030170 0.000000 1.814610 
# 
# From -- ./inp_files/182299.got.cif
#   From: 2010.06.25/outbox.cif.g09.slc.cpg/sg15_92_cif.got.tgz:182299.got - 2010.06.28 07:06:18.
