data_PCOD8138152
_publ_section_title
;
Structure prediction by ZEFSAII (Michael W. Deem and Ramdas Pophale) SiO2 
 PCOD8138152
Probable space group: C 2/C
;
_chemical_formula_sum "Si O2"
_cell_formula_units_Z 44
_cell_length_a 9.265023
_cell_length_b 16.238939
_cell_length_c 16.360314
_cell_angle_alpha 90.000000
_cell_angle_beta 123.940320
_cell_angle_gamma 90.000000
_cell_volume 2042.089550
_symmetry_space_group_name_H-M "C 2/C"
_symmetry_group_IT_number 15
_symmetry_cell_setting 'monoclinic'
loop_
_space_group_symop_operation_xyz
x,y,z
-x,y,1/2-z
-x,-y,-z
x,-y,1/2+z
1/2+x,1/2+y,z
1/2-x,1/2+y,1/2-z
1/2-x,1/2-y,-z
1/2+x,1/2-y,1/2+z
loop_
_atom_site_type_symbol
_atom_site_label
_atom_site_fract_x
_atom_site_fract_y
_atom_site_fract_z
Si Si1 0.214231 0.986264 0.773835
Si Si2 0.464167 0.550133 0.570023
Si Si3 0.778474 0.659067 0.417186
Si Si4 0.000000 0.462803 0.250000
Si Si5 0.377869 0.921120 0.458356
Si Si6 0.240634 0.154374 0.588400
O O1 0.210186 0.903349 0.826623
O O2 0.025379 0.999583 0.671288
O O3 0.361486 0.977352 0.750338
O O4 0.264559 0.069867 0.839776
O O5 0.500000 0.500000 0.500000
O O6 0.261779 0.576024 0.511564
O O7 0.582247 0.631329 0.598592
O O8 0.718487 0.751026 0.376925
O O9 0.692415 0.638011 0.477894
O O10 0.991978 0.656730 0.493701
O O11 0.093073 0.403070 0.344334
O O12 0.500000 0.000000 0.500000
#
# Coordination Sequence:
#
# PCOD8138152 Si02
#       6
#     8   8   8   4   8   8
#     4  10  21  37  65  90 121 167 214 257 313 377
#     4  11  23  38  61  93 125 164 211 259 306 379
#     4  10  21  41  65  93 125 170 203 264 323 377
#     4  10  20  38  66  90 124 168 210 266 302 390
#     4  10  20  37  60  86 120 160 207 255 306 372
#     4  10  22  41  62  94 128 159 211 260 322 371
#
# _framework density 21.546558999999998
#
# number of rings (size 3 to 8) (size 9 to 14) (size 15 to 20)
#    0.000    1.818    1.818    2.727    7.636    0.727 
#   13.091    0.000    8.000    0.000    0.000    0.000 
#    0.000    0.000    0.000    0.000    0.000    0.000 
#
# Total GULP energy -272681.800770 kJ/mol
# GULP energy per Si atom -12394.627308 kJ/mol
# Density = 2.149752 g / cm^3
# Si number density = 21.546559 Si / 1000 Ang^3
#
#
#
# Elastic Constant Matrix: (Units=GPa)
#
#
# Indices 1 2 3 4 5 6 
#
# 1 121.4607 21.1155 9.0187 0.0000 5.3868 0.0000
# 2 21.1155 87.5785 44.5852 0.0000 -11.2248 0.0000
# 3 9.0187 44.5852 98.7800 0.0000 -5.9969 0.0000
# 4 0.0000 0.0000 0.0000 31.8103 0.0000 -6.5210
# 5 5.3868 -11.2248 -5.9969 0.0000 30.5154 0.0000
# 6 0.0000 0.0000 0.0000 -6.5210 0.0000 17.2005
#
#
#
# Elastic Compliance Matrix: (Units=1/GPa)
#
#
# Indices 1 2 3 4 5 6 
#
# 1 0.008766 -0.002523 0.000190 0.000000 -0.002438 0.000000
# 2 -0.002523 0.016099 -0.006730 0.000000 0.005045 0.000000
# 3 0.000190 -0.006730 0.013148 0.000000 0.000075 0.000000
# 4 0.000000 0.000000 0.000000 0.034085 0.000000 0.012922
# 5 -0.002438 0.005045 0.000075 0.000000 0.035071 0.000000
# 6 0.000000 0.000000 0.000000 0.012922 0.000000 0.063037
#
#
# Mechanical properties :
#
#
# Convention : Reuss Voigt Hill
#
# Bulk Modulus (GPa) = 50.28038 50.80643 50.54341
# Shear Modulus (GPa) = 25.64616 31.44524 28.54570
#
# Velocity S-wave (km/s) = 3.45377 3.82437 3.64378
# Velocity P-wave (km/s) = 6.26826 6.56750 6.41962
#
# Compressibility (1/GPa) = 0.01988847
#
# Stress axis : x y z
#
# Youngs Moduli (GPa) = 114.08120 62.11443 76.05550
#
# Poissons Ratio (x) = 0.15670 -0.01448
# Poissons Ratio (y) = 0.28781 0.51185
# Poissons Ratio (z) = -0.02172 0.41803
#
# Static dielectric constant tensor:
#      x y z
#    x 4.492820 0.000000 0.139320 
#    y 0.000000 3.727580 0.000000 
#    z 0.139320 0.000000 4.204320 
# 
# 
# High freq. dielectric constant tensor:
#      x y z
#    x 1.867710 0.000000 -0.005670 
#    y 0.000000 1.803600 0.000000 
#    z -0.005670 0.000000 1.850730 
# 
# From -- ./inp_files/134498.got.cif
#   From: 2010.06.25/outbox.cif.g09.slc.cpg/sg15_68_cif.got.tgz:134498.got - 2010.06.28 07:06:18.
