data_PCOD8138351
_publ_section_title
;
Structure prediction by ZEFSAII (Michael W. Deem and Ramdas Pophale) SiO2 
 PCOD8138351
Probable space group: C 2/C
;
_chemical_formula_sum "Si O2"
_cell_formula_units_Z 64
_cell_length_a 26.003044
_cell_length_b 10.973369
_cell_length_c 11.193178
_cell_angle_alpha 90.000000
_cell_angle_beta 102.669570
_cell_angle_gamma 90.000000
_cell_volume 3116.105501
_symmetry_space_group_name_H-M "C 2/C"
_symmetry_group_IT_number 15
_symmetry_cell_setting 'monoclinic'
loop_
_space_group_symop_operation_xyz
x,y,z
-x,y,1/2-z
-x,-y,-z
x,-y,1/2+z
1/2+x,1/2+y,z
1/2-x,1/2+y,1/2-z
1/2-x,1/2-y,-z
1/2+x,1/2-y,1/2+z
loop_
_atom_site_type_symbol
_atom_site_label
_atom_site_fract_x
_atom_site_fract_y
_atom_site_fract_z
Si Si1 0.060057 0.267618 0.920491
Si Si2 0.057408 0.719114 0.138839
Si Si3 0.109235 0.484532 0.076593
Si Si4 0.724164 0.578027 0.875936
Si Si5 0.342608 0.620122 0.447418
Si Si6 0.658006 0.359284 0.126782
Si Si7 0.185865 0.313971 0.239453
Si Si8 0.797384 0.365201 0.978218
O O1 0.061970 0.262993 0.780668
O O2 0.000625 0.243206 0.937031
O O3 0.076777 0.401011 0.970625
O O4 0.099526 0.166309 0.989299
O O5 0.069127 0.578397 0.116132
O O6 0.099529 0.805174 0.096485
O O7 0.136471 0.405326 0.195691
O O8 0.152123 0.551201 0.015992
O O9 0.674365 0.581786 0.761493
O O10 0.770495 0.647177 0.833036
O O11 0.704072 0.653582 0.982005
O O12 0.744471 0.440986 0.919322
O O13 0.344012 0.474473 0.461074
O O14 0.328882 0.676200 0.309733
O O15 0.699276 0.255348 0.103646
O O16 0.204860 0.320049 0.385599
#
# Coordination Sequence:
#
# PCOD8138351 Si02
#       8
#     8   8   8   8   8   8   8   8
#     4  10  20  37  63  89 120 158 202 254 308 362
#     4  10  20  38  62  89 120 159 204 252 307 360
#     4   9  19  37  62  93 123 156 196 254 305 363
#     4  11  23  41  61  87 119 160 207 245 305 358
#     4  11  24  39  60  88 123 159 202 250 305 364
#     4  11  25  40  63  86 123 161 204 257 300 368
#     4  10  22  39  62  91 123 158 197 251 302 365
#     4  10  23  41  62  88 124 161 203 249 306 365
#
# _framework density 20.538457000000001
#
# number of rings (size 3 to 8) (size 9 to 14) (size 15 to 20)
#    0.000    1.750    1.250    2.250    3.500    1.500 
#    4.500    0.000    0.000    6.750    0.000    0.000 
#    0.000    0.000    0.000    0.000    0.000    0.000 
#
# Total GULP energy -396624.513336 kJ/mol
# GULP energy per Si atom -12394.516042 kJ/mol
# Density = 2.049171 g / cm^3
# Si number density = 20.538457 Si / 1000 Ang^3
#
#
#
# Elastic Constant Matrix: (Units=GPa)
#
#
# Indices 1 2 3 4 5 6 
#
# 1 98.5094 47.7021 34.8156 0.0000 4.0826 0.0000
# 2 47.7021 120.0662 42.6776 0.0000 3.8291 0.0000
# 3 34.8156 42.6776 98.1981 0.0000 0.5023 0.0000
# 4 0.0000 0.0000 0.0000 25.6821 0.0000 1.7701
# 5 4.0826 3.8291 0.5023 0.0000 24.7075 0.0000
# 6 0.0000 0.0000 0.0000 1.7701 0.0000 33.0326
#
#
#
# Elastic Compliance Matrix: (Units=1/GPa)
#
#
# Indices 1 2 3 4 5 6 
#
# 1 0.013261 -0.004202 -0.002868 0.000000 -0.001482 0.000000
# 2 -0.004202 0.011233 -0.003387 0.000000 -0.000978 0.000000
# 3 -0.002868 -0.003387 0.012669 0.000000 0.000741 0.000000
# 4 0.000000 0.000000 0.000000 0.039082 0.000000 -0.002094
# 5 -0.001482 -0.000978 0.000741 0.000000 0.040855 0.000000
# 6 0.000000 0.000000 0.000000 -0.002094 0.000000 0.030385
#
#
# Mechanical properties :
#
#
# Convention : Reuss Voigt Hill
#
# Bulk Modulus (GPa) = 61.54301 63.01825 62.28063
# Shear Modulus (GPa) = 28.76609 29.45633 29.11121
#
# Velocity S-wave (km/s) = 3.74651 3.79120 3.76892
# Velocity P-wave (km/s) = 6.98176 7.06498 7.02349
#
# Compressibility (1/GPa) = 0.01624880
#
# Stress axis : x y z
#
# Youngs Moduli (GPa) = 75.40883 89.02043 78.93506
#
# Poissons Ratio (x) = 0.37406 0.22637
# Poissons Ratio (y) = 0.31687 0.26738
# Poissons Ratio (z) = 0.21626 0.30154
#
# Static dielectric constant tensor:
#      x y z
#    x 3.966280 0.000000 0.044600 
#    y 0.000000 3.828470 0.000000 
#    z 0.044600 0.000000 3.657430 
# 
# 
# High freq. dielectric constant tensor:
#      x y z
#    x 1.805870 0.000000 0.000940 
#    y 0.000000 1.807680 0.000000 
#    z 0.000940 0.000000 1.797130 
# 
# From -- ./inp_files/117609.got.cif
#   From: 2010.06.25/outbox.cif.g09.slc.cpg/sg15_59_cif.got.tgz:117609.got - 2010.06.28 07:06:18.
