data_PCOD8138385
_publ_section_title
;
Structure prediction by ZEFSAII (Michael W. Deem and Ramdas Pophale) SiO2 
 PCOD8138385
Probable space group: C 2/C
;
_chemical_formula_sum "Si O2"
_cell_formula_units_Z 52
_cell_length_a 24.315045
_cell_length_b 8.782357
_cell_length_c 12.396298
_cell_angle_alpha 90.000000
_cell_angle_beta 61.838661
_cell_angle_gamma 90.000000
_cell_volume 2333.783936
_symmetry_space_group_name_H-M "C 2/C"
_symmetry_group_IT_number 15
_symmetry_cell_setting 'monoclinic'
loop_
_space_group_symop_operation_xyz
x,y,z
-x,y,1/2-z
-x,-y,-z
x,-y,1/2+z
1/2+x,1/2+y,z
1/2-x,1/2+y,1/2-z
1/2-x,1/2-y,-z
1/2+x,1/2-y,1/2+z
loop_
_atom_site_type_symbol
_atom_site_label
_atom_site_fract_x
_atom_site_fract_y
_atom_site_fract_z
Si Si1 0.079297 0.343377 0.476606
Si Si2 0.000000 0.753962 0.750000
Si Si3 0.625273 0.265618 0.720970
Si Si4 0.843167 0.435723 0.896622
Si Si5 0.761260 0.963703 0.857033
Si Si6 0.451447 0.825460 0.518851
Si Si7 0.824527 0.244271 0.701842
O O1 0.122510 0.247054 0.354098
O O2 0.109060 0.350721 0.566772
O O3 0.075116 0.509561 0.424140
O O4 0.008441 0.275602 0.545323
O O5 0.938480 0.846170 0.765973
O O6 0.022149 0.655626 0.626919
O O7 0.683608 0.369908 0.636113
O O8 0.631059 0.100777 0.659902
O O9 0.834951 0.321893 0.806577
O O10 0.775882 0.450900 0.014809
O O11 0.714790 0.852147 0.838903
O O12 0.789086 0.084669 0.746622
O O13 0.392769 0.710561 0.585156
#
# Coordination Sequence:
#
# PCOD8138385 Si02
#       7
#     8   4   8   8   8   8   8
#     4  10  20  37  63  98 123 160 212 259 312 357
#     4  10  20  38  66  96 122 164 212 258 312 380
#     4  11  22  39  64  92 129 164 212 260 312 372
#     4  12  21  40  66  95 125 168 215 258 304 375
#     4  12  26  43  62  93 127 173 207 262 312 376
#     4  10  20  38  64  98 126 160 207 265 306 367
#     4  12  25  43  62  92 130 164 214 258 317 370
#
# _framework density 22.281410000000001
#
# number of rings (size 3 to 8) (size 9 to 14) (size 15 to 20)
#    0.000    0.923    4.615    2.769    0.000    1.846 
#    0.000    4.615    0.000    0.000    0.000    0.000 
#    0.000    0.000    0.000    0.000    0.000    0.000 
#
# Total GULP energy -322285.328002 kJ/mol
# GULP energy per Si atom -12395.589539 kJ/mol
# Density = 2.223070 g / cm^3
# Si number density = 22.281410 Si / 1000 Ang^3
#
#
#
# Elastic Constant Matrix: (Units=GPa)
#
#
# Indices 1 2 3 4 5 6 
#
# 1 168.6107 28.8611 57.3446 0.0000 -11.8620 0.0000
# 2 28.8611 37.9820 18.4660 0.0000 -5.0078 0.0000
# 3 57.3446 18.4660 98.9687 0.0000 -11.9775 0.0000
# 4 0.0000 0.0000 0.0000 13.8019 0.0000 -0.9167
# 5 -11.8620 -5.0078 -11.9775 0.0000 41.9156 0.0000
# 6 0.0000 0.0000 0.0000 -0.9167 0.0000 20.0767
#
#
#
# Elastic Compliance Matrix: (Units=1/GPa)
#
#
# Indices 1 2 3 4 5 6 
#
# 1 0.007966 -0.004134 -0.003761 0.000000 0.000686 0.000000
# 2 -0.004134 0.031260 -0.003239 0.000000 0.001639 0.000000
# 3 -0.003761 -0.003239 0.013168 0.000000 0.002311 0.000000
# 4 0.000000 0.000000 0.000000 0.072674 0.000000 0.003318
# 5 0.000686 0.001639 0.002311 0.000000 0.024908 0.000000
# 6 0.000000 0.000000 0.000000 0.003318 0.000000 0.049961
#
#
# Mechanical properties :
#
#
# Convention : Reuss Voigt Hill
#
# Bulk Modulus (GPa) = 33.19456 57.21165 45.20311
# Shear Modulus (GPa) = 21.52885 28.55149 25.04017
#
# Velocity S-wave (km/s) = 3.11179 3.58355 3.35597
# Velocity P-wave (km/s) = 5.27647 6.54638 5.94543
#
# Compressibility (1/GPa) = 0.03012542
#
# Stress axis : x y z
#
# Youngs Moduli (GPa) = 125.53535 31.98944 75.94369
#
# Poissons Ratio (x) = 0.13224 0.28565
# Poissons Ratio (y) = 0.51895 0.24598
# Poissons Ratio (z) = 0.47218 0.10361
#
# Static dielectric constant tensor:
#      x y z
#    x 4.486290 0.000000 -0.302700 
#    y 0.000000 3.520790 0.000000 
#    z -0.302700 0.000000 4.148250 
# 
# 
# High freq. dielectric constant tensor:
#      x y z
#    x 1.905240 0.000000 -0.011760 
#    y 0.000000 1.820300 0.000000 
#    z -0.011760 0.000000 1.887230 
# 
# From -- ./inp_files/121806.got.cif
#   From: 2010.06.25/outbox.cif.g09.slc.cpg/sg15_61_cif.got.tgz:121806.got - 2010.06.28 07:06:18.
