data_PCOD8138322
_publ_section_title
;
Structure prediction by ZEFSAII (Michael W. Deem and Ramdas Pophale) SiO2 
 PCOD8138322
Probable space group: C 2/C
;
_chemical_formula_sum "Si O2"
_cell_formula_units_Z 60
_cell_length_a 21.847238
_cell_length_b 11.215941
_cell_length_c 13.338513
_cell_angle_alpha 90.000000
_cell_angle_beta 116.492035
_cell_angle_gamma 90.000000
_cell_volume 2925.236284
_symmetry_space_group_name_H-M "C 2/C"
_symmetry_group_IT_number 15
_symmetry_cell_setting 'monoclinic'
loop_
_space_group_symop_operation_xyz
x,y,z
-x,y,1/2-z
-x,-y,-z
x,-y,1/2+z
1/2+x,1/2+y,z
1/2-x,1/2+y,1/2-z
1/2-x,1/2-y,-z
1/2+x,1/2-y,1/2+z
loop_
_atom_site_type_symbol
_atom_site_label
_atom_site_fract_x
_atom_site_fract_y
_atom_site_fract_z
Si Si1 0.167576 0.383230 0.135730
Si Si2 0.565375 0.083435 0.392505
Si Si3 0.572527 0.556293 0.745654
Si Si4 0.973383 0.758479 0.437642
Si Si5 0.500000 0.121231 0.750000
Si Si6 0.422312 0.292244 0.818611
Si Si7 0.870294 0.603443 0.275403
Si Si8 0.293454 0.698828 0.625167
O O1 0.138579 0.256056 0.154388
O O2 0.158145 0.474417 0.219663
O O3 0.246530 0.381274 0.162682
O O4 0.131110 0.432683 0.009542
O O5 0.529371 0.203839 0.403176
O O6 0.581825 0.100028 0.287664
O O7 0.520247 0.961480 0.361753
O O8 0.500000 0.555880 0.750000
O O9 0.559807 0.622018 0.631447
O O10 0.596174 0.421832 0.738005
O O11 0.636036 0.624976 0.849820
O O12 0.913752 0.658001 0.400524
O O13 0.005749 0.792792 0.567783
O O14 0.435574 0.202695 0.735540
O O15 0.807142 0.686889 0.203515
O O16 0.250000 0.750000 0.500000
#
# Coordination Sequence:
#
# PCOD8138322 Si02
#       8
#     8   8   8   8   4   8   8   8
#     4  11  24  39  64  91 125 173 218 267 330 399
#     4  11  19  35  65  91 123 165 217 263 317 379
#     4  11  24  42  66  94 130 168 214 273 334 394
#     4  10  20  37  62  95 123 164 215 268 315 388
#     4  12  20  36  60  96 136 162 206 276 328 380
#     4  11  23  38  61  96 134 167 208 266 341 394
#     4  11  20  39  60  92 125 162 217 272 316 377
#     4  11  25  44  67  92 125 175 226 271 325 400
#
# _framework density 20.511163
#
# number of rings (size 3 to 8) (size 9 to 14) (size 15 to 20)
#    0.000    1.067    4.667    2.800    3.733    2.133 
#    0.000    0.000    0.000    2.400    0.000    0.000 
#    0.000    0.000    0.000    0.000    0.000    0.000 
#
# Total GULP energy -371736.737425 kJ/mol
# GULP energy per Si atom -12391.224581 kJ/mol
# Density = 2.046448 g / cm^3
# Si number density = 20.511163 Si / 1000 Ang^3
#
#
#
# Elastic Constant Matrix: (Units=GPa)
#
#
# Indices 1 2 3 4 5 6 
#
# 1 92.4024 34.9686 20.6535 0.0000 16.7439 0.0000
# 2 34.9686 124.7873 31.2497 0.0000 10.8712 0.0000
# 3 20.6535 31.2497 87.4616 0.0000 16.1458 0.0000
# 4 0.0000 0.0000 0.0000 24.1856 0.0000 0.0762
# 5 16.7439 10.8712 16.1458 0.0000 25.5690 0.0000
# 6 0.0000 0.0000 0.0000 0.0762 0.0000 32.8490
#
#
#
# Elastic Compliance Matrix: (Units=1/GPa)
#
#
# Indices 1 2 3 4 5 6 
#
# 1 0.013385 -0.002936 -0.000820 0.000000 -0.006999 0.000000
# 2 -0.002936 0.009535 -0.002626 0.000000 -0.000473 0.000000
# 3 -0.000820 -0.002626 0.013878 0.000000 -0.007110 0.000000
# 4 0.000000 0.000000 0.000000 0.041347 0.000000 -0.000096
# 5 -0.006999 -0.000473 -0.007110 0.000000 0.048384 0.000000
# 6 0.000000 0.000000 0.000000 -0.000096 0.000000 0.030443
#
#
# Mechanical properties :
#
#
# Convention : Reuss Voigt Hill
#
# Bulk Modulus (GPa) = 41.60667 53.15499 47.38083
# Shear Modulus (GPa) = 28.12985 31.03934 29.58459
#
# Velocity S-wave (km/s) = 3.70732 3.89432 3.80197
# Velocity P-wave (km/s) = 6.21727 6.79650 6.51333
#
# Compressibility (1/GPa) = 0.02403461
#
# Stress axis : x y z
#
# Youngs Moduli (GPa) = 74.71199 104.87455 72.05609
#
# Poissons Ratio (x) = 0.30788 0.05907
# Poissons Ratio (y) = 0.21933 0.18924
# Poissons Ratio (z) = 0.06124 0.27543
#
# Static dielectric constant tensor:
#      x y z
#    x 3.645130 0.000000 0.205340 
#    y 0.000000 4.158740 0.000000 
#    z 0.205340 0.000000 3.717140 
# 
# 
# High freq. dielectric constant tensor:
#      x y z
#    x 1.785520 0.000000 0.005100 
#    y 0.000000 1.809650 0.000000 
#    z 0.005100 0.000000 1.791930 
# 
# From -- ./inp_files/167696.got.cif
#   From: 2010.06.25/outbox.cif.g09.slc.cpg/sg15_84_cif.got.tgz:167696.got - 2010.06.28 07:06:18.
