data_PCOD8138843
_publ_section_title
;
Structure prediction by ZEFSAII (Michael W. Deem and Ramdas Pophale) SiO2 
 PCOD8138843
Probable space group: C 2/C
;
_chemical_formula_sum "Si O2"
_cell_formula_units_Z 60
_cell_length_a 17.687961
_cell_length_b 16.607074
_cell_length_c 11.790072
_cell_angle_alpha 90.000000
_cell_angle_beta 64.292237
_cell_angle_gamma 90.000000
_cell_volume 3120.476677
_symmetry_space_group_name_H-M "C 2/C"
_symmetry_group_IT_number 15
_symmetry_cell_setting 'monoclinic'
loop_
_space_group_symop_operation_xyz
x,y,z
-x,y,1/2-z
-x,-y,-z
x,-y,1/2+z
1/2+x,1/2+y,z
1/2-x,1/2+y,1/2-z
1/2-x,1/2-y,-z
1/2+x,1/2-y,1/2+z
loop_
_atom_site_type_symbol
_atom_site_label
_atom_site_fract_x
_atom_site_fract_y
_atom_site_fract_z
Si Si1 0.203033 0.412667 0.454068
Si Si2 0.186386 0.819894 0.507592
Si Si3 0.453909 0.209684 0.889961
Si Si4 0.405761 0.765296 0.019841
Si Si5 0.000000 0.207433 0.750000
Si Si6 0.340575 0.666959 0.740789
Si Si7 0.192407 0.406713 0.930130
Si Si8 0.756508 0.332987 0.840255
O O1 0.139359 0.350763 0.436553
O O2 0.291256 0.406461 0.330488
O O3 0.164925 0.500781 0.457719
O O4 0.216728 0.392651 0.576813
O O5 0.250000 0.750000 0.500000
O O6 0.096248 0.791105 0.614133
O O7 0.177653 0.833310 0.380006
O O8 0.226252 0.898515 0.539698
O O9 0.500000 0.173081 0.750000
O O10 0.519326 0.237665 0.940493
O O11 0.388856 0.145086 0.982761
O O12 0.341709 0.691374 0.085713
O O13 0.443293 0.761678 0.869151
O O14 0.061504 0.154297 0.790467
O O15 0.310321 0.751494 0.814418
O O16 0.223745 0.381267 0.786315
#
# Coordination Sequence:
#
# PCOD8138843 Si02
#       8
#     8   8   8   8   4   8   8   8
#     4  11  25  38  62  93 126 166 197 248 313 378
#     4  10  20  38  62  87 116 164 211 247 291 361
#     4  11  23  38  62  93 118 161 207 254 304 356
#     4  11  22  37  66  92 120 157 210 260 295 361
#     4  12  18  38  62  96 120 148 210 268 300 342
#     4  11  20  39  66  89 117 163 214 254 294 356
#     4  11  25  41  60  90 130 165 196 251 309 376
#     4  11  20  42  61  88 119 164 218 242 294 367
#
# _framework density 19.227831999999999
#
# number of rings (size 3 to 8) (size 9 to 14) (size 15 to 20)
#    0.000    1.067    6.667    1.600    7.467    0.533 
#    1.200    0.000    4.400    2.400    0.000    0.000 
#    0.000    0.000    0.000    0.000    0.000    0.000 
#
# Total GULP energy -371881.580616 kJ/mol
# GULP energy per Si atom -12396.052687 kJ/mol
# Density = 1.918407 g / cm^3
# Si number density = 19.227832 Si / 1000 Ang^3
#
#
#
# Elastic Constant Matrix: (Units=GPa)
#
#
# Indices 1 2 3 4 5 6 
#
# 1 122.9843 3.7223 36.3644 0.0000 6.0478 0.0000
# 2 3.7223 43.2580 24.3998 0.0000 -6.8707 0.0000
# 3 36.3644 24.3998 129.3900 0.0000 2.9205 0.0000
# 4 0.0000 0.0000 0.0000 15.7040 0.0000 3.1747
# 5 6.0478 -6.8707 2.9205 0.0000 32.3994 0.0000
# 6 0.0000 0.0000 0.0000 3.1747 0.0000 16.1552
#
#
#
# Elastic Compliance Matrix: (Units=1/GPa)
#
#
# Indices 1 2 3 4 5 6 
#
# 1 0.008943 0.000468 -0.002572 0.000000 -0.001338 0.000000
# 2 0.000468 0.027086 -0.005378 0.000000 0.006141 0.000000
# 3 -0.002572 -0.005378 0.009500 0.000000 -0.001517 0.000000
# 4 0.000000 0.000000 0.000000 0.066313 0.000000 -0.013031
# 5 -0.001338 0.006141 -0.001517 0.000000 0.032554 0.000000
# 6 0.000000 0.000000 0.000000 -0.013031 0.000000 0.064460
#
#
# Mechanical properties :
#
#
# Convention : Reuss Voigt Hill
#
# Bulk Modulus (GPa) = 32.71579 47.17835 39.94707
# Shear Modulus (GPa) = 21.36697 28.26143 24.81420
#
# Velocity S-wave (km/s) = 3.33716 3.83798 3.59630
# Velocity P-wave (km/s) = 5.64806 6.65056 6.16970
#
# Compressibility (1/GPa) = 0.03056628
#
# Stress axis : x y z
#
# Youngs Moduli (GPa) = 111.81789 36.91988 105.26671
#
# Poissons Ratio (x) = -0.01729 0.27070
# Poissons Ratio (y) = -0.05238 0.56612
# Poissons Ratio (z) = 0.28754 0.19855
#
# Static dielectric constant tensor:
#      x y z
#    x 3.689600 0.000000 -0.044490 
#    y 0.000000 3.308490 0.000000 
#    z -0.044490 0.000000 3.703590 
# 
# 
# High freq. dielectric constant tensor:
#      x y z
#    x 1.767560 0.000000 0.005770 
#    y 0.000000 1.706150 0.000000 
#    z 0.005770 0.000000 1.761660 
# 
# From -- ./inp_files/106678.got.cif
#   From: 2010.06.25/outbox.cif.g09.slc.cpg/sg15_54_cif.got.tgz:106678.got - 2010.06.28 07:06:18.
