data_PCOD8138440
_publ_section_title
;
Structure prediction by ZEFSAII (Michael W. Deem and Ramdas Pophale) SiO2 
 PCOD8138440
Probable space group: C 2/C
;
_chemical_formula_sum "Si O2"
_cell_formula_units_Z 56
_cell_length_a 19.533023
_cell_length_b 26.363213
_cell_length_c 5.254591
_cell_angle_alpha 90.000000
_cell_angle_beta 112.519477
_cell_angle_gamma 90.000000
_cell_volume 2499.544555
_symmetry_space_group_name_H-M "C 2/C"
_symmetry_group_IT_number 15
_symmetry_cell_setting 'monoclinic'
loop_
_space_group_symop_operation_xyz
x,y,z
-x,y,1/2-z
-x,-y,-z
x,-y,1/2+z
1/2+x,1/2+y,z
1/2-x,1/2+y,1/2-z
1/2-x,1/2-y,-z
1/2+x,1/2-y,1/2+z
loop_
_atom_site_type_symbol
_atom_site_label
_atom_site_fract_x
_atom_site_fract_y
_atom_site_fract_z
Si Si1 0.206262 0.195062 0.112927
Si Si2 0.917605 0.478945 0.431667
Si Si3 0.500000 0.201406 0.750000
Si Si4 0.500000 0.533018 0.250000
Si Si5 0.766633 0.137086 0.871308
Si Si6 0.339726 0.466353 0.513545
Si Si7 0.865718 0.722422 0.263759
Si Si8 0.102834 0.637670 0.552462
O O1 0.211576 0.159642 0.871029
O O2 0.140879 0.236678 0.976813
O O3 0.185862 0.163165 0.335108
O O4 0.284564 0.224019 0.280705
O O5 0.876892 0.510172 0.603252
O O6 0.918687 0.420583 0.516092
O O7 0.000000 0.500000 0.500000
O O8 0.434290 0.237244 0.544939
O O9 0.534500 0.165084 0.586953
O O10 0.500000 0.500000 0.500000
O O11 0.578950 0.562235 0.371889
O O12 0.779323 0.077035 0.889937
O O13 0.679725 0.143907 0.816301
O O14 0.329299 0.494315 0.767857
O O15 0.883689 0.665122 0.198708
#
# Coordination Sequence:
#
# PCOD8138440 Si02
#       8
#     8   8   4   4   8   8   8   8
#     4  10  23  44  65  94 125 170 216 278 354 389
#     4  10  23  38  55  81 123 172 210 271 322 367
#     4  12  22  40  65  96 122 172 224 281 314 398
#     4   8  16  32  57  86 116 152 202 251 308 374
#     4  11  23  41  66  95 133 174 219 278 327 404
#     4  10  20  37  64  97 130 171 219 263 319 400
#     4  10  24  40  69  90 125 164 229 284 329 409
#     4  11  25  39  64  94 127 175 236 268 332 391
#
# _framework density 22.404081999999999
#
# number of rings (size 3 to 8) (size 9 to 14) (size 15 to 20)
#    0.000    1.714    1.429    2.143    8.000    2.857 
#    0.000    0.714    0.000    0.000    0.000    0.000 
#    0.000    0.000    0.000    0.000    0.000    0.000 
#
# Total GULP energy -346935.175715 kJ/mol
# GULP energy per Si atom -12390.541990 kJ/mol
# Density = 2.235309 g / cm^3
# Si number density = 22.404082 Si / 1000 Ang^3
#
#
#
# Elastic Constant Matrix: (Units=GPa)
#
#
# Indices 1 2 3 4 5 6 
#
# 1 53.1026 14.9114 36.1071 0.0000 9.3508 0.0000
# 2 14.9114 85.5003 33.8886 0.0000 15.9533 0.0000
# 3 36.1071 33.8886 133.1362 0.0000 0.9246 0.0000
# 4 0.0000 0.0000 0.0000 34.8810 0.0000 -1.4139
# 5 9.3508 15.9533 0.9246 0.0000 41.8639 0.0000
# 6 0.0000 0.0000 0.0000 -1.4139 0.0000 27.4445
#
#
#
# Elastic Compliance Matrix: (Units=1/GPa)
#
#
# Indices 1 2 3 4 5 6 
#
# 1 0.024238 -0.000787 -0.006339 0.000000 -0.004974 0.000000
# 2 -0.000787 0.014116 -0.003344 0.000000 -0.005130 0.000000
# 3 -0.006339 -0.003344 0.010064 0.000000 0.002468 0.000000
# 4 0.000000 0.000000 0.000000 0.028729 0.000000 0.001480
# 5 -0.004974 -0.005130 0.002468 0.000000 0.026898 0.000000
# 6 0.000000 0.000000 0.000000 0.001480 0.000000 0.036513
#
#
# Mechanical properties :
#
#
# Convention : Reuss Voigt Hill
#
# Bulk Modulus (GPa) = 36.39112 49.06150 42.72631
# Shear Modulus (GPa) = 29.29848 33.29334 31.29591
#
# Velocity S-wave (km/s) = 3.62018 3.85910 3.74155
# Velocity P-wave (km/s) = 5.80970 6.46551 6.14636
#
# Compressibility (1/GPa) = 0.02747923
#
# Stress axis : x y z
#
# Youngs Moduli (GPa) = 41.25705 70.84365 99.36154
#
# Poissons Ratio (x) = 0.05573 0.62983
# Poissons Ratio (y) = 0.03246 0.33227
# Poissons Ratio (z) = 0.26152 0.23690
#
# Static dielectric constant tensor:
#      x y z
#    x 3.798290 0.000000 1.139650 
#    y 0.000000 3.825600 0.000000 
#    z 1.139650 0.000000 1.810260 
# 
# 
# High freq. dielectric constant tensor:
#      x y z
#    x 1.871140 0.000000 -0.001970 
#    y 0.000000 1.856580 0.000000 
#    z -0.001970 0.000000 1.902220 
# 
# From -- ./inp_files/14340.got.cif
#   From: 2010.06.25/outbox.cif.g09.slc.cpg/sg15_8_cif.got.tgz:14340.got - 2010.06.28 07:06:18.
