data_PCOD8138446
_publ_section_title
;
Structure prediction by ZEFSAII (Michael W. Deem and Ramdas Pophale) SiO2 
 PCOD8138446
Probable space group: C 2/C
;
_chemical_formula_sum "Si O2"
_cell_formula_units_Z 28
_cell_length_a 12.481158
_cell_length_b 14.599917
_cell_length_c 16.993269
_cell_angle_alpha 90.000000
_cell_angle_beta 150.621941
_cell_angle_gamma 90.000000
_cell_volume 1519.089172
_symmetry_space_group_name_H-M "C 2/C"
_symmetry_group_IT_number 15
_symmetry_cell_setting 'monoclinic'
loop_
_space_group_symop_operation_xyz
x,y,z
-x,y,1/2-z
-x,-y,-z
x,-y,1/2+z
1/2+x,1/2+y,z
1/2-x,1/2+y,1/2-z
1/2-x,1/2-y,-z
1/2+x,1/2-y,1/2+z
loop_
_atom_site_type_symbol
_atom_site_label
_atom_site_fract_x
_atom_site_fract_y
_atom_site_fract_z
Si Si1 0.115998 0.731572 0.604674
Si Si2 0.193470 0.654023 0.821916
Si Si3 0.500000 0.020918 0.250000
Si Si4 0.566417 0.177864 0.404486
O O1 0.147455 0.668565 0.700470
O O2 0.334082 0.787331 0.723742
O O3 0.059238 0.665843 0.494448
O O4 0.923483 0.804541 0.495465
O O5 0.000000 0.701073 0.750000
O O6 0.191677 0.544335 0.837190
O O7 0.609385 0.081122 0.389457
O O8 0.750000 0.250000 0.500000
#
# Coordination Sequence:
#
# PCOD8138446 Si02
#       4
#     8   8   4   8
#     4  10  20  37  65  79 112 162 183 221 299 343
#     4   9  21  38  60  85 116 144 192 237 279 337
#     4  10  22  36  60  84 122 138 192 248 274 316
#     4  11  20  38  59  84 115 153 190 232 283 338
#
# _framework density 18.432099000000001
#
# number of rings (size 3 to 8) (size 9 to 14) (size 15 to 20)
#    0.857    1.143    2.857    0.857    0.000    2.286 
#    0.000    0.000   12.571    0.000    0.000    0.000 
#    0.000    0.000    0.000    0.000    0.000    0.000 
#
# Total GULP energy -173542.414686 kJ/mol
# GULP energy per Si atom -12395.886763 kJ/mol
# Density = 1.839015 g / cm^3
# Si number density = 18.432099 Si / 1000 Ang^3
#
#
#
# Elastic Constant Matrix: (Units=GPa)
#
#
# Indices 1 2 3 4 5 6 
#
# 1 86.6660 55.2244 43.8606 -0.0151 4.7896 -0.0092
# 2 55.2244 127.8481 49.6785 -0.0415 0.4932 -0.0240
# 3 43.8606 49.6785 108.2686 -0.0545 12.0750 -0.0296
# 4 -0.0151 -0.0415 -0.0545 15.4862 -0.0002 -15.4811
# 5 4.7896 0.4932 12.0750 -0.0002 43.8688 0.0061
# 6 -0.0092 -0.0240 -0.0296 -15.4811 0.0061 28.3416
#
#
#
# Elastic Compliance Matrix: (Units=1/GPa)
#
#
# Indices 1 2 3 4 5 6 
#
# 1 0.017510 -0.005882 -0.004321 -0.000039 -0.000656 -0.000025
# 2 -0.005882 0.011549 -0.003068 0.000041 0.001357 0.000027
# 3 -0.004321 -0.003068 0.012729 0.000093 -0.002997 0.000061
# 4 -0.000039 0.000041 0.000093 0.142251 -0.000032 0.077702
# 5 -0.000656 0.001357 -0.002997 -0.000032 0.023677 -0.000025
# 6 -0.000025 0.000027 0.000061 0.077702 -0.000025 0.077728
#
#
# Mechanical properties :
#
#
# Convention : Reuss Voigt Hill
#
# Bulk Modulus (GPa) = 65.59106 68.92330 67.25718
# Shear Modulus (GPa) = 15.76952 29.14059 22.45505
#
# Velocity S-wave (km/s) = 2.92815 3.98045 3.49414
# Velocity P-wave (km/s) = 6.86255 7.65504 7.26960
#
# Compressibility (1/GPa) = 0.01524598
#
# Stress axis : x y z
#
# Youngs Moduli (GPa) = 57.11135 86.58545 78.56084
#
# Poissons Ratio (x) = 0.50927 0.33949
# Poissons Ratio (y) = 0.33591 0.24102
# Poissons Ratio (z) = 0.24680 0.26564
#
# Static dielectric constant tensor:
#      x y z
#    x 3.627590 0.000000 -0.083950 
#    y 0.000000 3.094590 0.000000 
#    z -0.083950 0.000000 3.434890 
# 
# 
# High freq. dielectric constant tensor:
#      x y z
#    x 1.735080 0.000000 -0.007300 
#    y 0.000000 1.686530 0.000000 
#    z -0.007300 0.000000 1.717140 
# 
# From -- ./inp_files/83539.got.cif
#   From: 2010.06.25/outbox.cif.g09.slc.cpg/sg15_42_cif.got.tgz:83539.got - 2010.06.28 07:06:18.
