data_PCOD8138395
_publ_section_title
;
Structure prediction by ZEFSAII (Michael W. Deem and Ramdas Pophale) SiO2 
 PCOD8138395
Probable space group: C 2/C
;
_chemical_formula_sum "Si O2"
_cell_formula_units_Z 48
_cell_length_a 20.861133
_cell_length_b 8.411109
_cell_length_c 14.314329
_cell_angle_alpha 90.000000
_cell_angle_beta 110.304600
_cell_angle_gamma 90.000000
_cell_volume 2355.595198
_symmetry_space_group_name_H-M "C 2/C"
_symmetry_group_IT_number 15
_symmetry_cell_setting 'monoclinic'
loop_
_space_group_symop_operation_xyz
x,y,z
-x,y,1/2-z
-x,-y,-z
x,-y,1/2+z
1/2+x,1/2+y,z
1/2-x,1/2+y,1/2-z
1/2-x,1/2-y,-z
1/2+x,1/2-y,1/2+z
loop_
_atom_site_type_symbol
_atom_site_label
_atom_site_fract_x
_atom_site_fract_y
_atom_site_fract_z
Si Si1 0.708865 0.440395 0.350279
Si Si2 0.075486 0.747654 0.303109
Si Si3 0.780701 0.589106 0.548484
Si Si4 0.423511 0.987381 0.056854
Si Si5 0.704445 0.785491 0.256742
Si Si6 0.074010 0.466617 0.156773
O O1 0.630691 0.387257 0.322528
O O2 0.745105 0.447933 0.471190
O O3 0.712937 0.607978 0.299357
O O4 0.750522 0.308467 0.313207
O O5 0.079160 0.670990 0.408851
O O6 0.091360 0.609583 0.235994
O O7 0.000000 0.821734 0.250000
O O8 0.750000 0.750000 0.500000
O O9 0.861786 0.605839 0.573152
O O10 0.768811 0.582325 0.654112
O O11 0.495198 0.910567 0.128503
O O12 0.415487 0.969042 0.942486
O O13 0.624335 0.818014 0.196860
#
# Coordination Sequence:
#
# PCOD8138395 Si02
#       6
#     8   8   8   8   8   8
#     4  11  24  40  61  88 125 153 198 252 299 354
#     4  10  22  41  62  88 123 161 196 247 299 354
#     4  10  22  37  56  92 121 154 193 245 299 347
#     4  10  20  37  64  86 119 158 197 243 290 358
#     4  11  22  39  62  91 117 160 199 247 297 353
#     4  10  20  38  64  91 115 155 206 240 294 354
#
# _framework density 20.377016000000001
#
# number of rings (size 3 to 8) (size 9 to 14) (size 15 to 20)
#    0.000    1.667    3.333    1.000    2.333    2.000 
#    6.000    0.000    0.000    4.000    0.000    0.000 
#    0.000    0.000    0.000    0.000    0.000    0.000 
#
# Total GULP energy -297441.242739 kJ/mol
# GULP energy per Si atom -12393.385114 kJ/mol
# Density = 2.033064 g / cm^3
# Si number density = 20.377016 Si / 1000 Ang^3
#
#
#
# Elastic Constant Matrix: (Units=GPa)
#
#
# Indices 1 2 3 4 5 6 
#
# 1 119.6276 31.1224 16.0326 0.0000 17.9185 0.0000
# 2 31.1224 46.8768 5.7299 0.0000 7.7400 0.0000
# 3 16.0326 5.7299 72.6333 0.0000 -0.2307 0.0000
# 4 0.0000 0.0000 0.0000 22.4569 0.0000 2.7519
# 5 17.9185 7.7400 -0.2307 0.0000 33.9114 0.0000
# 6 0.0000 0.0000 0.0000 2.7519 0.0000 39.2295
#
#
#
# Elastic Compliance Matrix: (Units=1/GPa)
#
#
# Indices 1 2 3 4 5 6 
#
# 1 0.010903 -0.006287 -0.001924 0.000000 -0.004339 0.000000
# 2 -0.006287 0.026022 -0.000673 0.000000 -0.002622 0.000000
# 3 -0.001924 -0.000673 0.014250 0.000000 0.001267 0.000000
# 4 0.000000 0.000000 0.000000 0.044916 0.000000 -0.003151
# 5 -0.004339 -0.002622 0.001267 0.000000 0.032388 0.000000
# 6 0.000000 0.000000 0.000000 -0.003151 0.000000 0.025712
#
#
# Mechanical properties :
#
#
# Convention : Reuss Voigt Hill
#
# Bulk Modulus (GPa) = 29.93584 38.32305 34.12944
# Shear Modulus (GPa) = 27.30830 31.53643 29.42236
#
# Velocity S-wave (km/s) = 3.66478 3.93828 3.80399
# Velocity P-wave (km/s) = 5.71230 6.28712 6.00659
#
# Compressibility (1/GPa) = 0.03340477
#
# Stress axis : x y z
#
# Youngs Moduli (GPa) = 91.72036 38.42951 70.17683
#
# Poissons Ratio (x) = 0.24160 0.13505
# Poissons Ratio (y) = 0.57663 0.04726
# Poissons Ratio (z) = 0.17651 0.02588
#
# Static dielectric constant tensor:
#      x y z
#    x 3.896690 0.000000 0.050410 
#    y 0.000000 3.261470 0.000000 
#    z 0.050410 0.000000 4.711490 
# 
# 
# High freq. dielectric constant tensor:
#      x y z
#    x 1.810100 0.000000 0.003990 
#    y 0.000000 1.750590 0.000000 
#    z 0.003990 0.000000 1.821440 
# 
# From -- ./inp_files/166122.got.cif
#   From: 2010.06.25/outbox.cif.g09.slc.cpg/sg15_84_cif.got.tgz:166122.got - 2010.06.28 07:06:18.
