data_PCOD8138966
_publ_section_title
;
Structure prediction by ZEFSAII (Michael W. Deem and Ramdas Pophale) SiO2 
 PCOD8138966
Probable space group: C 2/C
;
_chemical_formula_sum "Si O2"
_cell_formula_units_Z 48
_cell_length_a 7.969573
_cell_length_b 17.758390
_cell_length_c 27.523222
_cell_angle_alpha 90.000000
_cell_angle_beta 143.232414
_cell_angle_gamma 90.000000
_cell_volume 2331.595604
_symmetry_space_group_name_H-M "C 2/C"
_symmetry_group_IT_number 15
_symmetry_cell_setting 'monoclinic'
loop_
_space_group_symop_operation_xyz
x,y,z
-x,y,1/2-z
-x,-y,-z
x,-y,1/2+z
1/2+x,1/2+y,z
1/2-x,1/2+y,1/2-z
1/2-x,1/2-y,-z
1/2+x,1/2-y,1/2+z
loop_
_atom_site_type_symbol
_atom_site_label
_atom_site_fract_x
_atom_site_fract_y
_atom_site_fract_z
Si Si1 0.196868 0.117809 0.080025
Si Si2 0.288780 0.888258 0.238672
Si Si3 0.853037 0.235081 0.667434
Si Si4 0.578069 0.880196 0.405839
Si Si5 0.972714 0.985008 0.611964
Si Si6 0.478339 0.033926 0.060816
O O1 0.322485 0.199091 0.121434
O O2 0.426666 0.077431 0.099249
O O3 0.143529 0.072735 0.117557
O O4 0.913541 0.126377 0.983113
O O5 0.500000 0.848592 0.250000
O O6 0.463174 0.906228 0.327314
O O7 0.032217 0.832945 0.187450
O O8 0.189605 0.968254 0.194500
O O9 0.547648 0.200764 0.608478
O O10 0.000000 0.267230 0.750000
O O11 0.482533 0.944579 0.421126
O O12 0.790947 0.042793 0.536795
O O13 0.761495 0.938599 0.599105
#
# Coordination Sequence:
#
# PCOD8138966 Si02
#       6
#     8   8   8   8   8   8
#     4  11  22  40  63  94 123 157 198 257 306 352
#     4  11  21  39  64  88 116 165 208 244 291 372
#     4  10  23  41  59  85 126 162 199 249 308 357
#     4  10  20  40  63  85 121 165 201 241 304 364
#     4  10  21  38  64  91 119 154 203 251 299 357
#     4  10  20  38  63  91 121 152 201 254 297 357
#
# _framework density 20.586760999999999
#
# number of rings (size 3 to 8) (size 9 to 14) (size 15 to 20)
#    0.000    1.667    1.667    4.500    0.000    2.000 
#    6.000    1.667    0.000    0.000    0.000    0.000 
#    0.000    0.000    0.000    0.000    0.000    0.000 
#
# Total GULP energy -297600.837919 kJ/mol
# GULP energy per Si atom -12400.034913 kJ/mol
# Density = 2.053990 g / cm^3
# Si number density = 20.586761 Si / 1000 Ang^3
#
#
#
# Elastic Constant Matrix: (Units=GPa)
#
#
# Indices 1 2 3 4 5 6 
#
# 1 136.0563 33.2411 33.0323 0.0010 -4.5730 0.0009
# 2 33.2411 78.8922 51.9569 -0.0002 -10.1286 0.0004
# 3 33.0323 51.9569 106.6268 0.0014 -13.5011 0.0012
# 4 0.0010 -0.0002 0.0014 16.6671 0.0006 -14.4160
# 5 -4.5730 -10.1286 -13.5011 0.0006 22.7760 0.0006
# 6 0.0009 0.0004 0.0012 -14.4160 0.0006 19.8639
#
#
#
# Elastic Compliance Matrix: (Units=1/GPa)
#
#
# Indices 1 2 3 4 5 6 
#
# 1 0.008312 -0.002680 -0.001307 -0.000002 -0.000297 -0.000001
# 2 -0.002680 0.019740 -0.008374 0.000003 0.003277 0.000002
# 3 -0.001307 -0.008374 0.014443 -0.000006 0.004575 -0.000005
# 4 -0.000002 0.000003 -0.000006 0.161167 -0.000009 0.116965
# 5 -0.000297 0.003277 0.004575 -0.000009 0.048015 -0.000008
# 6 -0.000001 0.000002 -0.000005 0.116965 -0.000008 0.135229
#
#
# Mechanical properties :
#
#
# Convention : Reuss Voigt Hill
#
# Bulk Modulus (GPa) = 56.26132 62.00398 59.13265
# Shear Modulus (GPa) = 11.97455 25.41773 18.69614
#
# Velocity S-wave (km/s) = 2.41438 3.51759 3.01684
# Velocity P-wave (km/s) = 5.92963 6.83240 6.39696
#
# Compressibility (1/GPa) = 0.01777420
#
# Stress axis : x y z
#
# Youngs Moduli (GPa) = 120.30959 50.65806 69.23718
#
# Poissons Ratio (x) = 0.13575 0.09048
# Poissons Ratio (y) = 0.32240 0.57979
# Poissons Ratio (z) = 0.15723 0.42421
#
# Static dielectric constant tensor:
#      x y z
#    x 3.905930 0.000000 -0.064380 
#    y 0.000000 3.342040 -0.000010 
#    z -0.064380 -0.000010 3.835470 
# 
# 
# High freq. dielectric constant tensor:
#      x y z
#    x 1.817340 0.000000 -0.002660 
#    y 0.000000 1.772690 0.000000 
#    z -0.002660 0.000000 1.813150 
# 
# From -- ./inp_files/190234.got.cif
#   From: 2010.06.25/outbox.cif.g09.slc.cpg/sg15_96_cif.got.tgz:190234.got - 2010.06.28 07:06:18.
