data_PCOD8138979
_publ_section_title
;
Structure prediction by ZEFSAII (Michael W. Deem and Ramdas Pophale) SiO2 
 PCOD8138979
Probable space group: C 2/C
;
_chemical_formula_sum "Si O2"
_cell_formula_units_Z 48
_cell_length_a 11.687646
_cell_length_b 13.833098
_cell_length_c 27.887781
_cell_angle_alpha 90.000000
_cell_angle_beta 29.725627
_cell_angle_gamma 90.000000
_cell_volume 2235.672947
_symmetry_space_group_name_H-M "C 2/C"
_symmetry_group_IT_number 15
_symmetry_cell_setting 'monoclinic'
loop_
_space_group_symop_operation_xyz
x,y,z
-x,y,1/2-z
-x,-y,-z
x,-y,1/2+z
1/2+x,1/2+y,z
1/2-x,1/2+y,1/2-z
1/2-x,1/2-y,-z
1/2+x,1/2-y,1/2+z
loop_
_atom_site_type_symbol
_atom_site_label
_atom_site_fract_x
_atom_site_fract_y
_atom_site_fract_z
Si Si1 0.291769 0.660714 0.541316
Si Si2 0.178307 0.676240 0.985953
Si Si3 0.140392 0.033247 0.064561
Si Si4 0.153203 0.831234 0.646767
Si Si5 0.229021 0.507951 0.643483
Si Si6 0.699633 0.204918 0.141952
O O1 0.204008 0.607067 0.524740
O O2 0.105812 0.737853 0.629363
O O3 0.344052 0.580515 0.563524
O O4 0.533044 0.712062 0.438066
O O5 0.910498 0.683103 0.071563
O O6 0.250000 0.750000 0.000000
O O7 0.226938 0.566595 0.980989
O O8 0.335913 0.715039 0.885672
O O9 0.109414 0.074403 0.129847
O O10 0.897879 0.016772 0.126263
O O11 0.000000 0.835002 0.750000
O O12 0.156797 0.407821 0.642981
O O13 0.000000 0.556036 0.750000
O O14 0.500000 0.238115 0.250000
#
# Coordination Sequence:
#
# PCOD8138979 Si02
#       6
#     8   8   8   8   8   8
#     4  10  20  39  63  88 119 157 202 254 304 361
#     4  11  23  41  62  88 121 162 204 252 305 364
#     4  11  22  39  64  89 121 162 204 254 308 361
#     4  11  25  42  60  90 128 163 202 250 311 376
#     4  10  20  38  63  93 120 156 205 253 303 366
#     4   9  19  35  58  84 115 152 197 243 295 360
#
# _framework density 21.470046
#
# number of rings (size 3 to 8) (size 9 to 14) (size 15 to 20)
#    0.000    1.667    0.000    6.500    0.000    6.000 
#    0.000    3.333    0.000    0.000    0.000    0.000 
#    0.000    0.000    0.000    0.000    0.000    0.000 
#
# Total GULP energy -297334.536173 kJ/mol
# GULP energy per Si atom -12388.939007 kJ/mol
# Density = 2.142118 g / cm^3
# Si number density = 21.470046 Si / 1000 Ang^3
#
#
#
# Elastic Constant Matrix: (Units=GPa)
#
#
# Indices 1 2 3 4 5 6 
#
# 1 95.7855 48.7126 54.5774 0.0195 18.8659 -0.0232
# 2 48.7126 117.3856 48.2279 -0.0399 24.5381 0.0115
# 3 54.5774 48.2279 144.1641 0.2035 30.2900 -0.1629
# 4 0.0195 -0.0399 0.2035 29.9729 -0.0929 15.7614
# 5 18.8659 24.5381 30.2900 -0.0929 30.1965 0.0392
# 6 -0.0232 0.0115 -0.1629 15.7614 0.0392 44.3694
#
#
#
# Elastic Compliance Matrix: (Units=1/GPa)
#
#
# Indices 1 2 3 4 5 6 
#
# 1 0.015260 -0.004284 -0.003893 0.000007 -0.002148 -0.000006
# 2 -0.004284 0.012008 -0.001150 0.000013 -0.005928 -0.000009
# 3 -0.003893 -0.001150 0.010248 -0.000138 -0.006914 0.000091
# 4 0.000007 0.000013 -0.000138 0.041030 0.000268 -0.014576
# 5 -0.002148 -0.005928 -0.006914 0.000268 0.046212 -0.000161
# 6 -0.000006 -0.000009 0.000091 -0.014576 -0.000161 0.027716
#
#
# Mechanical properties :
#
#
# Convention : Reuss Voigt Hill
#
# Bulk Modulus (GPa) = 53.01454 73.37456 63.19455
# Shear Modulus (GPa) = 28.18253 34.62890 31.40571
#
# Velocity S-wave (km/s) = 3.62697 4.02044 3.82877
# Velocity P-wave (km/s) = 6.50276 7.47004 7.00312
#
# Compressibility (1/GPa) = 0.01886275
#
# Stress axis : x y z
#
# Youngs Moduli (GPa) = 65.53194 83.27497 97.58249
#
# Poissons Ratio (x) = 0.35677 0.37984
# Poissons Ratio (y) = 0.28076 0.11220
# Poissons Ratio (z) = 0.25508 0.09575
#
# Static dielectric constant tensor:
#      x y z
#    x 9.611800 0.012050 1.957750 
#    y 0.012050 4.194550 0.003570 
#    z 1.957750 0.003570 4.460220 
# 
# 
# High freq. dielectric constant tensor:
#      x y z
#    x 1.825450 0.000000 0.016650 
#    y 0.000000 1.854380 0.000000 
#    z 0.016650 0.000000 1.840510 
# 
# From -- ./inp_files/292998.got.cif
#   From: 2010.06.25/outbox.cif.g09.slc.cpg/sg15_147_cif.got.tgz:292998.got - 2010.06.28 07:06:18.
