data_PCOD8138747
_publ_section_title
;
Structure prediction by ZEFSAII (Michael W. Deem and Ramdas Pophale) SiO2 
 PCOD8138747
Probable space group: C 2/C
;
_chemical_formula_sum "Si O2"
_cell_formula_units_Z 60
_cell_length_a 8.802113
_cell_length_b 11.754407
_cell_length_c 27.810715
_cell_angle_alpha 90.000000
_cell_angle_beta 79.086084
_cell_angle_gamma 90.000000
_cell_volume 2825.353027
_symmetry_space_group_name_H-M "C 2/C"
_symmetry_group_IT_number 15
_symmetry_cell_setting 'monoclinic'
loop_
_space_group_symop_operation_xyz
x,y,z
-x,y,1/2-z
-x,-y,-z
x,-y,1/2+z
1/2+x,1/2+y,z
1/2-x,1/2+y,1/2-z
1/2-x,1/2-y,-z
1/2+x,1/2-y,1/2+z
loop_
_atom_site_type_symbol
_atom_site_label
_atom_site_fract_x
_atom_site_fract_y
_atom_site_fract_z
Si Si1 0.751092 0.272539 0.223081
Si Si2 0.960249 0.181571 0.679788
Si Si3 0.000000 0.566521 0.750000
Si Si4 0.297917 0.992468 0.418720
Si Si5 0.776132 0.040982 0.180013
Si Si6 0.617101 0.278172 0.422174
Si Si7 0.319573 0.372060 0.484145
Si Si8 0.398883 0.024364 0.052657
O O1 0.655410 0.250459 0.277923
O O2 0.635820 0.315987 0.188049
O O3 0.891073 0.359358 0.221808
O O4 0.831510 0.155918 0.201979
O O5 0.949112 0.237360 0.627751
O O6 0.907086 0.050763 0.683693
O O7 0.105479 0.490044 0.709364
O O8 0.269021 0.856966 0.414005
O O9 0.237217 0.060296 0.376157
O O10 0.204746 0.044888 0.469252
O O11 0.484111 0.004273 0.410175
O O12 0.497349 0.349489 0.461913
O O13 0.658887 0.155421 0.442128
O O14 0.250000 0.250000 0.500000
O O15 0.243400 0.435043 0.441667
O O16 0.500000 0.000000 0.000000
#
# Coordination Sequence:
#
# PCOD8138747 Si02
#       8
#     8   8   4   8   8   8   8   8
#     4  10  20  38  61  84 118 153 187 236 295 345
#     4   9  21  38  60  88 115 155 193 238 293 345
#     4  10  22  36  58  90 110 152 196 230 292 354
#     4  10  22  40  60  86 118 158 194 246 296 343
#     4  10  21  40  58  85 119 149 193 243 289 345
#     4  11  21  41  61  84 123 150 203 246 285 358
#     4  11  22  40  59  85 120 157 199 242 292 352
#     4  10  21  38  57  85 113 153 194 241 294 332
#
# _framework density 21.236284999999999
#
# number of rings (size 3 to 8) (size 9 to 14) (size 15 to 20)
#    0.000    1.867    2.667    2.000    0.000    5.333 
#    2.400    9.333    0.000    0.000    0.000    0.000 
#    0.000    0.000    0.000    0.000    0.000    0.000 
#
# Total GULP energy -371924.959418 kJ/mol
# GULP energy per Si atom -12397.498647 kJ/mol
# Density = 2.118795 g / cm^3
# Si number density = 21.236285 Si / 1000 Ang^3
#
#
#
# Elastic Constant Matrix: (Units=GPa)
#
#
# Indices 1 2 3 4 5 6 
#
# 1 49.8484 28.5517 0.7866 0.0000 5.0024 0.0000
# 2 28.5517 99.9629 30.4655 0.0000 16.8472 0.0000
# 3 0.7866 30.4655 90.7900 0.0000 10.7668 0.0000
# 4 0.0000 0.0000 0.0000 33.6414 0.0000 1.3635
# 5 5.0024 16.8472 10.7668 0.0000 22.1498 0.0000
# 6 0.0000 0.0000 0.0000 1.3635 0.0000 31.5022
#
#
#
# Elastic Compliance Matrix: (Units=1/GPa)
#
#
# Indices 1 2 3 4 5 6 
#
# 1 0.024452 -0.007567 0.002440 0.000000 -0.000953 0.000000
# 2 -0.007567 0.014635 -0.003956 0.000000 -0.007499 0.000000
# 3 0.002440 -0.003956 0.012765 0.000000 -0.003747 0.000000
# 4 0.000000 0.000000 0.000000 0.029778 0.000000 -0.001289
# 5 -0.000953 -0.007499 -0.003747 0.000000 0.052888 0.000000
# 6 0.000000 0.000000 0.000000 -0.001289 0.000000 0.031800
#
#
# Mechanical properties :
#
#
# Convention : Reuss Voigt Hill
#
# Bulk Modulus (GPa) = 29.68546 40.02319 34.85433
# Shear Modulus (GPa) = 25.54782 29.51184 27.52983
#
# Velocity S-wave (km/s) = 3.47223 3.73190 3.60440
# Velocity P-wave (km/s) = 5.48490 6.12021 5.81124
#
# Compressibility (1/GPa) = 0.03368653
#
# Stress axis : x y z
#
# Youngs Moduli (GPa) = 40.89598 68.33110 78.33847
#
# Poissons Ratio (x) = 0.51708 -0.19118
# Poissons Ratio (y) = 0.30947 0.30990
# Poissons Ratio (z) = -0.09980 0.27031
#
# Static dielectric constant tensor:
#      x y z
#    x 4.207790 0.000000 0.145190 
#    y 0.000000 3.888350 0.000000 
#    z 0.145190 0.000000 4.076280 
# 
# 
# High freq. dielectric constant tensor:
#      x y z
#    x 1.821790 0.000000 0.008170 
#    y 0.000000 1.835940 0.000000 
#    z 0.008170 0.000000 1.832830 
# 
# From -- ./inp_files/307156.got.cif
#   From: 2010.06.25/outbox.cif.g09.slc.cpg/sg15_154_cif.got.tgz:307156.got - 2010.06.28 07:06:18.
