data_PCOD8138495
_publ_section_title
;
Structure prediction by ZEFSAII (Michael W. Deem and Ramdas Pophale) SiO2 
 PCOD8138495
Probable space group: C 2/C
;
_chemical_formula_sum "Si O2"
_cell_formula_units_Z 56
_cell_length_a 13.385399
_cell_length_b 16.890303
_cell_length_c 19.411085
_cell_angle_alpha 90.000000
_cell_angle_beta 30.524844
_cell_angle_gamma 90.000000
_cell_volume 2228.984167
_symmetry_space_group_name_H-M "C 2/C"
_symmetry_group_IT_number 15
_symmetry_cell_setting 'monoclinic'
loop_
_space_group_symop_operation_xyz
x,y,z
-x,y,1/2-z
-x,-y,-z
x,-y,1/2+z
1/2+x,1/2+y,z
1/2-x,1/2+y,1/2-z
1/2-x,1/2-y,-z
1/2+x,1/2-y,1/2+z
loop_
_atom_site_type_symbol
_atom_site_label
_atom_site_fract_x
_atom_site_fract_y
_atom_site_fract_z
Si Si1 0.072006 0.728147 0.057445
Si Si2 0.065611 0.886840 0.859288
Si Si3 0.468629 0.230971 0.850286
Si Si4 0.769704 0.502305 0.129009
Si Si5 0.834598 0.177168 0.793479
Si Si6 0.344048 0.065488 0.941096
Si Si7 0.575517 0.910842 0.775428
O O1 0.894678 0.789665 0.181523
O O2 0.011284 0.637434 0.108831
O O3 0.250000 0.750000 0.000000
O O4 0.136623 0.723967 0.938277
O O5 0.185276 0.904757 0.859685
O O6 0.098830 0.795553 0.814290
O O7 0.172707 0.939688 0.739764
O O8 0.834419 0.910292 0.005291
O O9 0.500000 0.238239 0.750000
O O10 0.494376 0.140084 0.861792
O O11 0.250000 0.250000 0.000000
O O12 0.682097 0.416612 0.196925
O O13 0.726683 0.536164 0.078412
O O14 0.000000 0.500000 0.000000
O O15 0.000000 0.201209 0.750000
O O16 0.486968 0.998719 0.826880
O O17 0.500000 0.869518 0.750000
#
# Coordination Sequence:
#
# PCOD8138495 Si02
#       7
#     8   8   8   8   8   8   8
#     4  10  21  40  62  98 138 189 233 292 368 438
#     4  11  24  43  71 104 144 197 248 319 379 440
#     4  10  22  45  75 111 146 196 255 320 378 450
#     4  12  22  41  70 107 141 189 250 309 371 450
#     4  10  20  37  66  97 139 183 235 289 366 436
#     4  11  23  44  73 105 147 190 255 310 376 453
#     4  12  25  45  67 101 150 193 251 307 379 457
#
# _framework density 25.123553000000001
#
# number of rings (size 3 to 8) (size 9 to 14) (size 15 to 20)
#    0.000    1.143    2.857    4.714    2.000    1.714 
#    0.000    7.143    0.000    0.000    0.000    0.000 
#    0.000    0.000    0.000    0.000    0.000    0.000 
#
# Total GULP energy -346887.331831 kJ/mol
# GULP energy per Si atom -12388.833280 kJ/mol
# Density = 2.506637 g / cm^3
# Si number density = 25.123553 Si / 1000 Ang^3
#
#
#
# Elastic Constant Matrix: (Units=GPa)
#
#
# Indices 1 2 3 4 5 6 
#
# 1 102.8883 38.0585 24.9666 0.0075 -14.4043 -0.0159
# 2 38.0585 190.0559 66.0414 0.0147 -12.2813 -0.0168
# 3 24.9666 66.0414 117.2387 0.0081 7.3848 -0.0290
# 4 0.0075 0.0147 0.0081 50.2688 -0.0217 -8.0726
# 5 -14.4043 -12.2813 7.3848 -0.0217 37.2692 0.0194
# 6 -0.0159 -0.0168 -0.0290 -8.0726 0.0194 22.2739
#
#
#
# Elastic Compliance Matrix: (Units=1/GPa)
#
#
# Indices 1 2 3 4 5 6 
#
# 1 0.011276 -0.001306 -0.001937 0.000001 0.004311 0.000001
# 2 -0.001306 0.007024 -0.003840 -0.000001 0.002571 -0.000003
# 3 -0.001937 -0.003840 0.011374 0.000000 -0.004268 0.000014
# 4 0.000001 -0.000001 0.000000 0.021122 0.000008 0.007655
# 5 0.004311 0.002571 -0.004268 0.000008 0.030191 -0.000024
# 6 0.000001 -0.000003 0.000014 0.007655 -0.000024 0.047670
#
#
# Mechanical properties :
#
#
# Convention : Reuss Voigt Hill
#
# Bulk Modulus (GPa) = 64.48770 74.25731 69.37250
# Shear Modulus (GPa) = 33.78526 40.70348 37.24437
#
# Velocity S-wave (km/s) = 3.67108 4.02945 3.85443
# Velocity P-wave (km/s) = 6.61007 7.16028 6.89067
#
# Compressibility (1/GPa) = 0.01550683
#
# Stress axis : x y z
#
# Youngs Moduli (GPa) = 88.68286 142.37431 87.91842
#
# Poissons Ratio (x) = 0.18599 0.17030
# Poissons Ratio (y) = 0.11585 0.33763
# Poissons Ratio (z) = 0.17178 0.54675
#
# Static dielectric constant tensor:
#      x y z
#    x 4.903660 -0.000040 -0.446610 
#    y -0.000040 6.175090 0.000210 
#    z -0.446610 0.000210 5.682950 
# 
# 
# High freq. dielectric constant tensor:
#      x y z
#    x 1.979100 0.000000 -0.011500 
#    y 0.000000 2.022610 0.000010 
#    z -0.011500 0.000010 2.005370 
# 
# From -- ./inp_files/245113.got.cif
#   From: 2010.06.25/outbox.cif.g09.slc.cpg/sg15_123_cif.got.tgz:245113.got - 2010.06.28 07:06:18.
