data_PCOD8138955
_publ_section_title
;
Structure prediction by ZEFSAII (Michael W. Deem and Ramdas Pophale) SiO2 
 PCOD8138955
Probable space group: C 2/C
;
_chemical_formula_sum "Si O2"
_cell_formula_units_Z 56
_cell_length_a 13.000697
_cell_length_b 13.727788
_cell_length_c 17.589117
_cell_angle_alpha 90.000000
_cell_angle_beta 59.292091
_cell_angle_gamma 90.000000
_cell_volume 2698.978843
_symmetry_space_group_name_H-M "C 2/C"
_symmetry_group_IT_number 15
_symmetry_cell_setting 'monoclinic'
loop_
_space_group_symop_operation_xyz
x,y,z
-x,y,1/2-z
-x,-y,-z
x,-y,1/2+z
1/2+x,1/2+y,z
1/2-x,1/2+y,1/2-z
1/2-x,1/2-y,-z
1/2+x,1/2-y,1/2+z
loop_
_atom_site_type_symbol
_atom_site_label
_atom_site_fract_x
_atom_site_fract_y
_atom_site_fract_z
Si Si1 0.817497 0.531701 0.055032
Si Si2 0.559748 0.778281 0.808199
Si Si3 0.438415 0.224102 0.660085
Si Si4 0.782462 0.113702 0.701005
Si Si5 0.799404 0.665794 0.928732
Si Si6 0.711238 0.594760 0.243866
Si Si7 0.950663 0.653175 0.495253
O O1 0.714231 0.559434 0.154693
O O2 0.832705 0.414968 0.044098
O O3 0.789177 0.566604 0.980447
O O4 0.936088 0.583513 0.039795
O O5 0.500000 0.794542 0.750000
O O6 0.612334 0.669546 0.794460
O O7 0.666363 0.855274 0.776374
O O8 0.458771 0.792327 0.911359
O O9 0.346336 0.137061 0.713621
O O10 0.565705 0.193261 0.648222
O O11 0.397517 0.329037 0.706938
O O12 0.448842 0.231227 0.564396
O O13 0.782209 0.153172 0.614567
O O14 0.808677 0.998879 0.694855
O O15 0.750000 0.750000 0.000000
#
# Coordination Sequence:
#
# PCOD8138955 Si02
#       7
#     8   8   8   8   8   8   8
#     4   9  18  34  58  87 119 157 200 256 307 361
#     4  10  23  40  61  85 125 167 211 261 306 367
#     4  10  20  38  63  89 125 164 202 261 313 370
#     4  11  22  39  59  95 126 159 208 261 313 374
#     4  11  22  37  61  91 127 161 208 262 316 372
#     4  10  21  39  63  92 124 159 211 259 312 373
#     4   9  17  35  59  85 116 161 207 249 302 363
#
# _framework density 20.748587000000001
#
# number of rings (size 3 to 8) (size 9 to 14) (size 15 to 20)
#    0.000    2.000    1.429    3.857    4.000    0.000 
#    0.000   11.429    0.000    0.000    0.000    0.000 
#    0.000    0.000    0.000    0.000    0.000    0.000 
#
# Total GULP energy -347201.360997 kJ/mol
# GULP energy per Si atom -12400.048607 kJ/mol
# Density = 2.070136 g / cm^3
# Si number density = 20.748587 Si / 1000 Ang^3
#
#
#
# Elastic Constant Matrix: (Units=GPa)
#
#
# Indices 1 2 3 4 5 6 
#
# 1 46.5875 7.0383 17.7362 0.0000 10.7618 0.0000
# 2 7.0383 102.5846 23.8707 0.0000 -8.1498 0.0000
# 3 17.7362 23.8707 95.4349 0.0000 8.4978 0.0000
# 4 0.0000 0.0000 0.0000 31.4113 0.0000 2.3067
# 5 10.7618 -8.1498 8.4978 0.0000 26.9124 0.0000
# 6 0.0000 0.0000 0.0000 2.3067 0.0000 16.8088
#
#
#
# Elastic Compliance Matrix: (Units=1/GPa)
#
#
# Indices 1 2 3 4 5 6 
#
# 1 0.025220 -0.001692 -0.003416 0.000000 -0.009518 0.000000
# 2 -0.001692 0.010915 -0.002851 0.000000 0.004882 0.000000
# 3 -0.003416 -0.002851 0.012122 0.000000 -0.003325 0.000000
# 4 0.000000 0.000000 0.000000 0.032160 0.000000 -0.004413
# 5 -0.009518 0.004882 -0.003325 0.000000 0.043492 0.000000
# 6 0.000000 0.000000 0.000000 -0.004413 0.000000 0.060098
#
#
# Mechanical properties :
#
#
# Convention : Reuss Voigt Hill
#
# Bulk Modulus (GPa) = 30.92090 37.98862 34.45476
# Shear Modulus (GPa) = 23.72989 28.09061 25.91025
#
# Velocity S-wave (km/s) = 3.38551 3.68347 3.53763
# Velocity P-wave (km/s) = 5.49702 6.03650 5.77307
#
# Compressibility (1/GPa) = 0.03234058
#
# Stress axis : x y z
#
# Youngs Moduli (GPa) = 39.65115 91.61500 82.49255
#
# Poissons Ratio (x) = 0.15497 0.28183
# Poissons Ratio (y) = 0.06707 0.23515
# Poissons Ratio (z) = 0.13546 0.26115
#
# Static dielectric constant tensor:
#      x y z
#    x 3.510880 0.000000 0.073450 
#    y 0.000000 3.746170 0.000000 
#    z 0.073450 0.000000 4.010590 
# 
# 
# High freq. dielectric constant tensor:
#      x y z
#    x 1.778920 0.000000 0.011900 
#    y 0.000000 1.802510 0.000000 
#    z 0.011900 0.000000 1.825320 
# 
# From -- ./inp_files/205349.got.cif
#   From: 2010.06.25/outbox.cif.g09.slc.cpg/sg15_103_cif.got.tgz:205349.got - 2010.06.28 07:06:18.
