data_PCOD8138654
_publ_section_title
;
Structure prediction by ZEFSAII (Michael W. Deem and Ramdas Pophale) SiO2 
 PCOD8138654
Probable space group: C 2/C
;
_chemical_formula_sum "Si O2"
_cell_formula_units_Z 60
_cell_length_a 17.842465
_cell_length_b 10.827650
_cell_length_c 14.398621
_cell_angle_alpha 90.000000
_cell_angle_beta 92.259944
_cell_angle_gamma 90.000000
_cell_volume 2779.534317
_symmetry_space_group_name_H-M "C 2/C"
_symmetry_group_IT_number 15
_symmetry_cell_setting 'monoclinic'
loop_
_space_group_symop_operation_xyz
x,y,z
-x,y,1/2-z
-x,-y,-z
x,-y,1/2+z
1/2+x,1/2+y,z
1/2-x,1/2+y,1/2-z
1/2-x,1/2-y,-z
1/2+x,1/2-y,1/2+z
loop_
_atom_site_type_symbol
_atom_site_label
_atom_site_fract_x
_atom_site_fract_y
_atom_site_fract_z
Si Si1 0.417553 0.170976 0.000755
Si Si2 0.158657 0.647511 0.817382
Si Si3 0.500000 0.477190 0.250000
Si Si4 0.803659 0.279439 0.861669
Si Si5 0.384507 0.348928 0.828435
Si Si6 0.587392 0.109836 0.999307
Si Si7 0.626732 0.697892 0.817140
Si Si8 0.763403 0.996284 0.727353
O O1 0.378138 0.209319 0.095779
O O2 0.396744 0.031369 0.966745
O O3 0.390425 0.272013 0.924109
O O4 0.506784 0.165220 0.021251
O O5 0.244295 0.667305 0.862844
O O6 0.120800 0.756757 0.758380
O O7 0.096886 0.611471 0.889310
O O8 0.178158 0.530397 0.754086
O O9 0.542832 0.564165 0.178466
O O10 0.445626 0.390187 0.187635
O O11 0.862403 0.272927 0.778327
O O12 0.747137 0.393842 0.850977
O O13 0.852371 0.294138 0.956474
O O14 0.312456 0.440423 0.816616
O O15 0.699856 0.610815 0.826171
#
# Coordination Sequence:
#
# PCOD8138654 Si02
#       8
#     8   8   4   8   8   8   8   8
#     4  11  24  38  57  87 118 154 194 236 285 339
#     4  10  20  38  60  83 115 151 191 241 289 340
#     4  10  20  38  60  82 112 152 192 232 288 344
#     4  10  20  38  60  83 115 151 191 241 289 340
#     4  10  21  38  59  85 117 150 191 239 287 343
#     4  11  23  37  57  85 116 155 198 234 284 342
#     4  10  21  38  59  85 117 150 191 239 287 343
#     4   9  20  37  60  85 112 151 190 236 296 343
#
# _framework density 21.586349999999999
#
# number of rings (size 3 to 8) (size 9 to 14) (size 15 to 20)
#    0.000    1.867    0.000    3.600    0.000    1.600 
#    0.000   18.000    0.000    0.000    0.000    0.000 
#    0.000    0.000    0.000    0.000    0.000    0.000 
#
# Total GULP energy -371709.548206 kJ/mol
# GULP energy per Si atom -12390.318274 kJ/mol
# Density = 2.153722 g / cm^3
# Si number density = 21.586350 Si / 1000 Ang^3
#
#
#
# Elastic Constant Matrix: (Units=GPa)
#
#
# Indices 1 2 3 4 5 6 
#
# 1 51.8368 16.2346 18.0485 0.0000 -8.5052 0.0000
# 2 16.2346 74.7081 13.0411 0.0000 -3.5703 0.0000
# 3 18.0485 13.0411 62.7664 0.0000 -12.8925 0.0000
# 4 0.0000 0.0000 0.0000 33.4512 0.0000 -5.5822
# 5 -8.5052 -3.5703 -12.8925 0.0000 32.1800 0.0000
# 6 0.0000 0.0000 0.0000 -5.5822 0.0000 30.3946
#
#
#
# Elastic Compliance Matrix: (Units=1/GPa)
#
#
# Indices 1 2 3 4 5 6 
#
# 1 0.022856 -0.003919 -0.005020 0.000000 0.003595 0.000000
# 2 -0.003919 0.014566 -0.001940 0.000000 -0.000197 0.000000
# 3 -0.005020 -0.001940 0.019028 0.000000 0.006081 0.000000
# 4 0.000000 0.000000 0.000000 0.030839 0.000000 0.005664
# 5 0.003595 -0.000197 0.006081 0.000000 0.034440 0.000000
# 6 0.000000 0.000000 0.000000 0.005664 0.000000 0.033941
#
#
# Mechanical properties :
#
#
# Convention : Reuss Voigt Hill
#
# Bulk Modulus (GPa) = 28.82410 31.55109 30.18759
# Shear Modulus (GPa) = 26.45617 28.67097 27.56357
#
# Velocity S-wave (km/s) = 3.50465 3.64840 3.57725
# Velocity P-wave (km/s) = 5.45515 5.69172 5.57469
#
# Compressibility (1/GPa) = 0.03469319
#
# Stress axis : x y z
#
# Youngs Moduli (GPa) = 43.75173 68.65176 52.55486
#
# Poissons Ratio (x) = 0.26903 0.26381
# Poissons Ratio (y) = 0.17145 0.10196
# Poissons Ratio (z) = 0.21962 0.13319
#
# Static dielectric constant tensor:
#      x y z
#    x 3.996680 0.000000 -0.096880 
#    y 0.000000 4.146850 0.000000 
#    z -0.096880 0.000000 3.534770 
# 
# 
# High freq. dielectric constant tensor:
#      x y z
#    x 1.849400 0.000000 -0.006160 
#    y 0.000000 1.865260 0.000000 
#    z -0.006160 0.000000 1.817060 
# 
# From -- ./inp_files/160929.got.cif
#   From: 2010.06.25/outbox.cif.g09.slc.cpg/sg15_81_cif.got.tgz:160929.got - 2010.06.28 07:06:18.
