data_PCOD8138400
_publ_section_title
;
Structure prediction by ZEFSAII (Michael W. Deem and Ramdas Pophale) SiO2 
 PCOD8138400
Probable space group: C 2/C
;
_chemical_formula_sum "Si O2"
_cell_formula_units_Z 60
_cell_length_a 19.880608
_cell_length_b 9.007446
_cell_length_c 18.687772
_cell_angle_alpha 90.000000
_cell_angle_beta 56.913401
_cell_angle_gamma 90.000000
_cell_volume 2803.840313
_symmetry_space_group_name_H-M "C 2/C"
_symmetry_group_IT_number 15
_symmetry_cell_setting 'monoclinic'
loop_
_space_group_symop_operation_xyz
x,y,z
-x,y,1/2-z
-x,-y,-z
x,-y,1/2+z
1/2+x,1/2+y,z
1/2-x,1/2+y,1/2-z
1/2-x,1/2-y,-z
1/2+x,1/2-y,1/2+z
loop_
_atom_site_type_symbol
_atom_site_label
_atom_site_fract_x
_atom_site_fract_y
_atom_site_fract_z
Si Si1 0.283183 0.007513 0.498493
Si Si2 0.361870 0.112192 0.085442
Si Si3 0.258949 0.131767 0.872265
Si Si4 0.492403 0.294383 0.943789
Si Si5 0.854997 0.206121 0.906972
Si Si6 0.886108 0.943830 0.527082
Si Si7 0.085644 0.443767 0.305902
Si Si8 0.000000 0.334981 0.750000
O O1 0.199887 0.064151 0.584080
O O2 0.308435 0.138029 0.428712
O O3 0.350362 0.983101 0.519658
O O4 0.271591 0.865847 0.451998
O O5 0.283686 0.218972 0.132449
O O6 0.368857 0.010160 0.151165
O O7 0.447369 0.194731 0.029701
O O8 0.344898 0.116862 0.785448
O O9 0.199497 0.993954 0.890711
O O10 0.565366 0.386399 0.933760
O O11 0.526261 0.192421 0.860249
O O12 0.426760 0.418161 0.959163
O O13 0.931456 0.219217 0.812021
O O14 0.879186 0.190086 0.975871
O O15 0.030579 0.564499 0.298003
#
# Coordination Sequence:
#
# PCOD8138400 Si02
#       8
#     8   8   8   8   8   8   8   4
#     4  10  20  41  64  89 124 168 209 249 316 382
#     4  11  23  40  66  91 121 165 217 251 312 387
#     4  10  23  40  62  93 128 163 203 264 319 364
#     4  10  21  39  64  91 123 164 206 260 311 371
#     4  10  20  37  64  87 120 169 201 253 305 376
#     4   9  20  41  64  89 124 165 211 253 308 385
#     4  12  25  39  63  94 126 167 203 273 315 373
#     4  12  24  42  58  94 134 158 212 262 320 360
#
# _framework density 21.399221000000001
#
# number of rings (size 3 to 8) (size 9 to 14) (size 15 to 20)
#    0.000    1.600    1.333    3.200    1.867    1.067 
#    2.400    0.000    0.000    0.000    0.000    0.000 
#    0.000    0.000    0.000    0.000    0.000    0.000 
#
# Total GULP energy -371784.536379 kJ/mol
# GULP energy per Si atom -12392.817879 kJ/mol
# Density = 2.135052 g / cm^3
# Si number density = 21.399221 Si / 1000 Ang^3
#
#
#
# Elastic Constant Matrix: (Units=GPa)
#
#
# Indices 1 2 3 4 5 6 
#
# 1 85.2657 8.8559 18.3651 0.0000 5.6201 0.0004
# 2 8.8559 53.8034 34.2025 0.0001 -6.0250 0.0009
# 3 18.3651 34.2025 102.8556 -0.0001 -25.1022 0.0001
# 4 0.0000 0.0001 -0.0001 35.2572 -0.0001 -3.9140
# 5 5.6201 -6.0250 -25.1022 -0.0001 36.2426 0.0000
# 6 0.0004 0.0009 0.0001 -3.9140 0.0000 24.0524
#
#
#
# Elastic Compliance Matrix: (Units=1/GPa)
#
#
# Indices 1 2 3 4 5 6 
#
# 1 0.012738 -0.000594 -0.003108 0.000000 -0.004227 0.000000
# 2 -0.000594 0.023696 -0.008171 0.000000 -0.001628 -0.000001
# 3 -0.003108 -0.008171 0.015380 0.000000 0.009776 0.000000
# 4 0.000000 0.000000 0.000000 0.028885 0.000000 0.004700
# 5 -0.004227 -0.001628 0.009776 0.000000 0.034748 0.000000
# 6 0.000000 -0.000001 0.000000 0.004700 0.000000 0.042341
#
#
# Mechanical properties :
#
#
# Convention : Reuss Voigt Hill
#
# Bulk Modulus (GPa) = 35.62823 40.53020 38.07922
# Shear Modulus (GPa) = 26.19312 31.14385 28.66848
#
# Velocity S-wave (km/s) = 3.50240 3.81907 3.66416
# Velocity P-wave (km/s) = 5.74815 6.19905 5.97785
#
# Compressibility (1/GPa) = 0.02806763
#
# Stress axis : x y z
#
# Youngs Moduli (GPa) = 78.50604 42.20161 65.01797
#
# Poissons Ratio (x) = 0.02506 0.20211
# Poissons Ratio (y) = 0.04663 0.53125
# Poissons Ratio (z) = 0.24403 0.34482
#
# Static dielectric constant tensor:
#      x y z
#    x 3.899860 0.000000 -0.255300 
#    y 0.000000 3.953670 0.000000 
#    z -0.255300 0.000000 3.642680 
# 
# 
# High freq. dielectric constant tensor:
#      x y z
#    x 1.849880 0.000000 -0.022130 
#    y 0.000000 1.842920 0.000000 
#    z -0.022130 0.000000 1.818170 
# 
# From -- ./inp_files/252103.got.cif
#   From: 2010.06.25/outbox.cif.g09.slc.cpg/sg15_127_cif.got.tgz:252103.got - 2010.06.28 07:06:18.
