data_PCOD8138646
_publ_section_title
;
Structure prediction by ZEFSAII (Michael W. Deem and Ramdas Pophale) SiO2 
 PCOD8138646
Probable space group: C 2/C
;
_chemical_formula_sum "Si O2"
_cell_formula_units_Z 60
_cell_length_a 10.884924
_cell_length_b 23.848842
_cell_length_c 10.815259
_cell_angle_alpha 90.000000
_cell_angle_beta 73.876525
_cell_angle_gamma 90.000000
_cell_volume 2697.129473
_symmetry_space_group_name_H-M "C 2/C"
_symmetry_group_IT_number 15
_symmetry_cell_setting 'monoclinic'
loop_
_space_group_symop_operation_xyz
x,y,z
-x,y,1/2-z
-x,-y,-z
x,-y,1/2+z
1/2+x,1/2+y,z
1/2-x,1/2+y,1/2-z
1/2-x,1/2-y,-z
1/2+x,1/2-y,1/2+z
loop_
_atom_site_type_symbol
_atom_site_label
_atom_site_fract_x
_atom_site_fract_y
_atom_site_fract_z
Si Si1 0.625383 0.596765 0.387626
Si Si2 0.854898 0.202213 0.255961
Si Si3 0.842122 0.118988 0.469617
Si Si4 0.194529 0.509476 0.271778
Si Si5 0.759234 0.819384 0.218130
Si Si6 0.606618 0.961556 0.053889
Si Si7 0.000000 0.377646 0.250000
Si Si8 0.857245 0.911953 0.336646
O O1 0.649258 0.663796 0.366517
O O2 0.475446 0.588074 0.400884
O O3 0.708013 0.562116 0.263022
O O4 0.658333 0.574293 0.514764
O O5 0.798229 0.162703 0.378031
O O6 0.753576 0.252550 0.265076
O O7 0.000000 0.221722 0.250000
O O8 0.858941 0.157757 0.587757
O O9 0.742837 0.069210 0.512124
O O10 0.120729 0.506779 0.161474
O O11 0.088766 0.515562 0.416046
O O12 0.272409 0.453030 0.276518
O O13 0.620963 0.838711 0.212615
O O14 0.805763 0.848150 0.332122
O O15 0.497077 0.917342 0.127320
O O16 0.000000 0.919308 0.250000
#
# Coordination Sequence:
#
# PCOD8138646 Si02
#       8
#     8   8   8   8   8   8   4   8
#     4  11  23  38  58  96 128 159 203 259 317 377
#     4  10  21  36  63  91 121 159 207 263 302 363
#     4  10  20  38  59  93 121 156 205 255 310 367
#     4  12  23  38  64  91 132 162 206 252 321 374
#     4  11  21  41  64  88 119 165 207 257 304 367
#     4  11  23  39  61  92 120 169 204 259 306 369
#     4  10  22  42  60  92 120 154 228 252 292 366
#     4  12  24  39  62  92 128 167 200 253 325 380
#
# _framework density 22.245873
#
# number of rings (size 3 to 8) (size 9 to 14) (size 15 to 20)
#    0.000    1.067    7.333    0.400    1.867    2.133 
#    0.000    0.000    0.000    0.000    1.733    0.000 
#    0.000    0.000    0.000    0.000    0.000    0.000 
#
# Total GULP energy -371867.531056 kJ/mol
# GULP energy per Si atom -12395.584369 kJ/mol
# Density = 2.219524 g / cm^3
# Si number density = 22.245873 Si / 1000 Ang^3
#
#
#
# Elastic Constant Matrix: (Units=GPa)
#
#
# Indices 1 2 3 4 5 6 
#
# 1 39.1192 14.8012 30.1112 0.0000 -1.4150 0.0000
# 2 14.8012 84.2135 33.8004 0.0000 3.5326 0.0000
# 3 30.1112 33.8004 139.0055 0.0000 -0.1444 0.0000
# 4 0.0000 0.0000 0.0000 28.5341 0.0000 -6.0770
# 5 -1.4150 3.5326 -0.1444 0.0000 36.7017 0.0000
# 6 0.0000 0.0000 0.0000 -6.0770 0.0000 8.6836
#
#
#
# Elastic Compliance Matrix: (Units=1/GPa)
#
#
# Indices 1 2 3 4 5 6 
#
# 1 0.031468 -0.003167 -0.006045 0.000000 0.001494 0.000000
# 2 -0.003167 0.013538 -0.002607 0.000000 -0.001435 0.000000
# 3 -0.006045 -0.002607 0.009137 0.000000 0.000054 0.000000
# 4 0.000000 0.000000 0.000000 0.041184 0.000000 0.028822
# 5 0.001494 -0.001435 0.000054 0.000000 0.027443 0.000000
# 6 0.000000 0.000000 0.000000 0.028822 0.000000 0.135330
#
#
# Mechanical properties :
#
#
# Convention : Reuss Voigt Hill
#
# Bulk Modulus (GPa) = 32.78180 46.64042 39.71111
# Shear Modulus (GPa) = 17.12874 27.02557 22.07715
#
# Velocity S-wave (km/s) = 2.77785 3.48926 3.15368
# Velocity P-wave (km/s) = 5.00567 6.10284 5.58128
#
# Compressibility (1/GPa) = 0.03050473
#
# Stress axis : x y z
#
# Youngs Moduli (GPa) = 31.77809 73.86657 109.43985
#
# Poissons Ratio (x) = 0.23395 0.66155
# Poissons Ratio (y) = 0.10065 0.28534
# Poissons Ratio (z) = 0.19210 0.19259
#
# Static dielectric constant tensor:
#      x y z
#    x 3.849620 0.000000 -0.207830 
#    y 0.000000 3.998340 0.000000 
#    z -0.207830 0.000000 4.541200 
# 
# 
# High freq. dielectric constant tensor:
#      x y z
#    x 1.867470 0.000000 -0.015550 
#    y 0.000000 1.866180 0.000000 
#    z -0.015550 0.000000 1.895150 
# 
# From -- ./inp_files/91759.got.cif
#   From: 2010.06.25/outbox.cif.g09.slc.cpg/sg15_46_cif.got.tgz:91759.got - 2010.06.28 07:06:18.
