data_PCOD8138343
_publ_section_title
;
Structure prediction by ZEFSAII (Michael W. Deem and Ramdas Pophale) SiO2 
 PCOD8138343
Probable space group: C 2/C
;
_chemical_formula_sum "Si O2"
_cell_formula_units_Z 44
_cell_length_a 12.562835
_cell_length_b 13.520341
_cell_length_c 24.628638
_cell_angle_alpha 90.000000
_cell_angle_beta 33.673096
_cell_angle_gamma 90.000000
_cell_volume 2319.428510
_symmetry_space_group_name_H-M "C 2/C"
_symmetry_group_IT_number 15
_symmetry_cell_setting 'monoclinic'
loop_
_space_group_symop_operation_xyz
x,y,z
-x,y,1/2-z
-x,-y,-z
x,-y,1/2+z
1/2+x,1/2+y,z
1/2-x,1/2+y,1/2-z
1/2-x,1/2-y,-z
1/2+x,1/2-y,1/2+z
loop_
_atom_site_type_symbol
_atom_site_label
_atom_site_fract_x
_atom_site_fract_y
_atom_site_fract_z
Si Si1 0.548727 0.468653 0.806464
Si Si2 0.000000 0.415806 0.250000
Si Si3 0.915349 0.251048 0.364050
Si Si4 0.009703 0.255495 0.446297
Si Si5 0.194309 0.545487 0.893975
Si Si6 0.372031 0.461861 0.602795
O O1 0.516963 0.352750 0.807438
O O2 0.366111 0.530848 0.863558
O O3 0.741362 0.500249 0.691876
O O4 0.561182 0.492683 0.865032
O O5 0.022901 0.343002 0.291191
O O6 0.829232 0.492127 0.325242
O O7 0.934936 0.278776 0.418139
O O8 0.694624 0.249074 0.435120
O O9 0.154707 0.338336 0.405704
O O10 0.133339 0.156384 0.398313
O O11 0.000000 0.500000 0.000000
O O12 0.500000 0.500000 0.500000
#
# Coordination Sequence:
#
# PCOD8138343 Si02
#       6
#     8   4   8   8   8   8
#     4  10  23  39  61  92 121 154 200 249 301 357
#     4  12  22  36  64  86 116 160 204 242 292 358
#     4  10  20  37  63  87 115 158 209 239 283 364
#     4  10  21  39  60  87 121 157 195 250 301 349
#     4  11  21  37  63  92 122 152 198 252 302 348
#     4  11  24  41  60  88 123 159 201 247 298 359
#
# _framework density 18.970189999999999
#
# number of rings (size 3 to 8) (size 9 to 14) (size 15 to 20)
#    0.000    1.455    3.636    2.182    0.000    2.909 
#    0.000    0.909    0.000    0.000    0.000    0.000 
#    0.000    0.000    0.000    0.000    0.000    0.000 
#
# Total GULP energy -272676.140188 kJ/mol
# GULP energy per Si atom -12394.370009 kJ/mol
# Density = 1.892701 g / cm^3
# Si number density = 18.970190 Si / 1000 Ang^3
#
#
#
# Elastic Constant Matrix: (Units=GPa)
#
#
# Indices 1 2 3 4 5 6 
#
# 1 85.6891 51.5572 54.0937 -0.0002 7.8439 0.0000
# 2 51.5572 122.8487 56.4952 0.0001 -5.3098 0.0001
# 3 54.0937 56.4952 148.4574 0.0015 1.0270 -0.0005
# 4 -0.0002 0.0001 0.0015 31.2565 -0.0002 -5.7178
# 5 7.8439 -5.3098 1.0270 -0.0002 33.6188 0.0001
# 6 0.0000 0.0001 -0.0005 -5.7178 0.0001 28.6271
#
#
#
# Elastic Compliance Matrix: (Units=1/GPa)
#
#
# Indices 1 2 3 4 5 6 
#
# 1 0.018531 -0.005951 -0.004452 0.000000 -0.005127 0.000000
# 2 -0.005951 0.011873 -0.002373 0.000000 0.003336 0.000000
# 3 -0.004452 -0.002373 0.009258 0.000000 0.000381 0.000000
# 4 0.000000 0.000000 0.000000 0.033207 0.000000 0.006632
# 5 -0.005127 0.003336 0.000381 0.000000 0.031457 0.000000
# 6 0.000000 0.000000 0.000000 0.006632 0.000000 0.036257
#
#
# Mechanical properties :
#
#
# Convention : Reuss Voigt Hill
#
# Bulk Modulus (GPa) = 70.87081 75.69859 73.28470
# Shear Modulus (GPa) = 29.26755 31.69041 30.47898
#
# Velocity S-wave (km/s) = 3.93213 4.09165 4.01269
# Velocity P-wave (km/s) = 7.61943 7.89384 7.75785
#
# Compressibility (1/GPa) = 0.01411018
#
# Stress axis : x y z
#
# Youngs Moduli (GPa) = 53.96507 84.22347 108.00983
#
# Poissons Ratio (x) = 0.50123 0.48084
# Poissons Ratio (y) = 0.32116 0.25630
# Poissons Ratio (z) = 0.24024 0.19986
#
# Static dielectric constant tensor:
#      x y z
#    x 3.392880 0.000000 0.025540 
#    y 0.000000 3.628880 0.000000 
#    z 0.025540 0.000000 4.259240 
# 
# 
# High freq. dielectric constant tensor:
#      x y z
#    x 1.723690 0.000000 0.006900 
#    y 0.000000 1.745290 0.000000 
#    z 0.006900 0.000000 1.751760 
# 
# From -- ./inp_files/142283.got.cif
#   From: 2010.06.25/outbox.cif.g09.slc.cpg/sg15_72_cif.got.tgz:142283.got - 2010.06.28 07:06:18.
