data_PCOD8138249
_publ_section_title
;
Structure prediction by ZEFSAII (Michael W. Deem and Ramdas Pophale) SiO2 
 PCOD8138249
Probable space group: C 2/C
;
_chemical_formula_sum "Si O2"
_cell_formula_units_Z 52
_cell_length_a 14.957411
_cell_length_b 19.084543
_cell_length_c 9.191312
_cell_angle_alpha 90.000000
_cell_angle_beta 76.935951
_cell_angle_gamma 90.000000
_cell_volume 2555.802349
_symmetry_space_group_name_H-M "C 2/C"
_symmetry_group_IT_number 15
_symmetry_cell_setting 'monoclinic'
loop_
_space_group_symop_operation_xyz
x,y,z
-x,y,1/2-z
-x,-y,-z
x,-y,1/2+z
1/2+x,1/2+y,z
1/2-x,1/2+y,1/2-z
1/2-x,1/2-y,-z
1/2+x,1/2-y,1/2+z
loop_
_atom_site_type_symbol
_atom_site_label
_atom_site_fract_x
_atom_site_fract_y
_atom_site_fract_z
Si Si1 0.176023 0.430606 0.827301
Si Si2 0.500000 0.871707 0.750000
Si Si3 0.500000 0.848894 0.250000
Si Si4 0.050947 0.732770 0.999411
Si Si5 0.741252 0.307901 0.861329
Si Si6 0.000000 0.834534 0.250000
Si Si7 0.697473 0.660397 0.682762
Si Si8 0.817268 0.571649 0.834909
O O1 0.070333 0.417731 0.820185
O O2 0.244974 0.366280 0.766464
O O3 0.209898 0.500840 0.737359
O O4 0.186876 0.442280 0.993603
O O5 0.566068 0.828000 0.616202
O O6 0.511696 0.798918 0.105872
O O7 0.584173 0.900245 0.246847
O O8 0.143470 0.766554 0.896414
O O9 0.991521 0.791543 0.102180
O O10 0.816425 0.245850 0.806225
O O11 0.753874 0.349535 0.010821
O O12 0.096422 0.876502 0.209016
O O13 0.746826 0.631043 0.806551
#
# Coordination Sequence:
#
# PCOD8138249 Si02
#       8
#     8   4   4   8   8   4   8   8
#     4  12  26  40  61  90 129 177 209 264 316 385
#     4  11  21  38  62  90 128 166 216 246 328 382
#     4  12  23  38  59  95 128 173 202 266 303 390
#     4  10  20  37  61  95 124 162 208 261 312 372
#     4  10  20  37  65  87 124 163 211 261 313 373
#     4   9  20  36  65  91 124 161 204 266 317 376
#     4  10  20  39  64  94 120 165 212 264 321 374
#     4  12  27  40  61  91 133 171 217 258 320 383
#
# _framework density 20.345862
#
# number of rings (size 3 to 8) (size 9 to 14) (size 15 to 20)
#    0.000    1.231    3.077    5.077    2.154    3.077 
#    0.000    0.000    0.000    9.231    0.000    0.000 
#    0.000    0.000    0.000    0.000    0.000    0.000 
#
# Total GULP energy -322139.037532 kJ/mol
# GULP energy per Si atom -12389.962982 kJ/mol
# Density = 2.029955 g / cm^3
# Si number density = 20.345862 Si / 1000 Ang^3
#
#
#
# Elastic Constant Matrix: (Units=GPa)
#
#
# Indices 1 2 3 4 5 6 
#
# 1 104.3853 33.8625 40.7320 0.0000 -1.6961 0.0000
# 2 33.8625 70.9233 44.4206 0.0000 3.9736 0.0000
# 3 40.7320 44.4206 125.9252 0.0000 17.2861 0.0000
# 4 0.0000 0.0000 0.0000 28.9779 0.0000 5.3121
# 5 -1.6961 3.9736 17.2861 0.0000 33.8060 0.0000
# 6 0.0000 0.0000 0.0000 5.3121 0.0000 18.7887
#
#
#
# Elastic Compliance Matrix: (Units=1/GPa)
#
#
# Indices 1 2 3 4 5 6 
#
# 1 0.012053 -0.004156 -0.002778 0.000000 0.002513 0.000000
# 2 -0.004156 0.019578 -0.005611 0.000000 0.000360 0.000000
# 3 -0.002778 -0.005611 0.011559 0.000000 -0.005390 0.000000
# 4 0.000000 0.000000 0.000000 0.036395 0.000000 -0.010290
# 5 0.002513 0.000360 -0.005390 0.000000 0.032421 0.000000
# 6 0.000000 0.000000 0.000000 -0.010290 0.000000 0.056133
#
#
# Mechanical properties :
#
#
# Convention : Reuss Voigt Hill
#
# Bulk Modulus (GPa) = 55.24733 59.91821 57.58277
# Shear Modulus (GPa) = 25.09260 28.46244 26.77752
#
# Velocity S-wave (km/s) = 3.51565 3.74429 3.63177
# Velocity P-wave (km/s) = 6.61005 6.94310 6.77862
#
# Compressibility (1/GPa) = 0.01810042
#
# Stress axis : x y z
#
# Youngs Moduli (GPa) = 82.96882 51.07687 86.51190
#
# Poissons Ratio (x) = 0.21226 0.24030
# Poissons Ratio (y) = 0.34479 0.48546
# Poissons Ratio (z) = 0.23046 0.28662
#
# Static dielectric constant tensor:
#      x y z
#    x 3.627640 0.000000 0.034690 
#    y 0.000000 3.486390 0.000000 
#    z 0.034690 0.000000 3.804650 
# 
# 
# High freq. dielectric constant tensor:
#      x y z
#    x 1.790380 0.000000 -0.004550 
#    y 0.000000 1.768550 0.000000 
#    z -0.004550 0.000000 1.802370 
# 
# From -- ./inp_files/40807.got.cif
#   From: 2010.06.25/outbox.cif.g09.slc.cpg/sg15_21_cif.got.tgz:40807.got - 2010.06.28 07:06:18.
