data_PCOD8138164
_publ_section_title
;
Structure prediction by ZEFSAII (Michael W. Deem and Ramdas Pophale) SiO2 
 PCOD8138164
Probable space group: C 2/C
;
_chemical_formula_sum "Si O2"
_cell_formula_units_Z 64
_cell_length_a 25.313967
_cell_length_b 15.326164
_cell_length_c 10.417171
_cell_angle_alpha 90.000000
_cell_angle_beta 44.803026
_cell_angle_gamma 90.000000
_cell_volume 2847.936435
_symmetry_space_group_name_H-M "C 2/C"
_symmetry_group_IT_number 15
_symmetry_cell_setting 'monoclinic'
loop_
_space_group_symop_operation_xyz
x,y,z
-x,y,1/2-z
-x,-y,-z
x,-y,1/2+z
1/2+x,1/2+y,z
1/2-x,1/2+y,1/2-z
1/2-x,1/2-y,-z
1/2+x,1/2-y,1/2+z
loop_
_atom_site_type_symbol
_atom_site_label
_atom_site_fract_x
_atom_site_fract_y
_atom_site_fract_z
Si Si1 0.424403 0.256800 0.155181
Si Si2 0.421989 0.451573 0.143479
Si Si3 0.910317 0.732246 0.631117
Si Si4 0.084621 0.327814 0.093491
Si Si5 0.191611 0.276414 0.432626
Si Si6 0.234350 0.598659 0.280062
Si Si7 0.700906 0.415282 0.334577
Si Si8 0.833357 0.107841 0.343910
O O1 0.430905 0.356832 0.190278
O O2 0.358548 0.213905 0.352536
O O3 0.503723 0.210958 0.052950
O O4 0.413093 0.249707 0.019286
O O5 0.380771 0.441746 0.077100
O O6 0.365940 0.511892 0.322265
O O7 0.500000 0.500000 0.000000
O O8 0.888046 0.698401 0.811429
O O9 0.856519 0.697633 0.611053
O O10 0.898545 0.836669 0.662066
O O11 0.000000 0.365855 0.250000
O O12 0.143579 0.398114 0.937041
O O13 0.229136 0.180093 0.361496
O O14 0.254011 0.352666 0.342263
O O15 0.255659 0.502730 0.193232
O O16 0.260442 0.604193 0.382044
O O17 0.691239 0.353563 0.476431
#
# Coordination Sequence:
#
# PCOD8138164 Si02
#       8
#     8   8   8   8   8   8   8   8
#     4  11  22  38  62  94 130 167 213 262 329 386
#     4  11  22  37  56  92 129 165 204 267 329 396
#     4  10  20  39  61  89 122 165 215 260 315 379
#     4  10  22  39  63  86 115 163 216 269 314 380
#     4  11  23  40  64  91 130 171 213 266 322 386
#     4  10  22  40  61  90 124 163 214 267 320 384
#     4  11  24  39  62  93 124 170 219 265 324 390
#     4  10  20  37  60  87 122 166 212 255 317 387
#
# _framework density 22.472411000000001
#
# number of rings (size 3 to 8) (size 9 to 14) (size 15 to 20)
#    0.000    1.500    1.250    4.125    0.000    6.500 
#    2.250    1.250    0.000    3.750    0.000    0.000 
#    0.000    0.000    0.000    0.000    0.000    0.000 
#
# Total GULP energy -396473.303623 kJ/mol
# GULP energy per Si atom -12389.790738 kJ/mol
# Density = 2.242126 g / cm^3
# Si number density = 22.472411 Si / 1000 Ang^3
#
#
#
# Elastic Constant Matrix: (Units=GPa)
#
#
# Indices 1 2 3 4 5 6 
#
# 1 86.8631 9.1472 46.1143 0.0000 -3.2686 0.0000
# 2 9.1472 75.5118 26.1984 0.0000 -16.7435 0.0000
# 3 46.1143 26.1984 140.4529 0.0000 -12.9326 0.0000
# 4 0.0000 0.0000 0.0000 26.9778 0.0000 -3.6869
# 5 -3.2686 -16.7435 -12.9326 0.0000 36.5220 0.0000
# 6 0.0000 0.0000 0.0000 -3.6869 0.0000 23.7986
#
#
#
# Elastic Compliance Matrix: (Units=1/GPa)
#
#
# Indices 1 2 3 4 5 6 
#
# 1 0.013951 -0.000203 -0.004586 0.000000 -0.000468 0.000000
# 2 -0.000203 0.015432 -0.002235 0.000000 0.006265 0.000000
# 3 -0.004586 -0.002235 0.009210 0.000000 0.001826 0.000000
# 4 0.000000 0.000000 0.000000 0.037869 0.000000 0.005867
# 5 -0.000468 0.006265 0.001826 0.000000 0.030858 0.000000
# 6 0.000000 0.000000 0.000000 0.005867 0.000000 0.042928
#
#
# Mechanical properties :
#
#
# Convention : Reuss Voigt Hill
#
# Bulk Modulus (GPa) = 40.73939 51.74977 46.24458
# Shear Modulus (GPa) = 28.98928 32.21754 30.60341
#
# Velocity S-wave (km/s) = 3.59555 3.79046 3.69429
# Velocity P-wave (km/s) = 5.95023 6.49884 6.23058
#
# Compressibility (1/GPa) = 0.02454627
#
# Stress axis : x y z
#
# Youngs Moduli (GPa) = 71.68184 64.79961 108.57202
#
# Poissons Ratio (x) = 0.01314 0.49787
# Poissons Ratio (y) = 0.01454 0.24267
# Poissons Ratio (z) = 0.32871 0.14483
#
# Static dielectric constant tensor:
#      x y z
#    x 4.109910 0.000000 -0.137040 
#    y 0.000000 3.852130 0.000000 
#    z -0.137040 0.000000 4.054940 
# 
# 
# High freq. dielectric constant tensor:
#      x y z
#    x 1.891650 0.000000 -0.008230 
#    y 0.000000 1.853870 0.000000 
#    z -0.008230 0.000000 1.889740 
# 
# From -- ./inp_files/123495.got.cif
#   From: 2010.06.25/outbox.cif.g09.slc.cpg/sg15_62_cif.got.tgz:123495.got - 2010.06.28 07:06:18.
