data_PCOD8138894
_publ_section_title
;
Structure prediction by ZEFSAII (Michael W. Deem and Ramdas Pophale) SiO2 
 PCOD8138894
Probable space group: C 2/C
;
_chemical_formula_sum "Si O2"
_cell_formula_units_Z 60
_cell_length_a 19.333126
_cell_length_b 19.888890
_cell_length_c 12.501884
_cell_angle_alpha 90.000000
_cell_angle_beta 37.704367
_cell_angle_gamma 90.000000
_cell_volume 2939.994934
_symmetry_space_group_name_H-M "C 2/C"
_symmetry_group_IT_number 15
_symmetry_cell_setting 'monoclinic'
loop_
_space_group_symop_operation_xyz
x,y,z
-x,y,1/2-z
-x,-y,-z
x,-y,1/2+z
1/2+x,1/2+y,z
1/2-x,1/2+y,1/2-z
1/2-x,1/2-y,-z
1/2+x,1/2-y,1/2+z
loop_
_atom_site_type_symbol
_atom_site_label
_atom_site_fract_x
_atom_site_fract_y
_atom_site_fract_z
Si Si1 0.784883 0.505499 0.890127
Si Si2 0.500000 0.020652 0.750000
Si Si3 0.909921 0.554945 0.071435
Si Si4 0.874307 0.895311 0.360570
Si Si5 0.354367 0.711279 0.244410
Si Si6 0.710767 0.177361 0.222833
Si Si7 0.224579 0.156755 0.942752
Si Si8 0.604247 0.316278 0.374858
O O1 0.792135 0.479206 0.757273
O O2 0.782998 0.585574 0.893830
O O3 0.900629 0.479267 0.809922
O O4 0.675575 0.471218 0.077037
O O5 0.572342 0.065109 0.576784
O O6 0.902104 0.629841 0.132943
O O7 0.000000 0.500000 0.000000
O O8 0.795943 0.845137 0.525148
O O9 0.879324 0.874469 0.231292
O O10 0.000000 0.895766 0.250000
O O11 0.268679 0.674002 0.268934
O O12 0.323501 0.789390 0.301279
O O13 0.351837 0.674636 0.361708
O O14 0.476522 0.708050 0.042445
O O15 0.675757 0.253501 0.243275
O O16 0.144527 0.153485 0.937908
#
# Coordination Sequence:
#
# PCOD8138894 Si02
#       8
#     8   4   8   8   8   8   8   8
#     4  10  23  40  63  92 129 165 210 266 317 386
#     4  10  20  38  62  92 124 164 206 256 328 376
#     4   9  20  36  59  90 123 158 205 255 316 378
#     4  11  23  44  64  92 129 172 219 258 324 388
#     4  10  21  40  63  91 126 167 206 264 322 382
#     4  10  21  41  62  93 127 165 213 265 316 384
#     4  10  23  41  61  97 128 160 218 262 322 384
#     4  11  23  39  67  88 128 168 219 266 313 387
#
# _framework density 20.408197999999999
#
# number of rings (size 3 to 8) (size 9 to 14) (size 15 to 20)
#    0.000    1.867    1.333    1.600    5.600    1.067 
#    0.000    1.333    5.867    0.000    0.000    0.000 
#    0.000    0.000    0.000    0.000    0.000    0.000 
#
# Total GULP energy -371662.888309 kJ/mol
# GULP energy per Si atom -12388.762944 kJ/mol
# Density = 2.036175 g / cm^3
# Si number density = 20.408198 Si / 1000 Ang^3
#
#
#
# Elastic Constant Matrix: (Units=GPa)
#
#
# Indices 1 2 3 4 5 6 
#
# 1 85.2709 36.8719 37.3088 0.0000 6.1212 0.0000
# 2 36.8719 97.4463 39.9512 0.0000 6.3264 0.0000
# 3 37.3088 39.9512 135.6400 0.0000 9.6004 -0.0001
# 4 0.0000 0.0000 0.0000 28.3682 0.0000 -0.5444
# 5 6.1212 6.3264 9.6004 0.0000 35.2263 0.0000
# 6 0.0000 0.0000 -0.0001 -0.5444 0.0000 19.8303
#
#
#
# Elastic Compliance Matrix: (Units=1/GPa)
#
#
# Indices 1 2 3 4 5 6 
#
# 1 0.014921 -0.004465 -0.002715 0.000000 -0.001051 0.000000
# 2 -0.004465 0.013056 -0.002556 0.000000 -0.000872 0.000000
# 3 -0.002715 -0.002556 0.008979 0.000000 -0.001516 0.000000
# 4 0.000000 0.000000 0.000000 0.035269 0.000000 0.000968
# 5 -0.001051 -0.000872 -0.001516 0.000000 0.029141 0.000000
# 6 0.000000 0.000000 0.000000 0.000968 0.000000 0.050454
#
#
# Mechanical properties :
#
#
# Convention : Reuss Voigt Hill
#
# Bulk Modulus (GPa) = 57.18841 60.73568 58.96204
# Shear Modulus (GPa) = 28.22956 30.29997 29.26476
#
# Velocity S-wave (km/s) = 3.72324 3.85736 3.79089
# Velocity P-wave (km/s) = 6.82396 7.04727 6.93651
#
# Compressibility (1/GPa) = 0.01748606
#
# Stress axis : x y z
#
# Youngs Moduli (GPa) = 67.01905 76.59427 111.36788
#
# Poissons Ratio (x) = 0.34197 0.30234
# Poissons Ratio (y) = 0.29922 0.28462
# Poissons Ratio (z) = 0.18194 0.19575
#
# Static dielectric constant tensor:
#      x y z
#    x 3.700390 0.000000 0.268750 
#    y 0.000000 3.597460 0.000000 
#    z 0.268750 0.000000 4.166260 
# 
# 
# High freq. dielectric constant tensor:
#      x y z
#    x 1.783500 0.000000 0.011490 
#    y 0.000000 1.787840 0.000000 
#    z 0.011490 0.000000 1.819830 
# 
# From -- ./inp_files/113808.got.cif
#   From: 2010.06.25/outbox.cif.g09.slc.cpg/sg15_57_cif.got.tgz:113808.got - 2010.06.28 07:06:18.
