data_PCOD8138634
_publ_section_title
;
Structure prediction by ZEFSAII (Michael W. Deem and Ramdas Pophale) SiO2 
 PCOD8138634
Probable space group: C 2/C
;
_chemical_formula_sum "Si O2"
_cell_formula_units_Z 64
_cell_length_a 22.443112
_cell_length_b 15.031108
_cell_length_c 9.294728
_cell_angle_alpha 90.000000
_cell_angle_beta 91.750173
_cell_angle_gamma 90.000000
_cell_volume 3134.065805
_symmetry_space_group_name_H-M "C 2/C"
_symmetry_group_IT_number 15
_symmetry_cell_setting 'monoclinic'
loop_
_space_group_symop_operation_xyz
x,y,z
-x,y,1/2-z
-x,-y,-z
x,-y,1/2+z
1/2+x,1/2+y,z
1/2-x,1/2+y,1/2-z
1/2-x,1/2-y,-z
1/2+x,1/2-y,1/2+z
loop_
_atom_site_type_symbol
_atom_site_label
_atom_site_fract_x
_atom_site_fract_y
_atom_site_fract_z
Si Si1 0.048234 0.827348 0.476713
Si Si2 0.868648 0.055877 0.702897
Si Si3 0.765131 0.773642 0.838229
Si Si4 0.766808 0.420962 0.325780
Si Si5 0.566294 0.834902 0.776270
Si Si6 0.087248 0.186228 0.563610
Si Si7 0.181485 0.574810 0.355508
Si Si8 0.113734 0.147361 0.250233
O O1 0.089940 0.905645 0.419541
O O2 0.066524 0.734524 0.407011
O O3 0.058261 0.820077 0.648767
O O4 0.980114 0.851425 0.437648
O O5 0.800691 0.050848 0.643210
O O6 0.872295 0.116285 0.846348
O O7 0.891399 0.957840 0.736043
O O8 0.766702 0.678816 0.756733
O O9 0.713817 0.841013 0.779695
O O10 0.827020 0.824820 0.829864
O O11 0.750000 0.750000 0.000000
O O12 0.796105 0.482896 0.208435
O O13 0.805588 0.426490 0.473740
O O14 0.500000 0.875292 0.750000
O O15 0.588313 0.784139 0.633904
O O16 0.610942 0.914905 0.819760
O O17 0.111760 0.195314 0.404271
#
# Coordination Sequence:
#
# PCOD8138634 Si02
#       8
#     8   8   8   8   8   8   8   8
#     4  10  20  38  59  87 125 173 208 249 321 387
#     4  11  22  37  55  85 129 168 210 252 316 381
#     4  10  21  39  60  85 123 169 203 248 317 378
#     4  11  24  39  64  89 124 163 212 262 309 380
#     4   9  20  43  67  87 119 163 207 254 317 386
#     4  10  23  36  59  90 125 164 213 264 309 369
#     4  11  22  42  64  93 118 163 206 255 323 376
#     4  12  22  34  59  91 126 160 213 264 311 369
#
# _framework density 20.420757999999999
#
# number of rings (size 3 to 8) (size 9 to 14) (size 15 to 20)
#    0.000    1.500    1.250    6.750    1.750    4.000 
#    0.000    2.500    0.000    1.500    0.000    0.000 
#    0.000    0.000    0.000    0.000    0.000    0.000 
#
# Total GULP energy -396839.401301 kJ/mol
# GULP energy per Si atom -12401.231291 kJ/mol
# Density = 2.037428 g / cm^3
# Si number density = 20.420758 Si / 1000 Ang^3
#
#
#
# Elastic Constant Matrix: (Units=GPa)
#
#
# Indices 1 2 3 4 5 6 
#
# 1 101.0090 12.3338 17.9911 0.0000 10.8091 0.0000
# 2 12.3338 71.4699 6.4341 0.0000 -2.7580 0.0000
# 3 17.9911 6.4341 98.0841 0.0000 5.1026 0.0000
# 4 0.0000 0.0000 0.0000 19.1252 0.0000 0.2350
# 5 10.8091 -2.7580 5.1026 0.0000 31.1151 0.0000
# 6 0.0000 0.0000 0.0000 0.2350 0.0000 29.9724
#
#
#
# Elastic Compliance Matrix: (Units=1/GPa)
#
#
# Indices 1 2 3 4 5 6 
#
# 1 0.010815 -0.001857 -0.001672 0.000000 -0.003647 0.000000
# 2 -0.001857 0.014455 -0.000714 0.000000 0.002043 0.000000
# 3 -0.001672 -0.000714 0.010612 0.000000 -0.001223 0.000000
# 4 0.000000 0.000000 0.000000 0.052292 0.000000 -0.000410
# 5 -0.003647 0.002043 -0.001223 0.000000 0.033787 0.000000
# 6 0.000000 0.000000 0.000000 -0.000410 0.000000 0.033367
#
#
# Mechanical properties :
#
#
# Convention : Reuss Voigt Hill
#
# Bulk Modulus (GPa) = 36.49994 38.23124 37.36559
# Shear Modulus (GPa) = 28.91049 31.62947 30.26998
#
# Velocity S-wave (km/s) = 3.76671 3.93986 3.85426
# Velocity P-wave (km/s) = 6.06879 6.28165 6.17614
#
# Compressibility (1/GPa) = 0.02739731
#
# Stress axis : x y z
#
# Youngs Moduli (GPa) = 92.46459 69.17817 94.22853
#
# Poissons Ratio (x) = 0.12843 0.15757
# Poissons Ratio (y) = 0.17167 0.06728
# Poissons Ratio (z) = 0.15462 0.04939
#
# Static dielectric constant tensor:
#      x y z
#    x 3.759860 0.000000 0.078220 
#    y 0.000000 3.838030 0.000000 
#    z 0.078220 0.000000 3.701320 
# 
# 
# High freq. dielectric constant tensor:
#      x y z
#    x 1.803370 0.000000 0.009190 
#    y 0.000000 1.781340 0.000000 
#    z 0.009190 0.000000 1.791300 
# 
# From -- ./inp_files/61944.got.cif
#   From: 2010.06.25/outbox.cif.g09.slc.cpg/sg15_31_cif.got.tgz:61944.got - 2010.06.28 07:06:18.
