data_PCOD8138089
_publ_section_title
;
Structure prediction by ZEFSAII (Michael W. Deem and Ramdas Pophale) SiO2 
 PCOD8138089
Probable space group: C 2/C
;
_chemical_formula_sum "Si O2"
_cell_formula_units_Z 48
_cell_length_a 12.547648
_cell_length_b 12.482206
_cell_length_c 16.776579
_cell_angle_alpha 90.000000
_cell_angle_beta 65.052732
_cell_angle_gamma 90.000000
_cell_volume 2382.423424
_symmetry_space_group_name_H-M "C 2/C"
_symmetry_group_IT_number 15
_symmetry_cell_setting 'monoclinic'
loop_
_space_group_symop_operation_xyz
x,y,z
-x,y,1/2-z
-x,-y,-z
x,-y,1/2+z
1/2+x,1/2+y,z
1/2-x,1/2+y,1/2-z
1/2-x,1/2-y,-z
1/2+x,1/2-y,1/2+z
loop_
_atom_site_type_symbol
_atom_site_label
_atom_site_fract_x
_atom_site_fract_y
_atom_site_fract_z
Si Si1 0.887388 0.691929 0.619299
Si Si2 0.728662 0.638159 0.811077
Si Si3 0.356066 0.921112 0.964745
Si Si4 0.277422 0.590569 0.148394
Si Si5 0.658212 0.162124 0.559824
Si Si6 0.432316 0.824558 0.694134
O O1 0.808463 0.628526 0.707591
O O2 0.842090 0.645722 0.549673
O O3 0.868432 0.817631 0.639090
O O4 0.024937 0.691253 0.587042
O O5 0.664577 0.525204 0.852277
O O6 0.820835 0.657619 0.852764
O O7 0.626115 0.726905 0.836870
O O8 0.258912 0.886265 0.931500
O O9 0.486174 0.896261 0.888942
O O10 0.331608 0.047130 0.987614
O O11 0.165311 0.594830 0.242181
O O12 0.750000 0.250000 0.500000
O O13 0.500000 0.775591 0.750000
#
# Coordination Sequence:
#
# PCOD8138089 Si02
#       6
#     8   8   8   8   8   8
#     4  11  21  36  59  84 110 148 191 229 275 336
#     4  10  21  38  56  83 116 146 180 231 285 331
#     4  10  20  37  59  81 108 148 190 228 272 334
#     4   9  20  37  57  82 112 144 184 235 280 323
#     4  11  23  38  56  83 115 148 184 230 282 334
#     4   9  18  36  60  81 107 148 193 227 271 338
#
# _framework density 20.147552000000001
#
# number of rings (size 3 to 8) (size 9 to 14) (size 15 to 20)
#    0.000    2.000    0.000    3.500    0.000    5.333 
#    0.000   15.833    0.000    0.000    0.000    0.000 
#    0.000    0.000    0.000    0.000    0.000    0.000 
#
# Total GULP energy -297414.600280 kJ/mol
# GULP energy per Si atom -12392.275012 kJ/mol
# Density = 2.010170 g / cm^3
# Si number density = 20.147552 Si / 1000 Ang^3
#
#
#
# Elastic Constant Matrix: (Units=GPa)
#
#
# Indices 1 2 3 4 5 6 
#
# 1 45.2304 35.8059 0.5368 0.0000 7.0335 0.0000
# 2 35.8059 120.9758 40.7859 0.0000 9.1079 0.0000
# 3 0.5368 40.7859 90.0030 0.0000 12.1461 0.0000
# 4 0.0000 0.0000 0.0000 23.7364 0.0000 4.0134
# 5 7.0335 9.1079 12.1461 0.0000 24.8327 0.0000
# 6 0.0000 0.0000 0.0000 4.0134 0.0000 31.0332
#
#
#
# Elastic Compliance Matrix: (Units=1/GPa)
#
#
# Indices 1 2 3 4 5 6 
#
# 1 0.031772 -0.010748 0.005742 0.000000 -0.007866 0.000000
# 2 -0.010748 0.013446 -0.006182 0.000000 0.001137 0.000000
# 3 0.005742 -0.006182 0.014766 0.000000 -0.006581 0.000000
# 4 0.000000 0.000000 0.000000 0.043071 0.000000 -0.005570
# 5 -0.007866 0.001137 -0.006581 0.000000 0.045300 0.000000
# 6 0.000000 0.000000 0.000000 -0.005570 0.000000 0.032944
#
#
# Mechanical properties :
#
#
# Convention : Reuss Voigt Hill
#
# Bulk Modulus (GPa) = 26.58924 45.60738 36.09831
# Shear Modulus (GPa) = 23.12556 27.85916 25.49236
#
# Velocity S-wave (km/s) = 3.39161 3.72258 3.56094
# Velocity P-wave (km/s) = 5.34446 6.41581 5.90448
#
# Compressibility (1/GPa) = 0.03760919
#
# Stress axis : x y z
#
# Youngs Moduli (GPa) = 31.47402 74.37181 67.72166
#
# Poissons Ratio (x) = 0.79932 -0.38889
# Poissons Ratio (y) = 0.33827 0.41869
# Poissons Ratio (z) = -0.18074 0.45980
#
# Static dielectric constant tensor:
#      x y z
#    x 3.662290 0.000000 0.177220 
#    y 0.000000 3.416670 0.000000 
#    z 0.177220 0.000000 3.680440 
# 
# 
# High freq. dielectric constant tensor:
#      x y z
#    x 1.780940 0.000000 0.015260 
#    y 0.000000 1.795430 0.000000 
#    z 0.015260 0.000000 1.786660 
# 
# From -- ./inp_files/152744.got.cif
#   From: 2010.06.25/outbox.cif.g09.slc.cpg/sg15_77_cif.got.tgz:152744.got - 2010.06.28 07:06:18.
