data_PCOD8138233
_publ_section_title
;
Structure prediction by ZEFSAII (Michael W. Deem and Ramdas Pophale) SiO2 
 PCOD8138233
Probable space group: C 2/C
;
_chemical_formula_sum "Si O2"
_cell_formula_units_Z 56
_cell_length_a 18.085464
_cell_length_b 7.179555
_cell_length_c 33.299248
_cell_angle_alpha 90.000000
_cell_angle_beta 138.798308
_cell_angle_gamma 90.000000
_cell_volume 2848.111399
_symmetry_space_group_name_H-M "C 2/C"
_symmetry_group_IT_number 15
_symmetry_cell_setting 'monoclinic'
loop_
_space_group_symop_operation_xyz
x,y,z
-x,y,1/2-z
-x,-y,-z
x,-y,1/2+z
1/2+x,1/2+y,z
1/2-x,1/2+y,1/2-z
1/2-x,1/2-y,-z
1/2+x,1/2-y,1/2+z
loop_
_atom_site_type_symbol
_atom_site_label
_atom_site_fract_x
_atom_site_fract_y
_atom_site_fract_z
Si Si1 0.915046 0.916764 0.126695
Si Si2 0.695911 0.150090 0.172793
Si Si3 0.975639 0.353215 0.388005
Si Si4 0.836855 0.110521 0.016947
Si Si5 0.379984 0.311120 0.681147
Si Si6 0.850111 0.017623 0.303043
Si Si7 0.858707 0.498207 0.113154
O O1 0.887229 0.712299 0.130351
O O2 0.048604 0.944896 0.183315
O O3 0.871939 0.953168 0.063750
O O4 0.856792 0.059147 0.133317
O O5 0.782514 0.139147 0.172130
O O6 0.672755 0.366834 0.171554
O O7 0.580311 0.037498 0.115071
O O8 0.741356 0.048105 0.231208
O O9 0.053775 0.234551 0.451146
O O10 0.054610 0.404575 0.382558
O O11 0.876838 0.216401 0.333617
O O12 0.750000 0.250000 0.000000
O O13 0.772983 0.013915 0.953719
O O14 0.500000 0.349145 0.750000
O O15 0.372758 0.098915 0.662297
#
# Coordination Sequence:
#
# PCOD8138233 Si02
#       7
#     8   8   8   8   8   8   8
#     4  11  21  39  66  94 120 161 214 253 308 360
#     4  12  23  37  62  86 125 161 203 252 313 362
#     4  10  20  37  61  90 117 158 209 255 292 366
#     4   9  18  38  67  92 118 159 221 257 290 367
#     4  12  25  40  57  95 134 157 197 264 312 370
#     4  11  21  37  61  86 115 163 209 244 297 376
#     4  11  21  40  66  92 121 167 209 256 306 361
#
# _framework density 19.662151000000001
#
# number of rings (size 3 to 8) (size 9 to 14) (size 15 to 20)
#    0.000    1.143    8.571    0.429    0.000    1.714 
#    0.000    0.714    0.000    4.286    0.000    0.000 
#    0.000    0.000    0.000    0.000    0.000    0.000 
#
# Total GULP energy -347111.786360 kJ/mol
# GULP energy per Si atom -12396.849513 kJ/mol
# Density = 1.961740 g / cm^3
# Si number density = 19.662151 Si / 1000 Ang^3
#
#
#
# Elastic Constant Matrix: (Units=GPa)
#
#
# Indices 1 2 3 4 5 6 
#
# 1 87.4709 15.9863 19.9798 -0.0001 7.4695 0.0012
# 2 15.9863 102.7809 22.4672 -0.0002 4.0812 0.0020
# 3 19.9798 22.4672 60.1107 0.0000 8.5340 0.0006
# 4 -0.0001 -0.0002 0.0000 25.8635 -0.0001 3.1169
# 5 7.4695 4.0812 8.5340 -0.0001 20.4348 0.0001
# 6 0.0012 0.0020 0.0006 3.1169 0.0001 30.4542
#
#
#
# Elastic Compliance Matrix: (Units=1/GPa)
#
#
# Indices 1 2 3 4 5 6 
#
# 1 0.012661 -0.001114 -0.003366 0.000000 -0.003000 0.000000
# 2 -0.001114 0.010698 -0.003596 0.000000 -0.000228 -0.000001
# 3 -0.003366 -0.003596 0.020008 0.000000 -0.006407 0.000000
# 4 0.000000 0.000000 0.000000 0.039147 0.000000 -0.004007
# 5 -0.003000 -0.000228 -0.006407 0.000000 0.052754 0.000000
# 6 0.000000 -0.000001 0.000000 -0.004007 0.000000 0.033246
#
#
# Mechanical properties :
#
#
# Convention : Reuss Voigt Hill
#
# Bulk Modulus (GPa) = 36.74430 40.80324 38.77377
# Shear Modulus (GPa) = 25.80798 28.14577 26.97687
#
# Velocity S-wave (km/s) = 3.62687 3.78758 3.70810
# Velocity P-wave (km/s) = 6.02224 6.31862 6.17221
#
# Compressibility (1/GPa) = 0.02721510
#
# Stress axis : x y z
#
# Youngs Moduli (GPa) = 78.98252 93.47708 49.97903
#
# Poissons Ratio (x) = 0.10417 0.16823
# Poissons Ratio (y) = 0.08802 0.17971
# Poissons Ratio (z) = 0.26585 0.33612
#
# Static dielectric constant tensor:
#      x y z
#    x 3.320210 -0.000010 0.273980 
#    y -0.000010 2.377720 0.000050 
#    z 0.273980 0.000050 3.984060 
# 
# 
# High freq. dielectric constant tensor:
#      x y z
#    x 1.735390 0.000000 0.027040 
#    y 0.000000 1.780620 0.000000 
#    z 0.027040 0.000000 1.760230 
# 
# From -- ./inp_files/315538.got.cif
#   From: 2010.06.25/outbox.cif.g09.slc.cpg/sg15_158_cif.got.tgz:315538.got - 2010.06.28 07:06:18.
