data_PCOD8138226
_publ_section_title
;
Structure prediction by ZEFSAII (Michael W. Deem and Ramdas Pophale) SiO2 
 PCOD8138226
Probable space group: C 2/C
;
_chemical_formula_sum "Si O2"
_cell_formula_units_Z 40
_cell_length_a 17.260213
_cell_length_b 14.395307
_cell_length_c 10.244347
_cell_angle_alpha 90.000000
_cell_angle_beta 53.592510
_cell_angle_gamma 90.000000
_cell_volume 2048.557134
_symmetry_space_group_name_H-M "C 2/C"
_symmetry_group_IT_number 15
_symmetry_cell_setting 'monoclinic'
loop_
_space_group_symop_operation_xyz
x,y,z
-x,y,1/2-z
-x,-y,-z
x,-y,1/2+z
1/2+x,1/2+y,z
1/2-x,1/2+y,1/2-z
1/2-x,1/2-y,-z
1/2+x,1/2-y,1/2+z
loop_
_atom_site_type_symbol
_atom_site_label
_atom_site_fract_x
_atom_site_fract_y
_atom_site_fract_z
Si Si1 0.337793 0.000000 0.162208
Si Si2 0.295463 0.658447 0.605499
Si Si3 0.500000 0.122000 0.105580
Si Si4 0.500000 0.710023 0.405112
Si Si5 0.795463 0.841552 0.803575
O O1 0.405019 0.057590 0.193365
O O2 0.266675 0.067598 0.156662
O O3 0.266674 0.932404 0.309992
O O4 0.405016 0.942409 0.996600
O O5 0.406809 0.649445 0.540470
O O6 0.250000 0.749999 0.720827
O O7 0.298408 0.679074 0.451592
O O8 0.500000 0.169008 0.250000
O O9 0.500000 0.194069 0.986397
O O10 0.500000 0.735770 0.250000
O O11 0.593191 0.649446 0.354089
#
# Coordination Sequence:
#
# PCOD8138226 Si02
#       5
#     8   8   8   8   8
#     4  11  22  37  60  88 120 159 196 247 296 358
#     4  10  20  37  61  88 117 157 203 243 291 357
#     4  11  23  37  59  92 122 150 196 255 303 344
#     4  10  21  40  65  87 116 160 204 242 288 359
#     4  10  20  37  61  88 117 157 203 243 291 357
#
# _framework density 19.525936999999999
#
# number of rings (size 3 to 8) (size 9 to 14) (size 15 to 20)
#    0.000    1.600    4.000    1.200    0.000    4.000 
#    0.000    6.000    0.000    0.000    0.000    0.000 
#    0.000    0.000    0.000    0.000    0.000    0.000 
#
# Total GULP energy -247810.000321 kJ/mol
# GULP energy per Si atom -12390.500016 kJ/mol
# Density = 1.948150 g / cm^3
# Si number density = 19.525937 Si / 1000 Ang^3
#
#
#
# Elastic Constant Matrix: (Units=GPa)
#
#
# Indices 1 2 3 4 5 6 
#
# 1 97.4093 35.8386 63.5293 0.0000 -41.6989 0.0000
# 2 35.8386 73.3256 27.8556 0.0000 -27.1609 0.0000
# 3 63.5293 27.8556 76.2590 0.0000 -30.2624 0.0000
# 4 0.0000 0.0000 0.0000 23.3250 0.0000 1.6410
# 5 -41.6989 -27.1609 -30.2624 0.0000 49.7195 0.0000
# 6 0.0000 0.0000 0.0000 1.6410 0.0000 22.8430
#
#
#
# Elastic Compliance Matrix: (Units=1/GPa)
#
#
# Indices 1 2 3 4 5 6 
#
# 1 0.027233 -0.002706 -0.017432 0.000000 0.010751 0.000000
# 2 -0.002706 0.018040 -0.001747 0.000000 0.006522 0.000000
# 3 -0.017432 -0.001747 0.029129 0.000000 0.002155 0.000000
# 4 0.000000 0.000000 0.000000 0.043090 0.000000 -0.003096
# 5 0.010751 0.006522 0.002155 0.000000 0.034005 0.000000
# 6 0.000000 0.000000 0.000000 -0.003096 0.000000 0.043999
#
#
# Mechanical properties :
#
#
# Convention : Reuss Voigt Hill
#
# Bulk Modulus (GPa) = 32.64597 55.71565 44.18081
# Shear Modulus (GPa) = 20.04196 27.16221 23.60209
#
# Velocity S-wave (km/s) = 3.20727 3.73377 3.48049
# Velocity P-wave (km/s) = 5.52005 6.86907 6.23118
#
# Compressibility (1/GPa) = 0.03063166
#
# Stress axis : x y z
#
# Youngs Moduli (GPa) = 36.72030 55.43272 34.33013
#
# Poissons Ratio (x) = 0.14998 0.59845
# Poissons Ratio (y) = 0.09935 0.05999
# Poissons Ratio (z) = 0.64011 0.09686
#
# Static dielectric constant tensor:
#      x y z
#    x 3.777480 0.000000 -0.513250 
#    y 0.000000 3.482570 0.000000 
#    z -0.513250 0.000000 3.626610 
# 
# 
# High freq. dielectric constant tensor:
#      x y z
#    x 1.763640 0.000000 -0.033040 
#    y 0.000000 1.743620 0.000000 
#    z -0.033040 0.000000 1.753920 
# 
# From -- ./inp_files/104729.got.cif
#   From: 2010.06.25/outbox.cif.g09.slc.cpg/sg15_53_cif.got.tgz:104729.got - 2010.06.28 07:06:18.
