data_PCOD8138043
_publ_section_title
;
Structure prediction by ZEFSAII (Michael W. Deem and Ramdas Pophale) SiO2 
 PCOD8138043
Probable space group: C 2/C
;
_chemical_formula_sum "Si O2"
_cell_formula_units_Z 48
_cell_length_a 11.081507
_cell_length_b 15.561199
_cell_length_c 13.804311
_cell_angle_alpha 90.000000
_cell_angle_beta 91.359590
_cell_angle_gamma 90.000000
_cell_volume 2379.766430
_symmetry_space_group_name_H-M "C 2/C"
_symmetry_group_IT_number 15
_symmetry_cell_setting 'monoclinic'
loop_
_space_group_symop_operation_xyz
x,y,z
-x,y,1/2-z
-x,-y,-z
x,-y,1/2+z
1/2+x,1/2+y,z
1/2-x,1/2+y,1/2-z
1/2-x,1/2-y,-z
1/2+x,1/2-y,1/2+z
loop_
_atom_site_type_symbol
_atom_site_label
_atom_site_fract_x
_atom_site_fract_y
_atom_site_fract_z
Si Si1 0.680668 0.000966 0.573127
Si Si2 0.181836 0.624814 0.741529
Si Si3 0.646503 0.657835 0.418470
Si Si4 0.000000 0.332754 0.750000
Si Si5 0.088045 0.474941 0.869182
Si Si6 0.851885 0.211394 0.876215
Si Si7 0.500000 0.726932 0.250000
O O1 0.781429 0.930008 0.595539
O O2 0.548701 0.964357 0.595475
O O3 0.711768 0.082879 0.638904
O O4 0.681750 0.028224 0.459915
O O5 0.102626 0.563021 0.809794
O O6 0.311080 0.642263 0.794582
O O7 0.111120 0.712996 0.719474
O O8 0.730494 0.739721 0.403328
O O9 0.595211 0.663829 0.527531
O O10 0.536395 0.664850 0.340193
O O11 0.893369 0.393673 0.702963
O O12 0.951534 0.274829 0.835970
#
# Coordination Sequence:
#
# PCOD8138043 Si02
#       7
#     8   8   8   4   8   8   4
#     4  11  20  33  60  88 118 149 192 243 296 343
#     4  11  19  37  56  91 117 151 194 246 287 344
#     4  10  20  37  57  90 116 161 193 240 294 357
#     4  12  21  38  57  90 122 156 188 244 301 346
#     4  11  20  32  58  93 116 148 190 247 292 348
#     4  10  22  35  60  84 125 153 193 241 301 347
#     4  10  21  32  59  86 122 152 200 236 287 354
#
# _framework density 20.170045999999999
#
# number of rings (size 3 to 8) (size 9 to 14) (size 15 to 20)
#    0.000    1.333    6.667    0.000    2.333    0.000 
#    0.000    1.667    3.667    2.000    0.000    0.000 
#    0.000    0.000    0.000    0.000    0.000    0.000 
#
# Total GULP energy -297570.497608 kJ/mol
# GULP energy per Si atom -12398.770734 kJ/mol
# Density = 2.012414 g / cm^3
# Si number density = 20.170046 Si / 1000 Ang^3
#
#
#
# Elastic Constant Matrix: (Units=GPa)
#
#
# Indices 1 2 3 4 5 6 
#
# 1 47.5782 41.1309 43.1719 0.0000 23.4114 0.0000
# 2 41.1309 90.3885 55.8194 0.0000 20.7519 0.0000
# 3 43.1719 55.8194 152.6537 0.0000 47.5607 0.0000
# 4 0.0000 0.0000 0.0000 26.8599 0.0000 1.1439
# 5 23.4114 20.7519 47.5607 0.0000 35.3102 0.0000
# 6 0.0000 0.0000 0.0000 1.1439 0.0000 29.2857
#
#
#
# Elastic Compliance Matrix: (Units=1/GPa)
#
#
# Indices 1 2 3 4 5 6 
#
# 1 0.044585 -0.015227 -0.001067 0.000000 -0.019174 0.000000
# 2 -0.015227 0.019604 -0.004166 0.000000 0.004186 0.000000
# 3 -0.001067 -0.004166 0.012738 0.000000 -0.014002 0.000000
# 4 0.000000 0.000000 0.000000 0.037292 0.000000 -0.001457
# 5 -0.019174 0.004186 -0.014002 0.000000 0.057433 0.000000
# 6 0.000000 0.000000 0.000000 -0.001457 0.000000 0.034203
#
#
# Mechanical properties :
#
#
# Convention : Reuss Voigt Hill
#
# Bulk Modulus (GPa) = 27.77289 63.42942 45.60115
# Shear Modulus (GPa) = 19.32153 28.32438 23.82295
#
# Velocity S-wave (km/s) = 3.09841 3.75144 3.44045
# Velocity P-wave (km/s) = 5.15746 7.09084 6.19998
#
# Compressibility (1/GPa) = 0.03600634
#
# Stress axis : x y z
#
# Youngs Moduli (GPa) = 22.42915 51.00951 78.50251
#
# Poissons Ratio (x) = 0.77672 0.08378
# Poissons Ratio (y) = 0.34153 0.32707
# Poissons Ratio (z) = 0.02394 0.21253
#
# Static dielectric constant tensor:
#      x y z
#    x 3.218820 0.000000 0.302520 
#    y 0.000000 3.533500 0.000000 
#    z 0.302520 0.000000 4.166410 
# 
# 
# High freq. dielectric constant tensor:
#      x y z
#    x 1.735710 0.000000 0.019590 
#    y 0.000000 1.775120 0.000000 
#    z 0.019590 0.000000 1.809720 
# 
# From -- ./inp_files/143599.got.cif
#   From: 2010.06.25/outbox.cif.g09.slc.cpg/sg15_72_cif.got.tgz:143599.got - 2010.06.28 07:06:18.
