data_PCOD8138796
_publ_section_title
;
Structure prediction by ZEFSAII (Michael W. Deem and Ramdas Pophale) SiO2 
 PCOD8138796
Probable space group: C 2/C
;
_chemical_formula_sum "Si O2"
_cell_formula_units_Z 56
_cell_length_a 12.772531
_cell_length_b 16.066575
_cell_length_c 13.103514
_cell_angle_alpha 90.000000
_cell_angle_beta 92.952983
_cell_angle_gamma 90.000000
_cell_volume 2685.412370
_symmetry_space_group_name_H-M "C 2/C"
_symmetry_group_IT_number 15
_symmetry_cell_setting 'monoclinic'
loop_
_space_group_symop_operation_xyz
x,y,z
-x,y,1/2-z
-x,-y,-z
x,-y,1/2+z
1/2+x,1/2+y,z
1/2-x,1/2+y,1/2-z
1/2-x,1/2-y,-z
1/2+x,1/2-y,1/2+z
loop_
_atom_site_type_symbol
_atom_site_label
_atom_site_fract_x
_atom_site_fract_y
_atom_site_fract_z
Si Si1 0.923055 0.134510 0.613042
Si Si2 0.633284 0.122932 0.857946
Si Si3 0.173159 0.701031 0.421390
Si Si4 0.000000 0.762992 0.750000
Si Si5 0.014272 0.590419 0.043464
Si Si6 0.858577 0.928284 0.313579
Si Si7 0.632617 0.615909 0.121916
Si Si8 0.500000 0.018690 0.250000
O O1 0.898651 0.231051 0.638784
O O2 0.857703 0.080108 0.690991
O O3 0.886410 0.107705 0.499581
O O4 0.046497 0.122123 0.631158
O O5 0.592981 0.205126 0.797995
O O6 0.757551 0.113903 0.858858
O O7 0.589577 0.039277 0.802382
O O8 0.602114 0.132855 0.976032
O O9 0.250000 0.750000 0.500000
O O10 0.248956 0.648985 0.349859
O O11 0.095302 0.639185 0.477273
O O12 0.047120 0.821456 0.664279
O O13 0.045909 0.580798 0.164584
O O14 0.000000 0.500000 0.000000
O O15 0.875210 0.025445 0.331628
#
# Coordination Sequence:
#
# PCOD8138796 Si02
#       8
#     8   8   8   4   8   8   8   4
#     4  10  23  41  60  87 125 163 201 247 302 372
#     4  10  21  38  61  90 122 155 196 255 305 347
#     4  10  21  40  65  87 117 166 205 239 303 375
#     4  11  22  40  64  93 118 150 204 255 298 352
#     4  10  20  38  61  92 124 154 201 257 299 354
#     4  11  23  40  62  89 122 162 201 247 306 361
#     4  11  22  40  65  89 116 160 209 249 296 364
#     4   9  20  34  58  91 124 158 198 243 302 366
#
# _framework density 20.853408000000002
#
# number of rings (size 3 to 8) (size 9 to 14) (size 15 to 20)
#    0.000    1.714    0.000    5.571    0.000    8.000 
#    0.000    5.714    0.000    0.000    0.000    0.000 
#    0.000    0.000    0.000    0.000    0.000    0.000 
#
# Total GULP energy -347085.327278 kJ/mol
# GULP energy per Si atom -12395.904546 kJ/mol
# Density = 2.080595 g / cm^3
# Si number density = 20.853408 Si / 1000 Ang^3
#
#
#
# Elastic Constant Matrix: (Units=GPa)
#
#
# Indices 1 2 3 4 5 6 
#
# 1 148.8004 67.7651 46.0679 0.0000 -23.0729 0.0000
# 2 67.7651 134.5565 54.4795 0.0000 3.5805 0.0000
# 3 46.0679 54.4795 143.7990 0.0000 -19.6099 0.0000
# 4 0.0000 0.0000 0.0000 16.5338 0.0000 -5.5944
# 5 -23.0729 3.5805 -19.6099 0.0000 25.6099 0.0000
# 6 0.0000 0.0000 0.0000 -5.5944 0.0000 39.0171
#
#
#
# Elastic Compliance Matrix: (Units=1/GPa)
#
#
# Indices 1 2 3 4 5 6 
#
# 1 0.011064 -0.005945 0.000202 0.000000 0.010953 0.000000
# 2 -0.005945 0.012400 -0.004198 0.000000 -0.010305 0.000000
# 3 0.000202 -0.004198 0.009586 0.000000 0.008109 0.000000
# 4 0.000000 0.000000 0.000000 0.063566 0.000000 0.009114
# 5 0.010953 -0.010305 0.008109 0.000000 0.056565 0.000000
# 6 0.000000 0.000000 0.000000 0.009114 0.000000 0.026937
#
#
# Mechanical properties :
#
#
# Convention : Reuss Voigt Hill
#
# Bulk Modulus (GPa) = 75.95373 84.86453 80.40913
# Shear Modulus (GPa) = 24.46298 33.48838 28.97568
#
# Velocity S-wave (km/s) = 3.42876 4.01171 3.73164
# Velocity P-wave (km/s) = 7.22336 7.88939 7.56371
#
# Compressibility (1/GPa) = 0.01316591
#
# Stress axis : x y z
#
# Youngs Moduli (GPa) = 90.38451 80.64551 104.31886
#
# Poissons Ratio (x) = 0.47944 -0.02103
# Poissons Ratio (y) = 0.53734 0.43798
# Poissons Ratio (z) = -0.01822 0.33859
#
# Static dielectric constant tensor:
#      x y z
#    x 3.845520 0.000000 -0.339860 
#    y 0.000000 4.080880 0.000000 
#    z -0.339860 0.000000 4.306030 
# 
# 
# High freq. dielectric constant tensor:
#      x y z
#    x 1.814060 0.000000 -0.017280 
#    y 0.000000 1.828150 0.000000 
#    z -0.017280 0.000000 1.812170 
# 
# From -- ./inp_files/144286.got.cif
#   From: 2010.06.25/outbox.cif.g09.slc.cpg/sg15_73_cif.got.tgz:144286.got - 2010.06.28 07:06:18.
