data_PCOD8138265
_publ_section_title
;
Structure prediction by ZEFSAII (Michael W. Deem and Ramdas Pophale) SiO2 
 PCOD8138265
Probable space group: C 2/C
;
_chemical_formula_sum "Si O2"
_cell_formula_units_Z 40
_cell_length_a 22.045100
_cell_length_b 9.500708
_cell_length_c 15.952977
_cell_angle_alpha 90.000000
_cell_angle_beta 36.429933
_cell_angle_gamma 90.000000
_cell_volume 1984.169285
_symmetry_space_group_name_H-M "C 2/C"
_symmetry_group_IT_number 15
_symmetry_cell_setting 'monoclinic'
loop_
_space_group_symop_operation_xyz
x,y,z
-x,y,1/2-z
-x,-y,-z
x,-y,1/2+z
1/2+x,1/2+y,z
1/2-x,1/2+y,1/2-z
1/2-x,1/2-y,-z
1/2+x,1/2-y,1/2+z
loop_
_atom_site_type_symbol
_atom_site_label
_atom_site_fract_x
_atom_site_fract_y
_atom_site_fract_z
Si Si1 0.175235 0.389296 0.946930
Si Si2 0.000000 0.432484 0.250000
Si Si3 0.544202 0.858810 0.574902
Si Si4 0.563783 0.296167 0.447963
Si Si5 0.500000 0.628053 0.750000
Si Si6 0.102437 0.965023 0.775437
O O1 0.156580 0.283462 0.890520
O O2 0.292025 0.378928 0.845393
O O3 0.099088 0.343609 0.109256
O O4 0.149545 0.551844 0.948562
O O5 0.965302 0.535887 0.211312
O O6 0.500213 0.817560 0.533969
O O7 0.561846 0.719526 0.612207
O O8 0.488691 0.358579 0.601811
O O9 0.611400 0.416583 0.337244
O O10 0.582741 0.532892 0.706513
#
# Coordination Sequence:
#
# PCOD8138265 Si02
#       6
#     8   4   8   8   4   8
#     4  10  20  37  62  86 111 155 200 233 295 345
#     4   7  18  33  52  88 111 144 197 222 284 333
#     4   8  17  37  60  81 117 155 185 242 283 340
#     4  10  21  39  57  89 125 142 196 251 281 352
#     4   9  18  41  56  82 127 150 193 246 270 359
#     4  10  23  38  61  88 115 161 189 238 307 331
#
# _framework density 20.159571
#
# number of rings (size 3 to 8) (size 9 to 14) (size 15 to 20)
#    1.200    1.600    0.000    0.600    2.800    1.600 
#    0.000    4.000    0.000    0.000    0.000    0.000 
#    0.000    0.000    0.000    0.000    0.000    0.000 
#
# Total GULP energy -247771.242670 kJ/mol
# GULP energy per Si atom -12388.562133 kJ/mol
# Density = 2.011369 g / cm^3
# Si number density = 20.159571 Si / 1000 Ang^3
#
#
#
# Elastic Constant Matrix: (Units=GPa)
#
#
# Indices 1 2 3 4 5 6 
#
# 1 114.0165 46.7497 39.7387 0.0001 -6.2090 0.0000
# 2 46.7497 60.6857 17.6601 -0.0001 -2.1489 0.0000
# 3 39.7387 17.6601 73.9861 0.0000 -7.4250 0.0000
# 4 0.0001 -0.0001 0.0000 10.7206 0.0000 4.5787
# 5 -6.2090 -2.1489 -7.4250 0.0000 27.2837 0.0000
# 6 0.0000 0.0000 0.0000 4.5787 0.0000 35.6583
#
#
#
# Elastic Compliance Matrix: (Units=1/GPa)
#
#
# Indices 1 2 3 4 5 6 
#
# 1 0.014720 -0.009706 -0.005480 0.000000 0.001094 0.000000
# 2 -0.009706 0.024110 -0.000589 0.000000 -0.000470 0.000000
# 3 -0.005480 -0.000589 0.016932 0.000000 0.003315 0.000000
# 4 0.000000 0.000000 0.000000 0.098690 0.000000 -0.012672
# 5 0.001094 -0.000470 0.003315 0.000000 0.037766 0.000000
# 6 0.000000 0.000000 0.000000 -0.012672 0.000000 0.029671
#
#
# Mechanical properties :
#
#
# Convention : Reuss Voigt Hill
#
# Bulk Modulus (GPa) = 41.29967 50.77612 46.03790
# Shear Modulus (GPa) = 19.11970 24.36851 21.74411
#
# Velocity S-wave (km/s) = 3.08298 3.48052 3.28777
# Velocity P-wave (km/s) = 5.76228 6.43381 6.10728
#
# Compressibility (1/GPa) = 0.02421327
#
# Stress axis : x y z
#
# Youngs Moduli (GPa) = 67.93551 41.47602 59.05840
#
# Poissons Ratio (x) = 0.40257 0.32361
# Poissons Ratio (y) = 0.65940 0.03478
# Poissons Ratio (z) = 0.37226 0.02442
#
# Static dielectric constant tensor:
#      x y z
#    x 3.395800 0.000000 0.246430 
#    y 0.000000 3.611790 0.000000 
#    z 0.246430 0.000000 3.386280 
# 
# 
# High freq. dielectric constant tensor:
#      x y z
#    x 1.770000 0.000000 0.023780 
#    y 0.000000 1.786570 0.000000 
#    z 0.023780 0.000000 1.763110 
# 
# From -- ./inp_files/166863.got.cif
#   From: 2010.06.25/outbox.cif.g09.slc.cpg/sg15_84_cif.got.tgz:166863.got - 2010.06.28 07:06:18.
