data_PCOD8138553
_publ_section_title
;
Structure prediction by ZEFSAII (Michael W. Deem and Ramdas Pophale) SiO2 
 PCOD8138553
Probable space group: C 2/C
;
_chemical_formula_sum "Si O2"
_cell_formula_units_Z 60
_cell_length_a 21.506138
_cell_length_b 11.891584
_cell_length_c 25.258056
_cell_angle_alpha 90.000000
_cell_angle_beta 152.758030
_cell_angle_gamma 90.000000
_cell_volume 2956.853183
_symmetry_space_group_name_H-M "C 2/C"
_symmetry_group_IT_number 15
_symmetry_cell_setting 'monoclinic'
loop_
_space_group_symop_operation_xyz
x,y,z
-x,y,1/2-z
-x,-y,-z
x,-y,1/2+z
1/2+x,1/2+y,z
1/2-x,1/2+y,1/2-z
1/2-x,1/2-y,-z
1/2+x,1/2-y,1/2+z
loop_
_atom_site_type_symbol
_atom_site_label
_atom_site_fract_x
_atom_site_fract_y
_atom_site_fract_z
Si Si1 0.669648 0.245725 0.693023
Si Si2 0.256149 0.343911 0.961178
Si Si3 0.541256 0.606757 0.674242
Si Si4 0.668043 0.936588 0.283997
Si Si5 0.000000 0.498282 0.750000
Si Si6 0.801282 0.328080 0.405107
Si Si7 0.974680 0.944112 0.536516
Si Si8 0.582150 0.848595 0.657068
O O1 0.654392 0.158795 0.729425
O O2 0.687632 0.189309 0.649456
O O3 0.534268 0.319772 0.587894
O O4 0.808524 0.318470 0.806577
O O5 0.122458 0.419141 0.862325
O O6 0.280403 0.289360 0.921122
O O7 0.250000 0.250000 0.000000
O O8 0.388279 0.417817 0.078744
O O9 0.666557 0.591857 0.811014
O O10 0.561617 0.523315 0.640906
O O11 0.547471 0.738689 0.664657
O O12 0.813063 0.936112 0.423855
O O13 0.552311 0.922304 0.241660
O O14 0.650013 0.058379 0.244944
O O15 0.938536 0.393164 0.525382
O O16 0.000000 0.000000 0.500000
#
# Coordination Sequence:
#
# PCOD8138553 Si02
#       8
#     8   8   8   8   4   8   8   8
#     4  11  23  39  65  96 127 176 218 271 341 388
#     4  11  20  36  63  92 130 175 215 271 333 397
#     4  10  21  35  60  93 127 170 206 265 334 384
#     4  12  25  43  66  98 130 179 223 273 333 406
#     4  12  22  40  64  92 134 178 226 266 320 400
#     4  10  20  38  56  98 133 157 209 274 334 389
#     4  12  21  42  67  93 130 169 222 271 336 397
#     4  10  21  37  62  98 133 162 213 274 337 389
#
# _framework density 20.291843
#
# number of rings (size 3 to 8) (size 9 to 14) (size 15 to 20)
#    0.000    1.067    2.667    8.000    1.867    0.533 
#    2.400    0.667    0.000    0.000    0.000    0.000 
#    0.000    0.000    0.000    0.000    0.000    0.000 
#
# Total GULP energy -371671.005786 kJ/mol
# GULP energy per Si atom -12389.033526 kJ/mol
# Density = 2.024566 g / cm^3
# Si number density = 20.291843 Si / 1000 Ang^3
#
#
#
# Elastic Constant Matrix: (Units=GPa)
#
#
# Indices 1 2 3 4 5 6 
#
# 1 114.0263 28.7279 37.1626 0.0018 11.1499 -0.0003
# 2 28.7279 58.8976 28.3619 0.0165 0.3990 0.0071
# 3 37.1626 28.3619 159.2587 0.0130 30.6055 0.0061
# 4 0.0018 0.0165 0.0130 28.5901 0.0019 -2.8314
# 5 11.1499 0.3990 30.6055 0.0019 36.8013 0.0001
# 6 -0.0003 0.0071 0.0061 -2.8314 0.0001 33.7015
#
#
#
# Elastic Compliance Matrix: (Units=1/GPa)
#
#
# Indices 1 2 3 4 5 6 
#
# 1 0.010520 -0.004517 -0.001247 0.000003 -0.002102 0.000002
# 2 -0.004517 0.020799 -0.003416 -0.000011 0.003984 -0.000005
# 3 -0.001247 -0.003416 0.008449 -0.000001 -0.006612 -0.000001
# 4 0.000003 -0.000011 -0.000001 0.035271 -0.000001 0.002963
# 5 -0.002102 0.003984 -0.006612 -0.000001 0.033265 0.000000
# 6 0.000002 -0.000005 -0.000001 0.002963 0.000000 0.029921
#
#
# Mechanical properties :
#
#
# Convention : Reuss Voigt Hill
#
# Bulk Modulus (GPa) = 46.70643 57.85417 52.28030
# Shear Modulus (GPa) = 30.54012 35.68059 33.11036
#
# Velocity S-wave (km/s) = 3.88370 4.19784 4.04382
# Velocity P-wave (km/s) = 6.57101 7.21587 6.90098
#
# Compressibility (1/GPa) = 0.02141033
#
# Stress axis : x y z
#
# Youngs Moduli (GPa) = 95.06099 48.07821 118.35915
#
# Poissons Ratio (x) = 0.21715 0.14754
# Poissons Ratio (y) = 0.42935 0.40428
# Poissons Ratio (z) = 0.11849 0.16422
#
# Static dielectric constant tensor:
#      x y z
#    x 3.832440 -0.000010 0.428120 
#    y -0.000010 3.364680 -0.000020 
#    z 0.428120 -0.000020 4.722070 
# 
# 
# High freq. dielectric constant tensor:
#      x y z
#    x 1.780000 0.000000 0.021400 
#    y 0.000000 1.748070 0.000000 
#    z 0.021400 0.000000 1.823870 
# 
# From -- ./inp_files/280111.got.cif
#   From: 2010.06.25/outbox.cif.g09.slc.cpg/sg15_141_cif.got.tgz:280111.got - 2010.06.28 07:06:18.
