data_PCOD8138293
_publ_section_title
;
Structure prediction by ZEFSAII (Michael W. Deem and Ramdas Pophale) SiO2 
 PCOD8138293
Probable space group: C 2/C
;
_chemical_formula_sum "Si O2"
_cell_formula_units_Z 60
_cell_length_a 10.760905
_cell_length_b 26.081449
_cell_length_c 12.145911
_cell_angle_alpha 90.000000
_cell_angle_beta 58.041795
_cell_angle_gamma 90.000000
_cell_volume 2892.203780
_symmetry_space_group_name_H-M "C 2/C"
_symmetry_group_IT_number 15
_symmetry_cell_setting 'monoclinic'
loop_
_space_group_symop_operation_xyz
x,y,z
-x,y,1/2-z
-x,-y,-z
x,-y,1/2+z
1/2+x,1/2+y,z
1/2-x,1/2+y,1/2-z
1/2-x,1/2-y,-z
1/2+x,1/2-y,1/2+z
loop_
_atom_site_type_symbol
_atom_site_label
_atom_site_fract_x
_atom_site_fract_y
_atom_site_fract_z
Si Si1 0.362488 0.555568 0.626100
Si Si2 0.884958 0.838050 0.705518
Si Si3 0.000000 0.886819 0.250000
Si Si4 0.922286 0.761832 0.503322
Si Si5 0.837076 0.793750 0.276529
Si Si6 0.571496 0.450996 0.831016
Si Si7 0.181472 0.704625 0.463512
Si Si8 0.671849 0.851872 0.172368
O O1 0.487284 0.577914 0.648631
O O2 0.320673 0.497661 0.683683
O O3 0.430946 0.553740 0.474458
O O4 0.219870 0.591937 0.691609
O O5 0.941940 0.814616 0.563720
O O6 0.840270 0.897413 0.709015
O O7 0.000000 0.833051 0.750000
O O8 0.746287 0.804568 0.810705
O O9 0.141420 0.849058 0.174231
O O10 0.750977 0.742690 0.594052
O O11 0.998490 0.772537 0.346006
O O12 0.010763 0.716316 0.522362
O O13 0.743265 0.804980 0.209505
O O14 0.500000 0.465129 0.750000
O O15 0.250000 0.750000 0.500000
O O16 0.213243 0.654530 0.523695
O O17 0.500000 0.845795 0.250000
#
# Coordination Sequence:
#
# PCOD8138293 Si02
#       8
#     8   8   4   8   8   8   8   8
#     4  10  21  39  62  89 119 155 206 263 306 367
#     4  11  19  30  53  82 122 153 196 250 305 363
#     4  10  22  42  58  84 118 164 208 248 294 378
#     4  12  21  34  54  89 119 160 196 252 301 365
#     4  11  23  36  57  81 121 163 207 242 303 362
#     4  10  20  37  62  91 113 151 209 265 313 353
#     4  12  20  30  50  86 125 156 191 244 316 371
#     4  11  20  33  55  86 120 155 195 250 315 370
#
# _framework density 20.745426999999999
#
# number of rings (size 3 to 8) (size 9 to 14) (size 15 to 20)
#    0.000    1.067    6.000    3.200    0.000    0.533 
#    0.000    0.000    0.000    6.400    1.733    0.000 
#    0.000    0.000    0.000    0.000    0.000    0.000 
#
# Total GULP energy -371740.725774 kJ/mol
# GULP energy per Si atom -12391.357526 kJ/mol
# Density = 2.069821 g / cm^3
# Si number density = 20.745427 Si / 1000 Ang^3
#
#
#
# Elastic Constant Matrix: (Units=GPa)
#
#
# Indices 1 2 3 4 5 6 
#
# 1 53.2661 18.7457 42.7656 0.0000 -16.9411 0.0000
# 2 18.7457 117.9709 46.1958 0.0000 -3.9735 0.0000
# 3 42.7656 46.1958 133.1559 0.0000 12.2758 0.0000
# 4 0.0000 0.0000 0.0000 26.6478 0.0000 1.3292
# 5 -16.9411 -3.9735 12.2758 0.0000 33.8247 0.0000
# 6 0.0000 0.0000 0.0000 1.3292 0.0000 28.0858
#
#
#
# Elastic Compliance Matrix: (Units=1/GPa)
#
#
# Indices 1 2 3 4 5 6 
#
# 1 0.038208 0.000516 -0.014712 0.000000 0.024536 0.000000
# 2 0.000516 0.010020 -0.003905 0.000000 0.002853 0.000000
# 3 -0.014712 -0.003905 0.014807 0.000000 -0.013201 0.000000
# 4 0.000000 0.000000 0.000000 0.037615 0.000000 -0.001780
# 5 0.024536 0.002853 -0.013201 0.000000 0.046980 0.000000
# 6 0.000000 0.000000 0.000000 -0.001780 0.000000 0.035689
#
#
# Mechanical properties :
#
#
# Convention : Reuss Voigt Hill
#
# Bulk Modulus (GPa) = 37.26826 57.75634 47.51230
# Shear Modulus (GPa) = 21.88519 30.82404 26.35461
#
# Velocity S-wave (km/s) = 3.25151 3.85882 3.56811
# Velocity P-wave (km/s) = 5.66568 6.91049 6.31882
#
# Compressibility (1/GPa) = 0.02683248
#
# Stress axis : x y z
#
# Youngs Moduli (GPa) = 26.17272 99.80165 67.53582
#
# Poissons Ratio (x) = -0.05153 0.99361
# Poissons Ratio (y) = -0.01351 0.26373
# Poissons Ratio (z) = 0.38506 0.38973
#
# Static dielectric constant tensor:
#      x y z
#    x 4.059600 0.000000 0.519680 
#    y 0.000000 3.891200 0.000000 
#    z 0.519680 0.000000 4.302280 
# 
# 
# High freq. dielectric constant tensor:
#      x y z
#    x 1.806990 0.000000 0.029490 
#    y 0.000000 1.805850 0.000000 
#    z 0.029490 0.000000 1.818010 
# 
# From -- ./inp_files/91835.got.cif
#   From: 2010.06.25/outbox.cif.g09.slc.cpg/sg15_46_cif.got.tgz:91835.got - 2010.06.28 07:06:18.
