data_PCOD8138697
_publ_section_title
;
Structure prediction by ZEFSAII (Michael W. Deem and Ramdas Pophale) SiO2 
 PCOD8138697
Probable space group: C 2/C
;
_chemical_formula_sum "Si O2"
_cell_formula_units_Z 44
_cell_length_a 15.034463
_cell_length_b 8.207486
_cell_length_c 16.814433
_cell_angle_alpha 90.000000
_cell_angle_beta 72.878467
_cell_angle_gamma 90.000000
_cell_volume 1982.868460
_symmetry_space_group_name_H-M "C 2/C"
_symmetry_group_IT_number 15
_symmetry_cell_setting 'monoclinic'
loop_
_space_group_symop_operation_xyz
x,y,z
-x,y,1/2-z
-x,-y,-z
x,-y,1/2+z
1/2+x,1/2+y,z
1/2-x,1/2+y,1/2-z
1/2-x,1/2-y,-z
1/2+x,1/2-y,1/2+z
loop_
_atom_site_type_symbol
_atom_site_label
_atom_site_fract_x
_atom_site_fract_y
_atom_site_fract_z
Si Si1 0.834757 0.009707 0.379259
Si Si2 0.000000 0.827937 0.250000
Si Si3 0.915030 0.123904 0.010289
Si Si4 0.014136 0.595009 0.113515
Si Si5 0.350215 0.134954 0.643531
Si Si6 0.396808 0.839536 0.305693
O O1 0.915678 0.935199 0.303882
O O2 0.842370 0.960174 0.469743
O O3 0.736472 0.949841 0.374530
O O4 0.845286 0.203848 0.371789
O O5 0.961262 0.714745 0.189122
O O6 0.944319 0.298579 0.967680
O O7 0.866041 0.178606 0.106271
O O8 0.000000 0.000000 0.000000
O O9 0.941310 0.468762 0.096553
O O10 0.096029 0.500666 0.141063
O O11 0.335215 0.134491 0.742555
O O12 0.500000 0.785309 0.250000
#
# Coordination Sequence:
#
# PCOD8138697 Si02
#       6
#     8   4   8   8   8   8
#     4  11  24  38  63  92 129 164 217 265 319 377
#     4  10  20  38  60  88 124 166 202 254 320 374
#     4  11  24  43  65  88 130 175 210 260 331 389
#     4  10  21  41  65  89 125 166 212 256 327 385
#     4  11  23  39  63  99 125 164 220 269 315 381
#     4  10  20  41  65  90 128 168 213 260 325 388
#
# _framework density 22.190075
#
# number of rings (size 3 to 8) (size 9 to 14) (size 15 to 20)
#    0.000    1.455    3.636    3.273    5.091    0.000 
#    0.000    7.273    0.000    0.000    0.000    0.000 
#    0.000    0.000    0.000    0.000    0.000    0.000 
#
# Total GULP energy -272733.961973 kJ/mol
# GULP energy per Si atom -12396.998271 kJ/mol
# Density = 2.213957 g / cm^3
# Si number density = 22.190075 Si / 1000 Ang^3
#
#
#
# Elastic Constant Matrix: (Units=GPa)
#
#
# Indices 1 2 3 4 5 6 
#
# 1 78.2802 27.0283 38.2076 0.0000 35.0205 0.0000
# 2 27.0283 121.5772 48.6928 0.0000 14.4890 0.0000
# 3 38.2076 48.6928 87.9312 0.0000 30.6224 0.0000
# 4 0.0000 0.0000 0.0000 40.4868 0.0000 1.3658
# 5 35.0205 14.4890 30.6224 0.0000 36.8969 0.0000
# 6 0.0000 0.0000 0.0000 1.3658 0.0000 23.3286
#
#
#
# Elastic Compliance Matrix: (Units=1/GPa)
#
#
# Indices 1 2 3 4 5 6 
#
# 1 0.023234 -0.001948 -0.002255 0.000000 -0.019416 0.000000
# 2 -0.001948 0.010759 -0.006025 0.000000 0.002625 0.000000
# 3 -0.002255 -0.006025 0.019860 0.000000 -0.011976 0.000000
# 4 0.000000 0.000000 0.000000 0.024748 0.000000 -0.001449
# 5 -0.019416 0.002625 -0.011976 0.000000 0.054439 0.000000
# 6 0.000000 0.000000 0.000000 -0.001449 0.000000 0.042951
#
#
# Mechanical properties :
#
#
# Convention : Reuss Voigt Hill
#
# Bulk Modulus (GPa) = 29.94452 57.29400 43.61926
# Shear Modulus (GPa) = 24.08708 31.73312 27.91010
#
# Velocity S-wave (km/s) = 3.29825 3.78572 3.55036
# Velocity P-wave (km/s) = 5.29419 6.70705 6.04206
#
# Compressibility (1/GPa) = 0.03339509
#
# Stress axis : x y z
#
# Youngs Moduli (GPa) = 43.04013 92.94782 50.35317
#
# Poissons Ratio (x) = 0.18108 0.11355
# Poissons Ratio (y) = 0.08385 0.30340
# Poissons Ratio (z) = 0.09706 0.56005
#
# Static dielectric constant tensor:
#      x y z
#    x 3.702990 0.000000 0.246620 
#    y 0.000000 4.194970 0.000000 
#    z 0.246620 0.000000 4.226150 
# 
# 
# High freq. dielectric constant tensor:
#      x y z
#    x 1.843740 0.000000 0.024290 
#    y 0.000000 1.884330 0.000000 
#    z 0.024290 0.000000 1.882410 
# 
# From -- ./inp_files/202693.got.cif
#   From: 2010.06.25/outbox.cif.g09.slc.cpg/sg15_102_cif.got.tgz:202693.got - 2010.06.28 07:06:18.
