data_PCOD8138309
_publ_section_title
;
Structure prediction by ZEFSAII (Michael W. Deem and Ramdas Pophale) SiO2 
 PCOD8138309
Probable space group: C 2/C
;
_chemical_formula_sum "Si O2"
_cell_formula_units_Z 64
_cell_length_a 16.786403
_cell_length_b 12.212418
_cell_length_c 28.316374
_cell_angle_alpha 90.000000
_cell_angle_beta 33.089811
_cell_angle_gamma 90.000000
_cell_volume 3169.218528
_symmetry_space_group_name_H-M "C 2/C"
_symmetry_group_IT_number 15
_symmetry_cell_setting 'monoclinic'
loop_
_space_group_symop_operation_xyz
x,y,z
-x,y,1/2-z
-x,-y,-z
x,-y,1/2+z
1/2+x,1/2+y,z
1/2-x,1/2+y,1/2-z
1/2-x,1/2-y,-z
1/2+x,1/2-y,1/2+z
loop_
_atom_site_type_symbol
_atom_site_label
_atom_site_fract_x
_atom_site_fract_y
_atom_site_fract_z
Si Si1 0.578751 0.058213 0.259487
Si Si2 0.567472 0.503862 0.669069
Si Si3 0.598758 0.588153 0.426015
Si Si4 0.635232 0.264492 0.996416
Si Si5 0.090906 0.390031 0.092156
Si Si6 0.095908 0.483977 0.498406
Si Si7 0.574304 0.360122 0.580132
Si Si8 0.458993 0.268035 0.359104
O O1 0.500000 0.085270 0.250000
O O2 0.747980 0.033254 0.164827
O O3 0.573881 0.170119 0.293107
O O4 0.501220 0.952942 0.321840
O O5 0.500000 0.455618 0.750000
O O6 0.737614 0.485649 0.593574
O O7 0.508706 0.437172 0.653375
O O8 0.516730 0.629783 0.687712
O O9 0.500000 0.500000 0.500000
O O10 0.610101 0.686335 0.457607
O O11 0.523793 0.636875 0.417213
O O12 0.588186 0.139093 0.019878
O O13 0.537193 0.313160 0.088355
O O14 0.802194 0.286521 0.927109
O O15 0.035992 0.437486 0.069400
O O16 0.065323 0.260759 0.106454
O O17 0.264703 0.405886 0.013199
O O18 0.000000 0.500000 0.500000
#
# Coordination Sequence:
#
# PCOD8138309 Si02
#       8
#     8   8   8   8   8   8   8   8
#     4  12  23  40  65  95 127 167 219 264 327 389
#     4  10  22  38  62  89 124 168 206 259 324 378
#     4  12  25  41  62  98 132 171 213 270 328 382
#     4  10  20  37  64  91 126 158 208 261 322 378
#     4  10  22  44  66  88 124 176 215 260 316 391
#     4  10  20  37  62  92 121 161 208 258 318 376
#     4  10  23  44  64  89 131 172 216 262 322 385
#     4  10  20  38  64  94 121 161 209 267 323 383
#
# _framework density 20.194253
#
# number of rings (size 3 to 8) (size 9 to 14) (size 15 to 20)
#    0.000    1.500    2.500    2.625    3.500    1.500 
#    4.500    1.250    0.000    0.000    0.000    0.000 
#    0.000    0.000    0.000    0.000    0.000    0.000 
#
# Total GULP energy -396759.577489 kJ/mol
# GULP energy per Si atom -12398.736797 kJ/mol
# Density = 2.014829 g / cm^3
# Si number density = 20.194253 Si / 1000 Ang^3
#
#
#
# Elastic Constant Matrix: (Units=GPa)
#
#
# Indices 1 2 3 4 5 6 
#
# 1 124.2844 15.4203 43.3309 0.0001 15.3760 0.0000
# 2 15.4203 84.7881 50.7016 0.0001 7.1775 0.0000
# 3 43.3309 50.7016 116.2388 0.0003 17.5745 -0.0001
# 4 0.0001 0.0001 0.0003 26.7106 -0.0001 6.1548
# 5 15.3760 7.1775 17.5745 -0.0001 30.9854 0.0000
# 6 0.0000 0.0000 -0.0001 6.1548 0.0000 28.8352
#
#
#
# Elastic Compliance Matrix: (Units=1/GPa)
#
#
# Indices 1 2 3 4 5 6 
#
# 1 0.009505 0.000505 -0.003317 0.000000 -0.002952 0.000000
# 2 0.000505 0.015985 -0.007178 0.000000 0.000118 0.000000
# 3 -0.003317 -0.007178 0.013640 0.000000 -0.004428 0.000000
# 4 0.000000 0.000000 0.000000 0.039375 0.000000 -0.008405
# 5 -0.002952 0.000118 -0.004428 0.000000 0.036222 0.000000
# 6 0.000000 0.000000 0.000000 -0.008405 0.000000 0.036474
#
#
# Mechanical properties :
#
#
# Convention : Reuss Voigt Hill
#
# Bulk Modulus (GPa) = 52.22309 60.46855 56.34582
# Shear Modulus (GPa) = 28.15867 31.69680 29.92773
#
# Velocity S-wave (km/s) = 3.73820 3.96611 3.85384
# Velocity P-wave (km/s) = 6.67448 7.14016 6.91124
#
# Compressibility (1/GPa) = 0.01914862
#
# Stress axis : x y z
#
# Youngs Moduli (GPa) = 105.20600 62.55926 73.31361
#
# Poissons Ratio (x) = -0.03158 0.24319
# Poissons Ratio (y) = -0.05311 0.52627
# Poissons Ratio (z) = 0.34898 0.44908
#
# Static dielectric constant tensor:
#      x y z
#    x 3.287900 0.000000 0.302920 
#    y 0.000000 3.678950 0.000000 
#    z 0.302920 0.000000 3.712130 
# 
# 
# High freq. dielectric constant tensor:
#      x y z
#    x 1.790680 0.000000 0.018820 
#    y 0.000000 1.790840 0.000000 
#    z 0.018820 0.000000 1.781750 
# 
# From -- ./inp_files/316181.got.cif
#   From: 2010.06.25/outbox.cif.g09.slc.cpg/sg15_159_cif.got.tgz:316181.got - 2010.06.28 07:06:18.
