data_PCOD8138645
_publ_section_title
;
Structure prediction by ZEFSAII (Michael W. Deem and Ramdas Pophale) SiO2 
 PCOD8138645
Probable space group: C 2/C
;
_chemical_formula_sum "Si O2"
_cell_formula_units_Z 60
_cell_length_a 10.724763
_cell_length_b 19.240783
_cell_length_c 20.009236
_cell_angle_alpha 90.000000
_cell_angle_beta 130.596987
_cell_angle_gamma 90.000000
_cell_volume 3135.144149
_symmetry_space_group_name_H-M "C 2/C"
_symmetry_group_IT_number 15
_symmetry_cell_setting 'monoclinic'
loop_
_space_group_symop_operation_xyz
x,y,z
-x,y,1/2-z
-x,-y,-z
x,-y,1/2+z
1/2+x,1/2+y,z
1/2-x,1/2+y,1/2-z
1/2-x,1/2-y,-z
1/2+x,1/2-y,1/2+z
loop_
_atom_site_type_symbol
_atom_site_label
_atom_site_fract_x
_atom_site_fract_y
_atom_site_fract_z
Si Si1 0.500000 0.645665 0.750000
Si Si2 0.331202 0.378990 0.722356
Si Si3 0.748030 0.774421 0.075548
Si Si4 0.934768 0.480561 0.079350
Si Si5 0.979826 0.611306 0.468949
Si Si6 0.302274 0.147406 0.181802
Si Si7 0.707470 0.533041 0.750281
Si Si8 0.824233 0.999556 0.406882
O O1 0.581899 0.691438 0.837788
O O2 0.641065 0.598159 0.767963
O O3 0.500000 0.348139 0.750000
O O4 0.185466 0.359270 0.621196
O O5 0.278037 0.343886 0.773326
O O6 0.359659 0.461498 0.741838
O O7 0.715656 0.706602 0.108223
O O8 0.750000 0.750000 0.000000
O O9 0.598309 0.827170 0.032683
O O10 0.789243 0.461421 0.078752
O O11 0.925874 0.560345 0.050049
O O12 0.097878 0.467765 0.177923
O O13 0.918901 0.430106 0.011702
O O14 0.500000 0.154013 0.250000
O O15 0.253391 0.074488 0.133156
O O16 0.659981 0.542746 0.656440
O O17 0.000000 0.000000 0.500000
#
# Coordination Sequence:
#
# PCOD8138645 Si02
#       8
#     4   8   8   8   8   8   8   8
#     4  12  24  40  66 100 126 160 224 266 324 382
#     4  10  21  39  66  91 125 168 209 264 332 385
#     4  12  25  42  66  94 131 173 220 270 313 390
#     4  10  20  38  59  92 130 164 204 268 327 374
#     4  10  22  36  65  91 126 166 212 264 323 380
#     4  11  23  44  64  91 128 172 216 257 322 391
#     4  10  21  38  61  92 127 160 205 271 324 377
#     4  11  24  35  64  94 127 162 212 268 324 381
#
# _framework density 19.137875999999999
#
# number of rings (size 3 to 8) (size 9 to 14) (size 15 to 20)
#    0.000    1.333    2.667    4.400    7.467    0.000 
#    0.000    0.667    2.933    0.000    0.000    0.000 
#    0.000    0.000    0.000    0.000    0.000    0.000 
#
# Total GULP energy -371997.576772 kJ/mol
# GULP energy per Si atom -12399.919226 kJ/mol
# Density = 1.909432 g / cm^3
# Si number density = 19.137876 Si / 1000 Ang^3
#
#
#
# Elastic Constant Matrix: (Units=GPa)
#
#
# Indices 1 2 3 4 5 6 
#
# 1 128.6249 22.7024 59.2204 0.0000 5.5344 0.0000
# 2 22.7024 61.6921 32.9632 0.0000 -1.9593 0.0000
# 3 59.2204 32.9632 145.2680 0.0000 -9.6656 0.0000
# 4 0.0000 0.0000 0.0000 36.3605 0.0000 -2.1917
# 5 5.5344 -1.9593 -9.6656 0.0000 26.2048 0.0000
# 6 0.0000 0.0000 0.0000 -2.1917 0.0000 17.2394
#
#
#
# Elastic Compliance Matrix: (Units=1/GPa)
#
#
# Indices 1 2 3 4 5 6 
#
# 1 0.010059 -0.001703 -0.003961 0.000000 -0.003713 0.000000
# 2 -0.001703 0.018735 -0.003526 0.000000 0.000460 0.000000
# 3 -0.003961 -0.003526 0.009572 0.000000 0.004103 0.000000
# 4 0.000000 0.000000 0.000000 0.027715 0.000000 0.003523
# 5 -0.003713 0.000460 0.004103 0.000000 0.040493 0.000000
# 6 0.000000 0.000000 0.000000 0.003523 0.000000 0.058455
#
#
# Mechanical properties :
#
#
# Convention : Reuss Voigt Hill
#
# Bulk Modulus (GPa) = 50.03866 62.81743 56.42805
# Shear Modulus (GPa) = 26.30606 30.67421 28.49013
#
# Velocity S-wave (km/s) = 3.71152 4.00784 3.86252
# Velocity P-wave (km/s) = 6.67610 7.36966 7.03144
#
# Compressibility (1/GPa) = 0.01998455
#
# Stress axis : x y z
#
# Youngs Moduli (GPa) = 99.41722 53.37595 104.47298
#
# Poissons Ratio (x) = 0.09090 0.41383
# Poissons Ratio (y) = 0.16930 0.36841
# Poissons Ratio (z) = 0.39381 0.18823
#
# Static dielectric constant tensor:
#      x y z
#    x 3.508510 0.000000 -0.141720 
#    y 0.000000 3.534470 0.000000 
#    z -0.141720 0.000000 3.745250 
# 
# 
# High freq. dielectric constant tensor:
#      x y z
#    x 1.745110 0.000000 -0.008720 
#    y 0.000000 1.720810 0.000000 
#    z -0.008720 0.000000 1.766860 
# 
# From -- ./inp_files/234091.got.cif
#   From: 2010.06.25/outbox.cif.g09.slc.cpg/sg15_118_cif.got.tgz:234091.got - 2010.06.28 07:06:18.
