data_PCOD8138503
_publ_section_title
;
Structure prediction by ZEFSAII (Michael W. Deem and Ramdas Pophale) SiO2 
 PCOD8138503
Probable space group: C 2/C
;
_chemical_formula_sum "Si O2"
_cell_formula_units_Z 48
_cell_length_a 27.563816
_cell_length_b 9.411641
_cell_length_c 13.879936
_cell_angle_alpha 90.000000
_cell_angle_beta 38.727439
_cell_angle_gamma 90.000000
_cell_volume 2252.683808
_symmetry_space_group_name_H-M "C 2/C"
_symmetry_group_IT_number 15
_symmetry_cell_setting 'monoclinic'
loop_
_space_group_symop_operation_xyz
x,y,z
-x,y,1/2-z
-x,-y,-z
x,-y,1/2+z
1/2+x,1/2+y,z
1/2-x,1/2+y,1/2-z
1/2-x,1/2-y,-z
1/2+x,1/2-y,1/2+z
loop_
_atom_site_type_symbol
_atom_site_label
_atom_site_fract_x
_atom_site_fract_y
_atom_site_fract_z
Si Si1 0.098174 0.266207 0.886032
Si Si2 0.916612 0.764365 0.650982
Si Si3 0.672018 0.598062 0.043811
Si Si4 0.833914 0.507417 0.348377
Si Si5 0.679701 0.111143 0.435679
Si Si6 0.154205 0.022526 0.375038
O O1 0.139182 0.339384 0.730800
O O2 0.113982 0.357033 0.958557
O O3 0.133449 0.109621 0.838800
O O4 0.007539 0.258158 0.009663
O O5 0.876511 0.611585 0.718496
O O6 0.891302 0.838509 0.590297
O O7 0.892915 0.866864 0.776261
O O8 0.741105 0.509200 0.984884
O O9 0.707339 0.744735 0.946692
O O10 0.631038 0.508786 0.021740
O O11 0.855716 0.493594 0.427960
O O12 0.753259 0.043004 0.269137
#
# Coordination Sequence:
#
# PCOD8138503 Si02
#       6
#     8   8   8   8   8   8
#     4  11  25  38  62  98 128 162 217 270 321 378
#     4  11  22  43  63  92 129 168 212 267 323 388
#     4  10  20  37  67  89 121 171 217 253 319 394
#     4  11  20  39  65  90 124 170 212 264 317 385
#     4  10  20  38  62  91 122 171 215 255 311 394
#     4  11  21  38  65  90 127 169 215 260 321 386
#
# _framework density 21.307915999999999
#
# number of rings (size 3 to 8) (size 9 to 14) (size 15 to 20)
#    0.000    1.333    5.000    2.000    0.000    6.667 
#    0.000    0.000    0.000    2.000    0.000    0.000 
#    0.000    0.000    0.000    0.000    0.000    0.000 
#
# Total GULP energy -297692.248930 kJ/mol
# GULP energy per Si atom -12403.843705 kJ/mol
# Density = 2.125942 g / cm^3
# Si number density = 21.307916 Si / 1000 Ang^3
#
#
#
# Elastic Constant Matrix: (Units=GPa)
#
#
# Indices 1 2 3 4 5 6 
#
# 1 61.2517 15.6512 17.1325 0.0000 -6.3022 0.0000
# 2 15.6512 31.4244 -1.8911 -0.0001 -9.6419 0.0000
# 3 17.1325 -1.8911 45.1331 0.0000 -11.6828 0.0000
# 4 0.0000 -0.0001 0.0000 29.2946 0.0000 4.5491
# 5 -6.3022 -9.6419 -11.6828 0.0000 33.5218 0.0000
# 6 0.0000 0.0000 0.0000 4.5491 0.0000 30.2284
#
#
#
# Elastic Compliance Matrix: (Units=1/GPa)
#
#
# Indices 1 2 3 4 5 6 
#
# 1 0.021849 -0.012298 -0.009520 0.000000 -0.002748 0.000000
# 2 -0.012298 0.042662 0.009929 0.000000 0.013420 0.000000
# 3 -0.009520 0.009929 0.029087 0.000000 0.011203 0.000000
# 4 0.000000 0.000000 0.000000 0.034953 0.000000 -0.005260
# 5 -0.002748 0.013420 0.011203 0.000000 0.037079 0.000000
# 6 0.000000 0.000000 0.000000 -0.005260 0.000000 0.033873
#
#
# Mechanical properties :
#
#
# Convention : Reuss Voigt Hill
#
# Bulk Modulus (GPa) = 14.32244 22.17716 18.24980
# Shear Modulus (GPa) = 20.27958 25.73672 23.00815
#
# Velocity S-wave (km/s) = 3.08837 3.47918 3.28959
# Velocity P-wave (km/s) = 4.41063 5.15462 4.79707
#
# Compressibility (1/GPa) = 0.06982050
#
# Stress axis : x y z
#
# Youngs Moduli (GPa) = 45.76946 23.43980 34.38014
#
# Poissons Ratio (x) = 0.28826 0.32731
# Poissons Ratio (y) = 0.56286 -0.34138
# Poissons Ratio (z) = 0.43573 -0.23274
#
# Static dielectric constant tensor:
#      x y z
#    x 3.923490 0.000000 0.179690 
#    y 0.000000 3.883450 0.000000 
#    z 0.179690 0.000000 3.608710 
# 
# 
# High freq. dielectric constant tensor:
#      x y z
#    x 1.840310 0.000000 0.008270 
#    y 0.000000 1.828700 0.000000 
#    z 0.008270 0.000000 1.818690 
# 
# From -- ./inp_files/176912.got.cif
#   From: 2010.06.25/outbox.cif.g09.slc.cpg/sg15_89_cif.got.tgz:176912.got - 2010.06.28 07:06:18.
