data_PCOD8138969
_publ_section_title
;
Structure prediction by ZEFSAII (Michael W. Deem and Ramdas Pophale) SiO2 
 PCOD8138969
Probable space group: C 2/C
;
_chemical_formula_sum "Si O2"
_cell_formula_units_Z 56
_cell_length_a 14.336659
_cell_length_b 25.126310
_cell_length_c 8.298685
_cell_angle_alpha 90.000000
_cell_angle_beta 123.896746
_cell_angle_gamma 90.000000
_cell_volume 2481.344378
_symmetry_space_group_name_H-M "C 2/C"
_symmetry_group_IT_number 15
_symmetry_cell_setting 'monoclinic'
loop_
_space_group_symop_operation_xyz
x,y,z
-x,y,1/2-z
-x,-y,-z
x,-y,1/2+z
1/2+x,1/2+y,z
1/2-x,1/2+y,1/2-z
1/2-x,1/2-y,-z
1/2+x,1/2-y,1/2+z
loop_
_atom_site_type_symbol
_atom_site_label
_atom_site_fract_x
_atom_site_fract_y
_atom_site_fract_z
Si Si1 0.195781 0.954460 0.184503
Si Si2 0.103829 0.147095 0.744306
Si Si3 0.786352 0.154759 0.329699
Si Si4 0.524596 0.727762 0.090183
Si Si5 0.555503 0.949207 0.976378
Si Si6 0.880399 0.944839 0.722133
Si Si7 0.474097 0.161110 0.413505
O O1 0.132192 0.899022 0.147846
O O2 0.311438 0.957612 0.394870
O O3 0.116065 0.002801 0.163049
O O4 0.212698 0.956055 0.007509
O O5 0.070698 0.200517 0.614994
O O6 0.000000 0.127075 0.750000
O O7 0.206390 0.154652 0.967873
O O8 0.843958 0.103836 0.300675
O O9 0.656422 0.158893 0.165358
O O10 0.851124 0.206696 0.329602
O O11 0.500000 0.714192 0.250000
O O12 0.528368 0.790516 0.063304
O O13 0.500000 0.942604 0.750000
O O14 0.528178 0.893203 0.037551
O O15 0.500000 0.000000 0.000000
O O16 0.000000 0.934661 0.750000
O O17 0.500000 0.169151 0.250000
#
# Coordination Sequence:
#
# PCOD8138969 Si02
#       7
#     8   8   8   8   8   8   8
#     4  12  23  38  65  95 133 178 219 273 332 387
#     4  10  20  38  63  91 127 168 213 267 328 390
#     4  11  23  43  67  93 132 175 219 275 336 390
#     4  11  25  43  65  97 132 168 217 275 332 399
#     4  11  24  43  64  92 129 167 218 267 319 386
#     4  12  24  41  66 101 140 176 223 271 332 404
#     4  11  25  44  68  95 127 173 223 271 328 397
#
# _framework density 22.568411000000001
#
# number of rings (size 3 to 8) (size 9 to 14) (size 15 to 20)
#    0.000    0.857    0.000    9.429    0.000    5.714 
#    0.000    0.000    0.000    0.000    0.000    0.000 
#    0.000    0.000    0.000    0.000    0.000    0.000 
#
# Total GULP energy -347189.294344 kJ/mol
# GULP energy per Si atom -12399.617655 kJ/mol
# Density = 2.251704 g / cm^3
# Si number density = 22.568411 Si / 1000 Ang^3
#
#
#
# Elastic Constant Matrix: (Units=GPa)
#
#
# Indices 1 2 3 4 5 6 
#
# 1 97.4211 58.6741 28.7176 0.0000 6.8835 0.0000
# 2 58.6741 172.0289 28.4461 0.0000 -3.9511 0.0000
# 3 28.7176 28.4461 97.7727 0.0000 -8.7780 0.0000
# 4 0.0000 0.0000 0.0000 34.6476 0.0000 -1.9466
# 5 6.8835 -3.9511 -8.7780 0.0000 39.0173 0.0000
# 6 0.0000 0.0000 0.0000 -1.9466 0.0000 28.0979
#
#
#
# Elastic Compliance Matrix: (Units=1/GPa)
#
#
# Indices 1 2 3 4 5 6 
#
# 1 0.014092 -0.004361 -0.003198 0.000000 -0.003647 0.000000
# 2 -0.004361 0.007458 -0.000768 0.000000 0.001352 0.000000
# 3 -0.003198 -0.000768 0.011670 0.000000 0.003112 0.000000
# 4 0.000000 0.000000 0.000000 0.028975 0.000000 0.002007
# 5 -0.003647 0.001352 0.003112 0.000000 0.027110 0.000000
# 6 0.000000 0.000000 0.000000 0.002007 0.000000 0.035729
#
#
# Mechanical properties :
#
#
# Convention : Reuss Voigt Hill
#
# Bulk Modulus (GPa) = 60.36113 66.54428 63.45270
# Shear Modulus (GPa) = 33.96536 37.11154 35.53845
#
# Velocity S-wave (km/s) = 3.88364 4.05952 3.97255
# Velocity P-wave (km/s) = 6.84939 7.17792 7.01558
#
# Compressibility (1/GPa) = 0.01656695
#
# Stress axis : x y z
#
# Youngs Moduli (GPa) = 70.96400 134.07577 85.69218
#
# Poissons Ratio (x) = 0.58474 0.27400
# Poissons Ratio (y) = 0.30949 0.06578
# Poissons Ratio (z) = 0.22691 0.10292
#
# Static dielectric constant tensor:
#      x y z
#    x 4.102900 0.000000 -0.066790 
#    y 0.000000 5.107440 0.000000 
#    z -0.066790 0.000000 4.270620 
# 
# 
# High freq. dielectric constant tensor:
#      x y z
#    x 1.884620 0.000000 -0.001320 
#    y 0.000000 1.903360 0.000000 
#    z -0.001320 0.000000 1.895160 
# 
# From -- ./inp_files/42756.got.cif
#   From: 2010.06.25/outbox.cif.g09.slc.cpg/sg15_22_cif.got.tgz:42756.got - 2010.06.28 07:06:18.
