data_PCOD8138501
_publ_section_title
;
Structure prediction by ZEFSAII (Michael W. Deem and Ramdas Pophale) SiO2 
 PCOD8138501
Probable space group: C 2/C
;
_chemical_formula_sum "Si O2"
_cell_formula_units_Z 48
_cell_length_a 15.127761
_cell_length_b 17.741183
_cell_length_c 8.923159
_cell_angle_alpha 90.000000
_cell_angle_beta 88.959402
_cell_angle_gamma 90.000000
_cell_volume 2394.441501
_symmetry_space_group_name_H-M "C 2/C"
_symmetry_group_IT_number 15
_symmetry_cell_setting 'monoclinic'
loop_
_space_group_symop_operation_xyz
x,y,z
-x,y,1/2-z
-x,-y,-z
x,-y,1/2+z
1/2+x,1/2+y,z
1/2-x,1/2+y,1/2-z
1/2-x,1/2-y,-z
1/2+x,1/2-y,1/2+z
loop_
_atom_site_type_symbol
_atom_site_label
_atom_site_fract_x
_atom_site_fract_y
_atom_site_fract_z
Si Si1 0.729560 0.189621 0.816210
Si Si2 0.099656 0.099922 0.748191
Si Si3 0.330691 0.507608 0.012812
Si Si4 0.410756 0.909377 0.318074
Si Si5 0.649115 0.951480 0.873455
Si Si6 0.740541 0.855786 0.643127
O O1 0.832524 0.167981 0.787395
O O2 0.669661 0.149087 0.695093
O O3 0.714715 0.278851 0.799203
O O4 0.698246 0.161123 0.981247
O O5 0.105660 0.035712 0.620903
O O6 0.000000 0.132418 0.750000
O O7 0.122400 0.061813 0.906468
O O8 0.312218 0.576630 0.129154
O O9 0.237525 0.481688 0.948694
O O10 0.500000 0.872095 0.250000
O O11 0.419278 0.927148 0.494498
O O12 0.394258 0.984809 0.225725
O O13 0.666408 0.880202 0.764725
#
# Coordination Sequence:
#
# PCOD8138501 Si02
#       6
#     8   8   8   8   8   8
#     4  10  21  41  59  83 125 155 193 237 302 362
#     4  11  21  36  59  86 114 150 192 242 291 347
#     4  11  18  37  61  84 113 149 196 243 288 343
#     4  12  23  38  61  89 121 157 199 251 295 349
#     4  12  19  39  63  87 115 154 205 244 294 346
#     4  10  20  37  67  82 114 165 189 241 305 347
#
# _framework density 20.046427999999999
#
# number of rings (size 3 to 8) (size 9 to 14) (size 15 to 20)
#    0.000    1.000    8.333    1.000    0.000    0.667 
#    0.000    6.667    0.000    0.000    0.000    0.000 
#    0.000    0.000    0.000    0.000    0.000    0.000 
#
# Total GULP energy -297617.461322 kJ/mol
# GULP energy per Si atom -12400.727555 kJ/mol
# Density = 2.000080 g / cm^3
# Si number density = 20.046428 Si / 1000 Ang^3
#
#
#
# Elastic Constant Matrix: (Units=GPa)
#
#
# Indices 1 2 3 4 5 6 
#
# 1 95.2263 14.0060 21.7641 0.0000 -15.4077 0.0000
# 2 14.0060 86.7857 15.5905 0.0000 2.5316 0.0000
# 3 21.7641 15.5905 78.9732 0.0000 -14.6812 0.0000
# 4 0.0000 0.0000 0.0000 18.2582 0.0000 -6.2582
# 5 -15.4077 2.5316 -14.6812 0.0000 25.2598 0.0000
# 6 0.0000 0.0000 0.0000 -6.2582 0.0000 8.9677
#
#
#
# Elastic Compliance Matrix: (Units=1/GPa)
#
#
# Indices 1 2 3 4 5 6 
#
# 1 0.012252 -0.001851 -0.001780 0.000000 0.006625 0.000000
# 2 -0.001851 0.012416 -0.002671 0.000000 -0.003926 0.000000
# 3 -0.001780 -0.002671 0.015167 0.000000 0.007997 0.000000
# 4 0.000000 0.000000 0.000000 0.071990 0.000000 0.050239
# 5 0.006625 -0.003926 0.007997 0.000000 0.048671 0.000000
# 6 0.000000 0.000000 0.000000 0.050239 0.000000 0.146571
#
#
# Mechanical properties :
#
#
# Convention : Reuss Voigt Hill
#
# Bulk Modulus (GPa) = 36.72119 40.41183 38.56651
# Shear Modulus (GPa) = 15.20930 24.47209 19.84069
#
# Velocity S-wave (km/s) = 2.75745 3.49774 3.14942
# Velocity P-wave (km/s) = 5.33815 6.04278 5.70136
#
# Compressibility (1/GPa) = 0.02723223
#
# Stress axis : x y z
#
# Youngs Moduli (GPa) = 81.61837 80.54362 65.93297
#
# Poissons Ratio (x) = 0.14908 0.11734
# Poissons Ratio (y) = 0.15106 0.17609
# Poissons Ratio (z) = 0.14525 0.21511
#
# Static dielectric constant tensor:
#      x y z
#    x 3.450300 0.000000 -0.171040 
#    y 0.000000 3.606990 0.000000 
#    z -0.171040 0.000000 3.904010 
# 
# 
# High freq. dielectric constant tensor:
#      x y z
#    x 1.753150 0.000000 -0.012510 
#    y 0.000000 1.769350 0.000000 
#    z -0.012510 0.000000 1.796190 
# 
# From -- ./inp_files/39605.got.cif
#   From: 2010.06.25/outbox.cif.g09.slc.cpg/sg15_20_cif.got.tgz:39605.got - 2010.06.28 07:06:18.
