data_PCOD8138444
_publ_section_title
;
Structure prediction by ZEFSAII (Michael W. Deem and Ramdas Pophale) SiO2 
 PCOD8138444
Probable space group: C 2/C
;
_chemical_formula_sum "Si O2"
_cell_formula_units_Z 52
_cell_length_a 12.098356
_cell_length_b 29.175027
_cell_length_c 11.212401
_cell_angle_alpha 90.000000
_cell_angle_beta 141.594031
_cell_angle_gamma 90.000000
_cell_volume 2458.602185
_symmetry_space_group_name_H-M "C 2/C"
_symmetry_group_IT_number 15
_symmetry_cell_setting 'monoclinic'
loop_
_space_group_symop_operation_xyz
x,y,z
-x,y,1/2-z
-x,-y,-z
x,-y,1/2+z
1/2+x,1/2+y,z
1/2-x,1/2+y,1/2-z
1/2-x,1/2-y,-z
1/2+x,1/2-y,1/2+z
loop_
_atom_site_type_symbol
_atom_site_label
_atom_site_fract_x
_atom_site_fract_y
_atom_site_fract_z
Si Si1 0.677587 0.443226 0.472302
Si Si2 0.753454 0.804742 0.140595
Si Si3 0.611717 0.903062 0.064118
Si Si4 0.192351 0.461019 0.357682
Si Si5 0.785798 0.881352 0.783692
Si Si6 0.000000 0.912433 0.750000
Si Si7 0.154292 0.793623 0.545927
O O1 0.500000 0.456819 0.250000
O O2 0.827858 0.423018 0.511694
O O3 0.761575 0.485371 0.618030
O O4 0.624114 0.404890 0.523917
O O5 0.658620 0.849329 0.114321
O O6 0.664602 0.757374 0.110557
O O7 0.953229 0.807844 0.354141
O O8 0.735265 0.800905 0.982386
O O9 0.705812 0.934140 0.244256
O O10 0.399474 0.907048 0.900002
O O11 0.337186 0.443353 0.572070
O O12 0.000000 0.453195 0.250000
O O13 0.753881 0.827779 0.782439
O O14 0.925349 0.881786 0.793826
#
# Coordination Sequence:
#
# PCOD8138444 Si02
#       7
#     8   8   8   8   8   4   8
#     4  12  26  43  69 101 134 174 226 284 341 396
#     4  10  20  37  65 101 133 170 214 276 339 393
#     4  12  25  43  70 100 136 176 225 280 340 398
#     4  12  26  46  69  97 136 180 229 278 335 408
#     4  12  25  43  68  99 138 179 223 280 333 406
#     4  12  26  46  68  94 136 186 232 270 338 398
#     4  10  20  37  65  99 136 169 214 274 338 395
#
# _framework density 21.150230000000001
#
# number of rings (size 3 to 8) (size 9 to 14) (size 15 to 20)
#    0.000    0.615    3.846    5.077    2.154    3.692 
#    0.000    0.000    1.692    2.769    0.000    0.000 
#    0.000    0.000    0.000    0.000    0.000    0.000 
#
# Total GULP energy -322444.844140 kJ/mol
# GULP energy per Si atom -12401.724775 kJ/mol
# Density = 2.110209 g / cm^3
# Si number density = 21.150230 Si / 1000 Ang^3
#
#
#
# Elastic Constant Matrix: (Units=GPa)
#
#
# Indices 1 2 3 4 5 6 
#
# 1 123.3194 54.7089 34.6862 0.0000 -2.0250 0.0000
# 2 54.7089 165.8723 41.9833 0.0000 -13.3777 0.0000
# 3 34.6862 41.9833 94.8136 0.0000 4.0464 0.0000
# 4 0.0000 0.0000 0.0000 37.9814 0.0000 -0.2693
# 5 -2.0250 -13.3777 4.0464 0.0000 33.3390 0.0000
# 6 0.0000 0.0000 0.0000 -0.2693 0.0000 23.9393
#
#
#
# Elastic Compliance Matrix: (Units=1/GPa)
#
#
# Indices 1 2 3 4 5 6 
#
# 1 0.009989 -0.002687 -0.002457 0.000000 -0.000173 0.000000
# 2 -0.002687 0.007848 -0.002633 0.000000 0.003306 0.000000
# 3 -0.002457 -0.002633 0.012729 0.000000 -0.002751 0.000000
# 4 0.000000 0.000000 0.000000 0.026331 0.000000 0.000296
# 5 -0.000173 0.003306 -0.002751 0.000000 0.031645 0.000000
# 6 0.000000 0.000000 0.000000 0.000296 0.000000 0.041776
#
#
# Mechanical properties :
#
#
# Convention : Reuss Voigt Hill
#
# Bulk Modulus (GPa) = 66.61338 71.86245 69.23792
# Shear Modulus (GPa) = 33.13971 35.89373 34.51672
#
# Velocity S-wave (km/s) = 3.96267 4.12404 4.04416
# Velocity P-wave (km/s) = 7.24574 7.53179 7.39015
#
# Compressibility (1/GPa) = 0.01501200
#
# Stress axis : x y z
#
# Youngs Moduli (GPa) = 100.10718 127.42170 78.55821
#
# Poissons Ratio (x) = 0.34234 0.19305
# Poissons Ratio (y) = 0.26896 0.20686
# Poissons Ratio (z) = 0.24600 0.33553
#
# Static dielectric constant tensor:
#      x y z
#    x 3.635630 0.000000 0.102160 
#    y 0.000000 3.961330 0.000000 
#    z 0.102160 0.000000 3.866690 
# 
# 
# High freq. dielectric constant tensor:
#      x y z
#    x 1.806140 0.000000 0.017710 
#    y 0.000000 1.839200 0.000000 
#    z 0.017710 0.000000 1.838470 
# 
# From -- ./inp_files/92630.got.cif
#   From: 2010.06.25/outbox.cif.g09.slc.cpg/sg15_47_cif.got.tgz:92630.got - 2010.06.28 07:06:18.
