data_PCOD8138533
_publ_section_title
;
Structure prediction by ZEFSAII (Michael W. Deem and Ramdas Pophale) SiO2 
 PCOD8138533
Probable space group: C 2/C
;
_chemical_formula_sum "Si O2"
_cell_formula_units_Z 64
_cell_length_a 10.824628
_cell_length_b 11.845197
_cell_length_c 24.753701
_cell_angle_alpha 90.000000
_cell_angle_beta 89.920256
_cell_angle_gamma 90.000000
_cell_volume 3173.912783
_symmetry_space_group_name_H-M "C 2/C"
_symmetry_group_IT_number 15
_symmetry_cell_setting 'monoclinic'
loop_
_space_group_symop_operation_xyz
x,y,z
-x,y,1/2-z
-x,-y,-z
x,-y,1/2+z
1/2+x,1/2+y,z
1/2-x,1/2+y,1/2-z
1/2-x,1/2-y,-z
1/2+x,1/2-y,1/2+z
loop_
_atom_site_type_symbol
_atom_site_label
_atom_site_fract_x
_atom_site_fract_y
_atom_site_fract_z
Si Si1 0.865637 0.964753 0.836677
Si Si2 0.994517 0.516614 0.387670
Si Si3 0.366772 0.936831 0.209114
Si Si4 0.724734 0.242160 0.721837
Si Si5 0.360653 0.554283 0.660334
Si Si6 0.657391 0.896523 0.704069
Si Si7 0.726680 0.888364 0.059381
Si Si8 0.237495 0.378134 0.936454
O O1 0.845657 0.843826 0.807798
O O2 0.834103 0.947220 0.899955
O O3 0.774783 0.054952 0.810090
O O4 0.998677 0.020575 0.829805
O O5 0.049349 0.426420 0.344468
O O6 0.097145 0.588885 0.419334
O O7 0.920531 0.608422 0.351318
O O8 0.908195 0.441398 0.426509
O O9 0.382309 0.836532 0.252716
O O10 0.407660 0.046610 0.243462
O O11 0.818477 0.178545 0.680965
O O12 0.805642 0.273866 0.774804
O O13 0.283749 0.463812 0.693462
O O14 0.329299 0.550956 0.596449
O O15 0.732416 0.754208 0.068996
O O16 0.756914 0.918431 0.997721
#
# Coordination Sequence:
#
# PCOD8138533 Si02
#       8
#     8   8   8   8   8   8   8   8
#     4  10  21  39  58  90 124 158 206 248 298 365
#     4  10  20  38  58  84 124 154 194 258 294 364
#     4   9  20  36  54  85 121 160 200 234 300 362
#     4  10  20  38  55  86 125 164 192 248 294 358
#     4  10  21  39  58  90 124 158 206 248 298 365
#     4   9  20  36  54  85 121 160 200 234 300 362
#     4  10  21  39  63  89 115 156 206 254 313 356
#     4  10  21  39  63  89 115 156 206 254 313 356
#
# _framework density 20.164384999999999
#
# number of rings (size 3 to 8) (size 9 to 14) (size 15 to 20)
#    0.000    2.250    1.250    0.750    0.000    7.000 
#   13.500    0.000    0.000    0.000    0.000   13.125 
#    0.000    0.000    0.000    0.000    0.000    0.000 
#
# Total GULP energy -396420.071604 kJ/mol
# GULP energy per Si atom -12388.127238 kJ/mol
# Density = 2.011849 g / cm^3
# Si number density = 20.164385 Si / 1000 Ang^3
#
#
#
# Elastic Constant Matrix: (Units=GPa)
#
#
# Indices 1 2 3 4 5 6 
#
# 1 78.6162 -1.8282 16.5317 0.0000 11.2429 0.0000
# 2 -1.8282 34.7972 16.4970 0.0000 3.2903 0.0000
# 3 16.5317 16.4970 117.3941 0.0000 0.3205 0.0000
# 4 0.0000 0.0000 0.0000 23.1899 0.0000 1.3166
# 5 11.2429 3.2903 0.3205 0.0000 28.3036 0.0000
# 6 0.0000 0.0000 0.0000 1.3166 0.0000 17.2888
#
#
#
# Elastic Compliance Matrix: (Units=1/GPa)
#
#
# Indices 1 2 3 4 5 6 
#
# 1 0.014097 0.002386 -0.002305 0.000000 -0.005851 0.000000
# 2 0.002386 0.031550 -0.004757 0.000000 -0.004562 0.000000
# 3 -0.002305 -0.004757 0.009508 0.000000 0.001361 0.000000
# 4 0.000000 0.000000 0.000000 0.043309 0.000000 -0.003298
# 5 -0.005851 -0.004562 0.001361 0.000000 0.038170 0.000000
# 6 0.000000 0.000000 0.000000 -0.003298 0.000000 0.058092
#
#
# Mechanical properties :
#
#
# Convention : Reuss Voigt Hill
#
# Bulk Modulus (GPa) = 21.83222 32.57873 27.20548
# Shear Modulus (GPa) = 22.79514 27.06358 24.92936
#
# Velocity S-wave (km/s) = 3.36589 3.66751 3.51993
# Velocity P-wave (km/s) = 5.09472 5.84173 5.48097
#
# Compressibility (1/GPa) = 0.04580386
#
# Stress axis : x y z
#
# Youngs Moduli (GPa) = 70.93765 31.69572 105.17840
#
# Poissons Ratio (x) = -0.07564 0.24239
# Poissons Ratio (y) = -0.16929 0.50036
# Poissons Ratio (z) = 0.16348 0.15078
#
# Static dielectric constant tensor:
#      x y z
#    x 3.635730 0.000000 0.037090 
#    y 0.000000 3.491500 0.000000 
#    z 0.037090 0.000000 3.873580 
# 
# 
# High freq. dielectric constant tensor:
#      x y z
#    x 1.788900 0.000000 0.001800 
#    y 0.000000 1.769380 0.000000 
#    z 0.001800 0.000000 1.797290 
# 
# From -- ./inp_files/268926.got.cif
#   From: 2010.06.25/outbox.cif.g09.slc.cpg/sg15_135_cif.got.tgz:268926.got - 2010.06.28 07:06:18.
