data_PCOD8138356
_publ_section_title
;
Structure prediction by ZEFSAII (Michael W. Deem and Ramdas Pophale) SiO2 
 PCOD8138356
Probable space group: C 2/C
;
_chemical_formula_sum "Si O2"
_cell_formula_units_Z 48
_cell_length_a 13.969912
_cell_length_b 11.637041
_cell_length_c 14.392730
_cell_angle_alpha 90.000000
_cell_angle_beta 84.443783
_cell_angle_gamma 90.000000
_cell_volume 2328.810494
_symmetry_space_group_name_H-M "C 2/C"
_symmetry_group_IT_number 15
_symmetry_cell_setting 'monoclinic'
loop_
_space_group_symop_operation_xyz
x,y,z
-x,y,1/2-z
-x,-y,-z
x,-y,1/2+z
1/2+x,1/2+y,z
1/2-x,1/2+y,1/2-z
1/2-x,1/2-y,-z
1/2+x,1/2-y,1/2+z
loop_
_atom_site_type_symbol
_atom_site_label
_atom_site_fract_x
_atom_site_fract_y
_atom_site_fract_z
Si Si1 0.550880 0.236896 0.487718
Si Si2 0.315144 0.582872 0.831470
Si Si3 0.146572 0.924388 0.377974
Si Si4 0.482072 0.409595 0.853858
Si Si5 0.156978 0.294053 0.561162
Si Si6 0.305493 0.971228 0.501224
O O1 0.583967 0.307915 0.393394
O O2 0.565678 0.310776 0.580004
O O3 0.437717 0.217660 0.492223
O O4 0.608552 0.117446 0.489043
O O5 0.294041 0.573056 0.723752
O O6 0.410118 0.515286 0.851036
O O7 0.341816 0.717200 0.846065
O O8 0.224784 0.532313 0.898307
O O9 0.215220 0.911465 0.460870
O O10 0.079474 0.038258 0.391025
O O11 0.500000 0.356532 0.750000
O O12 0.250000 0.250000 0.500000
O O13 0.164529 0.430933 0.577099
#
# Coordination Sequence:
#
# PCOD8138356 Si02
#       6
#     8   8   8   8   8   8
#     4  12  22  40  65  91 128 169 211 265 325 378
#     4  10  21  40  63  95 120 169 220 260 320 370
#     4  11  22  38  67  92 125 166 218 274 305 378
#     4  10  20  37  63  90 119 162 221 268 307 363
#     4  10  22  41  64  86 126 167 214 258 319 387
#     4  11  24  41  60  96 132 169 201 266 330 390
#
# _framework density 20.611381999999999
#
# number of rings (size 3 to 8) (size 9 to 14) (size 15 to 20)
#    0.000    1.333    3.333    3.500    0.000    1.333 
#    9.000    0.000    3.667    0.000    0.000    0.000 
#    0.000    0.000    0.000    0.000    0.000    0.000 
#
# Total GULP energy -297431.846988 kJ/mol
# GULP energy per Si atom -12392.993624 kJ/mol
# Density = 2.056447 g / cm^3
# Si number density = 20.611382 Si / 1000 Ang^3
#
#
#
# Elastic Constant Matrix: (Units=GPa)
#
#
# Indices 1 2 3 4 5 6 
#
# 1 104.8186 38.6203 36.8444 0.0000 0.6278 0.0000
# 2 38.6203 124.2901 47.3480 0.0000 -17.0732 0.0000
# 3 36.8444 47.3480 90.7474 0.0000 -16.7584 0.0000
# 4 0.0000 0.0000 0.0000 17.1094 0.0000 -0.9669
# 5 0.6278 -17.0732 -16.7584 0.0000 23.4373 0.0000
# 6 0.0000 0.0000 0.0000 -0.9669 0.0000 32.3845
#
#
#
# Elastic Compliance Matrix: (Units=1/GPa)
#
#
# Indices 1 2 3 4 5 6 
#
# 1 0.012209 -0.002849 -0.004510 0.000000 -0.005627 0.000000
# 2 -0.002849 0.011062 -0.003587 0.000000 0.005570 0.000000
# 3 -0.004510 -0.003587 0.016431 0.000000 0.009257 0.000000
# 4 0.000000 0.000000 0.000000 0.058546 0.000000 0.001748
# 5 -0.005627 0.005570 0.009257 0.000000 0.053495 0.000000
# 6 0.000000 0.000000 0.000000 0.001748 0.000000 0.030931
#
#
# Mechanical properties :
#
#
# Convention : Reuss Voigt Hill
#
# Bulk Modulus (GPa) = 56.13966 62.83128 59.48547
# Shear Modulus (GPa) = 23.75276 27.72247 25.73761
#
# Velocity S-wave (km/s) = 3.39840 3.67141 3.53754
# Velocity P-wave (km/s) = 6.53415 6.96580 6.75342
#
# Compressibility (1/GPa) = 0.01781272
#
# Stress axis : x y z
#
# Youngs Moduli (GPa) = 81.90861 90.39730 60.85892
#
# Poissons Ratio (x) = 0.25750 0.27446
# Poissons Ratio (y) = 0.23332 0.21828
# Poissons Ratio (z) = 0.36938 0.32422
#
# Static dielectric constant tensor:
#      x y z
#    x 3.710610 0.000000 -0.214990 
#    y 0.000000 3.974550 0.000000 
#    z -0.214990 0.000000 3.817200 
# 
# 
# High freq. dielectric constant tensor:
#      x y z
#    x 1.806470 0.000000 -0.008780 
#    y 0.000000 1.805700 0.000000 
#    z -0.008780 0.000000 1.790830 
# 
# From -- ./inp_files/152047.got.cif
#   From: 2010.06.25/outbox.cif.g09.slc.cpg/sg15_77_cif.got.tgz:152047.got - 2010.06.28 07:06:18.
