data_PCOD8138775
_publ_section_title
;
Structure prediction by ZEFSAII (Michael W. Deem and Ramdas Pophale) SiO2 
 PCOD8138775
Probable space group: C 2/C
;
_chemical_formula_sum "Si O2"
_cell_formula_units_Z 48
_cell_length_a 26.572546
_cell_length_b 10.349805
_cell_length_c 9.119463
_cell_angle_alpha 90.000000
_cell_angle_beta 99.368493
_cell_angle_gamma 90.000000
_cell_volume 2474.588133
_symmetry_space_group_name_H-M "C 2/C"
_symmetry_group_IT_number 15
_symmetry_cell_setting 'monoclinic'
loop_
_space_group_symop_operation_xyz
x,y,z
-x,y,1/2-z
-x,-y,-z
x,-y,1/2+z
1/2+x,1/2+y,z
1/2-x,1/2+y,1/2-z
1/2-x,1/2-y,-z
1/2+x,1/2-y,1/2+z
loop_
_atom_site_type_symbol
_atom_site_label
_atom_site_fract_x
_atom_site_fract_y
_atom_site_fract_z
Si Si1 0.550146 0.360971 0.349133
Si Si2 0.343845 0.258403 0.751194
Si Si3 0.658535 0.251540 0.409155
Si Si4 0.219322 0.995792 0.324335
Si Si5 0.549262 0.630570 0.191819
Si Si6 0.291827 0.989577 0.108101
O O1 0.500000 0.296956 0.250000
O O2 0.598160 0.266442 0.352713
O O3 0.562615 0.493653 0.271250
O O4 0.539011 0.389852 0.514381
O O5 0.317138 0.382512 0.666619
O O6 0.404489 0.270961 0.761406
O O7 0.327444 0.132072 0.656066
O O8 0.328020 0.248582 0.912943
O O9 0.689734 0.366459 0.350783
O O10 0.675832 0.118377 0.342559
O O11 0.273529 0.012466 0.431758
O O12 0.237428 0.985727 0.165379
O O13 0.500000 0.690773 0.250000
#
# Coordination Sequence:
#
# PCOD8138775 Si02
#       6
#     8   8   8   8   8   8
#     4  10  20  38  62  88 118 152 195 249 300 351
#     4  11  23  41  62  91 121 161 202 245 301 355
#     4  11  23  42  61  89 127 156 200 253 297 352
#     4  12  22  41  64  86 122 163 205 247 291 353
#     4  10  20  38  61  89 120 148 196 252 295 355
#     4  12  24  41  60  88 126 163 199 249 294 354
#
# _framework density 19.397167
#
# number of rings (size 3 to 8) (size 9 to 14) (size 15 to 20)
#    0.000    1.000    5.000    4.000    0.000    0.000 
#    9.000    0.833    0.000    4.000    0.000    0.000 
#    0.000    0.000    0.000    0.000    0.000    0.000 
#
# Total GULP energy -297641.325503 kJ/mol
# GULP energy per Si atom -12401.721896 kJ/mol
# Density = 1.935302 g / cm^3
# Si number density = 19.397167 Si / 1000 Ang^3
#
#
#
# Elastic Constant Matrix: (Units=GPa)
#
#
# Indices 1 2 3 4 5 6 
#
# 1 106.6459 43.0165 32.0115 0.0000 6.9635 0.0000
# 2 43.0165 114.5535 20.5280 0.0000 10.4053 0.0000
# 3 32.0115 20.5280 68.7280 0.0000 6.7525 0.0000
# 4 0.0000 0.0000 0.0000 21.4418 0.0000 -2.1662
# 5 6.9635 10.4053 6.7525 0.0000 36.0945 0.0000
# 6 0.0000 0.0000 0.0000 -2.1662 0.0000 19.5400
#
#
#
# Elastic Compliance Matrix: (Units=1/GPa)
#
#
# Indices 1 2 3 4 5 6 
#
# 1 0.012290 -0.003759 -0.004559 0.000000 -0.000435 0.000000
# 2 -0.003759 0.010545 -0.001193 0.000000 -0.002091 0.000000
# 3 -0.004559 -0.001193 0.017226 0.000000 -0.001999 0.000000
# 4 0.000000 0.000000 0.000000 0.047166 0.000000 0.005229
# 5 -0.000435 -0.002091 -0.001999 0.000000 0.028766 0.000000
# 6 0.000000 0.000000 0.000000 0.005229 0.000000 0.051757
#
#
# Mechanical properties :
#
#
# Convention : Reuss Voigt Hill
#
# Bulk Modulus (GPa) = 47.53051 53.44882 50.48967
# Shear Modulus (GPa) = 25.80190 28.37336 27.08763
#
# Velocity S-wave (km/s) = 3.65113 3.82875 3.74100
# Velocity P-wave (km/s) = 6.50626 6.86735 6.68924
#
# Compressibility (1/GPa) = 0.02103912
#
# Stress axis : x y z
#
# Youngs Moduli (GPa) = 81.36937 94.83378 58.05052
#
# Poissons Ratio (x) = 0.35643 0.26464
# Poissons Ratio (y) = 0.30583 0.06928
# Poissons Ratio (z) = 0.37095 0.11318
#
# Static dielectric constant tensor:
#      x y z
#    x 3.666430 0.000000 0.052800 
#    y 0.000000 3.333100 0.000000 
#    z 0.052800 0.000000 3.678520 
# 
# 
# High freq. dielectric constant tensor:
#      x y z
#    x 1.765430 0.000000 0.000530 
#    y 0.000000 1.736280 0.000000 
#    z 0.000530 0.000000 1.765710 
# 
# From -- ./inp_files/64894.got.cif
#   From: 2010.06.25/outbox.cif.g09.slc.cpg/sg15_33_cif.got.tgz:64894.got - 2010.06.28 07:06:18.
