data_PCOD8138280
_publ_section_title
;
Structure prediction by ZEFSAII (Michael W. Deem and Ramdas Pophale) SiO2 
 PCOD8138280
Probable space group: C 2/C
;
_chemical_formula_sum "Si O2"
_cell_formula_units_Z 56
_cell_length_a 14.353183
_cell_length_b 9.013555
_cell_length_c 25.046367
_cell_angle_alpha 90.000000
_cell_angle_beta 57.145319
_cell_angle_gamma 90.000000
_cell_volume 2722.035691
_symmetry_space_group_name_H-M "C 2/C"
_symmetry_group_IT_number 15
_symmetry_cell_setting 'monoclinic'
loop_
_space_group_symop_operation_xyz
x,y,z
-x,y,1/2-z
-x,-y,-z
x,-y,1/2+z
1/2+x,1/2+y,z
1/2-x,1/2+y,1/2-z
1/2-x,1/2-y,-z
1/2+x,1/2-y,1/2+z
loop_
_atom_site_type_symbol
_atom_site_label
_atom_site_fract_x
_atom_site_fract_y
_atom_site_fract_z
Si Si1 0.179609 0.401849 0.417065
Si Si2 0.545153 0.920898 0.880575
Si Si3 0.883321 0.065274 0.053860
Si Si4 0.333696 0.384922 0.169704
Si Si5 0.290821 0.913851 0.976917
Si Si6 0.373767 0.661756 0.775483
Si Si7 0.892815 0.494348 0.251581
O O1 0.079575 0.493693 0.422793
O O2 0.124619 0.242463 0.445786
O O3 0.210577 0.485877 0.463205
O O4 0.289763 0.398996 0.346342
O O5 0.602338 0.761580 0.866676
O O6 0.413900 0.905472 0.914647
O O7 0.587082 0.015316 0.817589
O O8 0.788605 0.003818 0.041731
O O9 0.869446 0.017305 0.119528
O O10 0.000000 0.000000 0.000000
O O11 0.354310 0.422553 0.225497
O O12 0.200672 0.373965 0.204221
O O13 0.250000 0.750000 0.000000
O O14 0.500000 0.624801 0.750000
O O15 0.355306 0.838414 0.777932
O O16 0.000000 0.443326 0.250000
#
# Coordination Sequence:
#
# PCOD8138280 Si02
#       7
#     8   8   8   8   8   8   8
#     4  11  22  42  63  92 128 165 209 257 318 370
#     4  11  23  40  63  93 125 162 203 259 319 370
#     4  11  24  41  65  92 122 164 216 259 303 366
#     4  11  21  38  64  93 126 155 214 255 309 373
#     4  10  23  40  66  90 118 167 217 247 300 381
#     4  10  22  36  65  92 123 168 208 254 309 377
#     4  10  20  37  62  89 124 164 205 249 308 374
#
# _framework density 20.572838999999998
#
# number of rings (size 3 to 8) (size 9 to 14) (size 15 to 20)
#    0.000    1.429    2.857    3.000   12.000    0.000 
#    0.000    5.000    0.000    0.000    0.000    0.000 
#    0.000    0.000    0.000    0.000    0.000    0.000 
#
# Total GULP energy -347043.966897 kJ/mol
# GULP energy per Si atom -12394.427389 kJ/mol
# Density = 2.052601 g / cm^3
# Si number density = 20.572839 Si / 1000 Ang^3
#
#
#
# Elastic Constant Matrix: (Units=GPa)
#
#
# Indices 1 2 3 4 5 6 
#
# 1 150.3224 30.4682 42.9534 0.0000 -13.7806 0.0000
# 2 30.4682 27.5283 19.4135 0.0000 -3.4640 0.0000
# 3 42.9534 19.4135 97.7331 0.0000 -10.0278 0.0000
# 4 0.0000 0.0000 0.0000 21.6897 0.0000 6.2741
# 5 -13.7806 -3.4640 -10.0278 0.0000 49.8697 0.0000
# 6 0.0000 0.0000 0.0000 6.2741 0.0000 28.0419
#
#
#
# Elastic Compliance Matrix: (Units=1/GPa)
#
#
# Indices 1 2 3 4 5 6 
#
# 1 0.009107 -0.008346 -0.002191 0.000000 0.001496 0.000000
# 2 -0.008346 0.049972 -0.006268 0.000000 -0.000096 0.000000
# 3 -0.002191 -0.006268 0.012593 0.000000 0.001491 0.000000
# 4 0.000000 0.000000 0.000000 0.049295 0.000000 -0.011029
# 5 0.001496 -0.000096 0.001491 0.000000 0.020759 0.000000
# 6 0.000000 0.000000 0.000000 -0.011029 0.000000 0.038129
#
#
# Mechanical properties :
#
#
# Convention : Reuss Voigt Hill
#
# Bulk Modulus (GPa) = 26.27326 51.25046 38.76186
# Shear Modulus (GPa) = 22.10882 32.10351 27.10617
#
# Velocity S-wave (km/s) = 3.28176 3.95458 3.63377
# Velocity P-wave (km/s) = 5.21138 6.76885 6.04052
#
# Compressibility (1/GPa) = 0.03806152
#
# Stress axis : x y z
#
# Youngs Moduli (GPa) = 109.80133 20.01107 79.40881
#
# Poissons Ratio (x) = 0.16702 0.17400
# Poissons Ratio (y) = 0.91645 0.49773
# Poissons Ratio (z) = 0.24060 0.12543
#
# Static dielectric constant tensor:
#      x y z
#    x 4.319640 0.000000 0.373440 
#    y 0.000000 3.395010 0.000000 
#    z 0.373440 0.000000 4.441230 
# 
# 
# High freq. dielectric constant tensor:
#      x y z
#    x 1.824390 0.000000 0.004090 
#    y 0.000000 1.756660 0.000000 
#    z 0.004090 0.000000 1.830950 
# 
# From -- ./inp_files/273079.got.cif
#   From: 2010.06.25/outbox.cif.g09.slc.cpg/sg15_137_cif.got.tgz:273079.got - 2010.06.28 07:06:18.
