data_PCOD8138545
_publ_section_title
;
Structure prediction by ZEFSAII (Michael W. Deem and Ramdas Pophale) SiO2 
 PCOD8138545
Probable space group: C 2/C
;
_chemical_formula_sum "Si O2"
_cell_formula_units_Z 60
_cell_length_a 14.368096
_cell_length_b 11.858637
_cell_length_c 16.845934
_cell_angle_alpha 90.000000
_cell_angle_beta 78.784950
_cell_angle_gamma 90.000000
_cell_volume 2815.500713
_symmetry_space_group_name_H-M "C 2/C"
_symmetry_group_IT_number 15
_symmetry_cell_setting 'monoclinic'
loop_
_space_group_symop_operation_xyz
x,y,z
-x,y,1/2-z
-x,-y,-z
x,-y,1/2+z
1/2+x,1/2+y,z
1/2-x,1/2+y,1/2-z
1/2-x,1/2-y,-z
1/2+x,1/2-y,1/2+z
loop_
_atom_site_type_symbol
_atom_site_label
_atom_site_fract_x
_atom_site_fract_y
_atom_site_fract_z
Si Si1 0.627350 0.778757 0.362742
Si Si2 0.300896 0.532403 0.154061
Si Si3 0.090649 0.627782 0.191985
Si Si4 0.319685 0.275647 0.870805
Si Si5 0.239453 0.574508 0.516248
Si Si6 0.077192 0.411597 0.516058
Si Si7 0.305701 0.319390 0.248426
Si Si8 0.000000 0.257418 0.250000
O O1 0.634827 0.643196 0.350831
O O2 0.583273 0.806346 0.455128
O O3 0.730657 0.833093 0.333099
O O4 0.558536 0.829657 0.305257
O O5 0.187359 0.555259 0.184228
O O6 0.316540 0.474553 0.065572
O O7 0.336106 0.443984 0.215022
O O8 0.058743 0.640221 0.105721
O O9 0.105449 0.750163 0.231072
O O10 0.000000 0.569266 0.250000
O O11 0.326600 0.166694 0.927550
O O12 0.242197 0.252770 0.815098
O O13 0.420587 0.309901 0.814653
O O14 0.290334 0.380001 0.929735
O O15 0.177440 0.472045 0.496076
O O16 0.000000 0.500000 0.500000
#
# Coordination Sequence:
#
# PCOD8138545 Si02
#       8
#     8   8   8   8   8   8   8   4
#     4  10  22  39  61  87 127 161 208 267 312 393
#     4   9  20  41  62  90 123 173 213 249 336 383
#     4  10  23  40  63  98 130 162 217 276 313 386
#     4   9  18  36  61  85 121 162 215 259 315 385
#     4   9  19  36  59  89 119 164 206 263 320 390
#     4  11  24  38  61  99 125 163 214 270 332 370
#     4   9  20  38  63  87 121 171 204 260 321 383
#     4  10  20  38  56  84 116 162 204 260 308 368
#
# _framework density 21.310596
#
# number of rings (size 3 to 8) (size 9 to 14) (size 15 to 20)
#    0.000    2.400    0.000    0.800    3.733    8.000 
#   12.000    0.667    0.000    0.000    0.000    0.000 
#    0.000    0.000    0.000    0.000    0.000    0.000 
#
# Total GULP energy -371748.121296 kJ/mol
# GULP energy per Si atom -12391.604043 kJ/mol
# Density = 2.126209 g / cm^3
# Si number density = 21.310596 Si / 1000 Ang^3
#
#
#
# Elastic Constant Matrix: (Units=GPa)
#
#
# Indices 1 2 3 4 5 6 
#
# 1 65.5476 19.7107 41.3035 0.0000 2.0897 0.0000
# 2 19.7107 102.6054 49.3190 0.0000 5.7204 0.0000
# 3 41.3035 49.3190 160.4249 0.0000 -4.7519 0.0000
# 4 0.0000 0.0000 0.0000 39.0133 0.0000 7.4873
# 5 2.0897 5.7204 -4.7519 0.0000 30.1763 0.0000
# 6 0.0000 0.0000 0.0000 7.4873 0.0000 19.8746
#
#
#
# Elastic Compliance Matrix: (Units=1/GPa)
#
#
# Indices 1 2 3 4 5 6 
#
# 1 0.018485 -0.001341 -0.004398 0.000000 -0.001718 0.000000
# 2 -0.001341 0.011762 -0.003350 0.000000 -0.002664 0.000000
# 3 -0.004398 -0.003350 0.008463 0.000000 0.002272 0.000000
# 4 0.000000 0.000000 0.000000 0.027630 0.000000 -0.010409
# 5 -0.001718 -0.002664 0.002272 0.000000 0.034120 0.000000
# 6 0.000000 0.000000 0.000000 -0.010409 0.000000 0.054237
#
#
# Mechanical properties :
#
#
# Convention : Reuss Voigt Hill
#
# Bulk Modulus (GPa) = 48.70239 61.02714 54.86477
# Shear Modulus (GPa) = 27.82108 32.36250 30.09179
#
# Velocity S-wave (km/s) = 3.61710 3.90116 3.76181
# Velocity P-wave (km/s) = 6.35199 6.99938 6.68352
#
# Compressibility (1/GPa) = 0.02053287
#
# Stress axis : x y z
#
# Youngs Moduli (GPa) = 54.09663 85.01695 118.16421
#
# Poissons Ratio (x) = 0.11404 0.51967
# Poissons Ratio (y) = 0.07257 0.39581
# Poissons Ratio (z) = 0.23791 0.28478
#
# Static dielectric constant tensor:
#      x y z
#    x 3.523340 0.000000 -0.194650 
#    y 0.000000 3.597890 0.000000 
#    z -0.194650 0.000000 3.386060 
# 
# 
# High freq. dielectric constant tensor:
#      x y z
#    x 1.814930 0.000000 0.012100 
#    y 0.000000 1.812780 0.000000 
#    z 0.012100 0.000000 1.852380 
# 
# From -- ./inp_files/204412.got.cif
#   From: 2010.06.25/outbox.cif.g09.slc.cpg/sg15_103_cif.got.tgz:204412.got - 2010.06.28 07:06:18.
