data_PCOD8138881
_publ_section_title
;
Structure prediction by ZEFSAII (Michael W. Deem and Ramdas Pophale) SiO2 
 PCOD8138881
Probable space group: C 2/C
;
_chemical_formula_sum "Si O2"
_cell_formula_units_Z 56
_cell_length_a 22.114473
_cell_length_b 15.656784
_cell_length_c 8.824466
_cell_angle_alpha 90.000000
_cell_angle_beta 61.955195
_cell_angle_gamma 90.000000
_cell_volume 2696.632523
_symmetry_space_group_name_H-M "C 2/C"
_symmetry_group_IT_number 15
_symmetry_cell_setting 'monoclinic'
loop_
_space_group_symop_operation_xyz
x,y,z
-x,y,1/2-z
-x,-y,-z
x,-y,1/2+z
1/2+x,1/2+y,z
1/2-x,1/2+y,1/2-z
1/2-x,1/2-y,-z
1/2+x,1/2-y,1/2+z
loop_
_atom_site_type_symbol
_atom_site_label
_atom_site_fract_x
_atom_site_fract_y
_atom_site_fract_z
Si Si1 0.545187 0.748658 0.967787
Si Si2 0.638057 0.424327 0.661228
Si Si3 0.100079 0.254837 0.236251
Si Si4 0.567602 0.556065 0.933154
Si Si5 0.293369 0.897386 0.405654
Si Si6 0.568553 0.907624 0.754443
Si Si7 0.642116 0.999081 0.418252
O O1 0.551430 0.652283 0.894893
O O2 0.573205 0.809245 0.800861
O O3 0.589865 0.756474 0.066999
O O4 0.468288 0.783747 0.094179
O O5 0.610583 0.341703 0.783538
O O6 0.631347 0.510233 0.769873
O O7 0.587448 0.440778 0.583270
O O8 0.712678 0.392850 0.521957
O O9 0.167081 0.311674 0.196258
O O10 0.500000 0.500000 0.000000
O O11 0.300570 0.966580 0.264585
O O12 0.327857 0.921537 0.524412
O O13 0.500000 0.934402 0.750000
O O14 0.625272 0.924382 0.558273
O O15 0.578203 0.968314 0.890924
#
# Coordination Sequence:
#
# PCOD8138881 Si02
#       7
#     8   8   8   8   8   8   8
#     4  10  21  38  62  93 129 159 210 261 324 368
#     4  11  23  39  66  91 120 169 210 257 321 379
#     4  10  20  38  62  90 122 166 205 262 306 383
#     4  11  22  42  65  93 126 160 214 271 324 375
#     4  11  21  41  61  89 126 166 213 252 311 384
#     4  11  21  37  59  92 122 161 203 255 313 367
#     4  10  23  38  60  85 127 162 204 252 303 371
#
# _framework density 20.766639999999999
#
# number of rings (size 3 to 8) (size 9 to 14) (size 15 to 20)
#    0.000    1.429    2.857    3.000    0.000    2.286 
#    2.571    0.000    0.000    3.429    0.000    0.000 
#    0.000    0.000    0.000    0.000    0.000    0.000 
#
# Total GULP energy -346986.673473 kJ/mol
# GULP energy per Si atom -12392.381195 kJ/mol
# Density = 2.071937 g / cm^3
# Si number density = 20.766640 Si / 1000 Ang^3
#
#
#
# Elastic Constant Matrix: (Units=GPa)
#
#
# Indices 1 2 3 4 5 6 
#
# 1 72.8330 29.6966 19.8098 0.0000 -5.9705 0.0000
# 2 29.6966 125.8012 45.8123 0.0000 -0.0698 0.0000
# 3 19.8098 45.8123 64.8354 0.0000 4.0829 0.0000
# 4 0.0000 0.0000 0.0000 34.8076 0.0000 -5.6425
# 5 -5.9705 -0.0698 4.0829 0.0000 32.5011 0.0000
# 6 0.0000 0.0000 0.0000 -5.6425 0.0000 26.9585
#
#
#
# Elastic Compliance Matrix: (Units=1/GPa)
#
#
# Indices 1 2 3 4 5 6 
#
# 1 0.015940 -0.002573 -0.003262 0.000000 0.003332 0.000000
# 2 -0.002573 0.011150 -0.007120 0.000000 0.000446 0.000000
# 3 -0.003262 -0.007120 0.021661 0.000000 -0.003336 0.000000
# 4 0.000000 0.000000 0.000000 0.029738 0.000000 0.006224
# 5 0.003332 0.000446 -0.003336 0.000000 0.031800 0.000000
# 6 0.000000 0.000000 0.000000 0.006224 0.000000 0.038397
#
#
# Mechanical properties :
#
#
# Convention : Reuss Voigt Hill
#
# Bulk Modulus (GPa) = 43.78209 50.45635 47.11922
# Shear Modulus (GPa) = 27.44093 30.06351 28.75222
#
# Velocity S-wave (km/s) = 3.63904 3.80897 3.72498
# Velocity P-wave (km/s) = 6.22780 6.61014 6.42182
#
# Compressibility (1/GPa) = 0.02284039
#
# Stress axis : x y z
#
# Youngs Moduli (GPa) = 62.73722 89.68955 46.16494
#
# Poissons Ratio (x) = 0.23077 0.15059
# Poissons Ratio (y) = 0.16142 0.32870
# Poissons Ratio (z) = 0.20465 0.63860
#
# Static dielectric constant tensor:
#      x y z
#    x 3.694820 0.000000 0.046180 
#    y 0.000000 3.967490 0.000000 
#    z 0.046180 0.000000 3.738620 
# 
# 
# High freq. dielectric constant tensor:
#      x y z
#    x 1.804220 0.000000 0.003450 
#    y 0.000000 1.817100 0.000000 
#    z 0.003450 0.000000 1.804820 
# 
# From -- ./inp_files/61836.got.cif
#   From: 2010.06.25/outbox.cif.g09.slc.cpg/sg15_31_cif.got.tgz:61836.got - 2010.06.28 07:06:18.
