data_PCOD8138259
_publ_section_title
;
Structure prediction by ZEFSAII (Michael W. Deem and Ramdas Pophale) SiO2 
 PCOD8138259
Probable space group: C 2/C
;
_chemical_formula_sum "Si O2"
_cell_formula_units_Z 60
_cell_length_a 24.995450
_cell_length_b 8.854473
_cell_length_c 21.204480
_cell_angle_alpha 90.000000
_cell_angle_beta 141.272185
_cell_angle_gamma 90.000000
_cell_volume 2936.046551
_symmetry_space_group_name_H-M "C 2/C"
_symmetry_group_IT_number 15
_symmetry_cell_setting 'monoclinic'
loop_
_space_group_symop_operation_xyz
x,y,z
-x,y,1/2-z
-x,-y,-z
x,-y,1/2+z
1/2+x,1/2+y,z
1/2-x,1/2+y,1/2-z
1/2-x,1/2-y,-z
1/2+x,1/2-y,1/2+z
loop_
_atom_site_type_symbol
_atom_site_label
_atom_site_fract_x
_atom_site_fract_y
_atom_site_fract_z
Si Si1 0.809457 0.828161 0.733261
Si Si2 0.552943 0.707272 0.896907
Si Si3 0.570876 0.627621 0.386850
Si Si4 0.000000 0.562187 0.250000
Si Si5 0.852758 0.835418 0.413258
Si Si6 0.193147 0.826766 0.627874
Si Si7 0.370141 0.660261 0.789186
Si Si8 0.599961 0.211946 0.797501
O O1 0.707082 0.812419 0.639326
O O2 0.838552 0.779915 0.830686
O O3 0.836440 0.711934 0.702805
O O4 0.839878 0.993428 0.742316
O O5 0.581697 0.552093 0.889586
O O6 0.558365 0.838840 0.850370
O O7 0.454045 0.704245 0.827687
O O8 0.620597 0.741301 0.014835
O O9 0.581910 0.677673 0.469472
O O10 0.474073 0.669404 0.285287
O O11 0.634255 0.720184 0.396840
O O12 0.933440 0.458508 0.227084
O O13 0.900523 0.834319 0.390041
O O14 0.799630 0.991953 0.370410
O O15 0.288210 0.765987 0.699452
#
# Coordination Sequence:
#
# PCOD8138259 Si02
#       8
#     8   8   8   4   8   8   8   8
#     4  10  20  37  62  84 119 151 192 241 294 341
#     4  11  21  39  64  84 117 160 190 243 293 345
#     4   9  19  36  58  83 111 149 203 227 283 351
#     4  10  24  38  56  84 122 146 200 244 288 344
#     4   9  20  36  58  86 121 146 190 247 281 350
#     4   9  22  39  59  93 119 147 198 240 291 351
#     4  10  21  36  62  89 118 153 194 237 297 344
#     4  10  21  37  58  83 114 154 193 246 283 345
#
# _framework density 20.435642000000001
#
# number of rings (size 3 to 8) (size 9 to 14) (size 15 to 20)
#    0.000    2.400    1.333    0.800    3.733    4.267 
#    0.000    1.333    0.000    0.000    0.000    0.000 
#    0.000    0.000    0.000    0.000    0.000    0.000 
#
# Total GULP energy -371707.887548 kJ/mol
# GULP energy per Si atom -12390.262918 kJ/mol
# Density = 2.038913 g / cm^3
# Si number density = 20.435642 Si / 1000 Ang^3
#
#
#
# Elastic Constant Matrix: (Units=GPa)
#
#
# Indices 1 2 3 4 5 6 
#
# 1 62.6518 9.1383 21.2002 0.0000 -6.4688 0.0000
# 2 9.1383 58.6516 28.7508 0.0000 -11.5930 0.0000
# 3 21.2002 28.7508 71.6686 0.0000 -13.3271 0.0000
# 4 0.0000 0.0000 0.0000 26.0949 0.0000 -0.8015
# 5 -6.4688 -11.5930 -13.3271 0.0000 29.3217 0.0000
# 6 0.0000 0.0000 0.0000 -0.8015 0.0000 25.5785
#
#
#
# Elastic Compliance Matrix: (Units=1/GPa)
#
#
# Indices 1 2 3 4 5 6 
#
# 1 0.017812 -0.000018 -0.004951 0.000000 0.001672 0.000000
# 2 -0.000018 0.021899 -0.007832 0.000000 0.005094 0.000000
# 3 -0.004951 -0.007832 0.019422 0.000000 0.004639 0.000000
# 4 0.000000 0.000000 0.000000 0.038359 0.000000 0.001202
# 5 0.001672 0.005094 0.004639 0.000000 0.038596 0.000000
# 6 0.000000 0.000000 0.000000 0.001202 0.000000 0.039133
#
#
# Mechanical properties :
#
#
# Convention : Reuss Voigt Hill
#
# Bulk Modulus (GPa) = 29.82316 34.57228 32.19772
# Shear Modulus (GPa) = 23.58495 25.12454 24.35475
#
# Velocity S-wave (km/s) = 3.40090 3.51015 3.45596
# Velocity P-wave (km/s) = 5.48151 5.77777 5.63158
#
# Compressibility (1/GPa) = 0.03353098
#
# Stress axis : x y z
#
# Youngs Moduli (GPa) = 56.14277 45.66416 51.48724
#
# Poissons Ratio (x) = 0.00081 0.25490
# Poissons Ratio (y) = 0.00100 0.40327
# Poissons Ratio (z) = 0.27795 0.35766
#
# Static dielectric constant tensor:
#      x y z
#    x 4.087990 0.000000 -0.527660 
#    y 0.000000 3.645340 0.000000 
#    z -0.527660 0.000000 3.819600 
# 
# 
# High freq. dielectric constant tensor:
#      x y z
#    x 1.795620 0.000000 -0.023860 
#    y 0.000000 1.793360 0.000000 
#    z -0.023860 0.000000 1.791220 
# 
# From -- ./inp_files/283224.got.cif
#   From: 2010.06.25/outbox.cif.g09.slc.cpg/sg15_142_cif.got.tgz:283224.got - 2010.06.28 07:06:18.
