data_PCOD8138865
_publ_section_title
;
Structure prediction by ZEFSAII (Michael W. Deem and Ramdas Pophale) SiO2 
 PCOD8138865
Probable space group: C 2/C
;
_chemical_formula_sum "Si O2"
_cell_formula_units_Z 60
_cell_length_a 28.550109
_cell_length_b 8.871947
_cell_length_c 23.259082
_cell_angle_alpha 90.000000
_cell_angle_beta 150.928806
_cell_angle_gamma 90.000000
_cell_volume 2862.612889
_symmetry_space_group_name_H-M "C 2/C"
_symmetry_group_IT_number 15
_symmetry_cell_setting 'monoclinic'
loop_
_space_group_symop_operation_xyz
x,y,z
-x,y,1/2-z
-x,-y,-z
x,-y,1/2+z
1/2+x,1/2+y,z
1/2-x,1/2+y,1/2-z
1/2-x,1/2-y,-z
1/2+x,1/2-y,1/2+z
loop_
_atom_site_type_symbol
_atom_site_label
_atom_site_fract_x
_atom_site_fract_y
_atom_site_fract_z
Si Si1 0.803091 0.216844 0.395776
Si Si2 0.060891 0.968260 0.994906
Si Si3 0.500000 0.826166 0.750000
Si Si4 0.354841 0.311547 0.609878
Si Si5 0.091853 0.805467 0.143633
Si Si6 0.976614 0.740038 0.634944
Si Si7 0.316934 0.645608 0.533764
Si Si8 0.984264 0.418888 0.608884
O O1 0.707781 0.294608 0.267238
O O2 0.772375 0.133219 0.422007
O O3 0.877702 0.350578 0.488988
O O4 0.852785 0.092666 0.406577
O O5 0.059310 0.841645 0.043262
O O6 0.074462 0.880788 0.950468
O O7 0.956730 0.052320 0.875909
O O8 0.418314 0.724217 0.636002
O O9 0.530394 0.915380 0.724059
O O10 0.250000 0.250000 0.500000
O O11 0.411598 0.219402 0.621645
O O12 0.413079 0.281818 0.731067
O O13 0.341156 0.488170 0.587995
O O14 0.051383 0.653160 0.130770
O O15 0.974908 0.598005 0.589647
O O16 0.250000 0.750000 0.500000
#
# Coordination Sequence:
#
# PCOD8138865 Si02
#       8
#     8   8   4   8   8   8   8   8
#     4  10  22  41  66  94 128 167 223 271 326 393
#     4  10  23  45  66  94 126 171 214 274 332 380
#     4  10  20  38  62  88 130 164 204 262 316 380
#     4  11  26  40  60  97 134 173 213 264 330 396
#     4  10  23  43  69  92 126 164 224 274 322 393
#     4  11  24  42  62  89 139 169 210 272 327 388
#     4  11  23  35  65  93 125 171 219 258 325 401
#     4  10  23  38  64  96 127 172 215 265 324 391
#
# _framework density 20.959871
#
# number of rings (size 3 to 8) (size 9 to 14) (size 15 to 20)
#    0.000    1.600    1.333    2.400   13.067    1.600 
#    0.000    5.333    0.000    0.000    0.000    0.000 
#    0.000    0.000    0.000    0.000    0.000    0.000 
#
# Total GULP energy -371655.037656 kJ/mol
# GULP energy per Si atom -12388.501255 kJ/mol
# Density = 2.091217 g / cm^3
# Si number density = 20.959871 Si / 1000 Ang^3
#
#
#
# Elastic Constant Matrix: (Units=GPa)
#
#
# Indices 1 2 3 4 5 6 
#
# 1 85.3291 37.1312 30.5903 0.0000 6.3757 0.0000
# 2 37.1312 111.8888 53.2634 0.0000 -1.6963 0.0000
# 3 30.5903 53.2634 109.2068 0.0000 19.4315 0.0000
# 4 0.0000 0.0000 0.0000 28.2574 0.0000 -4.3117
# 5 6.3757 -1.6963 19.4315 0.0000 23.9809 0.0000
# 6 0.0000 0.0000 0.0000 -4.3117 0.0000 33.4126
#
#
#
# Elastic Compliance Matrix: (Units=1/GPa)
#
#
# Indices 1 2 3 4 5 6 
#
# 1 0.014234 -0.004051 -0.001504 0.000000 -0.002852 0.000000
# 2 -0.004051 0.013680 -0.006895 0.000000 0.007632 0.000000
# 3 -0.001504 -0.006895 0.015140 0.000000 -0.012355 0.000000
# 4 0.000000 0.000000 0.000000 0.036100 0.000000 0.004658
# 5 -0.002852 0.007632 -0.012355 0.000000 0.053010 0.000000
# 6 0.000000 0.000000 0.000000 0.004658 0.000000 0.030530
#
#
# Mechanical properties :
#
#
# Convention : Reuss Voigt Hill
#
# Bulk Modulus (GPa) = 55.08594 60.93272 58.00933
# Shear Modulus (GPa) = 25.82039 29.49282 27.65660
#
# Velocity S-wave (km/s) = 3.51365 3.75521 3.63644
# Velocity P-wave (km/s) = 6.54214 6.92361 6.73558
#
# Compressibility (1/GPa) = 0.01815345
#
# Stress axis : x y z
#
# Youngs Moduli (GPa) = 70.25202 73.09939 66.05161
#
# Poissons Ratio (x) = 0.29614 0.09933
# Poissons Ratio (y) = 0.28460 0.45545
# Poissons Ratio (z) = 0.10565 0.50404
#
# Static dielectric constant tensor:
#      x y z
#    x 3.731910 0.000000 0.039800 
#    y 0.000000 3.569250 0.000000 
#    z 0.039800 0.000000 3.734340 
# 
# 
# High freq. dielectric constant tensor:
#      x y z
#    x 1.817000 0.000000 0.005100 
#    y 0.000000 1.822750 0.000000 
#    z 0.005100 0.000000 1.813510 
# 
# From -- ./inp_files/283391.got.cif
#   From: 2010.06.25/outbox.cif.g09.slc.cpg/sg15_142_cif.got.tgz:283391.got - 2010.06.28 07:06:18.
