data_PCOD8138890
_publ_section_title
;
Structure prediction by ZEFSAII (Michael W. Deem and Ramdas Pophale) SiO2 
 PCOD8138890
Probable space group: C 2/C
;
_chemical_formula_sum "Si O2"
_cell_formula_units_Z 56
_cell_length_a 23.331111
_cell_length_b 9.482456
_cell_length_c 14.387385
_cell_angle_alpha 90.000000
_cell_angle_beta 118.558741
_cell_angle_gamma 90.000000
_cell_volume 2795.725838
_symmetry_space_group_name_H-M "C 2/C"
_symmetry_group_IT_number 15
_symmetry_cell_setting 'monoclinic'
loop_
_space_group_symop_operation_xyz
x,y,z
-x,y,1/2-z
-x,-y,-z
x,-y,1/2+z
1/2+x,1/2+y,z
1/2-x,1/2+y,1/2-z
1/2-x,1/2-y,-z
1/2+x,1/2-y,1/2+z
loop_
_atom_site_type_symbol
_atom_site_label
_atom_site_fract_x
_atom_site_fract_y
_atom_site_fract_z
Si Si1 0.748468 0.415403 0.483410
Si Si2 0.383928 0.211042 0.342800
Si Si3 0.511818 0.003738 0.117042
Si Si4 0.340672 0.504745 0.745496
Si Si5 0.224368 0.486108 0.796182
Si Si6 0.874665 0.580662 0.538649
Si Si7 0.619351 0.800232 0.260574
O O1 0.750000 0.250000 0.500000
O O2 0.684014 0.454267 0.376022
O O3 0.741335 0.492092 0.577055
O O4 0.814426 0.471934 0.483475
O O5 0.387687 0.378248 0.328349
O O6 0.383341 0.172173 0.451799
O O7 0.443963 0.142243 0.331648
O O8 0.316760 0.158111 0.244328
O O9 0.441012 0.009528 0.111617
O O10 0.549035 0.863561 0.180248
O O11 0.500000 0.000000 0.000000
O O12 0.277225 0.487389 0.758187
O O13 0.381867 0.361743 0.771308
O O14 0.175394 0.618428 0.745662
O O15 0.864684 0.686148 0.617367
#
# Coordination Sequence:
#
# PCOD8138890 Si02
#       7
#     8   8   8   8   8   8   8
#     4  11  23  36  61  96 125 157 205 254 310 366
#     4  10  20  38  62  92 117 162 201 256 300 362
#     4   9  20  41  67  84 110 159 214 241 291 364
#     4  12  23  37  60  91 133 150 199 259 317 360
#     4  10  21  37  57  86 125 163 202 238 306 374
#     4  10  21  40  65  83 119 166 211 240 299 378
#     4  10  23  37  61  88 119 164 201 251 304 369
#
# _framework density 20.030577000000001
#
# number of rings (size 3 to 8) (size 9 to 14) (size 15 to 20)
#    0.000    1.714    2.857    1.286    2.000    1.143 
#    0.000    2.857    6.286    0.000    0.000    0.000 
#    0.000    0.000    0.000    0.000    0.000    0.000 
#
# Total GULP energy -347152.932783 kJ/mol
# GULP energy per Si atom -12398.319028 kJ/mol
# Density = 1.998499 g / cm^3
# Si number density = 20.030577 Si / 1000 Ang^3
#
#
#
# Elastic Constant Matrix: (Units=GPa)
#
#
# Indices 1 2 3 4 5 6 
#
# 1 59.2228 28.6062 15.3346 0.0000 1.1393 0.0000
# 2 28.6062 136.7363 26.8270 0.0000 4.8581 0.0000
# 3 15.3346 26.8270 87.6207 0.0000 -2.1697 0.0000
# 4 0.0000 0.0000 0.0000 27.8963 0.0000 -5.1171
# 5 1.1393 4.8581 -2.1697 0.0000 28.6518 0.0000
# 6 0.0000 0.0000 0.0000 -5.1171 0.0000 7.9022
#
#
#
# Elastic Compliance Matrix: (Units=1/GPa)
#
#
# Indices 1 2 3 4 5 6 
#
# 1 0.019200 -0.003558 -0.002279 0.000000 -0.000333 0.000000
# 2 -0.003558 0.008505 -0.002017 0.000000 -0.001453 0.000000
# 3 -0.002279 -0.002017 0.012463 0.000000 0.001377 0.000000
# 4 0.000000 0.000000 0.000000 0.040679 0.000000 0.026342
# 5 -0.000333 -0.001453 0.001377 0.000000 0.035266 0.000000
# 6 0.000000 0.000000 0.000000 0.026342 0.000000 0.143605
#
#
# Mechanical properties :
#
#
# Convention : Reuss Voigt Hill
#
# Bulk Modulus (GPa) = 40.88279 47.23506 44.05892
# Shear Modulus (GPa) = 17.63163 27.07753 22.35458
#
# Velocity S-wave (km/s) = 2.97010 3.68069 3.34432
# Velocity P-wave (km/s) = 5.67595 6.45724 6.07916
#
# Compressibility (1/GPa) = 0.02446017
#
# Stress axis : x y z
#
# Youngs Moduli (GPa) = 52.08199 117.57637 80.23460
#
# Poissons Ratio (x) = 0.41832 0.18287
# Poissons Ratio (y) = 0.18530 0.16186
# Poissons Ratio (z) = 0.11871 0.23719
#
# Static dielectric constant tensor:
#      x y z
#    x 3.922590 0.000000 0.071940 
#    y 0.000000 3.528200 0.000000 
#    z 0.071940 0.000000 3.904390 
# 
# 
# High freq. dielectric constant tensor:
#      x y z
#    x 1.770100 0.000000 -0.007620 
#    y 0.000000 1.763370 0.000000 
#    z -0.007620 0.000000 1.796570 
# 
# From -- ./inp_files/172468.got.cif
#   From: 2010.06.25/outbox.cif.g09.slc.cpg/sg15_87_cif.got.tgz:172468.got - 2010.06.28 07:06:18.
