data_PCOD8138068
_publ_section_title
;
Structure prediction by ZEFSAII (Michael W. Deem and Ramdas Pophale) SiO2 
 PCOD8138068
Probable space group: C 2/C
;
_chemical_formula_sum "Si O2"
_cell_formula_units_Z 44
_cell_length_a 7.612491
_cell_length_b 21.354632
_cell_length_c 12.063234
_cell_angle_alpha 90.000000
_cell_angle_beta 82.482749
_cell_angle_gamma 90.000000
_cell_volume 1944.168791
_symmetry_space_group_name_H-M "C 2/C"
_symmetry_group_IT_number 15
_symmetry_cell_setting 'monoclinic'
loop_
_space_group_symop_operation_xyz
x,y,z
-x,y,1/2-z
-x,-y,-z
x,-y,1/2+z
1/2+x,1/2+y,z
1/2-x,1/2+y,1/2-z
1/2-x,1/2-y,-z
1/2+x,1/2-y,1/2+z
loop_
_atom_site_type_symbol
_atom_site_label
_atom_site_fract_x
_atom_site_fract_y
_atom_site_fract_z
Si Si1 0.893295 0.908484 0.096542
Si Si2 0.500000 0.366860 0.750000
Si Si3 0.034858 0.202200 0.467479
Si Si4 0.298529 0.070243 0.116606
Si Si5 0.736674 0.065175 0.838131
Si Si6 0.419036 0.838199 0.990390
O O1 0.755814 0.916943 0.207714
O O2 0.075940 0.943522 0.113296
O O3 0.810099 0.933881 0.989942
O O4 0.941165 0.834828 0.076390
O O5 0.534497 0.322944 0.642659
O O6 0.327414 0.411716 0.768272
O O7 0.244200 0.187070 0.444376
O O8 0.979892 0.274884 0.481223
O O9 0.460281 0.119575 0.100289
O O10 0.368723 0.000339 0.138055
O O11 0.621012 0.120787 0.898351
#
# Coordination Sequence:
#
# PCOD8138068 Si02
#       6
#     8   4   8   8   8   8
#     4   9  20  37  60  81 115 157 197 239 284 350
#     4  10  22  38  62  84 112 154 196 236 286 350
#     4   9  21  41  59  85 115 153 195 238 294 347
#     4  11  22  37  58  88 116 151 196 242 290 347
#     4  10  20  37  58  84 117 158 192 235 297 347
#     4  10  22  38  59  86 121 149 190 247 291 345
#
# _framework density 22.631779000000002
#
# number of rings (size 3 to 8) (size 9 to 14) (size 15 to 20)
#    0.000    2.182    0.000    2.182    0.000   10.182 
#    0.000    5.455    0.000    0.000    0.000    0.000 
#    0.000    0.000    0.000    0.000    0.000    0.000 
#
# Total GULP energy -272706.466300 kJ/mol
# GULP energy per Si atom -12395.748468 kJ/mol
# Density = 2.258027 g / cm^3
# Si number density = 22.631779 Si / 1000 Ang^3
#
#
#
# Elastic Constant Matrix: (Units=GPa)
#
#
# Indices 1 2 3 4 5 6 
#
# 1 34.0124 25.6995 17.2287 0.0000 -10.3705 0.0000
# 2 25.6995 199.4585 57.3110 0.0000 -23.1423 0.0000
# 3 17.2287 57.3110 93.7906 0.0000 -28.1586 0.0000
# 4 0.0000 0.0000 0.0000 20.4289 0.0000 -14.2609
# 5 -10.3705 -23.1423 -28.1586 0.0000 34.4518 0.0000
# 6 0.0000 0.0000 0.0000 -14.2609 0.0000 29.2613
#
#
#
# Elastic Compliance Matrix: (Units=1/GPa)
#
#
# Indices 1 2 3 4 5 6 
#
# 1 0.034954 -0.002997 -0.002697 0.000000 0.006304 0.000000
# 2 -0.002997 0.006389 -0.003095 0.000000 0.000859 0.000000
# 3 -0.002697 -0.003095 0.016142 0.000000 0.010302 0.000000
# 4 0.000000 0.000000 0.000000 0.074191 0.000000 0.036158
# 5 0.006304 0.000859 0.010302 0.000000 0.039921 0.000000
# 6 0.000000 0.000000 0.000000 0.036158 0.000000 0.051797
#
#
# Mechanical properties :
#
#
# Convention : Reuss Voigt Hill
#
# Bulk Modulus (GPa) = 25.05878 58.63776 41.84827
# Shear Modulus (GPa) = 19.66379 31.96323 25.81351
#
# Velocity S-wave (km/s) = 2.95084 3.76216 3.38092
# Velocity P-wave (km/s) = 4.76512 6.69608 5.81136
#
# Compressibility (1/GPa) = 0.03990617
#
# Stress axis : x y z
#
# Youngs Moduli (GPa) = 28.60904 156.52185 61.95084
#
# Poissons Ratio (x) = 0.46917 0.16705
# Poissons Ratio (y) = 0.08575 0.19176
# Poissons Ratio (z) = 0.07714 0.48448
#
# Static dielectric constant tensor:
#      x y z
#    x 3.948540 0.000000 -0.189460 
#    y 0.000000 4.269550 0.000000 
#    z -0.189460 0.000000 3.982110 
# 
# 
# High freq. dielectric constant tensor:
#      x y z
#    x 1.878710 0.000000 -0.011990 
#    y 0.000000 1.901580 0.000000 
#    z -0.011990 0.000000 1.882530 
# 
# From -- ./inp_files/78106.got.cif
#   From: 2010.06.25/outbox.cif.g09.slc.cpg/sg15_40_cif.got.tgz:78106.got - 2010.06.28 07:06:18.
