data_PCOD8138717
_publ_section_title
;
Structure prediction by ZEFSAII (Michael W. Deem and Ramdas Pophale) SiO2 
 PCOD8138717
Probable space group: C 2/C
;
_chemical_formula_sum "Si O2"
_cell_formula_units_Z 56
_cell_length_a 13.777641
_cell_length_b 10.241126
_cell_length_c 19.241450
_cell_angle_alpha 90.000000
_cell_angle_beta 69.008138
_cell_angle_gamma 90.000000
_cell_volume 2534.753793
_symmetry_space_group_name_H-M "C 2/C"
_symmetry_group_IT_number 15
_symmetry_cell_setting 'monoclinic'
loop_
_space_group_symop_operation_xyz
x,y,z
-x,y,1/2-z
-x,-y,-z
x,-y,1/2+z
1/2+x,1/2+y,z
1/2-x,1/2+y,1/2-z
1/2-x,1/2-y,-z
1/2+x,1/2-y,1/2+z
loop_
_atom_site_type_symbol
_atom_site_label
_atom_site_fract_x
_atom_site_fract_y
_atom_site_fract_z
Si Si1 0.776273 0.489000 0.945103
Si Si2 0.782941 0.809923 0.737428
Si Si3 0.411112 0.892792 0.025554
Si Si4 0.079241 0.872085 0.918537
Si Si5 0.401401 0.179013 0.823106
Si Si6 0.118362 0.927120 0.589465
Si Si7 0.766256 0.062595 0.822084
O O1 0.684442 0.426234 0.924816
O O2 0.859044 0.551431 0.871994
O O3 0.842733 0.384866 0.972523
O O4 0.721609 0.585311 0.015547
O O5 0.888203 0.827081 0.667082
O O6 0.808084 0.738185 0.802655
O O7 0.741110 0.954884 0.768051
O O8 0.705954 0.706894 0.716904
O O9 0.459917 0.749722 0.024639
O O10 0.340309 0.928371 0.109165
O O11 0.500000 0.000000 0.000000
O O12 0.981561 0.974006 0.932703
O O13 0.500000 0.143196 0.750000
O O14 0.423111 0.285093 0.877342
O O15 0.138682 0.019765 0.651324
#
# Coordination Sequence:
#
# PCOD8138717 Si02
#       7
#     8   8   8   8   8   8   8
#     4  11  23  38  62  94 122 161 213 271 317 368
#     4  10  20  38  60  93 125 166 206 260 324 374
#     4  10  22  40  63  89 124 166 210 262 316 378
#     4  11  21  38  63  91 128 160 210 261 321 378
#     4  11  21  37  63  88 121 167 217 258 306 386
#     4  10  21  40  62  92 121 167 211 259 313 382
#     4   9  21  37  64  93 127 164 214 263 315 378
#
# _framework density 22.092874999999999
#
# number of rings (size 3 to 8) (size 9 to 14) (size 15 to 20)
#    0.000    1.714    1.429    3.000    2.000    2.286 
#    0.000    1.429    0.000    5.143    0.000    0.000 
#    0.000    0.000    0.000    0.000    0.000    0.000 
#
# Total GULP energy -346876.791200 kJ/mol
# GULP energy per Si atom -12388.456829 kJ/mol
# Density = 2.204259 g / cm^3
# Si number density = 22.092875 Si / 1000 Ang^3
#
#
#
# Elastic Constant Matrix: (Units=GPa)
#
#
# Indices 1 2 3 4 5 6 
#
# 1 116.0268 31.1450 19.4420 0.0000 11.9481 0.0000
# 2 31.1450 77.9016 20.7870 0.0000 -3.2613 0.0000
# 3 19.4420 20.7870 89.7729 0.0000 -1.3591 0.0000
# 4 0.0000 0.0000 0.0000 24.8485 0.0000 -0.6681
# 5 11.9481 -3.2613 -1.3591 0.0000 26.4372 0.0000
# 6 0.0000 0.0000 0.0000 -0.6681 0.0000 30.7046
#
#
#
# Elastic Compliance Matrix: (Units=1/GPa)
#
#
# Indices 1 2 3 4 5 6 
#
# 1 0.010486 -0.004037 -0.001417 0.000000 -0.005310 0.000000
# 2 -0.004037 0.015298 -0.002614 0.000000 0.003577 0.000000
# 3 -0.001417 -0.002614 0.012065 0.000000 0.000938 0.000000
# 4 0.000000 0.000000 0.000000 0.040267 0.000000 0.000876
# 5 -0.005310 0.003577 0.000938 0.000000 0.040715 0.000000
# 6 0.000000 0.000000 0.000000 0.000876 0.000000 0.032587
#
#
# Mechanical properties :
#
#
# Convention : Reuss Voigt Hill
#
# Bulk Modulus (GPa) = 46.05080 47.38327 46.71703
# Shear Modulus (GPa) = 28.60534 30.55322 29.57928
#
# Velocity S-wave (km/s) = 3.60220 3.72283 3.66301
# Velocity P-wave (km/s) = 6.17985 6.32243 6.25155
#
# Compressibility (1/GPa) = 0.02171515
#
# Stress axis : x y z
#
# Youngs Moduli (GPa) = 95.36072 65.36874 82.88112
#
# Poissons Ratio (x) = 0.26388 0.11742
# Poissons Ratio (y) = 0.38495 0.21664
# Poissons Ratio (z) = 0.13510 0.17086
#
# Static dielectric constant tensor:
#      x y z
#    x 3.960400 0.000000 0.315900 
#    y 0.000000 3.975920 0.000000 
#    z 0.315900 0.000000 4.295980 
# 
# 
# High freq. dielectric constant tensor:
#      x y z
#    x 1.867030 0.000000 0.022410 
#    y 0.000000 1.848740 0.000000 
#    z 0.022410 0.000000 1.881560 
# 
# From -- ./inp_files/237545.got.cif
#   From: 2010.06.25/outbox.cif.g09.slc.cpg/sg15_119_cif.got.tgz:237545.got - 2010.06.28 07:06:18.
