data_PCOD8138098
_publ_section_title
;
Structure prediction by ZEFSAII (Michael W. Deem and Ramdas Pophale) SiO2 
 PCOD8138098
Probable space group: C 2/C
;
_chemical_formula_sum "Si O2"
_cell_formula_units_Z 48
_cell_length_a 8.439753
_cell_length_b 17.580103
_cell_length_c 16.477815
_cell_angle_alpha 90.000000
_cell_angle_beta 120.407883
_cell_angle_gamma 90.000000
_cell_volume 2108.539296
_symmetry_space_group_name_H-M "C 2/C"
_symmetry_group_IT_number 15
_symmetry_cell_setting 'monoclinic'
loop_
_space_group_symop_operation_xyz
x,y,z
-x,y,1/2-z
-x,-y,-z
x,-y,1/2+z
1/2+x,1/2+y,z
1/2-x,1/2+y,1/2-z
1/2-x,1/2-y,-z
1/2+x,1/2-y,1/2+z
loop_
_atom_site_type_symbol
_atom_site_label
_atom_site_fract_x
_atom_site_fract_y
_atom_site_fract_z
Si Si1 0.462084 0.069682 0.146085
Si Si2 0.290501 0.816599 0.192771
Si Si3 0.445944 0.764118 0.643563
Si Si4 0.815460 0.419219 0.045896
Si Si5 0.833890 0.961739 0.651779
Si Si6 0.779478 0.374012 0.368952
O O1 0.500000 0.057337 0.250000
O O2 0.373282 0.152048 0.100253
O O3 0.653332 0.060344 0.151946
O O4 0.324138 0.006064 0.078319
O O5 0.500000 0.783795 0.250000
O O6 0.256611 0.869118 0.106396
O O7 0.252149 0.862975 0.265232
O O8 0.134997 0.752032 0.143096
O O9 0.500000 0.768964 0.750000
O O10 0.288960 0.698777 0.595102
O O11 0.007216 0.389520 0.056968
O O12 0.664252 0.417903 0.934680
O O13 0.000000 0.932639 0.750000
O O14 0.841381 0.052765 0.638208
#
# Coordination Sequence:
#
# PCOD8138098 Si02
#       6
#     8   8   8   8   8   8
#     4  10  20  37  60  89 118 146 185 238 286 329
#     4   9  17  32  58  85 115 154 192 225 276 348
#     4   9  18  33  57  89 121 152 185 226 281 339
#     4  10  20  37  59  84 112 151 194 235 281 337
#     4  11  22  38  58  81 113 152 193 239 288 338
#     4   9  17  35  59  84 113 151 190 229 278 345
#
# _framework density 22.764574
#
# number of rings (size 3 to 8) (size 9 to 14) (size 15 to 20)
#    0.000    2.333    0.000    6.000    0.000    0.667 
#    0.000   13.333    0.000    6.000    0.000    1.167 
#    0.000    0.000    0.000    0.000    0.000    0.000 
#
# Total GULP energy -297463.819012 kJ/mol
# GULP energy per Si atom -12394.325792 kJ/mol
# Density = 2.271276 g / cm^3
# Si number density = 22.764574 Si / 1000 Ang^3
#
#
#
# Elastic Constant Matrix: (Units=GPa)
#
#
# Indices 1 2 3 4 5 6 
#
# 1 71.0641 46.0988 18.1172 0.0000 -12.2054 0.0000
# 2 46.0988 125.9202 33.2856 0.0000 2.4364 0.0000
# 3 18.1172 33.2856 114.9903 0.0000 3.6371 0.0000
# 4 0.0000 0.0000 0.0000 -3.0667 0.0000 0.7266
# 5 -12.2054 2.4364 3.6371 0.0000 18.9729 0.0000
# 6 0.0000 0.0000 0.0000 0.7266 0.0000 26.5467
#
#
#
# Elastic Compliance Matrix: (Units=1/GPa)
#
#
# Indices 1 2 3 4 5 6 
#
# 1 0.022463 -0.008080 -0.001700 0.000000 0.015814 0.000000
# 2 -0.008080 0.011514 -0.001860 0.000000 -0.006320 0.000000
# 3 -0.001700 -0.001860 0.009588 0.000000 -0.002693 0.000000
# 4 0.000000 0.000000 0.000000 -0.323985 0.000000 0.008868
# 5 0.015814 -0.006320 -0.002693 0.000000 0.064208 0.000000
# 6 0.000000 0.000000 0.000000 0.008868 0.000000 0.037427
#
#
# Mechanical properties :
#
#
# Convention : Reuss Voigt Hill
#
# Bulk Modulus (GPa) = 49.30082 56.33087 52.81584
# Shear Modulus (GPa) = -33.61476 22.78877 -5.41300
#
# Velocity S-wave (km/s) = -3.84686 3.16739 -1.54369
# Velocity P-wave (km/s) = 1.40454 6.17861 4.48040
#
# Compressibility (1/GPa) = 0.02028364
#
# Stress axis : x y z
#
# Youngs Moduli (GPa) = 44.51783 86.85446 104.29899
#
# Poissons Ratio (x) = 0.70179 0.17735
# Poissons Ratio (y) = 0.35971 0.19398
# Poissons Ratio (z) = 0.07570 0.16153
#
# Static dielectric constant tensor:
#      x y z
#    x 4.100940 0.000000 -0.207900 
#    y 0.000000 4.769850 0.000000 
#    z -0.207900 0.000000 3.993140 
# 
# 
# High freq. dielectric constant tensor:
#      x y z
#    x 1.884380 0.000000 -0.016440 
#    y 0.000000 1.893480 0.000000 
#    z -0.016440 0.000000 1.895970 
# 
# From -- ./inp_files/190643.got.cif
#   From: 2010.06.25/outbox.cif.g09.slc.cpg/sg15_96_cif.got.tgz:190643.got - 2010.06.28 07:06:18.
