data_PCOD8138616
_publ_section_title
;
Structure prediction by ZEFSAII (Michael W. Deem and Ramdas Pophale) SiO2 
 PCOD8138616
Probable space group: C 2/C
;
_chemical_formula_sum "Si O2"
_cell_formula_units_Z 64
_cell_length_a 21.275517
_cell_length_b 18.834786
_cell_length_c 16.303746
_cell_angle_alpha 90.000000
_cell_angle_beta 26.658178
_cell_angle_gamma 90.000000
_cell_volume 2931.245053
_symmetry_space_group_name_H-M "C 2/C"
_symmetry_group_IT_number 15
_symmetry_cell_setting 'monoclinic'
loop_
_space_group_symop_operation_xyz
x,y,z
-x,y,1/2-z
-x,-y,-z
x,-y,1/2+z
1/2+x,1/2+y,z
1/2-x,1/2+y,1/2-z
1/2-x,1/2-y,-z
1/2+x,1/2-y,1/2+z
loop_
_atom_site_type_symbol
_atom_site_label
_atom_site_fract_x
_atom_site_fract_y
_atom_site_fract_z
Si Si1 0.678240 0.960657 0.698502
Si Si2 0.845350 0.807019 0.798306
Si Si3 0.443625 0.470067 0.481308
Si Si4 0.175780 0.959727 0.623012
Si Si5 0.546777 0.687894 0.506151
Si Si6 0.548545 0.187586 0.578298
Si Si7 0.558584 0.969914 0.098572
Si Si8 0.342205 0.806142 0.726753
O O1 0.773623 0.977305 0.668280
O O2 0.666399 0.875152 0.703977
O O3 0.754879 0.001010 0.534520
O O4 0.517517 0.990452 0.889638
O O5 0.838707 0.874193 0.868184
O O6 0.936534 0.825143 0.610872
O O7 0.922530 0.740405 0.750986
O O8 0.690722 0.782425 0.952446
O O9 0.500000 0.500000 0.500000
O O10 0.520232 0.511013 0.318138
O O11 0.488019 0.388705 0.416397
O O12 0.271679 0.973924 0.594329
O O13 0.420712 0.740521 0.678895
O O14 0.687825 0.719666 0.381408
O O15 0.506642 0.111257 0.661456
O O16 0.566149 0.175810 0.460414
O O17 0.500000 0.006191 0.250000
#
# Coordination Sequence:
#
# PCOD8138616 Si02
#       8
#     8   8   8   8   8   8   8   8
#     4  10  22  38  57  85 118 153 195 238 292 352
#     4   9  17  33  54  79 113 152 188 238 291 344
#     4  11  21  37  59  86 116 150 197 247 294 347
#     4  10  20  38  59  81 118 156 190 244 298 350
#     4   9  18  35  55  82 114 145 190 242 292 338
#     4   9  18  33  54  81 114 149 194 239 288 343
#     4   9  20  38  55  79 118 155 191 239 291 348
#     4   9  19  35  57  82 114 146 189 246 287 345
#
# _framework density 21.833725999999999
#
# number of rings (size 3 to 8) (size 9 to 14) (size 15 to 20)
#    0.000    2.500    1.250    0.375    1.750    2.500 
#    4.500    7.500    0.000    3.000    0.000    0.000 
#    0.000    0.000    0.000    0.000    0.000    0.000 
#
# Total GULP energy -396471.918498 kJ/mol
# GULP energy per Si atom -12389.747453 kJ/mol
# Density = 2.178403 g / cm^3
# Si number density = 21.833726 Si / 1000 Ang^3
#
#
#
# Elastic Constant Matrix: (Units=GPa)
#
#
# Indices 1 2 3 4 5 6 
#
# 1 65.1965 48.0165 25.2550 0.0047 -24.6501 -0.0034
# 2 48.0165 126.4632 39.1073 0.0032 -24.8258 -0.0029
# 3 25.2550 39.1073 37.6808 0.0001 -25.8063 -0.0018
# 4 0.0047 0.0032 0.0001 42.5894 -0.0054 -4.3858
# 5 -24.6501 -24.8258 -25.8063 -0.0054 40.4725 0.0041
# 6 -0.0034 -0.0029 -0.0018 -4.3858 0.0041 34.1190
#
#
#
# Elastic Compliance Matrix: (Units=1/GPa)
#
#
# Indices 1 2 3 4 5 6 
#
# 1 0.024985 -0.006541 -0.004054 -0.000001 0.008621 0.000001
# 2 -0.006541 0.013380 -0.011734 -0.000001 -0.003258 0.000000
# 3 -0.004054 -0.011734 0.061802 0.000005 0.029740 -0.000001
# 4 -0.000001 -0.000001 0.000005 0.023795 0.000005 0.003059
# 5 0.008621 -0.003258 0.029740 0.000005 0.046922 -0.000003
# 6 0.000001 0.000000 -0.000001 0.003059 -0.000003 0.029702
#
#
# Mechanical properties :
#
#
# Convention : Reuss Voigt Hill
#
# Bulk Modulus (GPa) = 18.01493 50.45534 34.23514
# Shear Modulus (GPa) = 18.95761 31.23364 25.09562
#
# Velocity S-wave (km/s) = 2.94984 3.78633 3.39395
# Velocity P-wave (km/s) = 4.45769 6.50185 5.57427
#
# Compressibility (1/GPa) = 0.05550951
#
# Stress axis : x y z
#
# Youngs Moduli (GPa) = 40.02412 74.73919 16.18080
#
# Poissons Ratio (x) = 0.48884 0.06559
# Poissons Ratio (y) = 0.26178 0.18987
# Poissons Ratio (z) = 0.16224 0.87701
#
# Static dielectric constant tensor:
#      x y z
#    x 4.073110 0.000000 -0.506030 
#    y 0.000000 3.920990 0.000000 
#    z -0.506030 0.000000 4.108250 
# 
# 
# High freq. dielectric constant tensor:
#      x y z
#    x 1.848130 0.000000 -0.026730 
#    y 0.000000 1.848190 0.000000 
#    z -0.026730 0.000000 1.851220 
# 
# From -- ./inp_files/216149.got.cif
#   From: 2010.06.25/outbox.cif.g09.slc.cpg/sg15_109_cif.got.tgz:216149.got - 2010.06.28 07:06:18.
