data_PCOD8138549
_publ_section_title
;
Structure prediction by ZEFSAII (Michael W. Deem and Ramdas Pophale) SiO2 
 PCOD8138549
Probable space group: C 2/C
;
_chemical_formula_sum "Si O2"
_cell_formula_units_Z 64
_cell_length_a 11.288215
_cell_length_b 18.274613
_cell_length_c 29.615104
_cell_angle_alpha 90.000000
_cell_angle_beta 146.292684
_cell_angle_gamma 90.000000
_cell_volume 3390.323116
_symmetry_space_group_name_H-M "C 2/C"
_symmetry_group_IT_number 15
_symmetry_cell_setting 'monoclinic'
loop_
_space_group_symop_operation_xyz
x,y,z
-x,y,1/2-z
-x,-y,-z
x,-y,1/2+z
1/2+x,1/2+y,z
1/2-x,1/2+y,1/2-z
1/2-x,1/2-y,-z
1/2+x,1/2-y,1/2+z
loop_
_atom_site_type_symbol
_atom_site_label
_atom_site_fract_x
_atom_site_fract_y
_atom_site_fract_z
Si Si1 0.753371 0.936349 0.059039
Si Si2 0.027605 0.844051 0.674626
Si Si3 0.602687 0.498815 0.735004
Si Si4 0.444702 0.114414 0.845732
Si Si5 0.354659 0.199976 0.664976
Si Si6 0.427715 0.707871 0.582910
Si Si7 0.116090 0.757464 0.238753
Si Si8 0.872064 0.409521 0.001740
O O1 0.854373 0.875971 0.059251
O O2 0.559098 0.898978 0.024578
O O3 0.942512 0.965981 0.149316
O O4 0.664504 0.003932 0.001525
O O5 0.113433 0.911518 0.731799
O O6 0.231788 0.813628 0.712211
O O7 0.941726 0.779498 0.678749
O O8 0.842093 0.868598 0.581619
O O9 0.500000 0.518346 0.750000
O O10 0.842001 0.533330 0.806495
O O11 0.630402 0.138130 0.869482
O O12 0.246961 0.168241 0.777002
O O13 0.553030 0.126030 0.928239
O O14 0.500000 0.166371 0.750000
O O15 0.123587 0.212544 0.611187
O O16 0.250000 0.750000 0.500000
O O17 0.466962 0.740598 0.646140
O O18 0.000000 0.755875 0.250000
#
# Coordination Sequence:
#
# PCOD8138549 Si02
#       8
#     8   8   8   8   8   8   8   8
#     4  10  20  38  56  89 124 150 206 257 308 362
#     4  10  23  37  60  90 127 152 207 256 313 363
#     4  11  19  34  62  88 118 165 207 257 302 367
#     4  11  21  37  65  87 118 161 212 244 314 367
#     4  11  21  41  59  88 123 163 203 250 307 380
#     4  12  24  39  64  92 125 166 210 255 318 370
#     4  11  23  41  64  87 123 166 208 251 307 377
#     4  10  21  36  58  93 117 154 197 269 303 357
#
# _framework density 18.877257
#
# number of rings (size 3 to 8) (size 9 to 14) (size 15 to 20)
#    0.000    1.250    5.000    2.250    0.000    4.000 
#    0.000    3.750    0.000    0.000    0.000    0.000 
#    0.000    0.000    0.000    0.000    0.000    0.000 
#
# Total GULP energy -396663.095160 kJ/mol
# GULP energy per Si atom -12395.721724 kJ/mol
# Density = 1.883429 g / cm^3
# Si number density = 18.877257 Si / 1000 Ang^3
#
#
#
# Elastic Constant Matrix: (Units=GPa)
#
#
# Indices 1 2 3 4 5 6 
#
# 1 98.8321 36.3166 34.2693 0.0003 4.9083 0.0000
# 2 36.3166 82.7221 13.0721 0.0001 -4.7964 0.0000
# 3 34.2693 13.0721 89.9280 0.0010 -10.7176 0.0003
# 4 0.0003 0.0001 0.0010 17.8309 0.0003 -0.0874
# 5 4.9083 -4.7964 -10.7176 0.0003 29.6022 0.0000
# 6 0.0000 0.0000 0.0003 -0.0874 0.0000 27.6271
#
#
#
# Elastic Compliance Matrix: (Units=1/GPa)
#
#
# Indices 1 2 3 4 5 6 
#
# 1 0.014306 -0.005755 -0.005235 0.000000 -0.005200 0.000000
# 2 -0.005755 0.014745 0.000468 0.000000 0.003513 0.000000
# 3 -0.005235 0.000468 0.013753 -0.000001 0.005923 0.000000
# 4 0.000000 0.000000 -0.000001 0.056083 -0.000001 0.000177
# 5 -0.005200 0.003513 0.005923 -0.000001 0.037357 0.000000
# 6 0.000000 0.000000 0.000000 0.000177 0.000000 0.036197
#
#
# Mechanical properties :
#
#
# Convention : Reuss Voigt Hill
#
# Bulk Modulus (GPa) = 45.95404 48.75537 47.35470
# Shear Modulus (GPa) = 24.90808 27.53365 26.22087
#
# Velocity S-wave (km/s) = 3.63640 3.82326 3.73100
# Velocity P-wave (km/s) = 6.48287 6.73597 6.61064
#
# Compressibility (1/GPa) = 0.02176087
#
# Stress axis : x y z
#
# Youngs Moduli (GPa) = 69.89923 67.82014 72.71273
#
# Poissons Ratio (x) = 0.39030 0.38065
# Poissons Ratio (y) = 0.40227 -0.03406
# Poissons Ratio (z) = 0.36592 -0.03177
#
# Static dielectric constant tensor:
#      x y z
#    x 3.493440 -0.000020 0.036650 
#    y -0.000020 8.157400 0.000000 
#    z 0.036650 0.000000 3.566130 
# 
# 
# High freq. dielectric constant tensor:
#      x y z
#    x 1.723850 0.000000 -0.000230 
#    y 0.000000 1.735610 0.000000 
#    z -0.000230 0.000000 1.743320 
# 
# From -- ./inp_files/311650.got.cif
#   From: 2010.06.25/outbox.cif.g09.slc.cpg/sg15_156_cif.got.tgz:311650.got - 2010.06.28 07:06:18.
