data_PCOD8138224
_publ_section_title
;
Structure prediction by ZEFSAII (Michael W. Deem and Ramdas Pophale) SiO2 
 PCOD8138224
Probable space group: C 2/C
;
_chemical_formula_sum "Si O2"
_cell_formula_units_Z 52
_cell_length_a 25.637345
_cell_length_b 11.324289
_cell_length_c 18.279998
_cell_angle_alpha 90.000000
_cell_angle_beta 30.911036
_cell_angle_gamma 90.000000
_cell_volume 2726.309847
_symmetry_space_group_name_H-M "C 2/C"
_symmetry_group_IT_number 15
_symmetry_cell_setting 'monoclinic'
loop_
_space_group_symop_operation_xyz
x,y,z
-x,y,1/2-z
-x,-y,-z
x,-y,1/2+z
1/2+x,1/2+y,z
1/2-x,1/2+y,1/2-z
1/2-x,1/2-y,-z
1/2+x,1/2-y,1/2+z
loop_
_atom_site_type_symbol
_atom_site_label
_atom_site_fract_x
_atom_site_fract_y
_atom_site_fract_z
Si Si1 0.679018 0.407787 0.629777
Si Si2 0.682524 0.948684 0.435881
Si Si3 0.000000 0.486148 0.250000
Si Si4 0.118566 0.505522 0.351439
Si Si5 0.710930 0.213849 0.153623
Si Si6 0.893979 0.141918 0.839690
Si Si7 0.642198 0.849266 0.188052
O O1 0.748660 0.448339 0.613305
O O2 0.600391 0.512134 0.703795
O O3 0.617571 0.290253 0.726154
O O4 0.748282 0.373350 0.477858
O O5 0.740276 0.824993 0.364706
O O6 0.581721 0.933670 0.608005
O O7 0.664823 0.985193 0.374784
O O8 0.052561 0.405702 0.248133
O O9 0.153283 0.633674 0.281383
O O10 0.151449 0.402548 0.257408
O O11 0.000000 0.500000 0.500000
O O12 0.628321 0.255835 0.192918
O O13 0.799748 0.137607 0.009098
O O14 0.000000 0.172180 0.750000
#
# Coordination Sequence:
#
# PCOD8138224 Si02
#       7
#     8   8   4   8   8   8   8
#     4   9  20  40  58  89 121 162 196 257 306 366
#     4  10  23  39  64  85 127 159 206 259 313 358
#     4  10  20  38  62  96 108 166 210 252 302 376
#     4  12  24  40  61  94 123 167 208 253 312 379
#     4  10  24  41  59  96 125 160 212 258 308 374
#     4  10  21  38  68  91 123 160 210 264 308 361
#     4  10  20  37  61  87 126 152 207 247 304 368
#
# _framework density 19.073399999999999
#
# number of rings (size 3 to 8) (size 9 to 14) (size 15 to 20)
#    0.000    1.846    3.077    0.000    8.615    0.000 
#    0.000    1.538    0.000    3.692    0.000    0.000 
#    0.000    0.000    0.000    0.000    0.000    0.000 
#
# Total GULP energy -322417.316449 kJ/mol
# GULP energy per Si atom -12400.666017 kJ/mol
# Density = 1.902999 g / cm^3
# Si number density = 19.073400 Si / 1000 Ang^3
#
#
#
# Elastic Constant Matrix: (Units=GPa)
#
#
# Indices 1 2 3 4 5 6 
#
# 1 146.5778 57.4193 62.5830 0.0000 6.5362 0.0000
# 2 57.4193 125.6484 63.2044 -0.0001 3.1146 0.0000
# 3 62.5830 63.2044 87.5356 0.0000 5.4505 0.0000
# 4 0.0000 -0.0001 0.0000 27.4148 0.0000 3.2749
# 5 6.5362 3.1146 5.4505 0.0000 35.3371 0.0000
# 6 0.0000 0.0000 0.0000 3.2749 0.0000 20.0555
#
#
#
# Elastic Compliance Matrix: (Units=1/GPa)
#
#
# Indices 1 2 3 4 5 6 
#
# 1 0.010025 -0.001541 -0.006006 0.000000 -0.000792 0.000000
# 2 -0.001541 0.012738 -0.008122 0.000000 0.000415 0.000000
# 3 -0.006006 -0.008122 0.021676 0.000000 -0.001517 0.000000
# 4 0.000000 0.000000 0.000000 0.037202 0.000000 -0.006075
# 5 -0.000792 0.000415 -0.001517 0.000000 0.028643 0.000000
# 6 0.000000 0.000000 0.000000 -0.006075 0.000000 0.050854
#
#
# Mechanical properties :
#
#
# Convention : Reuss Voigt Hill
#
# Bulk Modulus (GPa) = 76.31634 80.68612 78.50123
# Shear Modulus (GPa) = 25.40103 28.33183 26.86643
#
# Velocity S-wave (km/s) = 3.65328 3.85828 3.75718
# Velocity P-wave (km/s) = 7.60881 7.88944 7.75040
#
# Compressibility (1/GPa) = 0.01310335
#
# Stress axis : x y z
#
# Youngs Moduli (GPa) = 99.74620 78.50591 46.13331
#
# Poissons Ratio (x) = 0.12096 0.27707
# Poissons Ratio (y) = 0.15368 0.37468
# Poissons Ratio (z) = 0.59906 0.63759
#
# Static dielectric constant tensor:
#      x y z
#    x 3.474190 0.000000 -0.026820 
#    y 0.000000 3.576500 0.000000 
#    z -0.026820 0.000000 3.356980 
# 
# 
# High freq. dielectric constant tensor:
#      x y z
#    x 1.747840 0.000000 -0.001280 
#    y 0.000000 1.753600 0.000000 
#    z -0.001280 0.000000 1.722220 
# 
# From -- ./inp_files/167354.got.cif
#   From: 2010.06.25/outbox.cif.g09.slc.cpg/sg15_84_cif.got.tgz:167354.got - 2010.06.28 07:06:18.
