data_PCOD8138760
_publ_section_title
;
Structure prediction by ZEFSAII (Michael W. Deem and Ramdas Pophale) SiO2 
 PCOD8138760
Probable space group: C 2/C
;
_chemical_formula_sum "Si O2"
_cell_formula_units_Z 40
_cell_length_a 14.036362
_cell_length_b 10.480259
_cell_length_c 9.193193
_cell_angle_alpha 90.000000
_cell_angle_beta 103.172383
_cell_angle_gamma 90.000000
_cell_volume 1316.779793
_symmetry_space_group_name_H-M "C 2/C"
_symmetry_group_IT_number 15
_symmetry_cell_setting 'monoclinic'
loop_
_space_group_symop_operation_xyz
x,y,z
-x,y,1/2-z
-x,-y,-z
x,-y,1/2+z
1/2+x,1/2+y,z
1/2-x,1/2+y,1/2-z
1/2-x,1/2-y,-z
1/2+x,1/2-y,1/2+z
loop_
_atom_site_type_symbol
_atom_site_label
_atom_site_fract_x
_atom_site_fract_y
_atom_site_fract_z
Si Si1 0.644280 0.372438 0.875343
Si Si2 0.482980 0.130178 0.593054
Si Si3 0.344198 0.873229 0.796732
Si Si4 0.844625 0.908669 0.297187
Si Si5 0.680080 0.135778 0.522035
O O1 0.577358 0.251544 0.875854
O O2 0.743263 0.322024 0.832395
O O3 0.590472 0.478871 0.753559
O O4 0.669886 0.438954 0.038654
O O5 0.500000 0.049588 0.750000
O O6 0.417459 0.052273 0.442950
O O7 0.580067 0.188986 0.555035
O O8 0.390763 0.730791 0.783037
O O9 0.338845 0.942332 0.637073
O O10 0.739004 0.943162 0.170411
O O11 0.750000 0.250000 0.500000
#
# Coordination Sequence:
#
# PCOD8138760 Si02
#       5
#     8   8   8   8   8
#     4  11  22  40  65  96 131 173 218 268 325 390
#     4  11  21  37  62  91 125 168 212 263 322 380
#     4  10  21  40  63  91 128 173 218 268 324 386
#     4  10  21  39  63  92 128 170 213 264 322 384
#     4  10  20  38  61  86 120 168 213 259 317 382
#
# _framework density 30.377137000000001
#
# number of rings (size 3 to 8) (size 9 to 14) (size 15 to 20)
#    0.000    1.600    0.000    7.800    0.000    1.600 
#    0.000   17.000    0.000    2.400    0.000    0.000 
#    0.000    0.000    0.000    0.000    0.000    0.000 
#
# Total GULP energy -247963.119443 kJ/mol
# GULP energy per Si atom -12398.155972 kJ/mol
# Density = 3.030800 g / cm^3
# Si number density = 30.377137 Si / 1000 Ang^3
#
#
#
# Elastic Constant Matrix: (Units=GPa)
#
#
# Indices 1 2 3 4 5 6 
#
# 1 129.6971 -12.2669 44.2550 0.0000 -12.6887 0.0000
# 2 -12.2669 80.6277 34.4074 0.0000 4.7709 0.0000
# 3 44.2550 34.4074 310.0393 0.0000 -19.6827 0.0000
# 4 0.0000 0.0000 0.0000 44.3489 0.0000 11.1811
# 5 -12.6887 4.7709 -19.6827 0.0000 48.1448 0.0000
# 6 0.0000 0.0000 0.0000 11.1811 0.0000 5.7057
#
#
#
# Elastic Compliance Matrix: (Units=1/GPa)
#
#
# Indices 1 2 3 4 5 6 
#
# 1 0.008472 0.001757 -0.001307 0.000000 0.001524 0.000000
# 2 0.001757 0.013561 -0.001860 0.000000 -0.001641 0.000000
# 3 -0.001307 -0.001860 0.003704 0.000000 0.001354 0.000000
# 4 0.000000 0.000000 0.000000 0.044568 0.000000 -0.087337
# 5 0.001524 -0.001641 0.001354 0.000000 0.021889 0.000000
# 6 0.000000 0.000000 0.000000 -0.087337 0.000000 0.346415
#
#
# Mechanical properties :
#
#
# Convention : Reuss Voigt Hill
#
# Bulk Modulus (GPa) = 43.63863 72.57278 58.10570
# Shear Modulus (GPa) = 11.13418 49.90446 30.51932
#
# Velocity S-wave (km/s) = 1.91658 4.05758 3.17311
# Velocity P-wave (km/s) = 4.39255 6.77454 5.70915
#
# Compressibility (1/GPa) = 0.02291548
#
# Stress axis : x y z
#
# Youngs Moduli (GPa) = 118.04076 73.74228 269.94979
#
# Poissons Ratio (x) = -0.12954 0.35294
# Poissons Ratio (y) = -0.20736 0.50207
# Poissons Ratio (z) = 0.15433 0.13715
#
# Static dielectric constant tensor:
#      x y z
#    x 5.502960 0.000000 0.675770 
#    y 0.000000 5.790870 0.000000 
#    z 0.675770 0.000000 8.086200 
# 
# 
# High freq. dielectric constant tensor:
#      x y z
#    x 2.234690 0.000000 -0.001530 
#    y 0.000000 2.269100 0.000000 
#    z -0.001530 0.000000 2.285460 
# 
# From -- ./inp_files/37982.got.cif
#   From: 2010.06.25/outbox.cif.g09.slc.cpg/sg15_19_cif.got.tgz:37982.got - 2010.06.28 07:06:18.
