data_PCOD8138178
_publ_section_title
;
Structure prediction by ZEFSAII (Michael W. Deem and Ramdas Pophale) SiO2 
 PCOD8138178
Probable space group: C 2/C
;
_chemical_formula_sum "Si O2"
_cell_formula_units_Z 44
_cell_length_a 9.073874
_cell_length_b 21.781378
_cell_length_c 23.340174
_cell_angle_alpha 90.000000
_cell_angle_beta 150.012057
_cell_angle_gamma 90.000000
_cell_volume 2305.652532
_symmetry_space_group_name_H-M "C 2/C"
_symmetry_group_IT_number 15
_symmetry_cell_setting 'monoclinic'
loop_
_space_group_symop_operation_xyz
x,y,z
-x,y,1/2-z
-x,-y,-z
x,-y,1/2+z
1/2+x,1/2+y,z
1/2-x,1/2+y,1/2-z
1/2-x,1/2-y,-z
1/2+x,1/2-y,1/2+z
loop_
_atom_site_type_symbol
_atom_site_label
_atom_site_fract_x
_atom_site_fract_y
_atom_site_fract_z
Si Si1 0.333766 0.703777 0.753705
Si Si2 0.733634 0.332859 0.780343
Si Si3 0.000000 0.532083 0.750000
Si Si4 0.836390 0.820079 0.028046
Si Si5 0.314443 0.585331 0.337303
Si Si6 0.272314 0.871720 0.084572
O O1 0.500000 0.705964 0.750000
O O2 0.286029 0.772744 0.759608
O O3 0.526823 0.663434 0.863890
O O4 0.020887 0.670759 0.639913
O O5 0.500000 0.315853 0.750000
O O6 0.607681 0.388130 0.699070
O O7 0.038196 0.357136 0.912363
O O8 0.724297 0.488793 0.676506
O O9 0.911807 0.571860 0.665783
O O10 0.084070 0.829907 0.063795
O O11 0.750000 0.750000 0.000000
O O12 0.573611 0.602087 0.467358
O O13 0.000000 0.615825 0.250000
#
# Coordination Sequence:
#
# PCOD8138178 Si02
#       6
#     8   8   4   8   8   8
#     4  11  24  37  61  96 128 169 208 262 318 382
#     4  11  23  41  61  91 133 167 209 259 323 373
#     4  10  22  42  68  94 122 168 220 252 316 372
#     4  10  20  37  60  89 124 166 204 255 316 374
#     4  10  23  39  64  94 116 166 216 263 301 372
#     4  12  21  42  67  90 129 166 214 262 317 376
#
# _framework density 19.083535000000001
#
# number of rings (size 3 to 8) (size 9 to 14) (size 15 to 20)
#    0.545    0.727    3.636    3.273    5.091    0.727 
#    0.000    0.909    0.000    3.273    0.000    0.000 
#    0.000    0.000    0.000    0.000    0.000    0.000 
#
# Total GULP energy -272740.390621 kJ/mol
# GULP energy per Si atom -12397.290483 kJ/mol
# Density = 1.904010 g / cm^3
# Si number density = 19.083535 Si / 1000 Ang^3
#
#
#
# Elastic Constant Matrix: (Units=GPa)
#
#
# Indices 1 2 3 4 5 6 
#
# 1 146.0385 40.5653 53.4207 0.0059 11.7675 0.0032
# 2 40.5653 78.4593 30.6401 0.0616 6.4620 0.0409
# 3 53.4207 30.6401 133.8925 0.0843 -1.1978 0.0463
# 4 0.0059 0.0616 0.0843 -10.0880 -0.0026 -16.3907
# 5 11.7675 6.4620 -1.1978 -0.0026 29.8796 -0.0019
# 6 0.0032 0.0409 0.0463 -16.3907 -0.0019 18.9294
#
#
#
# Elastic Compliance Matrix: (Units=1/GPa)
#
#
# Indices 1 2 3 4 5 6 
#
# 1 0.009062 -0.003315 -0.002884 -0.000024 -0.002968 -0.000009
# 2 -0.003315 0.015513 -0.002247 0.000050 -0.002139 0.000015
# 3 -0.002884 -0.002247 0.009151 0.000037 0.001988 0.000015
# 4 -0.000024 0.000050 0.000037 -0.041185 -0.000006 -0.035662
# 5 -0.002968 -0.002139 0.001988 -0.000006 0.035179 -0.000001
# 6 -0.000009 0.000015 0.000015 -0.035662 -0.000001 0.021949
#
#
# Mechanical properties :
#
#
# Convention : Reuss Voigt Hill
#
# Bulk Modulus (GPa) = 59.39646 67.51585 63.45616
# Shear Modulus (GPa) = 69.28006 23.32848 46.30427
#
# Velocity S-wave (km/s) = 6.03178 3.50013 4.93119
# Velocity P-wave (km/s) = 8.92759 7.19656 8.10840
#
# Compressibility (1/GPa) = 0.01683602
#
# Stress axis : x y z
#
# Youngs Moduli (GPa) = 110.34804 64.46289 109.27683
#
# Poissons Ratio (x) = 0.21368 0.31511
# Poissons Ratio (y) = 0.36578 0.24550
# Poissons Ratio (z) = 0.31820 0.14482
#
# Static dielectric constant tensor:
#      x y z
#    x 3.360630 -0.000040 -0.056010 
#    y -0.000040 3.312670 0.000000 
#    z -0.056010 0.000000 4.011520 
# 
# 
# High freq. dielectric constant tensor:
#      x y z
#    x 1.729930 0.000000 -0.008240 
#    y 0.000000 1.723030 0.000000 
#    z -0.008240 0.000000 1.765120 
# 
# From -- ./inp_files/266461.got.cif
#   From: 2010.06.25/outbox.cif.g09.slc.cpg/sg15_134_cif.got.tgz:266461.got - 2010.06.28 07:06:18.
