data_PCOD8138878
_publ_section_title
;
Structure prediction by ZEFSAII (Michael W. Deem and Ramdas Pophale) SiO2 
 PCOD8138878
Probable space group: C 2/C
;
_chemical_formula_sum "Si O2"
_cell_formula_units_Z 44
_cell_length_a 23.926674
_cell_length_b 12.544094
_cell_length_c 11.250356
_cell_angle_alpha 90.000000
_cell_angle_beta 41.864710
_cell_angle_gamma 90.000000
_cell_volume 2253.497976
_symmetry_space_group_name_H-M "C 2/C"
_symmetry_group_IT_number 15
_symmetry_cell_setting 'monoclinic'
loop_
_space_group_symop_operation_xyz
x,y,z
-x,y,1/2-z
-x,-y,-z
x,-y,1/2+z
1/2+x,1/2+y,z
1/2-x,1/2+y,1/2-z
1/2-x,1/2-y,-z
1/2+x,1/2-y,1/2+z
loop_
_atom_site_type_symbol
_atom_site_label
_atom_site_fract_x
_atom_site_fract_y
_atom_site_fract_z
Si Si1 0.562161 0.687711 0.806094
Si Si2 0.000000 0.263946 0.250000
Si Si3 0.296895 0.222069 0.804381
Si Si4 0.472672 0.878453 0.053091
Si Si5 0.357335 0.631321 0.573628
Si Si6 0.389838 0.610870 0.014108
O O1 0.618479 0.654713 0.828555
O O2 0.615594 0.677737 0.600756
O O3 0.524774 0.807656 0.875464
O O4 0.483719 0.606749 0.919010
O O5 0.999437 0.340054 0.139336
O O6 0.918917 0.188684 0.382802
O O7 0.372906 0.137537 0.697588
O O8 0.235631 0.172432 0.803307
O O9 0.329720 0.334622 0.704723
O O10 0.250000 0.250000 0.000000
O O11 0.500000 0.000000 0.000000
O O12 0.358086 0.507337 0.542495
#
# Coordination Sequence:
#
# PCOD8138878 Si02
#       6
#     8   4   8   8   8   8
#     4   9  21  40  62  92 117 158 223 254 308 392
#     4  10  20  38  62  90 118 158 224 250 310 400
#     4  11  24  42  59  94 135 161 215 269 316 389
#     4  10  22  41  64  86 124 170 208 260 322 384
#     4  11  22  37  66  89 123 168 202 266 324 378
#     4  10  22  40  63  89 127 161 204 269 320 373
#
# _framework density 19.525200999999999
#
# number of rings (size 3 to 8) (size 9 to 14) (size 15 to 20)
#    0.000    1.818    1.818    1.636    2.545    6.545 
#    3.273    0.000    0.000    0.000    0.000    0.000 
#    0.000    0.000    0.000    0.000    0.000    0.000 
#
# Total GULP energy -272825.259803 kJ/mol
# GULP energy per Si atom -12401.148173 kJ/mol
# Density = 1.948076 g / cm^3
# Si number density = 19.525201 Si / 1000 Ang^3
#
#
#
# Elastic Constant Matrix: (Units=GPa)
#
#
# Indices 1 2 3 4 5 6 
#
# 1 113.9094 40.4434 46.4789 0.0000 -4.3065 0.0000
# 2 40.4434 129.4235 56.2782 0.0000 -2.7126 0.0000
# 3 46.4789 56.2782 117.8575 0.0000 8.9694 0.0000
# 4 0.0000 0.0000 0.0000 21.9629 0.0000 -1.2625
# 5 -4.3065 -2.7126 8.9694 0.0000 37.2040 0.0000
# 6 0.0000 0.0000 0.0000 -1.2625 0.0000 23.9678
#
#
#
# Elastic Compliance Matrix: (Units=1/GPa)
#
#
# Indices 1 2 3 4 5 6 
#
# 1 0.010974 -0.001816 -0.003614 0.000000 0.002009 0.000000
# 2 -0.001816 0.010181 -0.004264 0.000000 0.001560 0.000000
# 3 -0.003614 -0.004264 0.012226 0.000000 -0.003677 0.000000
# 4 0.000000 0.000000 0.000000 0.045670 0.000000 0.002406
# 5 0.002009 0.001560 -0.003677 0.000000 0.028112 0.000000
# 6 0.000000 0.000000 0.000000 0.002406 0.000000 0.041849
#
#
# Mechanical properties :
#
#
# Convention : Reuss Voigt Hill
#
# Bulk Modulus (GPa) = 71.46067 71.95462 71.70764
# Shear Modulus (GPa) = 28.89121 31.15959 30.02540
#
# Velocity S-wave (km/s) = 3.85084 3.99916 3.92570
# Velocity P-wave (km/s) = 7.51337 7.63260 7.57322
#
# Compressibility (1/GPa) = 0.01399371
#
# Stress axis : x y z
#
# Youngs Moduli (GPa) = 91.12407 98.22313 81.79363
#
# Poissons Ratio (x) = 0.17836 0.29557
# Poissons Ratio (y) = 0.16547 0.34878
# Poissons Ratio (z) = 0.32929 0.41884
#
# Static dielectric constant tensor:
#      x y z
#    x 3.673860 0.000000 0.027160 
#    y 0.000000 3.445220 0.000000 
#    z 0.027160 0.000000 3.637510 
# 
# 
# High freq. dielectric constant tensor:
#      x y z
#    x 1.771180 0.000000 0.006830 
#    y 0.000000 1.753770 0.000000 
#    z 0.006830 0.000000 1.759780 
# 
# From -- ./inp_files/94964.got.cif
#   From: 2010.06.25/outbox.cif.g09.slc.cpg/sg15_48_cif.got.tgz:94964.got - 2010.06.28 07:06:18.
