data_PCOD8138876
_publ_section_title
;
Structure prediction by ZEFSAII (Michael W. Deem and Ramdas Pophale) SiO2 
 PCOD8138876
Probable space group: C 2/C
;
_chemical_formula_sum "Si O2"
_cell_formula_units_Z 40
_cell_length_a 11.320648
_cell_length_b 8.950981
_cell_length_c 18.040161
_cell_angle_alpha 90.000000
_cell_angle_beta 128.849542
_cell_angle_gamma 90.000000
_cell_volume 1423.658972
_symmetry_space_group_name_H-M "C 2/C"
_symmetry_group_IT_number 15
_symmetry_cell_setting 'monoclinic'
loop_
_space_group_symop_operation_xyz
x,y,z
-x,y,1/2-z
-x,-y,-z
x,-y,1/2+z
1/2+x,1/2+y,z
1/2-x,1/2+y,1/2-z
1/2-x,1/2-y,-z
1/2+x,1/2-y,1/2+z
loop_
_atom_site_type_symbol
_atom_site_label
_atom_site_fract_x
_atom_site_fract_y
_atom_site_fract_z
Si Si1 0.030478 0.466163 0.917753
Si Si2 0.224934 0.171054 0.288035
Si Si3 0.500000 0.091556 0.750000
Si Si4 0.551887 0.295528 0.576583
Si Si5 0.000000 0.928808 0.250000
Si Si6 0.128642 0.075103 0.948810
O O1 0.900687 0.341112 0.880575
O O2 0.030829 0.489060 0.830824
O O3 0.999958 0.621947 0.949298
O O4 0.804490 0.595511 0.996670
O O5 0.153358 0.313248 0.300506
O O6 0.198333 0.188432 0.188487
O O7 0.148735 0.023689 0.290436
O O8 0.420586 0.400075 0.562209
O O9 0.590926 0.342664 0.509645
O O10 0.041138 0.844790 0.344015
#
# Coordination Sequence:
#
# PCOD8138876 Si02
#       6
#     8   8   4   8   4   8
#     4  11  20  36  67  94 118 169 213 243 308 380
#     4   9  19  37  59  90 128 156 199 257 305 367
#     4   9  20  38  60  95 134 163 196 254 314 365
#     4   9  20  37  60  94 127 161 204 257 314 369
#     4   9  20  40  56  79 130 167 192 268 324 341
#     4  10  20  38  62  89 125 163 210 261 305 368
#
# _framework density 28.096616000000001
#
# number of rings (size 3 to 8) (size 9 to 14) (size 15 to 20)
#    0.000    2.400    0.000    3.000    0.000    0.800 
#    0.000   19.000    0.000    0.000    0.000    0.000 
#    0.000    0.000    0.000    0.000    0.000    0.000 
#
# Total GULP energy -247936.621899 kJ/mol
# GULP energy per Si atom -12396.831095 kJ/mol
# Density = 2.803267 g / cm^3
# Si number density = 28.096616 Si / 1000 Ang^3
#
#
#
# Elastic Constant Matrix: (Units=GPa)
#
#
# Indices 1 2 3 4 5 6 
#
# 1 148.3479 42.5082 75.2094 0.0000 24.5662 0.0000
# 2 42.5082 95.1167 15.3840 0.0000 11.7425 0.0000
# 3 75.2094 15.3840 90.7920 0.0000 15.3048 0.0000
# 4 0.0000 0.0000 0.0000 2.8873 0.0000 13.3514
# 5 24.5662 11.7425 15.3048 0.0000 53.9334 0.0000
# 6 0.0000 0.0000 0.0000 13.3514 0.0000 23.5690
#
#
#
# Elastic Compliance Matrix: (Units=1/GPa)
#
#
# Indices 1 2 3 4 5 6 
#
# 1 0.013354 -0.004062 -0.009975 0.000000 -0.002368 0.000000
# 2 -0.004062 0.012239 0.001500 0.000000 -0.001240 0.000000
# 3 -0.009975 0.001500 0.019232 0.000000 -0.001241 0.000000
# 4 0.000000 0.000000 0.000000 -0.213861 0.000000 0.121148
# 5 -0.002368 -0.001240 -0.001241 0.000000 0.020242 0.000000
# 6 0.000000 0.000000 0.000000 0.121148 0.000000 -0.026199
#
#
# Mechanical properties :
#
#
# Convention : Reuss Voigt Hill
#
# Bulk Modulus (GPa) = 50.62819 66.71775 58.67297
# Shear Modulus (GPa) = -34.88316 29.48828 -2.69744
#
# Velocity S-wave (km/s) = -3.52738 3.24316 -0.98089
# Velocity P-wave (km/s) = 1.21185 6.14992 4.43227
#
# Compressibility (1/GPa) = 0.01975184
#
# Stress axis : x y z
#
# Youngs Moduli (GPa) = 74.88426 81.70375 51.99733
#
# Poissons Ratio (x) = 0.33191 0.51865
# Poissons Ratio (y) = 0.30421 -0.07801
# Poissons Ratio (z) = 0.74694 -0.12258
#
# Static dielectric constant tensor:
#      x y z
#    x 1.586910 0.000000 -0.210570 
#    y 0.000000 5.201620 0.000000 
#    z -0.210570 0.000000 5.637780 
# 
# 
# High freq. dielectric constant tensor:
#      x y z
#    x 2.139080 0.000000 -0.016220 
#    y 0.000000 2.128720 0.000000 
#    z -0.016220 0.000000 2.169240 
# 
# From -- ./inp_files/195759.got.cif
#   From: 2010.06.25/outbox.cif.g09.slc.cpg/sg15_98_cif.got.tgz:195759.got - 2010.06.28 07:06:18.
