data_PCOD8138490
_publ_section_title
;
Structure prediction by ZEFSAII (Michael W. Deem and Ramdas Pophale) SiO2 
 PCOD8138490
Probable space group: C 2/C
;
_chemical_formula_sum "Si O2"
_cell_formula_units_Z 56
_cell_length_a 10.891396
_cell_length_b 18.216636
_cell_length_c 17.827080
_cell_angle_alpha 90.000000
_cell_angle_beta 130.421198
_cell_angle_gamma 90.000000
_cell_volume 2692.693352
_symmetry_space_group_name_H-M "C 2/C"
_symmetry_group_IT_number 15
_symmetry_cell_setting 'monoclinic'
loop_
_space_group_symop_operation_xyz
x,y,z
-x,y,1/2-z
-x,-y,-z
x,-y,1/2+z
1/2+x,1/2+y,z
1/2-x,1/2+y,1/2-z
1/2-x,1/2-y,-z
1/2+x,1/2-y,1/2+z
loop_
_atom_site_type_symbol
_atom_site_label
_atom_site_fract_x
_atom_site_fract_y
_atom_site_fract_z
Si Si1 0.099376 0.345492 0.712319
Si Si2 0.221722 0.177016 0.532545
Si Si3 0.841515 0.817586 0.317278
Si Si4 0.030918 0.404384 0.175626
Si Si5 0.552617 0.038754 0.444854
Si Si6 0.588258 0.563896 0.939624
Si Si7 0.082413 0.082516 0.110081
O O1 0.130436 0.259694 0.711171
O O2 0.270871 0.385392 0.784953
O O3 0.000000 0.355716 0.750000
O O4 0.009669 0.379738 0.603234
O O5 0.250000 0.250000 0.500000
O O6 0.200766 0.192454 0.612243
O O7 0.378790 0.130380 0.573283
O O8 0.069316 0.135335 0.438247
O O9 0.695627 0.861988 0.218882
O O10 0.006780 0.863571 0.372442
O O11 0.000000 0.397395 0.250000
O O12 0.024800 0.489907 0.152262
O O13 0.744308 0.043498 0.532380
O O14 0.500000 0.000000 0.500000
O O15 0.459389 0.498668 0.876872
O O16 0.631463 0.576658 0.043196
#
# Coordination Sequence:
#
# PCOD8138490 Si02
#       7
#     8   8   8   8   8   8   8
#     4  12  25  43  64  96 134 174 216 262 327 403
#     4  10  20  37  66  95 132 168 212 272 328 381
#     4  10  24  39  63  98 132 172 214 266 328 395
#     4  10  21  42  66  94 123 166 219 267 317 379
#     4  12  26  42  66  96 129 170 220 273 321 387
#     4  10  21  42  65  95 125 168 222 268 325 381
#     4  10  20  40  70  92 121 173 224 266 317 393
#
# _framework density 20.797021000000001
#
# number of rings (size 3 to 8) (size 9 to 14) (size 15 to 20)
#    0.000    1.429    2.857    2.143    4.000    1.714 
#    0.000    3.571    0.000    0.000    0.000    0.000 
#    0.000    0.000    0.000    0.000    0.000    0.000 
#
# Total GULP energy -347134.864059 kJ/mol
# GULP energy per Si atom -12397.673716 kJ/mol
# Density = 2.074969 g / cm^3
# Si number density = 20.797021 Si / 1000 Ang^3
#
#
#
# Elastic Constant Matrix: (Units=GPa)
#
#
# Indices 1 2 3 4 5 6 
#
# 1 93.3564 41.8270 44.6628 0.0000 22.4880 0.0000
# 2 41.8270 126.4070 40.5504 0.0000 12.3405 0.0000
# 3 44.6628 40.5504 76.7040 0.0000 27.1423 0.0000
# 4 0.0000 0.0000 0.0000 34.2911 0.0000 -3.0661
# 5 22.4880 12.3405 27.1423 0.0000 24.7739 0.0000
# 6 0.0000 0.0000 0.0000 -3.0661 0.0000 35.2870
#
#
#
# Elastic Compliance Matrix: (Units=1/GPa)
#
#
# Indices 1 2 3 4 5 6 
#
# 1 0.016415 -0.002994 -0.005275 0.000000 -0.007629 0.000000
# 2 -0.002994 0.010097 -0.004534 0.000000 0.002656 0.000000
# 3 -0.005275 -0.004534 0.026150 0.000000 -0.021603 0.000000
# 4 0.000000 0.000000 0.000000 0.029390 0.000000 0.002554
# 5 -0.007629 0.002656 -0.021603 0.000000 0.069635 0.000000
# 6 0.000000 0.000000 0.000000 0.002554 0.000000 0.028561
#
#
# Mechanical properties :
#
#
# Convention : Reuss Voigt Hill
#
# Bulk Modulus (GPa) = 36.96299 61.17199 49.06749
# Shear Modulus (GPa) = 23.26937 30.16554 26.71746
#
# Velocity S-wave (km/s) = 3.34860 3.81264 3.58813
# Velocity P-wave (km/s) = 5.72386 6.98994 6.38834
#
# Compressibility (1/GPa) = 0.02705409
#
# Stress axis : x y z
#
# Youngs Moduli (GPa) = 60.92102 99.03914 38.24043
#
# Poissons Ratio (x) = 0.29657 0.20173
# Poissons Ratio (y) = 0.18242 0.17339
# Poissons Ratio (z) = 0.32138 0.44907
#
# Static dielectric constant tensor:
#      x y z
#    x 3.651120 0.000000 0.190070 
#    y 0.000000 3.272920 0.000000 
#    z 0.190070 0.000000 3.647860 
# 
# 
# High freq. dielectric constant tensor:
#      x y z
#    x 1.809570 0.000000 0.023650 
#    y 0.000000 1.827700 0.000000 
#    z 0.023650 0.000000 1.808190 
# 
# From -- ./inp_files/199558.got.cif
#   From: 2010.06.25/outbox.cif.g09.slc.cpg/sg15_100_cif.got.tgz:199558.got - 2010.06.28 07:06:18.
