data_PCOD8138268
_publ_section_title
;
Structure prediction by ZEFSAII (Michael W. Deem and Ramdas Pophale) SiO2 
 PCOD8138268
Probable space group: C 2/C
;
_chemical_formula_sum "Si O2"
_cell_formula_units_Z 40
_cell_length_a 10.688623
_cell_length_b 10.778304
_cell_length_c 17.913193
_cell_angle_alpha 90.000000
_cell_angle_beta 106.509688
_cell_angle_gamma 90.000000
_cell_volume 1978.610906
_symmetry_space_group_name_H-M "C 2/C"
_symmetry_group_IT_number 15
_symmetry_cell_setting 'monoclinic'
loop_
_space_group_symop_operation_xyz
x,y,z
-x,y,1/2-z
-x,-y,-z
x,-y,1/2+z
1/2+x,1/2+y,z
1/2-x,1/2+y,1/2-z
1/2-x,1/2-y,-z
1/2+x,1/2-y,1/2+z
loop_
_atom_site_type_symbol
_atom_site_label
_atom_site_fract_x
_atom_site_fract_y
_atom_site_fract_z
Si Si1 0.795522 0.134297 0.915288
Si Si2 0.571792 0.714119 0.012544
Si Si3 0.111586 0.080093 0.166704
Si Si4 0.818728 0.882228 0.661745
Si Si5 0.278667 0.048824 0.975551
O O1 0.704971 0.243136 0.870065
O O2 0.918187 0.187412 0.982834
O O3 0.846379 0.055441 0.854131
O O4 0.707996 0.052168 0.956319
O O5 0.646245 0.629181 0.964312
O O6 0.629162 0.680545 0.103845
O O7 0.596897 0.859525 0.001090
O O8 0.203419 0.114515 0.252698
O O9 0.963198 0.075496 0.166652
O O10 0.722934 0.979180 0.604407
#
# Coordination Sequence:
#
# PCOD8138268 Si02
#       5
#     8   8   8   8   8
#     4  11  21  41  59  85 116 153 193 239 280 344
#     4  10  20  38  63  85 115 154 192 238 282 338
#     4  10  22  40  57  85 123 149 189 241 287 336
#     4  11  22  37  61  86 116 156 188 237 290 340
#     4  10  20  37  62  87 113 150 198 233 282 344
#
# _framework density 20.216201999999999
#
# number of rings (size 3 to 8) (size 9 to 14) (size 15 to 20)
#    0.000    1.600    4.000    1.800    2.800    0.800 
#    0.000    0.000    0.000    0.000    0.000    0.000 
#    0.000    0.000    0.000    0.000    0.000    0.000 
#
# Total GULP energy -248028.168913 kJ/mol
# GULP energy per Si atom -12401.408446 kJ/mol
# Density = 2.017019 g / cm^3
# Si number density = 20.216202 Si / 1000 Ang^3
#
#
#
# Elastic Constant Matrix: (Units=GPa)
#
#
# Indices 1 2 3 4 5 6 
#
# 1 20.1168 22.9384 21.4163 0.0000 -9.0766 0.0000
# 2 22.9384 144.2077 79.1458 0.0000 0.2160 0.0000
# 3 21.4163 79.1458 152.8396 0.0000 -3.7764 0.0000
# 4 0.0000 0.0000 0.0000 24.8500 0.0000 -7.2119
# 5 -9.0766 0.2160 -3.7764 0.0000 17.2097 0.0000
# 6 0.0000 0.0000 0.0000 -7.2119 0.0000 30.9852
#
#
#
# Elastic Compliance Matrix: (Units=1/GPa)
#
#
# Indices 1 2 3 4 5 6 
#
# 1 0.089103 -0.011194 -0.005555 0.000000 0.045916 0.000000
# 2 -0.011194 0.011120 -0.004363 0.000000 -0.007000 0.000000
# 3 -0.005555 -0.004363 0.009561 0.000000 -0.000777 0.000000
# 4 0.000000 0.000000 0.000000 0.043157 0.000000 0.010045
# 5 0.045916 -0.007000 -0.000777 0.000000 0.082240 0.000000
# 6 0.000000 0.000000 0.000000 0.010045 0.000000 0.034612
#
#
# Mechanical properties :
#
#
# Convention : Reuss Voigt Hill
#
# Bulk Modulus (GPa) = 14.80107 62.68504 38.74305
# Shear Modulus (GPa) = 14.94610 27.51988 21.23299
#
# Velocity S-wave (km/s) = 2.72198 3.69355 3.24434
# Velocity P-wave (km/s) = 4.14924 7.01886 5.76544
#
# Compressibility (1/GPa) = 0.06756270
#
# Stress axis : x y z
#
# Youngs Moduli (GPa) = 11.22293 89.92925 104.59021
#
# Poissons Ratio (x) = 1.00663 0.58095
# Poissons Ratio (y) = 0.12562 0.45630
# Poissons Ratio (z) = 0.06234 0.39234
#
# Static dielectric constant tensor:
#      x y z
#    x 3.364560 0.000000 -0.131890 
#    y 0.000000 3.769970 0.000000 
#    z -0.131890 0.000000 4.000350 
# 
# 
# High freq. dielectric constant tensor:
#      x y z
#    x 1.764640 0.000000 -0.011460 
#    y 0.000000 1.799290 0.000000 
#    z -0.011460 0.000000 1.788100 
# 
# From -- ./inp_files/141747.got.cif
#   From: 2010.06.25/outbox.cif.g09.slc.cpg/sg15_71_cif.got.tgz:141747.got - 2010.06.28 07:06:18.
