data_PCOD8138238
_publ_section_title
;
Structure prediction by ZEFSAII (Michael W. Deem and Ramdas Pophale) SiO2 
 PCOD8138238
Probable space group: C 2/C
;
_chemical_formula_sum "Si O2"
_cell_formula_units_Z 48
_cell_length_a 10.818390
_cell_length_b 22.051616
_cell_length_c 14.892335
_cell_angle_alpha 90.000000
_cell_angle_beta 136.165729
_cell_angle_gamma 90.000000
_cell_volume 2460.551816
_symmetry_space_group_name_H-M "C 2/C"
_symmetry_group_IT_number 15
_symmetry_cell_setting 'monoclinic'
loop_
_space_group_symop_operation_xyz
x,y,z
-x,y,1/2-z
-x,-y,-z
x,-y,1/2+z
1/2+x,1/2+y,z
1/2-x,1/2+y,1/2-z
1/2-x,1/2-y,-z
1/2+x,1/2-y,1/2+z
loop_
_atom_site_type_symbol
_atom_site_label
_atom_site_fract_x
_atom_site_fract_y
_atom_site_fract_z
Si Si1 0.041454 0.749872 0.874449
Si Si2 0.690958 0.935512 0.827941
Si Si3 0.849079 0.015506 0.056808
Si Si4 0.259977 0.486145 0.205404
Si Si5 0.370990 0.872964 0.263555
Si Si6 0.528396 0.633799 0.470747
O O1 0.960956 0.804604 0.889550
O O2 0.000000 0.762539 0.750000
O O3 0.956095 0.685330 0.858310
O O4 0.250000 0.750000 0.000000
O O5 0.500000 0.905374 0.750000
O O6 0.850941 0.888914 0.928186
O O7 0.681602 0.957866 0.720636
O O8 0.729041 0.993994 0.910705
O O9 0.898431 0.085972 0.065657
O O10 0.737155 0.005012 0.089435
O O11 0.032171 0.976986 0.158949
O O12 0.151748 0.425116 0.173395
O O13 0.500000 0.894878 0.250000
O O14 0.180352 0.853291 0.123465
#
# Coordination Sequence:
#
# PCOD8138238 Si02
#       6
#     8   8   8   8   8   8
#     4  11  23  39  63  94 119 164 216 263 316 366
#     4  11  22  38  58  88 128 164 199 257 319 377
#     4  10  21  37  62  93 121 163 203 257 322 376
#     4  10  20  37  61  91 120 163 207 250 318 377
#     4  11  20  39  65  86 122 165 199 261 315 373
#     4  11  21  41  61  87 132 160 206 267 318 372
#
# _framework density 19.507819000000001
#
# number of rings (size 3 to 8) (size 9 to 14) (size 15 to 20)
#    0.000    1.333    6.667    1.500    4.667    0.667 
#    3.000    0.000    3.667    2.000    0.000    0.000 
#    0.000    0.000    0.000    0.000    0.000    0.000 
#
# Total GULP energy -297566.563581 kJ/mol
# GULP energy per Si atom -12398.606816 kJ/mol
# Density = 1.946342 g / cm^3
# Si number density = 19.507819 Si / 1000 Ang^3
#
#
#
# Elastic Constant Matrix: (Units=GPa)
#
#
# Indices 1 2 3 4 5 6 
#
# 1 116.3098 42.7503 38.8861 0.0000 7.4096 0.0000
# 2 42.7503 103.5508 29.0435 0.0000 10.0083 0.0000
# 3 38.8861 29.0435 83.5111 0.0000 12.9125 0.0000
# 4 0.0000 0.0000 0.0000 35.0978 0.0000 3.2803
# 5 7.4096 10.0083 12.9125 0.0000 31.5218 0.0000
# 6 0.0000 0.0000 0.0000 3.2803 0.0000 24.9534
#
#
#
# Elastic Compliance Matrix: (Units=1/GPa)
#
#
# Indices 1 2 3 4 5 6 
#
# 1 0.011229 -0.003519 -0.004024 0.000000 0.000126 0.000000
# 2 -0.003519 0.011923 -0.002189 0.000000 -0.002062 0.000000
# 3 -0.004024 -0.002189 0.015327 0.000000 -0.004637 0.000000
# 4 0.000000 0.000000 0.000000 0.028846 0.000000 -0.003792
# 5 0.000126 -0.002062 -0.004637 0.000000 0.034249 0.000000
# 6 0.000000 0.000000 0.000000 -0.003792 0.000000 0.040573
#
#
# Mechanical properties :
#
#
# Convention : Reuss Voigt Hill
#
# Bulk Modulus (GPa) = 52.59441 58.30351 55.44896
# Shear Modulus (GPa) = 29.77086 31.16070 30.46578
#
# Velocity S-wave (km/s) = 3.91077 4.00101 3.95615
# Velocity P-wave (km/s) = 6.88559 7.16214 7.02523
#
# Compressibility (1/GPa) = 0.01901343
#
# Stress axis : x y z
#
# Youngs Moduli (GPa) = 89.05853 83.86973 65.24582
#
# Poissons Ratio (x) = 0.29515 0.26256
# Poissons Ratio (y) = 0.31341 0.14284
# Poissons Ratio (z) = 0.35838 0.18361
#
# Static dielectric constant tensor:
#      x y z
#    x 3.674880 0.000000 0.118950 
#    y 0.000000 3.638230 0.000000 
#    z 0.118950 0.000000 3.568030 
# 
# 
# High freq. dielectric constant tensor:
#      x y z
#    x 1.747960 0.000000 0.013470 
#    y 0.000000 1.740300 0.000000 
#    z 0.013470 0.000000 1.766920 
# 
# From -- ./inp_files/147466.got.cif
#   From: 2010.06.25/outbox.cif.g09.slc.cpg/sg15_74_cif.got.tgz:147466.got - 2010.06.28 07:06:18.
