data_PCOD8138543
_publ_section_title
;
Structure prediction by ZEFSAII (Michael W. Deem and Ramdas Pophale) SiO2 
 PCOD8138543
Probable space group: C 2/C
;
_chemical_formula_sum "Si O2"
_cell_formula_units_Z 48
_cell_length_a 20.500401
_cell_length_b 16.273014
_cell_length_c 16.844892
_cell_angle_alpha 90.000000
_cell_angle_beta 152.137595
_cell_angle_gamma 90.000000
_cell_volume 2626.277842
_symmetry_space_group_name_H-M "C 2/C"
_symmetry_group_IT_number 15
_symmetry_cell_setting 'monoclinic'
loop_
_space_group_symop_operation_xyz
x,y,z
-x,y,1/2-z
-x,-y,-z
x,-y,1/2+z
1/2+x,1/2+y,z
1/2-x,1/2+y,1/2-z
1/2-x,1/2-y,-z
1/2+x,1/2-y,1/2+z
loop_
_atom_site_type_symbol
_atom_site_label
_atom_site_fract_x
_atom_site_fract_y
_atom_site_fract_z
Si Si1 0.873952 0.163540 0.891180
Si Si2 0.225830 0.078692 0.133365
Si Si3 0.514312 0.096123 0.358969
Si Si4 0.388627 0.251286 0.946284
Si Si5 0.518293 0.558453 0.360035
Si Si6 0.721269 0.505326 0.794197
O O1 0.725929 0.208572 0.732981
O O2 0.871277 0.083174 0.832302
O O3 0.909108 0.135520 0.018110
O O4 0.988549 0.225098 0.980926
O O5 0.371035 0.068103 0.244623
O O6 0.174207 0.172419 0.072842
O O7 0.247114 0.054481 0.247848
O O8 0.113327 0.022483 0.967937
O O9 0.500000 0.093941 0.250000
O O10 0.555284 0.188155 0.427896
O O11 0.631006 0.031151 0.511061
O O12 0.500000 0.584754 0.250000
O O13 0.366267 0.542888 0.234002
#
# Coordination Sequence:
#
# PCOD8138543 Si02
#       6
#     8   8   8   8   8   8
#     4  10  20  38  56  83 107 149 188 217 267 338
#     4  11  20  37  60  80 109 150 186 220 271 329
#     4  11  24  36  53  88 119 139 177 231 281 322
#     4  11  20  36  60  77 111 152 181 217 270 333
#     4  11  21  36  60  84 109 142 186 234 272 313
#     4  10  20  38  60  79 110 150 187 219 267 335
#
# _framework density 18.276817999999999
#
# number of rings (size 3 to 8) (size 9 to 14) (size 15 to 20)
#    0.000    1.333    5.000    2.500    0.000    1.333 
#    0.000    0.833    0.000    0.000    0.000    0.000 
#    0.000    0.000    0.000    0.000    0.000    0.000 
#
# Total GULP energy -297730.255739 kJ/mol
# GULP energy per Si atom -12405.427322 kJ/mol
# Density = 1.823522 g / cm^3
# Si number density = 18.276818 Si / 1000 Ang^3
#
#
#
# Elastic Constant Matrix: (Units=GPa)
#
#
# Indices 1 2 3 4 5 6 
#
# 1 135.9060 17.5293 60.1847 0.0012 1.3056 0.0009
# 2 17.5293 31.2820 13.8270 -0.0006 7.1976 -0.0005
# 3 60.1847 13.8270 91.5453 0.0024 1.5680 0.0018
# 4 0.0012 -0.0006 0.0024 106.1335 0.0031 67.3901
# 5 1.3056 7.1976 1.5680 0.0031 36.0526 0.0024
# 6 0.0009 -0.0005 0.0018 67.3901 0.0024 71.6700
#
#
#
# Elastic Compliance Matrix: (Units=1/GPa)
#
#
# Indices 1 2 3 4 5 6 
#
# 1 0.010660 -0.003210 -0.006532 0.000000 0.000539 0.000000
# 2 -0.003210 0.036875 -0.003338 0.000000 -0.007100 0.000000
# 3 -0.006532 -0.003338 0.015719 0.000000 0.000219 0.000000
# 4 0.000000 0.000000 0.000000 0.023382 -0.000001 -0.021986
# 5 0.000539 -0.007100 0.000219 -0.000001 0.029126 0.000000
# 6 0.000000 0.000000 0.000000 -0.021986 0.000000 0.034626
#
#
# Mechanical properties :
#
#
# Convention : Reuss Voigt Hill
#
# Bulk Modulus (GPa) = 26.95910 49.09059 38.02485
# Shear Modulus (GPa) = 26.46745 53.91737 40.19241
#
# Velocity S-wave (km/s) = 3.80958 5.43732 4.69454
# Velocity P-wave (km/s) = 5.84234 8.14476 7.08767
#
# Compressibility (1/GPa) = 0.03709322
#
# Stress axis : x y z
#
# Youngs Moduli (GPa) = 93.81138 27.11861 63.61910
#
# Poissons Ratio (x) = 0.08705 0.41559
# Poissons Ratio (y) = 0.30112 0.21234
# Poissons Ratio (z) = 0.61282 0.09051
#
# Static dielectric constant tensor:
#      x y z
#    x 3.252230 0.000000 0.135190 
#    y 0.000000 3.432080 0.000000 
#    z 0.135190 0.000000 3.503080 
# 
# 
# High freq. dielectric constant tensor:
#      x y z
#    x 1.703050 0.000000 0.015240 
#    y 0.000000 1.704970 0.000000 
#    z 0.015240 0.000000 1.719480 
# 
# From -- ./inp_files/48071.got.cif
#   From: 2010.06.25/outbox.cif.g09.slc.cpg/sg15_25_cif.got.tgz:48071.got - 2010.06.28 07:06:18.
