data_PCOD8138354
_publ_section_title
;
Structure prediction by ZEFSAII (Michael W. Deem and Ramdas Pophale) SiO2 
 PCOD8138354
Probable space group: C 2/C
;
_chemical_formula_sum "Si O2"
_cell_formula_units_Z 52
_cell_length_a 11.393913
_cell_length_b 24.351948
_cell_length_c 14.241016
_cell_angle_alpha 90.000000
_cell_angle_beta 144.825952
_cell_angle_gamma 90.000000
_cell_volume 2276.234017
_symmetry_space_group_name_H-M "C 2/C"
_symmetry_group_IT_number 15
_symmetry_cell_setting 'monoclinic'
loop_
_space_group_symop_operation_xyz
x,y,z
-x,y,1/2-z
-x,-y,-z
x,-y,1/2+z
1/2+x,1/2+y,z
1/2-x,1/2+y,1/2-z
1/2-x,1/2-y,-z
1/2+x,1/2-y,1/2+z
loop_
_atom_site_type_symbol
_atom_site_label
_atom_site_fract_x
_atom_site_fract_y
_atom_site_fract_z
Si Si1 0.605083 0.940882 0.984912
Si Si2 0.581555 0.723229 0.674573
Si Si3 0.311932 0.179277 0.005120
Si Si4 0.765816 0.294700 0.091938
Si Si5 0.421051 0.952337 0.323390
Si Si6 0.500000 0.514728 0.250000
Si Si7 0.172513 0.913100 0.007776
O O1 0.626077 0.884221 0.943140
O O2 0.557318 0.926254 0.060311
O O3 0.808947 0.976035 0.118795
O O4 0.430516 0.980576 0.827494
O O5 0.514408 0.785215 0.660321
O O6 0.736406 0.697046 0.851106
O O7 0.369265 0.688840 0.537846
O O8 0.684897 0.726265 0.639738
O O9 0.630710 0.347876 0.976113
O O10 0.000000 0.313019 0.250000
O O11 0.750000 0.250000 0.000000
O O12 0.204703 0.933447 0.136716
O O13 0.613200 0.926808 0.398444
O O14 0.491255 0.554418 0.336397
#
# Coordination Sequence:
#
# PCOD8138354 Si02
#       7
#     8   8   8   8   8   4   8
#     4  10  20  37  63  90 116 167 208 262 315 389
#     4  10  22  40  62  92 124 170 210 263 325 377
#     4  10  21  41  64  90 132 163 208 268 320 386
#     4  12  25  40  63  93 124 173 221 262 322 388
#     4   9  19  38  61  85 120 165 209 249 330 378
#     4  10  22  38  58  92 120 152 218 252 316 374
#     4  10  21  40  58  82 129 162 195 275 309 372
#
# _framework density 22.844750999999999
#
# number of rings (size 3 to 8) (size 9 to 14) (size 15 to 20)
#    0.000    1.846    1.538    2.769    3.231    0.615 
#    0.000   16.923    0.000    0.000    0.000    0.000 
#    0.000    0.000    0.000    0.000    0.000    0.000 
#
# Total GULP energy -322181.117741 kJ/mol
# GULP energy per Si atom -12391.581452 kJ/mol
# Density = 2.279276 g / cm^3
# Si number density = 22.844751 Si / 1000 Ang^3
#
#
#
# Elastic Constant Matrix: (Units=GPa)
#
#
# Indices 1 2 3 4 5 6 
#
# 1 98.1766 12.2076 -2.9367 0.0000 -10.1623 0.0000
# 2 12.2076 173.1796 30.8501 0.0000 -1.5412 0.0000
# 3 -2.9367 30.8501 49.2020 0.0000 -11.4206 0.0000
# 4 0.0000 0.0000 0.0000 34.7745 0.0000 -2.2855
# 5 -10.1623 -1.5412 -11.4206 0.0000 22.3467 0.0000
# 6 0.0000 0.0000 0.0000 -2.2855 0.0000 29.5435
#
#
#
# Elastic Compliance Matrix: (Units=1/GPa)
#
#
# Indices 1 2 3 4 5 6 
#
# 1 0.011099 -0.001250 0.002947 0.000000 0.006467 0.000000
# 2 -0.001250 0.006710 -0.004886 0.000000 -0.002602 0.000000
# 3 0.002947 -0.004886 0.026999 0.000000 0.014802 0.000000
# 4 0.000000 0.000000 0.000000 0.028904 0.000000 0.002236
# 5 0.006467 -0.002602 0.014802 0.000000 0.055075 0.000000
# 6 0.000000 0.000000 0.000000 0.002236 0.000000 0.034021
#
#
# Mechanical properties :
#
#
# Convention : Reuss Voigt Hill
#
# Bulk Modulus (GPa) = 26.02060 44.53338 35.27699
# Shear Modulus (GPa) = 27.47331 36.02876 31.75103
#
# Velocity S-wave (km/s) = 3.47163 3.97560 3.73213
# Velocity P-wave (km/s) = 5.24257 6.37260 5.83501
#
# Compressibility (1/GPa) = 0.03843109
#
# Stress axis : x y z
#
# Youngs Moduli (GPa) = 90.10062 149.03973 37.03800
#
# Poissons Ratio (x) = 0.18627 -0.10916
# Poissons Ratio (y) = 0.11261 0.18096
# Poissons Ratio (z) = -0.26555 0.72816
#
# Static dielectric constant tensor:
#      x y z
#    x 4.609570 0.000000 -0.730510 
#    y 0.000000 4.237790 0.000000 
#    z -0.730510 0.000000 5.549770 
# 
# 
# High freq. dielectric constant tensor:
#      x y z
#    x 1.895260 0.000000 -0.012060 
#    y 0.000000 1.906050 0.000000 
#    z -0.012060 0.000000 1.890280 
# 
# From -- ./inp_files/148143.got.cif
#   From: 2010.06.25/outbox.cif.g09.slc.cpg/sg15_75_cif.got.tgz:148143.got - 2010.06.28 07:06:18.
