data_PCOD8138648
_publ_section_title
;
Structure prediction by ZEFSAII (Michael W. Deem and Ramdas Pophale) SiO2 
 PCOD8138648
Probable space group: C 2/C
;
_chemical_formula_sum "Si O2"
_cell_formula_units_Z 52
_cell_length_a 21.065843
_cell_length_b 8.775772
_cell_length_c 14.030330
_cell_angle_alpha 90.000000
_cell_angle_beta 69.983224
_cell_angle_gamma 90.000000
_cell_volume 2437.090033
_symmetry_space_group_name_H-M "C 2/C"
_symmetry_group_IT_number 15
_symmetry_cell_setting 'monoclinic'
loop_
_space_group_symop_operation_xyz
x,y,z
-x,y,1/2-z
-x,-y,-z
x,-y,1/2+z
1/2+x,1/2+y,z
1/2-x,1/2+y,1/2-z
1/2-x,1/2-y,-z
1/2+x,1/2-y,1/2+z
loop_
_atom_site_type_symbol
_atom_site_label
_atom_site_fract_x
_atom_site_fract_y
_atom_site_fract_z
Si Si1 0.153066 0.179994 0.866514
Si Si2 0.796260 0.850057 0.359610
Si Si3 0.000000 0.243102 0.250000
Si Si4 0.148997 0.700670 0.995669
Si Si5 0.396895 0.651096 0.152812
Si Si6 0.110609 0.359886 0.055544
Si Si7 0.707408 0.290053 0.646134
O O1 0.167459 0.228416 0.750262
O O2 0.225182 0.190376 0.882012
O O3 0.122566 0.011990 0.879525
O O4 0.101314 0.290107 0.952659
O O5 0.850146 0.815039 0.415283
O O6 0.723215 0.775292 0.411678
O O7 0.782044 0.028897 0.359115
O O8 0.041273 0.137234 0.303635
O O9 0.045512 0.348263 0.157633
O O10 0.091155 0.747992 0.948621
O O11 0.132881 0.533229 0.040040
O O12 0.338213 0.742660 0.238031
O O13 0.171498 0.262315 0.068211
#
# Coordination Sequence:
#
# PCOD8138648 Si02
#       7
#     8   8   4   8   8   8   8
#     4  11  21  37  64  99 127 170 207 272 336 392
#     4  10  22  35  58  99 142 155 205 251 342 409
#     4  10  26  50  62  90 124 188 236 274 300 388
#     4  11  22  36  60  96 128 173 200 268 322 396
#     4  10  23  41  66  89 134 169 220 269 323 382
#     4  11  24  39  67  90 132 175 225 260 326 379
#     4  10  20  38  59  97 133 168 201 268 333 401
#
# _framework density 21.336922000000001
#
# number of rings (size 3 to 8) (size 9 to 14) (size 15 to 20)
#    0.000    1.538    3.077    1.385    4.308    3.692 
#    0.000    0.000    0.000    5.538    0.000    0.000 
#    0.000    0.000    0.000    0.000    0.000    0.000 
#
# Total GULP energy -322128.849262 kJ/mol
# GULP energy per Si atom -12389.571125 kJ/mol
# Density = 2.128836 g / cm^3
# Si number density = 21.336922 Si / 1000 Ang^3
#
#
#
# Elastic Constant Matrix: (Units=GPa)
#
#
# Indices 1 2 3 4 5 6 
#
# 1 85.6859 31.7942 58.7581 0.0000 9.4871 0.0000
# 2 31.7942 70.1511 43.9031 0.0000 8.6552 0.0000
# 3 58.7581 43.9031 149.7699 0.0000 9.8407 0.0000
# 4 0.0000 0.0000 0.0000 31.1533 0.0000 11.8339
# 5 9.4871 8.6552 9.8407 0.0000 34.3269 0.0000
# 6 0.0000 0.0000 0.0000 11.8339 0.0000 3.7329
#
#
#
# Elastic Compliance Matrix: (Units=1/GPa)
#
#
# Indices 1 2 3 4 5 6 
#
# 1 0.017122 -0.004138 -0.005363 0.000000 -0.002151 0.000000
# 2 -0.004138 0.018765 -0.003711 0.000000 -0.002524 0.000000
# 3 -0.005363 -0.003711 0.009896 0.000000 -0.000419 0.000000
# 4 0.000000 0.000000 0.000000 -0.157177 0.000000 0.498279
# 5 -0.002151 -0.002524 -0.000419 0.000000 0.030483 0.000000
# 6 0.000000 0.000000 0.000000 0.498279 0.000000 -1.311742
#
#
# Mechanical properties :
#
#
# Convention : Reuss Voigt Hill
#
# Bulk Modulus (GPa) = 51.65859 63.83531 57.74695
# Shear Modulus (GPa) = -3.67707 25.25270 10.78781
#
# Velocity S-wave (km/s) = -1.31418 3.44397 2.25098
# Velocity P-wave (km/s) = 4.68622 6.76737 5.82056
#
# Compressibility (1/GPa) = 0.01935786
#
# Stress axis : x y z
#
# Youngs Moduli (GPa) = 58.40521 53.29206 101.04795
#
# Poissons Ratio (x) = 0.22054 0.54190
# Poissons Ratio (y) = 0.24170 0.37501
# Poissons Ratio (z) = 0.31322 0.19778
#
# Static dielectric constant tensor:
#      x y z
#    x 3.757860 0.000000 0.069290 
#    y 0.000000 3.565340 0.000000 
#    z 0.069290 0.000000 4.386020 
# 
# 
# High freq. dielectric constant tensor:
#      x y z
#    x 1.806680 0.000000 0.011610 
#    y 0.000000 1.818960 0.000000 
#    z 0.011610 0.000000 1.869570 
# 
# From -- ./inp_files/166226.got.cif
#   From: 2010.06.25/outbox.cif.g09.slc.cpg/sg15_84_cif.got.tgz:166226.got - 2010.06.28 07:06:18.
