data_PCOD8138892
_publ_section_title
;
Structure prediction by ZEFSAII (Michael W. Deem and Ramdas Pophale) SiO2 
 PCOD8138892
Probable space group: C 2/C
;
_chemical_formula_sum "Si O2"
_cell_formula_units_Z 60
_cell_length_a 11.647546
_cell_length_b 18.140542
_cell_length_c 14.913169
_cell_angle_alpha 90.000000
_cell_angle_beta 114.476328
_cell_angle_gamma 90.000000
_cell_volume 2867.868723
_symmetry_space_group_name_H-M "C 2/C"
_symmetry_group_IT_number 15
_symmetry_cell_setting 'monoclinic'
loop_
_space_group_symop_operation_xyz
x,y,z
-x,y,1/2-z
-x,-y,-z
x,-y,1/2+z
1/2+x,1/2+y,z
1/2-x,1/2+y,1/2-z
1/2-x,1/2-y,-z
1/2+x,1/2-y,1/2+z
loop_
_atom_site_type_symbol
_atom_site_label
_atom_site_fract_x
_atom_site_fract_y
_atom_site_fract_z
Si Si1 0.619754 0.788282 0.228743
Si Si2 0.940169 0.823966 0.938381
Si Si3 0.674108 0.599790 0.932569
Si Si4 0.926583 0.054363 0.133393
Si Si5 0.500000 0.319160 0.250000
Si Si6 0.648791 0.916463 0.588017
Si Si7 0.621118 0.754923 0.624266
Si Si8 0.408951 0.073147 0.898700
O O1 0.500000 0.767788 0.250000
O O2 0.634792 0.729894 0.152600
O O3 0.739371 0.779202 0.331606
O O4 0.613549 0.871857 0.190955
O O5 0.988352 0.896303 0.903669
O O6 0.845042 0.848720 0.986815
O O7 0.056560 0.776377 0.013777
O O8 0.602490 0.522547 0.926104
O O9 0.615872 0.632117 0.822226
O O10 0.822941 0.592012 0.958907
O O11 0.793141 0.094154 0.105506
O O12 0.000000 0.041369 0.250000
O O13 0.454991 0.268519 0.314577
O O14 0.614642 0.842831 0.629403
O O15 0.556177 0.924245 0.472280
O O16 0.630328 0.989768 0.643887
#
# Coordination Sequence:
#
# PCOD8138892 Si02
#       8
#     8   8   8   8   4   8   8   8
#     4  12  25  41  64  92 130 172 214 271 325 385
#     4  11  24  38  64  97 123 168 220 269 325 375
#     4  10  21  41  66  90 128 168 211 268 319 384
#     4  11  22  40  66  94 133 167 215 268 321 383
#     4  10  20  38  62  92 118 164 208 268 318 368
#     4  10  22  40  65  88 125 171 204 263 318 387
#     4  11  23  40  64  91 127 161 219 268 323 382
#     4  10  22  43  63  89 127 170 213 257 326 382
#
# _framework density 20.92146
#
# number of rings (size 3 to 8) (size 9 to 14) (size 15 to 20)
#    0.000    1.333    3.333    2.400    1.867    2.667 
#    1.200    1.333    0.000    0.000    0.000    0.000 
#    0.000    0.000    0.000    0.000    0.000    0.000 
#
# Total GULP energy -372024.376040 kJ/mol
# GULP energy per Si atom -12400.812535 kJ/mol
# Density = 2.087384 g / cm^3
# Si number density = 20.921460 Si / 1000 Ang^3
#
#
#
# Elastic Constant Matrix: (Units=GPa)
#
#
# Indices 1 2 3 4 5 6 
#
# 1 73.1381 0.2075 17.3457 0.0000 14.5180 0.0000
# 2 0.2075 114.9228 19.0573 0.0000 -5.4983 0.0000
# 3 17.3457 19.0573 56.4019 0.0000 0.6349 0.0000
# 4 0.0000 0.0000 0.0000 34.0980 0.0000 3.0077
# 5 14.5180 -5.4983 0.6349 0.0000 29.4242 0.0000
# 6 0.0000 0.0000 0.0000 3.0077 0.0000 32.6104
#
#
#
# Elastic Compliance Matrix: (Units=1/GPa)
#
#
# Indices 1 2 3 4 5 6 
#
# 1 0.016460 0.000440 -0.005122 0.000000 -0.007929 0.000000
# 2 0.000440 0.009325 -0.003304 0.000000 0.001597 0.000000
# 3 -0.005122 -0.003304 0.020405 0.000000 0.001469 0.000000
# 4 0.000000 0.000000 0.000000 0.029568 0.000000 -0.002727
# 5 -0.007929 0.001597 0.001469 0.000000 0.038164 0.000000
# 6 0.000000 0.000000 0.000000 -0.002727 0.000000 0.030917
#
#
# Mechanical properties :
#
#
# Convention : Reuss Voigt Hill
#
# Bulk Modulus (GPa) = 33.09185 35.29821 34.19503
# Shear Modulus (GPa) = 29.25989 33.08334 31.17162
#
# Velocity S-wave (km/s) = 3.74379 3.98088 3.86416
# Velocity P-wave (km/s) = 5.87703 6.16752 6.02403
#
# Compressibility (1/GPa) = 0.03021893
#
# Stress axis : x y z
#
# Youngs Moduli (GPa) = 60.75330 107.23855 49.00797
#
# Poissons Ratio (x) = -0.04721 0.25100
# Poissons Ratio (y) = -0.02675 0.16193
# Poissons Ratio (z) = 0.31115 0.35433
#
# Static dielectric constant tensor:
#      x y z
#    x 3.786060 0.000000 0.342310 
#    y 0.000000 4.030220 0.000000 
#    z 0.342310 0.000000 3.802520 
# 
# 
# High freq. dielectric constant tensor:
#      x y z
#    x 1.820090 0.000000 0.017270 
#    y 0.000000 1.839590 0.000000 
#    z 0.017270 0.000000 1.801990 
# 
# From -- ./inp_files/146026.got.cif
#   From: 2010.06.25/outbox.cif.g09.slc.cpg/sg15_74_cif.got.tgz:146026.got - 2010.06.28 07:06:18.
