data_PCOD8138211
_publ_section_title
;
Structure prediction by ZEFSAII (Michael W. Deem and Ramdas Pophale) SiO2 
 PCOD8138211
Probable space group: C 2/C
;
_chemical_formula_sum "Si O2"
_cell_formula_units_Z 48
_cell_length_a 9.513520
_cell_length_b 14.230392
_cell_length_c 19.986259
_cell_angle_alpha 90.000000
_cell_angle_beta 116.728064
_cell_angle_gamma 90.000000
_cell_volume 2416.654674
_symmetry_space_group_name_H-M "C 2/C"
_symmetry_group_IT_number 15
_symmetry_cell_setting 'monoclinic'
loop_
_space_group_symop_operation_xyz
x,y,z
-x,y,1/2-z
-x,-y,-z
x,-y,1/2+z
1/2+x,1/2+y,z
1/2-x,1/2+y,1/2-z
1/2-x,1/2-y,-z
1/2+x,1/2-y,1/2+z
loop_
_atom_site_type_symbol
_atom_site_label
_atom_site_fract_x
_atom_site_fract_y
_atom_site_fract_z
Si Si1 0.125752 0.433789 0.178983
Si Si2 0.854467 0.781707 0.167851
Si Si3 0.293275 0.611593 0.420989
Si Si4 0.994286 0.576075 0.440742
Si Si5 0.278372 0.922984 0.151194
Si Si6 0.478359 0.285401 0.436735
O O1 0.220777 0.358024 0.155623
O O2 0.205387 0.443959 0.267268
O O3 0.123922 0.534994 0.141406
O O4 0.942567 0.406911 0.148317
O O5 0.777388 0.677887 0.153406
O O6 0.000000 0.788455 0.250000
O O7 0.906053 0.794832 0.102016
O O8 0.169613 0.594018 0.453183
O O9 0.328403 0.509675 0.397501
O O10 0.448749 0.658973 0.484885
O O11 0.000000 0.500000 0.500000
O O12 0.935789 0.679117 0.450463
O O13 0.188024 0.827106 0.119831
#
# Coordination Sequence:
#
# PCOD8138211 Si02
#       6
#     8   8   8   8   8   8
#     4  10  21  38  57  85 120 155 195 237 299 352
#     4  11  21  37  63  87 113 152 201 245 286 338
#     4  10  22  36  61  87 119 153 199 239 291 351
#     4  10  20  37  61  84 117 156 192 239 292 347
#     4  10  22  37  59  84 122 157 189 241 297 353
#     4  11  21  39  61  91 115 152 199 244 287 345
#
# _framework density 19.862166999999999
#
# number of rings (size 3 to 8) (size 9 to 14) (size 15 to 20)
#    0.000    1.667    1.667    4.500    7.000    0.000 
#    0.000   10.833    3.667    0.000    0.000    0.000 
#    0.000    0.000    0.000    0.000    0.000    0.000 
#
# Total GULP energy -297490.146711 kJ/mol
# GULP energy per Si atom -12395.422780 kJ/mol
# Density = 1.981696 g / cm^3
# Si number density = 19.862167 Si / 1000 Ang^3
#
#
#
# Elastic Constant Matrix: (Units=GPa)
#
#
# Indices 1 2 3 4 5 6 
#
# 1 54.6793 54.1349 34.4204 0.0000 1.9565 0.0000
# 2 54.1349 161.5699 69.2606 0.0000 5.2332 0.0000
# 3 34.4204 69.2606 112.6284 0.0000 13.0248 0.0000
# 4 0.0000 0.0000 0.0000 40.1036 0.0000 3.9938
# 5 1.9565 5.2332 13.0248 0.0000 22.4420 0.0000
# 6 0.0000 0.0000 0.0000 3.9938 0.0000 28.1001
#
#
#
# Elastic Compliance Matrix: (Units=1/GPa)
#
#
# Indices 1 2 3 4 5 6 
#
# 1 0.028613 -0.007888 -0.004092 0.000000 0.001720 0.000000
# 2 -0.007888 0.010606 -0.004186 0.000000 0.000644 0.000000
# 3 -0.004092 -0.004186 0.013452 0.000000 -0.006474 0.000000
# 4 0.000000 0.000000 0.000000 0.025293 0.000000 -0.003595
# 5 0.001720 0.000644 -0.006474 0.000000 0.048017 0.000000
# 6 0.000000 0.000000 0.000000 -0.003595 0.000000 0.036098
#
#
# Mechanical properties :
#
#
# Convention : Reuss Voigt Hill
#
# Bulk Modulus (GPa) = 49.16924 71.61215 60.39070
# Shear Modulus (GPa) = 24.85200 29.53325 27.19263
#
# Velocity S-wave (km/s) = 3.54110 3.86023 3.70410
# Velocity P-wave (km/s) = 6.44423 7.48340 6.98318
#
# Compressibility (1/GPa) = 0.02033792
#
# Stress axis : x y z
#
# Youngs Moduli (GPa) = 34.94940 94.28872 74.33758
#
# Poissons Ratio (x) = 0.74378 0.30422
# Poissons Ratio (y) = 0.27569 0.31115
# Poissons Ratio (z) = 0.14303 0.39466
#
# Static dielectric constant tensor:
#      x y z
#    x 3.402890 0.000000 -0.028510 
#    y 0.000000 4.016550 0.000000 
#    z -0.028510 0.000000 3.678370 
# 
# 
# High freq. dielectric constant tensor:
#      x y z
#    x 1.748530 0.000000 0.002490 
#    y 0.000000 1.785910 0.000000 
#    z 0.002490 0.000000 1.786210 
# 
# From -- ./inp_files/196896.got.cif
#   From: 2010.06.25/outbox.cif.g09.slc.cpg/sg15_99_cif.got.tgz:196896.got - 2010.06.28 07:06:18.
