data_PCOD8138952
_publ_section_title
;
Structure prediction by ZEFSAII (Michael W. Deem and Ramdas Pophale) SiO2 
 PCOD8138952
Probable space group: C 2/C
;
_chemical_formula_sum "Si O2"
_cell_formula_units_Z 40
_cell_length_a 12.376399
_cell_length_b 6.520130
_cell_length_c 23.364472
_cell_angle_alpha 90.000000
_cell_angle_beta 99.852549
_cell_angle_gamma 90.000000
_cell_volume 1857.605884
_symmetry_space_group_name_H-M "C 2/C"
_symmetry_group_IT_number 15
_symmetry_cell_setting 'monoclinic'
loop_
_space_group_symop_operation_xyz
x,y,z
-x,y,1/2-z
-x,-y,-z
x,-y,1/2+z
1/2+x,1/2+y,z
1/2-x,1/2+y,1/2-z
1/2-x,1/2-y,-z
1/2+x,1/2-y,1/2+z
loop_
_atom_site_type_symbol
_atom_site_label
_atom_site_fract_x
_atom_site_fract_y
_atom_site_fract_z
Si Si1 0.899848 0.375568 0.779186
Si Si2 0.749543 0.067375 0.826472
Si Si3 0.536707 0.187569 0.465290
Si Si4 0.455917 0.123365 0.627175
Si Si5 0.097066 0.073982 0.070902
O O1 0.852516 0.203950 0.816894
O O2 0.797542 0.442535 0.731153
O O3 0.000000 0.285013 0.750000
O O4 0.945613 0.565911 0.820329
O O5 0.650455 0.196736 0.846505
O O6 0.797460 0.911758 0.878652
O O7 0.434722 0.337081 0.441924
O O8 0.623725 0.319076 0.511598
O O9 0.500000 0.000000 0.500000
O O10 0.580353 0.084349 0.410696
O O11 0.493587 0.308422 0.590283
#
# Coordination Sequence:
#
# PCOD8138952 Si02
#       5
#     8   8   8   8   8
#     4  10  22  39  59  87 124 154 201 257 296 357
#     4  11  22  38  62  90 116 163 204 242 310 360
#     4   9  19  39  63  88 127 157 196 254 292 352
#     4  10  21  40  60  89 125 153 202 254 291 361
#     4  10  20  38  63  89 121 162 197 246 305 350
#
# _framework density 21.533093000000001
#
# number of rings (size 3 to 8) (size 9 to 14) (size 15 to 20)
#    0.000    2.000    2.000    1.200    0.000    2.400 
#    3.600    9.000    0.000    0.000    0.000    0.000 
#    0.000    0.000    0.000    0.000    0.000    0.000 
#
# Total GULP energy -247845.135324 kJ/mol
# GULP energy per Si atom -12392.256766 kJ/mol
# Density = 2.148408 g / cm^3
# Si number density = 21.533093 Si / 1000 Ang^3
#
#
#
# Elastic Constant Matrix: (Units=GPa)
#
#
# Indices 1 2 3 4 5 6 
#
# 1 91.2302 33.7566 33.8405 0.0000 1.2430 0.0000
# 2 33.7566 84.2647 35.1308 0.0000 8.7404 0.0000
# 3 33.8405 35.1308 131.7997 0.0000 25.1721 0.0000
# 4 0.0000 0.0000 0.0000 28.3719 0.0000 -2.9530
# 5 1.2430 8.7404 25.1721 0.0000 22.6987 0.0000
# 6 0.0000 0.0000 0.0000 -2.9530 0.0000 20.4884
#
#
#
# Elastic Compliance Matrix: (Units=1/GPa)
#
#
# Indices 1 2 3 4 5 6 
#
# 1 0.013807 -0.004684 -0.003168 0.000000 0.004560 0.000000
# 2 -0.004684 0.014981 -0.002205 0.000000 -0.003067 0.000000
# 3 -0.003168 -0.002205 0.011156 0.000000 -0.011349 0.000000
# 4 0.000000 0.000000 0.000000 0.035783 0.000000 0.005157
# 5 0.004560 -0.003067 -0.011349 0.000000 0.057572 0.000000
# 6 0.000000 0.000000 0.000000 0.005157 0.000000 0.049551
#
#
# Mechanical properties :
#
#
# Convention : Reuss Voigt Hill
#
# Bulk Modulus (GPa) = 50.42393 56.97225 53.69809
# Shear Modulus (GPa) = 23.85803 27.94958 25.90380
#
# Velocity S-wave (km/s) = 3.33223 3.60666 3.47216
# Velocity P-wave (km/s) = 6.18650 6.62265 6.40828
#
# Compressibility (1/GPa) = 0.01983186
#
# Stress axis : x y z
#
# Youngs Moduli (GPa) = 72.42638 66.75149 89.63966
#
# Poissons Ratio (x) = 0.31263 0.28394
# Poissons Ratio (y) = 0.33921 0.19764
# Poissons Ratio (z) = 0.22942 0.14718
#
# Static dielectric constant tensor:
#      x y z
#    x 3.510280 0.000000 -0.005910 
#    y 0.000000 3.720440 0.000000 
#    z -0.005910 0.000000 4.577910 
# 
# 
# High freq. dielectric constant tensor:
#      x y z
#    x 1.815330 0.000000 0.006190 
#    y 0.000000 1.823000 0.000000 
#    z 0.006190 0.000000 1.882980 
# 
# From -- ./inp_files/271985.got.cif
#   From: 2010.06.25/outbox.cif.g09.slc.cpg/sg15_136_cif.got.tgz:271985.got - 2010.06.28 07:06:18.
