data_PCOD8138282
_publ_section_title
;
Structure prediction by ZEFSAII (Michael W. Deem and Ramdas Pophale) SiO2 
 PCOD8138282
Probable space group: C 2/C
;
_chemical_formula_sum "Si O2"
_cell_formula_units_Z 60
_cell_length_a 11.293973
_cell_length_b 16.155350
_cell_length_c 16.648698
_cell_angle_alpha 90.000000
_cell_angle_beta 104.621903
_cell_angle_gamma 90.000000
_cell_volume 2939.307137
_symmetry_space_group_name_H-M "C 2/C"
_symmetry_group_IT_number 15
_symmetry_cell_setting 'monoclinic'
loop_
_space_group_symop_operation_xyz
x,y,z
-x,y,1/2-z
-x,-y,-z
x,-y,1/2+z
1/2+x,1/2+y,z
1/2-x,1/2+y,1/2-z
1/2-x,1/2-y,-z
1/2+x,1/2-y,1/2+z
loop_
_atom_site_type_symbol
_atom_site_label
_atom_site_fract_x
_atom_site_fract_y
_atom_site_fract_z
Si Si1 0.000000 0.413946 0.750000
Si Si2 0.880202 0.540759 0.607789
Si Si3 0.594054 0.550164 0.335886
Si Si4 0.589954 0.148698 0.586472
Si Si5 0.707025 0.432281 0.477624
Si Si6 0.358211 0.175718 0.731057
Si Si7 0.075365 0.161918 0.089645
Si Si8 0.259283 0.840755 0.763465
O O1 0.055981 0.469123 0.830122
O O2 0.097780 0.353141 0.726182
O O3 0.765862 0.507000 0.538455
O O4 0.825131 0.607469 0.660034
O O5 0.976100 0.584877 0.563855
O O6 0.500000 0.524411 0.250000
O O7 0.633187 0.468179 0.389589
O O8 0.538553 0.617401 0.387707
O O9 0.714285 0.588168 0.315767
O O10 0.684303 0.128334 0.531843
O O11 0.659461 0.137070 0.683526
O O12 0.541018 0.242398 0.567638
O O13 0.608148 0.381755 0.511743
O O14 0.500000 0.206697 0.750000
O O15 0.267409 0.252076 0.700677
O O16 0.193358 0.155037 0.166357
#
# Coordination Sequence:
#
# PCOD8138282 Si02
#       8
#     4   8   8   8   8   8   8   8
#     4  12  20  36  62  92 128 146 194 258 304 344
#     4  11  21  38  61  92 122 160 203 251 296 357
#     4  10  22  40  66  86 117 162 208 247 303 366
#     4  10  20  37  62  89 125 167 199 235 308 371
#     4  12  23  36  61  94 126 150 203 261 304 349
#     4   9  18  37  65  85 119 165 208 239 294 368
#     4  10  21  41  63  87 121 165 203 244 302 367
#     4  10  20  37  63  89 119 163 204 242 305 360
#
# _framework density 20.412973999999998
#
# number of rings (size 3 to 8) (size 9 to 14) (size 15 to 20)
#    0.000    1.600    3.333    4.800    0.000    0.000 
#    0.000    4.000   11.733    1.600    0.000    0.000 
#    0.000    0.000    0.000    0.000    0.000    0.000 
#
# Total GULP energy -372099.796242 kJ/mol
# GULP energy per Si atom -12403.326541 kJ/mol
# Density = 2.036651 g / cm^3
# Si number density = 20.412974 Si / 1000 Ang^3
#
#
#
# Elastic Constant Matrix: (Units=GPa)
#
#
# Indices 1 2 3 4 5 6 
#
# 1 107.6470 45.4727 30.3938 0.0000 -15.6485 0.0000
# 2 45.4727 105.2265 34.9370 0.0000 -4.7927 0.0000
# 3 30.3938 34.9370 69.8779 0.0000 -10.6172 0.0000
# 4 0.0000 0.0000 0.0000 27.9264 0.0000 -7.5238
# 5 -15.6485 -4.7927 -10.6172 0.0000 27.0049 0.0000
# 6 0.0000 0.0000 0.0000 -7.5238 0.0000 31.0129
#
#
#
# Elastic Compliance Matrix: (Units=1/GPa)
#
#
# Indices 1 2 3 4 5 6 
#
# 1 0.012653 -0.004398 -0.002456 0.000000 0.005586 0.000000
# 2 -0.004398 0.012925 -0.004879 0.000000 -0.002173 0.000000
# 3 -0.002456 -0.004879 0.018581 0.000000 0.005016 0.000000
# 4 0.000000 0.000000 0.000000 0.038312 0.000000 0.009295
# 5 0.005586 -0.002173 0.005016 0.000000 0.041854 0.000000
# 6 0.000000 0.000000 0.000000 0.009295 0.000000 0.034500
#
#
# Mechanical properties :
#
#
# Convention : Reuss Voigt Hill
#
# Bulk Modulus (GPa) = 48.32797 56.03983 52.18390
# Shear Modulus (GPa) = 26.42878 28.65204 27.54041
#
# Velocity S-wave (km/s) = 3.60210 3.75055 3.67708
# Velocity P-wave (km/s) = 6.40521 6.80207 6.60662
#
# Compressibility (1/GPa) = 0.02069195
#
# Stress axis : x y z
#
# Youngs Moduli (GPa) = 79.03352 77.36992 53.81984
#
# Poissons Ratio (x) = 0.34028 0.13217
# Poissons Ratio (y) = 0.34759 0.26260
# Poissons Ratio (z) = 0.19409 0.37751
#
# Static dielectric constant tensor:
#      x y z
#    x 3.599970 0.000000 -0.275480 
#    y 0.000000 3.718010 0.000000 
#    z -0.275480 0.000000 3.691790 
# 
# 
# High freq. dielectric constant tensor:
#      x y z
#    x 1.789360 0.000000 -0.026670 
#    y 0.000000 1.800240 0.000000 
#    z -0.026670 0.000000 1.788170 
# 
# From -- ./inp_files/146118.got.cif
#   From: 2010.06.25/outbox.cif.g09.slc.cpg/sg15_74_cif.got.tgz:146118.got - 2010.06.28 07:06:18.
