data_PCOD8138281
_publ_section_title
;
Structure prediction by ZEFSAII (Michael W. Deem and Ramdas Pophale) SiO2 
 PCOD8138281
Probable space group: C 2/C
;
_chemical_formula_sum "Si O2"
_cell_formula_units_Z 60
_cell_length_a 11.046747
_cell_length_b 14.826867
_cell_length_c 17.720801
_cell_angle_alpha 90.000000
_cell_angle_beta 104.604251
_cell_angle_gamma 90.000000
_cell_volume 2808.688721
_symmetry_space_group_name_H-M "C 2/C"
_symmetry_group_IT_number 15
_symmetry_cell_setting 'monoclinic'
loop_
_space_group_symop_operation_xyz
x,y,z
-x,y,1/2-z
-x,-y,-z
x,-y,1/2+z
1/2+x,1/2+y,z
1/2-x,1/2+y,1/2-z
1/2-x,1/2-y,-z
1/2+x,1/2-y,1/2+z
loop_
_atom_site_type_symbol
_atom_site_label
_atom_site_fract_x
_atom_site_fract_y
_atom_site_fract_z
Si Si1 0.274366 0.431179 0.181438
Si Si2 0.958642 0.122378 0.081322
Si Si3 0.000000 0.054674 0.250000
Si Si4 0.229706 0.080420 0.091145
Si Si5 0.701314 0.970992 0.532124
Si Si6 0.738958 0.224381 0.585760
Si Si7 0.959344 0.326259 0.072589
Si Si8 0.127840 0.432892 0.298664
O O1 0.382092 0.489203 0.236038
O O2 0.186487 0.497541 0.116190
O O3 0.332325 0.351004 0.136063
O O4 0.193054 0.387143 0.236082
O O5 0.840771 0.064367 0.038660
O O6 0.918108 0.223568 0.051640
O O7 0.079029 0.084116 0.055112
O O8 0.991549 0.118302 0.175519
O O9 0.264100 0.179601 0.129659
O O10 0.273936 0.006801 0.157708
O O11 0.302935 0.058313 0.024218
O O12 0.596144 0.895846 0.498397
O O13 0.750000 0.250000 0.500000
O O14 0.608654 0.175537 0.588280
O O15 0.906464 0.356921 0.145556
O O16 0.000000 0.480322 0.250000
#
# Coordination Sequence:
#
# PCOD8138281 Si02
#       8
#     8   8   4   8   8   8   8   8
#     4  11  22  41  62  89 126 165 212 259 323 381
#     4  10  20  37  62  89 125 155 211 257 324 382
#     4  10  22  38  62  90 122 166 204 266 324 386
#     4  10  21  38  62  87 121 167 211 257 324 381
#     4  10  21  38  61  91 124 164 206 264 314 386
#     4  11  22  40  63  88 124 165 213 260 319 380
#     4  10  23  37  63  93 124 163 211 266 317 382
#     4  11  22  40  62  92 124 167 215 265 323 383
#
# _framework density 21.362280999999999
#
# number of rings (size 3 to 8) (size 9 to 14) (size 15 to 20)
#    0.000    1.600    4.000    0.800    0.933    1.600 
#    1.200    1.333    0.000    0.000    0.000    0.000 
#    0.000    0.000    0.000    0.000    0.000    0.000 
#
# Total GULP energy -371670.811536 kJ/mol
# GULP energy per Si atom -12389.027051 kJ/mol
# Density = 2.131366 g / cm^3
# Si number density = 21.362281 Si / 1000 Ang^3
#
#
#
# Elastic Constant Matrix: (Units=GPa)
#
#
# Indices 1 2 3 4 5 6 
#
# 1 51.4847 40.0264 26.8810 0.0000 -13.7172 0.0000
# 2 40.0264 113.0432 21.9055 0.0000 6.2811 0.0000
# 3 26.8810 21.9055 79.2262 0.0000 -11.0300 0.0000
# 4 0.0000 0.0000 0.0000 -0.8481 0.0000 1.1646
# 5 -13.7172 6.2811 -11.0300 0.0000 34.9276 0.0000
# 6 0.0000 0.0000 0.0000 1.1646 0.0000 33.9188
#
#
#
# Elastic Compliance Matrix: (Units=1/GPa)
#
#
# Indices 1 2 3 4 5 6 
#
# 1 0.036508 -0.012375 -0.006966 0.000000 0.014364 0.000000
# 2 -0.012375 0.013775 -0.000661 0.000000 -0.007546 0.000000
# 3 -0.006966 -0.000661 0.015485 0.000000 0.002273 0.000000
# 4 0.000000 0.000000 0.000000 -1.126044 0.000000 0.038662
# 5 0.014364 -0.007546 0.002273 0.000000 0.036347 0.000000
# 6 0.000000 0.000000 0.000000 0.038662 0.000000 0.028155
#
#
# Mechanical properties :
#
#
# Convention : Reuss Voigt Hill
#
# Bulk Modulus (GPa) = 38.81180 46.81998 42.81589
# Shear Modulus (GPa) = -5.27880 23.92909 9.32514
#
# Velocity S-wave (km/s) = -1.57367 3.35050 2.09158
# Velocity P-wave (km/s) = 3.86081 6.07722 5.09109
#
# Compressibility (1/GPa) = 0.02576536
#
# Stress axis : x y z
#
# Youngs Moduli (GPa) = 27.39135 72.59423 64.58044
#
# Poissons Ratio (x) = 0.89836 0.44984
# Poissons Ratio (y) = 0.33897 0.04266
# Poissons Ratio (z) = 0.19080 0.04795
#
# Static dielectric constant tensor:
#      x y z
#    x 3.805680 0.000000 -0.056230 
#    y 0.000000 4.097500 0.000000 
#    z -0.056230 0.000000 3.882330 
# 
# 
# High freq. dielectric constant tensor:
#      x y z
#    x 1.829940 0.000000 -0.009550 
#    y 0.000000 1.844020 0.000000 
#    z -0.009550 0.000000 1.834880 
# 
# From -- ./inp_files/198392.got.cif
#   From: 2010.06.25/outbox.cif.g09.slc.cpg/sg15_100_cif.got.tgz:198392.got - 2010.06.28 07:06:18.
