data_PCOD8138791
_publ_section_title
;
Structure prediction by ZEFSAII (Michael W. Deem and Ramdas Pophale) SiO2 
 PCOD8138791
Probable space group: C 2/C
;
_chemical_formula_sum "Si O2"
_cell_formula_units_Z 48
_cell_length_a 23.236207
_cell_length_b 12.158940
_cell_length_c 8.737065
_cell_angle_alpha 90.000000
_cell_angle_beta 66.822205
_cell_angle_gamma 90.000000
_cell_volume 2269.227734
_symmetry_space_group_name_H-M "C 2/C"
_symmetry_group_IT_number 15
_symmetry_cell_setting 'monoclinic'
loop_
_space_group_symop_operation_xyz
x,y,z
-x,y,1/2-z
-x,-y,-z
x,-y,1/2+z
1/2+x,1/2+y,z
1/2-x,1/2+y,1/2-z
1/2-x,1/2-y,-z
1/2+x,1/2-y,1/2+z
loop_
_atom_site_type_symbol
_atom_site_label
_atom_site_fract_x
_atom_site_fract_y
_atom_site_fract_z
Si Si1 0.861515 0.468838 0.637853
Si Si2 0.787095 0.605454 0.935896
Si Si3 0.842415 0.831685 0.855903
Si Si4 0.570525 0.135222 0.152381
Si Si5 0.450601 0.613586 0.424147
Si Si6 0.061091 0.866935 0.014836
O O1 0.832541 0.397657 0.533867
O O2 0.903742 0.565623 0.519268
O O3 0.897726 0.390398 0.718110
O O4 0.803107 0.517176 0.791326
O O5 0.714332 0.583258 0.052130
O O6 0.804149 0.723595 0.846235
O O7 0.885499 0.820175 0.965165
O O8 0.889082 0.871533 0.675135
O O9 0.500000 0.097933 0.250000
O O10 0.576890 0.265405 0.109449
O O11 0.500000 0.656987 0.250000
O O12 0.433585 0.485195 0.410307
O O13 0.486731 0.640741 0.544863
#
# Coordination Sequence:
#
# PCOD8138791 Si02
#       6
#     8   8   8   8   8   8
#     4  10  23  42  59  91 122 155 206 248 293 360
#     4  10  22  41  62  86 121 163 200 247 292 363
#     4  10  21  39  62  84 119 162 199 240 309 350
#     4  11  22  39  63  89 124 158 196 251 301 358
#     4   9  20  37  59  88 119 153 197 254 299 351
#     4  10  20  38  61  91 119 152 202 250 298 360
#
# _framework density 21.152570000000001
#
# number of rings (size 3 to 8) (size 9 to 14) (size 15 to 20)
#    0.000    2.000    1.667    1.000    4.667    0.000 
#    0.000    0.833    0.000    0.000    0.000    0.000 
#    0.000    0.000    0.000    0.000    0.000    0.000 
#
# Total GULP energy -297328.916883 kJ/mol
# GULP energy per Si atom -12388.704870 kJ/mol
# Density = 2.110443 g / cm^3
# Si number density = 21.152570 Si / 1000 Ang^3
#
#
#
# Elastic Constant Matrix: (Units=GPa)
#
#
# Indices 1 2 3 4 5 6 
#
# 1 79.1366 14.9881 28.7400 0.0000 -31.9067 0.0000
# 2 14.9881 53.4767 8.8040 0.0000 -4.2866 0.0000
# 3 28.7400 8.8040 84.2362 0.0000 -16.2441 0.0000
# 4 0.0000 0.0000 0.0000 19.3021 0.0000 3.1456
# 5 -31.9067 -4.2866 -16.2441 0.0000 35.8425 0.0000
# 6 0.0000 0.0000 0.0000 3.1456 0.0000 31.3447
#
#
#
# Elastic Compliance Matrix: (Units=1/GPa)
#
#
# Indices 1 2 3 4 5 6 
#
# 1 0.021640 -0.004091 -0.003655 0.000000 0.017119 0.000000
# 2 -0.004091 0.019875 -0.001014 0.000000 -0.001725 0.000000
# 3 -0.003655 -0.001014 0.013778 0.000000 0.002870 0.000000
# 4 0.000000 0.000000 0.000000 0.052669 0.000000 -0.005286
# 5 0.017119 -0.001725 0.002870 0.000000 0.044233 0.000000
# 6 0.000000 0.000000 0.000000 -0.005286 0.000000 0.032434
#
#
# Mechanical properties :
#
#
# Convention : Reuss Voigt Hill
#
# Bulk Modulus (GPa) = 26.47374 35.76822 31.12098
# Shear Modulus (GPa) = 23.28400 28.25237 25.76819
#
# Velocity S-wave (km/s) = 3.32138 3.65862 3.49407
# Velocity P-wave (km/s) = 5.22030 5.89861 5.56979
#
# Compressibility (1/GPa) = 0.03777328
#
# Stress axis : x y z
#
# Youngs Moduli (GPa) = 46.20979 50.31416 72.58154
#
# Poissons Ratio (x) = 0.20585 0.26526
# Poissons Ratio (y) = 0.18906 0.07359
# Poissons Ratio (z) = 0.16888 0.05102
#
# Static dielectric constant tensor:
#      x y z
#    x 4.124760 0.000000 -0.054050 
#    y 0.000000 3.621310 0.000000 
#    z -0.054050 0.000000 3.890320 
# 
# 
# High freq. dielectric constant tensor:
#      x y z
#    x 1.829470 0.000000 -0.009550 
#    y 0.000000 1.818210 0.000000 
#    z -0.009550 0.000000 1.832790 
# 
# From -- ./inp_files/65029.got.cif
#   From: 2010.06.25/outbox.cif.g09.slc.cpg/sg15_33_cif.got.tgz:65029.got - 2010.06.28 07:06:18.
