data_PCOD8138901
_publ_section_title
;
Structure prediction by ZEFSAII (Michael W. Deem and Ramdas Pophale) SiO2 
 PCOD8138901
Probable space group: C 2/C
;
_chemical_formula_sum "Si O2"
_cell_formula_units_Z 56
_cell_length_a 11.303196
_cell_length_b 16.519802
_cell_length_c 17.176037
_cell_angle_alpha 90.000000
_cell_angle_beta 57.452180
_cell_angle_gamma 90.000000
_cell_volume 2703.504668
_symmetry_space_group_name_H-M "C 2/C"
_symmetry_group_IT_number 15
_symmetry_cell_setting 'monoclinic'
loop_
_space_group_symop_operation_xyz
x,y,z
-x,y,1/2-z
-x,-y,-z
x,-y,1/2+z
1/2+x,1/2+y,z
1/2-x,1/2+y,1/2-z
1/2-x,1/2-y,-z
1/2+x,1/2-y,1/2+z
loop_
_atom_site_type_symbol
_atom_site_label
_atom_site_fract_x
_atom_site_fract_y
_atom_site_fract_z
Si Si1 0.386138 0.289807 0.125510
Si Si2 0.612626 0.637880 0.647689
Si Si3 0.146205 0.387170 0.154078
Si Si4 0.102365 0.426334 0.484627
Si Si5 0.030526 0.286884 0.061496
Si Si6 0.629593 0.931726 0.647687
Si Si7 0.248334 0.785292 0.813632
O O1 0.531509 0.333321 0.098144
O O2 0.264325 0.357576 0.172218
O O3 0.338452 0.218295 0.201635
O O4 0.389920 0.257629 0.036393
O O5 0.500000 0.603831 0.750000
O O6 0.726957 0.566470 0.588818
O O7 0.687079 0.718514 0.652113
O O8 0.140646 0.325162 0.083040
O O9 0.189522 0.477697 0.111831
O O10 0.000000 0.387894 0.250000
O O11 0.079502 0.398465 0.581619
O O12 0.000000 0.500000 0.500000
O O13 0.061256 0.357877 0.440379
O O14 0.917803 0.227778 0.143533
O O15 0.500000 0.936661 0.750000
O O16 0.741685 0.872623 0.648301
#
# Coordination Sequence:
#
# PCOD8138901 Si02
#       7
#     8   8   8   8   8   8   8
#     4  11  21  38  63  86 124 162 217 256 310 379
#     4   9  20  36  62  91 120 160 208 264 317 369
#     4  11  23  40  59  87 125 171 206 254 324 391
#     4  11  21  38  63  92 127 158 206 264 321 384
#     4  11  21  38  63  88 118 167 208 256 314 379
#     4  11  22  36  61  94 125 158 209 263 324 365
#     4  10  20  38  62  93 121 152 211 266 311 374
#
# _framework density 20.713853
#
# number of rings (size 3 to 8) (size 9 to 14) (size 15 to 20)
#    0.000    1.429    2.857    4.286    0.000    2.286 
#    0.000    2.857    0.000    0.857    0.000    0.000 
#    0.000    0.000    0.000    0.000    0.000    0.000 
#
# Total GULP energy -347011.180240 kJ/mol
# GULP energy per Si atom -12393.256437 kJ/mol
# Density = 2.066671 g / cm^3
# Si number density = 20.713853 Si / 1000 Ang^3
#
#
#
# Elastic Constant Matrix: (Units=GPa)
#
#
# Indices 1 2 3 4 5 6 
#
# 1 99.1675 49.5770 37.8401 0.0000 -7.1655 0.0000
# 2 49.5770 83.5479 31.8167 0.0000 -10.9625 0.0000
# 3 37.8401 31.8167 99.7793 0.0000 -3.8034 0.0000
# 4 0.0000 0.0000 0.0000 20.9464 0.0000 -0.2673
# 5 -7.1655 -10.9625 -3.8034 0.0000 30.7797 0.0000
# 6 0.0000 0.0000 0.0000 -0.2673 0.0000 30.4024
#
#
#
# Elastic Compliance Matrix: (Units=1/GPa)
#
#
# Indices 1 2 3 4 5 6 
#
# 1 0.015237 -0.007736 -0.003297 0.000000 0.000385 0.000000
# 2 -0.007736 0.018152 -0.002689 0.000000 0.004332 0.000000
# 3 -0.003297 -0.002689 0.012121 0.000000 -0.000228 0.000000
# 4 0.000000 0.000000 0.000000 0.047746 0.000000 0.000420
# 5 0.000385 0.004332 -0.000228 0.000000 0.034093 0.000000
# 6 0.000000 0.000000 0.000000 0.000420 0.000000 0.032896
#
#
# Mechanical properties :
#
#
# Convention : Reuss Voigt Hill
#
# Bulk Modulus (GPa) = 55.35177 57.88471 56.61824
# Shear Modulus (GPa) = 25.81149 27.30977 26.56063
#
# Velocity S-wave (km/s) = 3.53384 3.63496 3.58476
# Velocity P-wave (km/s) = 6.59021 6.75447 6.67284
#
# Compressibility (1/GPa) = 0.01806627
#
# Stress axis : x y z
#
# Youngs Moduli (GPa) = 65.62916 55.09037 82.49841
#
# Poissons Ratio (x) = 0.42615 0.27201
# Poissons Ratio (y) = 0.50768 0.22187
# Poissons Ratio (z) = 0.21639 0.14816
#
# Static dielectric constant tensor:
#      x y z
#    x 3.723880 0.000000 0.031000 
#    y 0.000000 5.701950 0.000000 
#    z 0.031000 0.000000 3.825470 
# 
# 
# High freq. dielectric constant tensor:
#      x y z
#    x 1.812180 0.000000 0.002370 
#    y 0.000000 1.784020 0.000000 
#    z 0.002370 0.000000 1.818130 
# 
# From -- ./inp_files/145537.got.cif
#   From: 2010.06.25/outbox.cif.g09.slc.cpg/sg15_73_cif.got.tgz:145537.got - 2010.06.28 07:06:18.
