data_PCOD8138597
_publ_section_title
;
Structure prediction by ZEFSAII (Michael W. Deem and Ramdas Pophale) SiO2 
 PCOD8138597
Probable space group: C 2/C
;
_chemical_formula_sum "Si O2"
_cell_formula_units_Z 40
_cell_length_a 21.421828
_cell_length_b 7.485975
_cell_length_c 9.486014
_cell_angle_alpha 90.000000
_cell_angle_beta 101.897977
_cell_angle_gamma 90.000000
_cell_volume 1488.526980
_symmetry_space_group_name_H-M "C 2/C"
_symmetry_group_IT_number 15
_symmetry_cell_setting 'monoclinic'
loop_
_space_group_symop_operation_xyz
x,y,z
-x,y,1/2-z
-x,-y,-z
x,-y,1/2+z
1/2+x,1/2+y,z
1/2-x,1/2+y,1/2-z
1/2-x,1/2-y,-z
1/2+x,1/2-y,1/2+z
loop_
_atom_site_type_symbol
_atom_site_label
_atom_site_fract_x
_atom_site_fract_y
_atom_site_fract_z
Si Si1 0.693497 0.603924 0.429921
Si Si2 0.268260 0.013495 0.716462
Si Si3 0.526684 0.743354 0.901043
Si Si4 0.664762 0.198697 0.490261
Si Si5 0.447599 0.670818 0.117058
O O1 0.744498 0.662996 0.584280
O O2 0.711473 0.589191 0.272753
O O3 0.682797 0.407525 0.494903
O O4 0.627454 0.719715 0.394868
O O5 0.312707 0.876043 0.651508
O O6 0.303551 0.106803 0.862067
O O7 0.500000 0.838406 0.750000
O O8 0.590210 0.843595 0.978979
O O9 0.547635 0.541512 0.879070
O O10 0.468046 0.756469 0.979933
O O11 0.500000 0.749492 0.250000
#
# Coordination Sequence:
#
# PCOD8138597 Si02
#       5
#     8   8   8   8   8
#     4  10  22  37  62  91 128 150 203 258 303 351
#     4  10  20  38  58  89 123 169 192 240 304 367
#     4   9  19  36  62  85 115 158 194 250 307 349
#     4  10  22  41  61  88 129 157 206 250 300 359
#     4   9  19  34  58  92 119 145 194 255 313 352
#
# _framework density 26.872204
#
# number of rings (size 3 to 8) (size 9 to 14) (size 15 to 20)
#    0.000    2.400    0.000    2.400   14.000    0.000 
#    0.000   21.000    0.000    0.000    0.000    0.000 
#    0.000    0.000    0.000    0.000    0.000    0.000 
#
# Total GULP energy -247811.332763 kJ/mol
# GULP energy per Si atom -12390.566638 kJ/mol
# Density = 2.681104 g / cm^3
# Si number density = 26.872204 Si / 1000 Ang^3
#
#
#
# Elastic Constant Matrix: (Units=GPa)
#
#
# Indices 1 2 3 4 5 6 
#
# 1 141.8511 -8.5195 59.4967 0.0000 7.4542 0.0000
# 2 -8.5195 21.5458 25.6381 0.0000 -7.0779 0.0000
# 3 59.4967 25.6381 196.2608 0.0000 -6.6335 0.0000
# 4 0.0000 0.0000 0.0000 16.4364 0.0000 8.6637
# 5 7.4542 -7.0779 -6.6335 0.0000 34.6320 0.0000
# 6 0.0000 0.0000 0.0000 8.6637 0.0000 20.4754
#
#
#
# Elastic Compliance Matrix: (Units=1/GPa)
#
#
# Indices 1 2 3 4 5 6 
#
# 1 0.009195 0.007853 -0.003851 0.000000 -0.001112 0.000000
# 2 0.007853 0.065270 -0.010582 0.000000 0.009623 0.000000
# 3 -0.003851 -0.010582 0.007649 0.000000 0.000131 0.000000
# 4 0.000000 0.000000 0.000000 0.078306 0.000000 -0.033133
# 5 -0.001112 0.009623 0.000131 0.000000 0.031106 0.000000
# 6 0.000000 0.000000 0.000000 -0.033133 0.000000 0.062859
#
#
# Mechanical properties :
#
#
# Convention : Reuss Voigt Hill
#
# Bulk Modulus (GPa) = 14.50220 56.98759 35.74489
# Shear Modulus (GPa) = 17.20993 33.17827 25.19410
#
# Velocity S-wave (km/s) = 2.53343 3.51760 3.06527
# Velocity P-wave (km/s) = 3.73713 6.14418 5.08513
#
# Compressibility (1/GPa) = 0.06895506
#
# Stress axis : x y z
#
# Youngs Moduli (GPa) = 108.75628 15.32086 130.72881
#
# Poissons Ratio (x) = -0.12031 0.50342
# Poissons Ratio (y) = -0.85404 1.38335
# Poissons Ratio (z) = 0.41880 0.16212
#
# Static dielectric constant tensor:
#      x y z
#    x 5.637260 0.000000 0.101150 
#    y 0.000000 4.971460 0.000000 
#    z 0.101150 0.000000 5.231610 
# 
# 
# High freq. dielectric constant tensor:
#      x y z
#    x 2.085260 0.000000 -0.000690 
#    y 0.000000 2.080140 0.000000 
#    z -0.000690 0.000000 2.110320 
# 
# From -- ./inp_files/60071.got.cif
#   From: 2010.06.25/outbox.cif.g09.slc.cpg/sg15_31_cif.got.tgz:60071.got - 2010.06.28 07:06:18.
