data_PCOD8138578
_publ_section_title
;
Structure prediction by ZEFSAII (Michael W. Deem and Ramdas Pophale) SiO2 
 PCOD8138578
Probable space group: C 2/C
;
_chemical_formula_sum "Si O2"
_cell_formula_units_Z 64
_cell_length_a 28.660207
_cell_length_b 16.730203
_cell_length_c 22.476849
_cell_angle_alpha 90.000000
_cell_angle_beta 17.810984
_cell_angle_gamma 90.000000
_cell_volume 3296.582590
_symmetry_space_group_name_H-M "C 2/C"
_symmetry_group_IT_number 15
_symmetry_cell_setting 'monoclinic'
loop_
_space_group_symop_operation_xyz
x,y,z
-x,y,1/2-z
-x,-y,-z
x,-y,1/2+z
1/2+x,1/2+y,z
1/2-x,1/2+y,1/2-z
1/2-x,1/2-y,-z
1/2+x,1/2-y,1/2+z
loop_
_atom_site_type_symbol
_atom_site_label
_atom_site_fract_x
_atom_site_fract_y
_atom_site_fract_z
Si Si1 0.733558 0.377225 0.789636
Si Si2 0.056129 0.089699 0.919932
Si Si3 0.883693 0.518272 0.195813
Si Si4 0.927814 0.763561 0.017239
Si Si5 0.258129 0.738543 0.602614
Si Si6 0.675501 0.581890 0.032014
Si Si7 0.346816 0.005290 0.554750
Si Si8 0.666666 0.900152 0.040094
O O1 0.773978 0.411171 0.805797
O O2 0.800430 0.287988 0.706221
O O3 0.799520 0.432994 0.656585
O O4 0.549787 0.372721 0.003578
O O5 0.053269 0.146721 0.980915
O O6 0.232976 0.080614 0.688851
O O7 0.000000 0.000000 0.000000
O O8 0.764709 0.451170 0.364834
O O9 0.000000 0.500000 0.000000
O O10 0.990517 0.541487 0.121920
O O11 0.881140 0.767606 0.005375
O O12 0.087129 0.715606 0.831449
O O13 0.316742 0.678008 0.481208
O O14 0.233157 0.827591 0.606925
O O15 0.500000 0.551956 0.250000
O O16 0.761561 0.559704 0.988393
O O17 0.354192 0.972401 0.479863
O O18 0.500000 0.861423 0.250000
#
# Coordination Sequence:
#
# PCOD8138578 Si02
#       8
#     8   8   8   8   8   8   8   8
#     4  10  21  38  57  86 119 158 209 265 324 370
#     4  10  22  36  57  89 120 163 215 267 324 371
#     4  10  22  39  61  85 118 160 216 268 317 367
#     4  12  22  38  61  90 130 167 220 265 325 381
#     4  12  23  37  56  85 127 180 215 255 304 383
#     4  12  26  38  59  92 126 178 220 261 315 387
#     4  10  20  38  58  84 114 165 207 268 319 368
#     4  12  22  41  57  81 129 168 226 260 313 390
#
# _framework density 19.414045000000002
#
# number of rings (size 3 to 8) (size 9 to 14) (size 15 to 20)
#    0.000    1.000    3.750    4.500    8.750    0.000 
#    0.000    0.000    0.000    0.000    0.000    1.750 
#    0.000    0.000    0.000    0.000    0.000    0.000 
#
# Total GULP energy -396538.965764 kJ/mol
# GULP energy per Si atom -12391.842680 kJ/mol
# Density = 1.936986 g / cm^3
# Si number density = 19.414045 Si / 1000 Ang^3
#
#
#
# Elastic Constant Matrix: (Units=GPa)
#
#
# Indices 1 2 3 4 5 6 
#
# 1 128.9561 40.8424 39.5008 0.0055 -9.4796 -0.0065
# 2 40.8424 59.1775 32.0646 0.0062 0.4556 -0.0062
# 3 39.5008 32.0646 106.8683 0.0083 -18.2074 -0.0067
# 4 0.0055 0.0062 0.0083 22.4538 -0.0047 -0.4486
# 5 -9.4796 0.4556 -18.2074 -0.0047 31.6076 0.0058
# 6 -0.0065 -0.0062 -0.0067 -0.4486 0.0058 34.1553
#
#
#
# Elastic Compliance Matrix: (Units=1/GPa)
#
#
# Indices 1 2 3 4 5 6 
#
# 1 0.010416 -0.006371 -0.001542 0.000000 0.002328 0.000000
# 2 -0.006371 0.024589 -0.005997 -0.000004 -0.005720 0.000003
# 3 -0.001542 -0.005997 0.012932 -0.000001 0.007073 0.000000
# 4 0.000000 -0.000004 -0.000001 0.044548 0.000006 0.000585
# 5 0.002328 -0.005720 0.007073 0.000006 0.036493 -0.000005
# 6 0.000000 0.000003 0.000000 0.000585 -0.000005 0.029286
#
#
# Mechanical properties :
#
#
# Convention : Reuss Voigt Hill
#
# Bulk Modulus (GPa) = 49.71125 57.75748 53.73436
# Shear Modulus (GPa) = 25.93514 29.81627 27.87570
#
# Velocity S-wave (km/s) = 3.65896 3.92319 3.79338
# Velocity P-wave (km/s) = 6.59636 7.09485 6.85014
#
# Compressibility (1/GPa) = 0.02011617
#
# Stress axis : x y z
#
# Youngs Moduli (GPa) = 96.00808 40.66845 77.32952
#
# Poissons Ratio (x) = 0.25911 0.11922
# Poissons Ratio (y) = 0.61169 0.46377
# Poissons Ratio (z) = 0.14802 0.24390
#
# Static dielectric constant tensor:
#      x y z
#    x 3.808090 -0.000020 -0.485380 
#    y -0.000020 3.293900 0.000030 
#    z -0.485380 0.000030 3.909100 
# 
# 
# High freq. dielectric constant tensor:
#      x y z
#    x 1.761010 0.000000 -0.036730 
#    y 0.000000 1.718680 0.000000 
#    z -0.036730 0.000000 1.752510 
# 
# From -- ./inp_files/258064.got.cif
#   From: 2010.06.25/outbox.cif.g09.slc.cpg/sg15_130_cif.got.tgz:258064.got - 2010.06.28 07:06:18.
