data_PCOD8138145
_publ_section_title
;
Structure prediction by ZEFSAII (Michael W. Deem and Ramdas Pophale) SiO2 
 PCOD8138145
Probable space group: C 2/C
;
_chemical_formula_sum "Si O2"
_cell_formula_units_Z 48
_cell_length_a 15.361352
_cell_length_b 23.184040
_cell_length_c 12.996081
_cell_angle_alpha 90.000000
_cell_angle_beta 145.210030
_cell_angle_gamma 90.000000
_cell_volume 2640.825820
_symmetry_space_group_name_H-M "C 2/C"
_symmetry_group_IT_number 15
_symmetry_cell_setting 'monoclinic'
loop_
_space_group_symop_operation_xyz
x,y,z
-x,y,1/2-z
-x,-y,-z
x,-y,1/2+z
1/2+x,1/2+y,z
1/2-x,1/2+y,1/2-z
1/2-x,1/2-y,-z
1/2+x,1/2-y,1/2+z
loop_
_atom_site_type_symbol
_atom_site_label
_atom_site_fract_x
_atom_site_fract_y
_atom_site_fract_z
Si Si1 0.637001 0.321505 0.184870
Si Si2 0.804991 0.577420 0.955393
Si Si3 0.642962 0.472063 0.694508
Si Si4 0.148000 0.405745 0.762119
Si Si5 0.306706 0.703473 0.345673
Si Si6 0.466966 0.356408 0.833250
O O1 0.696496 0.370087 0.318947
O O2 0.753256 0.268782 0.296631
O O3 0.470022 0.301178 0.062971
O O4 0.618813 0.347864 0.051544
O O5 0.735016 0.517571 0.850698
O O6 0.815179 0.574718 0.087329
O O7 0.970215 0.585730 0.063973
O O8 0.500000 0.500000 0.500000
O O9 0.752208 0.444998 0.715159
O O10 0.584155 0.422961 0.715282
O O11 0.185744 0.338124 0.784082
O O12 0.331573 0.683185 0.250732
O O13 0.500000 0.335901 0.750000
#
# Coordination Sequence:
#
# PCOD8138145 Si02
#       6
#     8   8   8   8   8   8
#     4  10  20  37  60  85 115 158 193 250 299 344
#     4  11  22  37  62  85 120 159 198 243 298 356
#     4  11  21  38  58  86 120 158 191 253 289 354
#     4  10  23  39  56  90 118 157 200 241 298 357
#     4   9  20  38  58  83 121 151 199 248 297 348
#     4   9  21  37  57  89 115 153 201 236 298 351
#
# _framework density 18.176133
#
# number of rings (size 3 to 8) (size 9 to 14) (size 15 to 20)
#    1.000    1.000    1.667    1.500    2.333    3.333 
#    0.000    0.000    0.000    0.000    0.000    0.000 
#    0.000    0.000    0.000    0.000    0.000    0.000 
#
# Total GULP energy -297517.430027 kJ/mol
# GULP energy per Si atom -12396.559584 kJ/mol
# Density = 1.813476 g / cm^3
# Si number density = 18.176133 Si / 1000 Ang^3
#
#
#
# Elastic Constant Matrix: (Units=GPa)
#
#
# Indices 1 2 3 4 5 6 
#
# 1 66.3853 21.8592 22.5660 0.0000 4.2173 0.0000
# 2 21.8592 120.5811 38.6836 0.0000 8.5575 0.0000
# 3 22.5660 38.6836 96.2914 0.0000 12.9698 0.0000
# 4 0.0000 0.0000 0.0000 36.8539 0.0000 15.3248
# 5 4.2173 8.5575 12.9698 0.0000 27.1795 0.0000
# 6 0.0000 0.0000 0.0000 15.3248 0.0000 19.6459
#
#
#
# Elastic Compliance Matrix: (Units=1/GPa)
#
#
# Indices 1 2 3 4 5 6 
#
# 1 0.016802 -0.002030 -0.003053 0.000000 -0.000511 0.000000
# 2 -0.002030 0.009806 -0.003302 0.000000 -0.001196 0.000000
# 3 -0.003053 -0.003302 0.013063 0.000000 -0.004720 0.000000
# 4 0.000000 0.000000 0.000000 0.040161 0.000000 -0.031328
# 5 -0.000511 -0.001196 -0.004720 0.000000 0.039501 0.000000
# 6 0.000000 0.000000 0.000000 -0.031328 0.000000 0.075338
#
#
# Mechanical properties :
#
#
# Convention : Reuss Voigt Hill
#
# Bulk Modulus (GPa) = 43.66899 49.94173 46.80536
# Shear Modulus (GPa) = 22.82312 30.07911 26.45112
#
# Velocity S-wave (km/s) = 3.54738 4.07242 3.81893
# Velocity P-wave (km/s) = 6.39188 7.04621 6.72700
#
# Compressibility (1/GPa) = 0.02289954
#
# Stress axis : x y z
#
# Youngs Moduli (GPa) = 59.51524 101.98319 76.55160
#
# Poissons Ratio (x) = 0.20705 0.23373
# Poissons Ratio (y) = 0.12083 0.25280
# Poissons Ratio (z) = 0.18171 0.33678
#
# Static dielectric constant tensor:
#      x y z
#    x 3.271040 0.000000 0.192440 
#    y 0.000000 3.394570 0.000000 
#    z 0.192440 0.000000 3.316630 
# 
# 
# High freq. dielectric constant tensor:
#      x y z
#    x 1.698050 0.000000 0.009680 
#    y 0.000000 1.713950 0.000000 
#    z 0.009680 0.000000 1.700580 
# 
# From -- ./inp_files/100061.got.cif
#   From: 2010.06.25/outbox.cif.g09.slc.cpg/sg15_51_cif.got.tgz:100061.got - 2010.06.28 07:06:18.
