data_PCOD8138721
_publ_section_title
;
Structure prediction by ZEFSAII (Michael W. Deem and Ramdas Pophale) SiO2 
 PCOD8138721
Probable space group: C 2/C
;
_chemical_formula_sum "Si O2"
_cell_formula_units_Z 36
_cell_length_a 9.895963
_cell_length_b 17.779244
_cell_length_c 16.536790
_cell_angle_alpha 90.000000
_cell_angle_beta 142.920834
_cell_angle_gamma 90.000000
_cell_volume 1754.206690
_symmetry_space_group_name_H-M "C 2/C"
_symmetry_group_IT_number 15
_symmetry_cell_setting 'monoclinic'
loop_
_space_group_symop_operation_xyz
x,y,z
-x,y,1/2-z
-x,-y,-z
x,-y,1/2+z
1/2+x,1/2+y,z
1/2-x,1/2+y,1/2-z
1/2-x,1/2-y,-z
1/2+x,1/2-y,1/2+z
loop_
_atom_site_type_symbol
_atom_site_label
_atom_site_fract_x
_atom_site_fract_y
_atom_site_fract_z
Si Si1 0.253112 0.753020 0.097879
Si Si2 0.478587 0.891605 0.038413
Si Si3 0.681103 0.393857 0.161883
Si Si4 0.771968 0.539043 0.988139
Si Si5 0.500000 0.987396 0.750000
O O1 0.500000 0.752956 0.250000
O O2 0.128972 0.676462 0.063645
O O3 0.120866 0.825000 0.072357
O O4 0.250000 0.750000 0.000000
O O5 0.286867 0.948132 0.982243
O O6 0.628114 0.863641 0.185585
O O7 0.649403 0.929674 0.059152
O O8 0.470357 0.426965 0.109487
O O9 0.777787 0.462721 0.156348
O O10 0.941889 0.562025 0.142849
#
# Coordination Sequence:
#
# PCOD8138721 Si02
#       5
#     8   8   8   8   4
#     4  12  23  41  65  91 125 174 212 257 321 389
#     4  10  23  41  63  95 125 168 218 263 320 394
#     4  11  21  41  64  89 132 167 209 270 329 368
#     4  10  22  39  64  91 130 164 214 271 322 379
#     4  10  20  38  60  94 122 166 206 264 316 392
#
# _framework density 20.522096999999999
#
# number of rings (size 3 to 8) (size 9 to 14) (size 15 to 20)
#    0.000    1.333    3.333    2.667    0.000    8.000 
#    0.000    0.000    0.000    0.000    0.000    0.000 
#    0.000    0.000    0.000    0.000    0.000    0.000 
#
# Total GULP energy -223075.294762 kJ/mol
# GULP energy per Si atom -12393.071931 kJ/mol
# Density = 2.047539 g / cm^3
# Si number density = 20.522097 Si / 1000 Ang^3
#
#
#
# Elastic Constant Matrix: (Units=GPa)
#
#
# Indices 1 2 3 4 5 6 
#
# 1 107.6842 43.5082 37.0964 0.0003 7.3596 0.0002
# 2 43.5082 91.6280 42.6149 0.0002 10.9452 0.0001
# 3 37.0964 42.6149 87.7346 0.0011 -7.9940 0.0010
# 4 0.0003 0.0002 0.0011 38.3862 0.0007 -5.8694
# 5 7.3596 10.9452 -7.9940 0.0007 41.4251 0.0005
# 6 0.0002 0.0001 0.0010 -5.8694 0.0005 30.1138
#
#
#
# Elastic Compliance Matrix: (Units=1/GPa)
#
#
# Indices 1 2 3 4 5 6 
#
# 1 0.012186 -0.004013 -0.003363 0.000000 -0.001754 0.000000
# 2 -0.004013 0.016582 -0.006812 0.000000 -0.004983 0.000000
# 3 -0.003363 -0.006812 0.016640 -0.000001 0.005608 -0.000001
# 4 0.000000 0.000000 -0.000001 0.026851 -0.000001 0.005234
# 5 -0.001754 -0.004983 0.005608 -0.000001 0.026850 -0.000001
# 6 0.000000 0.000000 -0.000001 0.005234 -0.000001 0.034227
#
#
# Mechanical properties :
#
#
# Convention : Reuss Voigt Hill
#
# Bulk Modulus (GPa) = 58.71089 59.27619 58.99354
# Shear Modulus (GPa) = 29.87023 32.90684 31.38853
#
# Velocity S-wave (km/s) = 3.81926 4.00870 3.91512
# Velocity P-wave (km/s) = 6.93684 7.09739 7.01757
#
# Compressibility (1/GPa) = 0.01703262
#
# Stress axis : x y z
#
# Youngs Moduli (GPa) = 82.06002 60.30510 60.09680
#
# Poissons Ratio (x) = 0.24198 0.20213
# Poissons Ratio (y) = 0.32928 0.40937
# Poissons Ratio (z) = 0.27600 0.41079
#
# Static dielectric constant tensor:
#      x y z
#    x 3.856870 0.000000 -0.303460 
#    y 0.000000 4.159940 0.000000 
#    z -0.303460 0.000000 3.988940 
# 
# 
# High freq. dielectric constant tensor:
#      x y z
#    x 1.813430 0.000000 -0.021140 
#    y 0.000000 1.786910 0.000000 
#    z -0.021140 0.000000 1.801660 
# 
# From -- ./inp_files/76564.got.cif
#   From: 2010.06.25/outbox.cif.g09.slc.cpg/sg15_39_cif.got.tgz:76564.got - 2010.06.28 07:06:18.
