data_PCOD8138065
_publ_section_title
;
Structure prediction by ZEFSAII (Michael W. Deem and Ramdas Pophale) SiO2 
 PCOD8138065
Probable space group: C 2/C
;
_chemical_formula_sum "Si O2"
_cell_formula_units_Z 40
_cell_length_a 13.876780
_cell_length_b 9.614835
_cell_length_c 15.423410
_cell_angle_alpha 90.000000
_cell_angle_beta 110.718897
_cell_angle_gamma 90.000000
_cell_volume 1924.751199
_symmetry_space_group_name_H-M "C 2/C"
_symmetry_group_IT_number 15
_symmetry_cell_setting 'monoclinic'
loop_
_space_group_symop_operation_xyz
x,y,z
-x,y,1/2-z
-x,-y,-z
x,-y,1/2+z
1/2+x,1/2+y,z
1/2-x,1/2+y,1/2-z
1/2-x,1/2-y,-z
1/2+x,1/2-y,1/2+z
loop_
_atom_site_type_symbol
_atom_site_label
_atom_site_fract_x
_atom_site_fract_y
_atom_site_fract_z
Si Si1 0.615263 0.753582 0.810667
Si Si2 0.501207 0.725483 0.147029
Si Si3 0.844418 0.551045 0.605847
Si Si4 0.787618 0.764765 0.729838
Si Si5 0.171408 0.026673 0.408273
O O1 0.500000 0.711305 0.750000
O O2 0.678383 0.763061 0.741632
O O3 0.661191 0.636469 0.888281
O O4 0.616838 0.897103 0.862863
O O5 0.500000 0.725177 0.250000
O O6 0.441785 0.864548 0.096488
O O7 0.623656 0.723606 0.165126
O O8 0.438333 0.590384 0.093694
O O9 0.802877 0.622835 0.680479
O O10 0.753679 0.553082 0.508342
O O11 0.791885 0.897364 0.667826
#
# Coordination Sequence:
#
# PCOD8138065 Si02
#       5
#     8   8   8   8   8
#     4  12  23  37  54  81 114 146 180 225 271 318
#     4   8  16  35  59  78 102 144 183 212 259 333
#     4  10  20  37  58  84 110 138 179 230 272 315
#     4  10  20  38  60  79 105 150 187 211 264 339
#     4  10  20  37  58  84 110 138 179 230 272 315
#
# _framework density 20.781907
#
# number of rings (size 3 to 8) (size 9 to 14) (size 15 to 20)
#    0.000    2.400    0.000    7.800    0.000    0.000 
#    0.000   12.000    0.000    0.000    0.000    0.000 
#    0.000    0.000    0.000    0.000    0.000    0.000 
#
# Total GULP energy -247910.029381 kJ/mol
# GULP energy per Si atom -12395.501469 kJ/mol
# Density = 2.073461 g / cm^3
# Si number density = 20.781907 Si / 1000 Ang^3
#
#
#
# Elastic Constant Matrix: (Units=GPa)
#
#
# Indices 1 2 3 4 5 6 
#
# 1 106.2058 0.3686 24.8752 0.0000 15.2557 0.0000
# 2 0.3686 120.7813 12.6068 0.0000 -4.1947 0.0000
# 3 24.8752 12.6068 91.3751 0.0000 31.0039 0.0000
# 4 0.0000 0.0000 0.0000 25.8302 0.0000 10.7410
# 5 15.2557 -4.1947 31.0039 0.0000 23.6079 0.0000
# 6 0.0000 0.0000 0.0000 10.7410 0.0000 10.6017
#
#
#
# Elastic Compliance Matrix: (Units=1/GPa)
#
#
# Indices 1 2 3 4 5 6 
#
# 1 0.010431 -0.000124 -0.000952 0.000000 -0.005512 0.000000
# 2 -0.000124 0.008808 -0.003138 0.000000 0.005766 0.000000
# 3 -0.000952 -0.003138 0.020953 0.000000 -0.027460 0.000000
# 4 0.000000 0.000000 0.000000 0.066898 0.000000 -0.067777
# 5 -0.005512 0.005766 -0.027460 0.000000 0.083007 0.000000
# 6 0.000000 0.000000 0.000000 -0.067777 0.000000 0.162993
#
#
# Mechanical properties :
#
#
# Convention : Reuss Voigt Hill
#
# Bulk Modulus (GPa) = 31.48243 43.78483 37.63363
# Shear Modulus (GPa) = 13.43703 30.70872 22.07288
#
# Velocity S-wave (km/s) = 2.54554 3.84821 3.26255
# Velocity P-wave (km/s) = 4.88073 6.39214 5.68687
#
# Compressibility (1/GPa) = 0.03176375
#
# Stress axis : x y z
#
# Youngs Moduli (GPa) = 95.86892 113.53877 47.72522
#
# Poissons Ratio (x) = 0.01406 0.04545
# Poissons Ratio (y) = 0.01187 0.14975
# Poissons Ratio (z) = 0.09130 0.35626
#
# Static dielectric constant tensor:
#      x y z
#    x 4.302870 0.000000 0.800460 
#    y 0.000000 3.916530 0.000000 
#    z 0.800460 0.000000 3.890720 
# 
# 
# High freq. dielectric constant tensor:
#      x y z
#    x 1.795550 0.000000 0.039870 
#    y 0.000000 1.826000 0.000000 
#    z 0.039870 0.000000 1.802250 
# 
# From -- ./inp_files/159481.got.cif
#   From: 2010.06.25/outbox.cif.g09.slc.cpg/sg15_80_cif.got.tgz:159481.got - 2010.06.28 07:06:18.
