data_PCOD8138897
_publ_section_title
;
Structure prediction by ZEFSAII (Michael W. Deem and Ramdas Pophale) SiO2 
 PCOD8138897
Probable space group: C 2/C
;
_chemical_formula_sum "Si O2"
_cell_formula_units_Z 36
_cell_length_a 16.093218
_cell_length_b 13.682356
_cell_length_c 12.962931
_cell_angle_alpha 90.000000
_cell_angle_beta 149.750023
_cell_angle_gamma 90.000000
_cell_volume 1437.945482
_symmetry_space_group_name_H-M "C 2/C"
_symmetry_group_IT_number 15
_symmetry_cell_setting 'monoclinic'
loop_
_space_group_symop_operation_xyz
x,y,z
-x,y,1/2-z
-x,-y,-z
x,-y,1/2+z
1/2+x,1/2+y,z
1/2-x,1/2+y,1/2-z
1/2-x,1/2-y,-z
1/2+x,1/2-y,1/2+z
loop_
_atom_site_type_symbol
_atom_site_label
_atom_site_fract_x
_atom_site_fract_y
_atom_site_fract_z
Si Si1 0.500000 0.257712 0.250000
Si Si2 0.326523 0.800370 0.295358
Si Si3 0.378204 0.840583 0.023914
Si Si4 0.304382 0.499650 0.787563
Si Si5 0.281067 0.849264 0.655806
O O1 0.538059 0.187183 0.190342
O O2 0.656687 0.329504 0.427326
O O3 0.512914 0.828458 0.465040
O O4 0.311771 0.704924 0.349809
O O5 0.244142 0.887708 0.270071
O O6 0.229323 0.760921 0.086429
O O7 0.500000 0.855572 0.250000
O O8 0.267050 0.938402 0.887476
O O9 0.223385 0.461131 0.809734
O O10 0.500000 0.500000 0.000000
#
# Coordination Sequence:
#
# PCOD8138897 Si02
#       5
#     4   8   8   8   8
#     4  10  20  38  62  92 130 168 230 272 338 398
#     4  11  22  43  68  93 139 182 230 278 361 411
#     4  11  24  44  69 103 137 187 235 292 343 420
#     4  11  23  43  67  99 137 184 234 282 358 419
#     4  10  21  40  63  93 131 178 214 283 340 402
#
# _framework density 25.035720000000001
#
# number of rings (size 3 to 8) (size 9 to 14) (size 15 to 20)
#    0.000    1.333    0.000    8.000    0.000    0.000 
#   18.000    0.000    0.000    0.000    0.000    0.000 
#    0.000    0.000    0.000    0.000    0.000    0.000 
#
# Total GULP energy -223069.622015 kJ/mol
# GULP energy per Si atom -12392.756779 kJ/mol
# Density = 2.497874 g / cm^3
# Si number density = 25.035720 Si / 1000 Ang^3
#
#
#
# Elastic Constant Matrix: (Units=GPa)
#
#
# Indices 1 2 3 4 5 6 
#
# 1 59.0281 -9.7985 -7.0879 0.0000 6.1558 0.0000
# 2 -9.7985 99.6950 37.4205 0.0000 -4.9945 0.0000
# 3 -7.0879 37.4205 108.5441 0.0000 16.9681 0.0000
# 4 0.0000 0.0000 0.0000 44.8815 0.0000 6.7298
# 5 6.1558 -4.9945 16.9681 0.0000 40.5606 0.0000
# 6 0.0000 0.0000 0.0000 6.7298 0.0000 30.7504
#
#
#
# Elastic Compliance Matrix: (Units=1/GPa)
#
#
# Indices 1 2 3 4 5 6 
#
# 1 0.017593 0.001109 0.001244 0.000000 -0.003054 0.000000
# 2 0.001109 0.012019 -0.004575 0.000000 0.003226 0.000000
# 3 0.001244 -0.004575 0.011758 0.000000 -0.005671 0.000000
# 4 0.000000 0.000000 0.000000 0.023037 0.000000 -0.005042
# 5 -0.003054 0.003226 -0.005671 0.000000 0.027887 0.000000
# 6 0.000000 0.000000 0.000000 -0.005042 0.000000 0.033623
#
#
# Mechanical properties :
#
#
# Convention : Reuss Voigt Hill
#
# Bulk Modulus (GPa) = 27.08177 34.25948 30.67063
# Shear Modulus (GPa) = 35.04600 39.68737 37.36668
#
# Velocity S-wave (km/s) = 3.74550 3.98581 3.86753
# Velocity P-wave (km/s) = 5.43560 5.90730 5.67636
#
# Compressibility (1/GPa) = 0.03692521
#
# Stress axis : x y z
#
# Youngs Moduli (GPa) = 56.84062 83.20500 85.04953
#
# Poissons Ratio (x) = -0.09230 -0.10578
# Poissons Ratio (y) = -0.06305 0.38912
# Poissons Ratio (z) = -0.07070 0.38068
#
# Static dielectric constant tensor:
#      x y z
#    x 4.471620 0.000000 -0.048150 
#    y 0.000000 4.560830 0.000000 
#    z -0.048150 0.000000 5.057480 
# 
# 
# High freq. dielectric constant tensor:
#      x y z
#    x 1.986300 0.000000 0.004630 
#    y 0.000000 1.982390 0.000000 
#    z 0.004630 0.000000 2.029510 
# 
# From -- ./inp_files/162418.got.cif
#   From: 2010.06.25/outbox.cif.g09.slc.cpg/sg15_82_cif.got.tgz:162418.got - 2010.06.28 07:06:18.
