data_PCOD8138453
_publ_section_title
;
Structure prediction by ZEFSAII (Michael W. Deem and Ramdas Pophale) SiO2 
 PCOD8138453
Probable space group: C 2/C
;
_chemical_formula_sum "Si O2"
_cell_formula_units_Z 60
_cell_length_a 18.930137
_cell_length_b 16.885123
_cell_length_c 18.585132
_cell_angle_alpha 90.000000
_cell_angle_beta 151.452104
_cell_angle_gamma 90.000000
_cell_volume 2838.928912
_symmetry_space_group_name_H-M "C 2/C"
_symmetry_group_IT_number 15
_symmetry_cell_setting 'monoclinic'
loop_
_space_group_symop_operation_xyz
x,y,z
-x,y,1/2-z
-x,-y,-z
x,-y,1/2+z
1/2+x,1/2+y,z
1/2-x,1/2+y,1/2-z
1/2-x,1/2-y,-z
1/2+x,1/2-y,1/2+z
loop_
_atom_site_type_symbol
_atom_site_label
_atom_site_fract_x
_atom_site_fract_y
_atom_site_fract_z
Si Si1 0.500000 0.766719 0.750000
Si Si2 0.812026 0.791968 0.832140
Si Si3 0.619335 0.272137 0.041292
Si Si4 0.799465 0.592822 0.634593
Si Si5 0.842468 0.530826 0.923509
Si Si6 0.635355 0.878803 0.464821
Si Si7 0.218215 0.315257 0.062003
Si Si8 0.681639 0.959886 0.743290
O O1 0.623970 0.711976 0.825584
O O2 0.412664 0.821520 0.614723
O O3 0.672220 0.753396 0.667674
O O4 0.843230 0.744117 0.932673
O O5 0.783528 0.882924 0.828406
O O6 0.944271 0.783442 0.892963
O O7 0.681280 0.355828 0.071489
O O8 0.672153 0.207179 0.029849
O O9 0.772469 0.600859 0.524886
O O10 0.785675 0.502040 0.650572
O O11 0.961964 0.623296 0.796662
O O12 0.745823 0.597379 0.876033
O O13 0.785824 0.523897 0.790778
O O14 0.820286 0.444731 0.937843
O O15 0.010121 0.563144 0.079631
#
# Coordination Sequence:
#
# PCOD8138453 Si02
#       8
#     4   8   8   8   8   8   8   8
#     4  10  24  42  62  92 134 164 222 258 326 390
#     4  12  24  39  68  95 129 163 219 266 330 378
#     4  12  22  41  63  96 127 169 213 273 318 392
#     4  10  22  38  62  88 128 167 213 265 323 383
#     4  10  20  37  65  88 126 166 217 258 321 379
#     4  10  21  39  61  92 124 169 214 262 318 391
#     4  11  23  41  65  94 124 176 207 271 319 394
#     4  10  21  38  60  95 124 165 212 269 315 392
#
# _framework density 21.134730999999999
#
# number of rings (size 3 to 8) (size 9 to 14) (size 15 to 20)
#    0.000    1.333    2.667    3.600    1.867    4.800 
#    0.000    1.333    0.000    0.000    0.000    0.000 
#    0.000    0.000    0.000    0.000    0.000    0.000 
#
# Total GULP energy -372026.742916 kJ/mol
# GULP energy per Si atom -12400.891431 kJ/mol
# Density = 2.108663 g / cm^3
# Si number density = 21.134731 Si / 1000 Ang^3
#
#
#
# Elastic Constant Matrix: (Units=GPa)
#
#
# Indices 1 2 3 4 5 6 
#
# 1 102.7507 34.4094 22.5119 0.0002 -8.7791 -0.0007
# 2 34.4094 90.9316 15.0966 0.0006 4.2924 0.0033
# 3 22.5119 15.0966 48.1697 0.0094 -1.1613 0.0114
# 4 0.0002 0.0006 0.0094 17.3632 0.0065 -2.1748
# 5 -8.7791 4.2924 -1.1613 0.0065 26.3421 0.0035
# 6 -0.0007 0.0033 0.0114 -2.1748 0.0035 30.6682
#
#
#
# Elastic Compliance Matrix: (Units=1/GPa)
#
#
# Indices 1 2 3 4 5 6 
#
# 1 0.012511 -0.004222 -0.004411 0.000001 0.004663 0.000002
# 2 -0.004222 0.013138 -0.002232 0.000002 -0.003646 0.000000
# 3 -0.004411 -0.002232 0.023519 -0.000014 -0.000070 -0.000010
# 4 0.000001 0.000002 -0.000014 0.058109 -0.000016 0.004121
# 5 0.004663 -0.003646 -0.000070 -0.000016 0.040107 -0.000005
# 6 0.000002 0.000000 -0.000010 0.004121 -0.000005 0.032899
#
#
# Mechanical properties :
#
#
# Convention : Reuss Voigt Hill
#
# Bulk Modulus (GPa) = 36.44707 42.87643 39.66175
# Shear Modulus (GPa) = 23.67864 26.19697 24.93780
#
# Velocity S-wave (km/s) = 3.35082 3.52450 3.43876
# Velocity P-wave (km/s) = 5.67919 6.07405 5.87993
#
# Compressibility (1/GPa) = 0.02743705
#
# Stress axis : x y z
#
# Youngs Moduli (GPa) = 79.92894 76.11704 42.51796
#
# Poissons Ratio (x) = 0.32137 0.18756
# Poissons Ratio (y) = 0.33747 0.09491
# Poissons Ratio (z) = 0.35260 0.16991
#
# Static dielectric constant tensor:
#      x y z
#    x 4.052720 -0.000010 -0.204430 
#    y -0.000010 3.651270 -0.000010 
#    z -0.204430 -0.000010 3.615990 
# 
# 
# High freq. dielectric constant tensor:
#      x y z
#    x 1.839760 0.000000 -0.011260 
#    y 0.000000 1.829290 0.000000 
#    z -0.011260 0.000000 1.807580 
# 
# From -- ./inp_files/211752.got.cif
#   From: 2010.06.25/outbox.cif.g09.slc.cpg/sg15_106_cif.got.tgz:211752.got - 2010.06.28 07:06:18.
