data_PCOD8138156
_publ_section_title
;
Structure prediction by ZEFSAII (Michael W. Deem and Ramdas Pophale) SiO2 
 PCOD8138156
Probable space group: C 2/C
;
_chemical_formula_sum "Si O2"
_cell_formula_units_Z 44
_cell_length_a 5.069675
_cell_length_b 23.311802
_cell_length_c 21.460840
_cell_angle_alpha 90.000000
_cell_angle_beta 129.474379
_cell_angle_gamma 90.000000
_cell_volume 1957.801935
_symmetry_space_group_name_H-M "C 2/C"
_symmetry_group_IT_number 15
_symmetry_cell_setting 'monoclinic'
loop_
_space_group_symop_operation_xyz
x,y,z
-x,y,1/2-z
-x,-y,-z
x,-y,1/2+z
1/2+x,1/2+y,z
1/2-x,1/2+y,1/2-z
1/2-x,1/2-y,-z
1/2+x,1/2-y,1/2+z
loop_
_atom_site_type_symbol
_atom_site_label
_atom_site_fract_x
_atom_site_fract_y
_atom_site_fract_z
Si Si1 0.274657 0.851633 0.608132
Si Si2 0.535413 0.804944 0.523316
Si Si3 0.946386 0.700807 0.611373
Si Si4 0.000000 0.276890 0.750000
Si Si5 0.109188 0.590112 0.695921
Si Si6 0.891207 0.537194 0.304378
O O1 0.302211 0.834133 0.540166
O O2 0.531559 0.816957 0.692967
O O3 0.362748 0.918963 0.622807
O O4 0.892372 0.839743 0.573982
O O5 0.596080 0.737653 0.551144
O O6 0.369381 0.804285 0.429097
O O7 0.174439 0.735383 0.695230
O O8 0.873855 0.636488 0.624713
O O9 0.500000 0.610765 0.750000
O O10 0.065633 0.526632 0.659344
O O11 0.000000 0.588232 0.750000
O O12 0.500000 0.557707 0.250000
O O13 0.000000 0.535735 0.250000
#
# Coordination Sequence:
#
# PCOD8138156 Si02
#       6
#     8   8   8   4   8   8
#     4  11  22  40  59  92 113 159 194 245 290 356
#     4  10  25  38  60  84 131 154 188 240 308 338
#     4  10  22  41  58  90 121 159 194 242 290 359
#     4  10  22  34  68  84 118 148 212 236 288 344
#     4  10  22  37  60  88 116 152 194 249 290 338
#     4  10  20  37  60  87 118 146 196 253 291 334
#
# _framework density 22.474183
#
# number of rings (size 3 to 8) (size 9 to 14) (size 15 to 20)
#    0.000    1.818    1.818    1.091    5.091    8.000 
#    0.000    1.818    0.000    0.000    0.000    0.000 
#    0.000    0.000    0.000    0.000    0.000    0.000 
#
# Total GULP energy -272754.291844 kJ/mol
# GULP energy per Si atom -12397.922357 kJ/mol
# Density = 2.242303 g / cm^3
# Si number density = 22.474183 Si / 1000 Ang^3
#
#
#
# Elastic Constant Matrix: (Units=GPa)
#
#
# Indices 1 2 3 4 5 6 
#
# 1 66.9102 16.9241 -4.6880 0.0000 -8.7399 0.0000
# 2 16.9241 162.9349 30.1513 0.0000 6.9547 0.0000
# 3 -4.6880 30.1513 72.9310 0.0000 -4.4191 0.0000
# 4 0.0000 0.0000 0.0000 39.5000 0.0000 -2.1381
# 5 -8.7399 6.9547 -4.4191 0.0000 30.5008 0.0000
# 6 0.0000 0.0000 0.0000 -2.1381 0.0000 26.3562
#
#
#
# Elastic Compliance Matrix: (Units=1/GPa)
#
#
# Indices 1 2 3 4 5 6 
#
# 1 0.016449 -0.002389 0.002385 0.000000 0.005604 0.000000
# 2 -0.002389 0.007107 -0.003260 0.000000 -0.002778 0.000000
# 3 0.002385 -0.003260 0.015435 0.000000 0.003663 0.000000
# 4 0.000000 0.000000 0.000000 0.025428 0.000000 0.002063
# 5 0.005604 -0.002778 0.003663 0.000000 0.035556 0.000000
# 6 0.000000 0.000000 0.000000 0.002063 0.000000 0.038109
#
#
# Mechanical properties :
#
#
# Convention : Reuss Voigt Hill
#
# Bulk Modulus (GPa) = 30.80584 43.06122 36.93353
# Shear Modulus (GPa) = 32.16807 36.63064 34.39935
#
# Velocity S-wave (km/s) = 3.78740 4.04158 3.91655
# Velocity P-wave (km/s) = 5.73261 6.40164 6.07634
#
# Compressibility (1/GPa) = 0.03246137
#
# Stress axis : x y z
#
# Youngs Moduli (GPa) = 60.79518 140.69782 64.78921
#
# Poissons Ratio (x) = 0.33612 -0.15449
# Poissons Ratio (y) = 0.14524 0.21123
# Poissons Ratio (z) = -0.14497 0.45871
#
# Static dielectric constant tensor:
#      x y z
#    x 3.867500 0.000000 -0.067890 
#    y 0.000000 4.588620 0.000000 
#    z -0.067890 0.000000 4.013530 
# 
# 
# High freq. dielectric constant tensor:
#      x y z
#    x 1.884370 0.000000 -0.008140 
#    y 0.000000 1.895710 0.000000 
#    z -0.008140 0.000000 1.870430 
# 
# From -- ./inp_files/185588.got.cif
#   From: 2010.06.25/outbox.cif.g09.slc.cpg/sg15_93_cif.got.tgz:185588.got - 2010.06.28 07:06:18.
