data_PCOD8138682
_publ_section_title
;
Structure prediction by ZEFSAII (Michael W. Deem and Ramdas Pophale) SiO2 
 PCOD8138682
Probable space group: C 2/C
;
_chemical_formula_sum "Si O2"
_cell_formula_units_Z 60
_cell_length_a 28.384403
_cell_length_b 11.877369
_cell_length_c 16.657653
_cell_angle_alpha 90.000000
_cell_angle_beta 148.636800
_cell_angle_gamma 90.000000
_cell_volume 2922.821347
_symmetry_space_group_name_H-M "C 2/C"
_symmetry_group_IT_number 15
_symmetry_cell_setting 'monoclinic'
loop_
_space_group_symop_operation_xyz
x,y,z
-x,y,1/2-z
-x,-y,-z
x,-y,1/2+z
1/2+x,1/2+y,z
1/2-x,1/2+y,1/2-z
1/2-x,1/2-y,-z
1/2+x,1/2-y,1/2+z
loop_
_atom_site_type_symbol
_atom_site_label
_atom_site_fract_x
_atom_site_fract_y
_atom_site_fract_z
Si Si1 0.671840 0.688339 0.990563
Si Si2 0.496581 0.749421 0.989954
Si Si3 0.794809 0.763242 0.450438
Si Si4 0.902855 0.096836 0.980560
Si Si5 0.500000 0.532723 0.750000
Si Si6 0.134918 0.631012 0.804936
Si Si7 0.337190 0.362243 0.847010
Si Si8 0.354331 0.126307 0.171710
O O1 0.587328 0.605864 0.857044
O O2 0.647916 0.808527 0.916487
O O3 0.693322 0.702784 0.116217
O O4 0.756876 0.632108 0.071191
O O5 0.438488 0.659201 0.954294
O O6 0.429914 0.823064 0.839646
O O7 0.551241 0.832186 0.128053
O O8 0.562200 0.679773 0.027337
O O9 0.849063 0.816982 0.457310
O O10 0.864433 0.709725 0.615263
O O11 0.730762 0.856614 0.398499
O O12 0.731873 0.663577 0.324810
O O13 0.835919 0.996644 0.856088
O O14 0.986005 0.045090 0.151773
O O15 0.120687 0.502432 0.810029
#
# Coordination Sequence:
#
# PCOD8138682 Si02
#       8
#     8   8   8   8   4   8   8   8
#     4  10  22  38  61  89 115 150 198 239 290 354
#     4  11  23  38  59  88 119 154 201 238 286 354
#     4  10  22  39  60  87 117 151 198 239 291 356
#     4  11  21  37  61  87 117 153 193 242 289 344
#     4  10  20  38  60  86 120 152 186 240 296 338
#     4  10  22  40  59  84 119 158 192 241 296 342
#     4  10  22  39  60  86 119 155 189 245 299 341
#     4  11  22  39  61  86 118 155 195 243 289 345
#
# _framework density 20.528110000000002
#
# number of rings (size 3 to 8) (size 9 to 14) (size 15 to 20)
#    0.000    1.600    0.000    5.600    0.000    5.333 
#    0.000    5.333    0.000    0.000    0.000    0.000 
#    0.000    0.000    0.000    0.000    0.000    0.000 
#
# Total GULP energy -372127.231690 kJ/mol
# GULP energy per Si atom -12404.241056 kJ/mol
# Density = 2.048139 g / cm^3
# Si number density = 20.528110 Si / 1000 Ang^3
#
#
#
# Elastic Constant Matrix: (Units=GPa)
#
#
# Indices 1 2 3 4 5 6 
#
# 1 97.2552 42.7709 15.1011 0.0000 2.9866 0.0000
# 2 42.7709 106.1377 16.7802 0.0000 -2.6633 0.0000
# 3 15.1011 16.7802 69.7683 0.0000 1.6386 0.0000
# 4 0.0000 0.0000 0.0000 21.1004 0.0000 -3.6479
# 5 2.9866 -2.6633 1.6386 0.0000 29.2730 0.0000
# 6 0.0000 0.0000 0.0000 -3.6479 0.0000 26.0691
#
#
#
# Elastic Compliance Matrix: (Units=1/GPa)
#
#
# Indices 1 2 3 4 5 6 
#
# 1 0.012741 -0.004934 -0.001532 0.000000 -0.001663 0.000000
# 2 -0.004934 0.011735 -0.001794 0.000000 0.001672 0.000000
# 3 -0.001532 -0.001794 0.015116 0.000000 -0.000853 0.000000
# 4 0.000000 0.000000 0.000000 0.048567 0.000000 0.006796
# 5 -0.001663 0.001672 -0.000853 0.000000 0.034531 0.000000
# 6 0.000000 0.000000 0.000000 0.006796 0.000000 0.039311
#
#
# Mechanical properties :
#
#
# Convention : Reuss Voigt Hill
#
# Bulk Modulus (GPa) = 43.34027 46.94061 45.14044
# Shear Modulus (GPa) = 26.85115 28.52245 27.68680
#
# Velocity S-wave (km/s) = 3.62058 3.73156 3.67649
# Velocity P-wave (km/s) = 6.21583 6.44066 6.32925
#
# Compressibility (1/GPa) = 0.02307323
#
# Stress axis : x y z
#
# Youngs Moduli (GPa) = 78.48695 85.21162 66.15399
#
# Poissons Ratio (x) = 0.42042 0.10135
# Poissons Ratio (y) = 0.38724 0.11867
# Poissons Ratio (z) = 0.12024 0.15286
#
# Static dielectric constant tensor:
#      x y z
#    x 3.786630 0.000000 -0.138910 
#    y 0.000000 3.659840 0.000000 
#    z -0.138910 0.000000 3.809650 
# 
# 
# High freq. dielectric constant tensor:
#      x y z
#    x 1.807720 0.000000 -0.007930 
#    y 0.000000 1.803170 0.000000 
#    z -0.007930 0.000000 1.811070 
# 
# From -- ./inp_files/222559.got.cif
#   From: 2010.06.25/outbox.cif.g09.slc.cpg/sg15_112_cif.got.tgz:222559.got - 2010.06.28 07:06:18.
