data_PCOD8138974
_publ_section_title
;
Structure prediction by ZEFSAII (Michael W. Deem and Ramdas Pophale) SiO2 
 PCOD8138974
Probable space group: C 2/C
;
_chemical_formula_sum "Si O2"
_cell_formula_units_Z 48
_cell_length_a 7.949364
_cell_length_b 15.628262
_cell_length_c 24.663436
_cell_angle_alpha 90.000000
_cell_angle_beta 47.820982
_cell_angle_gamma 90.000000
_cell_volume 2270.620069
_symmetry_space_group_name_H-M "C 2/C"
_symmetry_group_IT_number 15
_symmetry_cell_setting 'monoclinic'
loop_
_space_group_symop_operation_xyz
x,y,z
-x,y,1/2-z
-x,-y,-z
x,-y,1/2+z
1/2+x,1/2+y,z
1/2-x,1/2+y,1/2-z
1/2-x,1/2-y,-z
1/2+x,1/2-y,1/2+z
loop_
_atom_site_type_symbol
_atom_site_label
_atom_site_fract_x
_atom_site_fract_y
_atom_site_fract_z
Si Si1 0.339404 0.270922 0.857979
Si Si2 0.500000 0.135845 0.750000
Si Si3 0.555146 0.530342 0.834955
Si Si4 0.938415 0.180098 0.994503
Si Si5 0.177362 0.358427 0.451936
Si Si6 0.500000 0.587501 0.250000
Si Si7 0.158917 0.110843 0.048556
O O1 0.516763 0.198924 0.798729
O O2 0.319864 0.351440 0.820188
O O3 0.418409 0.305907 0.899645
O O4 0.093476 0.228134 0.915966
O O5 0.281753 0.077524 0.803308
O O6 0.351170 0.599217 0.870955
O O7 0.615577 0.474934 0.768836
O O8 0.474110 0.471637 0.902060
O O9 0.823869 0.255260 0.055566
O O10 0.089741 0.121389 0.000906
O O11 0.761681 0.124745 0.996579
O O12 0.930195 0.400662 0.496336
#
# Coordination Sequence:
#
# PCOD8138974 Si02
#       7
#     8   4   8   8   8   4   8
#     4   9  18  40  62  82 117 165 200 245 296 365
#     4  11  22  40  60  81 128 164 208 243 290 372
#     4  11  23  42  55  94 122 162 203 250 309 357
#     4  10  20  38  66  96 116 158 200 252 312 356
#     4  10  20  38  63  92 122 153 201 253 307 358
#     4   9  22  38  62  77 122 170 198 241 302 356
#     4  10  22  40  64  95 123 152 202 261 312 354
#
# _framework density 21.139599
#
# number of rings (size 3 to 8) (size 9 to 14) (size 15 to 20)
#    0.000    2.000    1.667    2.500    0.000    3.333 
#   12.000    0.000    0.000    0.000    0.000    0.000 
#    0.000    0.000    0.000    0.000    0.000    0.000 
#
# Total GULP energy -297356.720304 kJ/mol
# GULP energy per Si atom -12389.863346 kJ/mol
# Density = 2.109148 g / cm^3
# Si number density = 21.139599 Si / 1000 Ang^3
#
#
#
# Elastic Constant Matrix: (Units=GPa)
#
#
# Indices 1 2 3 4 5 6 
#
# 1 129.2431 39.9026 46.5610 -0.0003 -5.6655 -0.0008
# 2 39.9026 82.2683 42.2158 0.0001 -9.9757 -0.0009
# 3 46.5610 42.2158 89.7192 0.0010 -10.5875 -0.0020
# 4 -0.0003 0.0001 0.0010 39.2664 0.0003 -1.7566
# 5 -5.6655 -9.9757 -10.5875 0.0003 30.2135 0.0009
# 6 -0.0008 -0.0009 -0.0020 -1.7566 0.0009 21.2244
#
#
#
# Elastic Compliance Matrix: (Units=1/GPa)
#
#
# Indices 1 2 3 4 5 6 
#
# 1 0.010017 -0.002924 -0.003875 0.000000 -0.000445 0.000000
# 2 -0.002924 0.017102 -0.006184 0.000000 0.002931 0.000000
# 3 -0.003875 -0.006184 0.016419 0.000000 0.002985 0.000001
# 4 0.000000 0.000000 0.000000 0.025562 0.000000 0.002116
# 5 -0.000445 0.002931 0.002985 0.000000 0.035028 -0.000001
# 6 0.000000 0.000000 0.000001 0.002116 -0.000001 0.047291
#
#
# Mechanical properties :
#
#
# Convention : Reuss Voigt Hill
#
# Bulk Modulus (GPa) = 56.90790 62.06549 59.48670
# Shear Modulus (GPa) = 27.28647 29.64427 28.46537
#
# Velocity S-wave (km/s) = 3.59663 3.74881 3.67351
# Velocity P-wave (km/s) = 6.65028 6.93986 6.79661
#
# Compressibility (1/GPa) = 0.01757225
#
# Stress axis : x y z
#
# Youngs Moduli (GPa) = 99.83474 58.47208 60.90573
#
# Poissons Ratio (x) = 0.17096 0.23601
# Poissons Ratio (y) = 0.29190 0.37663
# Poissons Ratio (z) = 0.38686 0.36158
#
# Static dielectric constant tensor:
#      x y z
#    x 3.483460 0.000000 0.087020 
#    y 0.000000 4.075390 0.000000 
#    z 0.087020 0.000000 3.988230 
# 
# 
# High freq. dielectric constant tensor:
#      x y z
#    x 1.799380 0.000000 0.003450 
#    y 0.000000 1.840550 0.000000 
#    z 0.003450 0.000000 1.821580 
# 
# From -- ./inp_files/289050.got.cif
#   From: 2010.06.25/outbox.cif.g09.slc.cpg/sg15_145_cif.got.tgz:289050.got - 2010.06.28 07:06:18.
