data_PCOD8138589
_publ_section_title
;
Structure prediction by ZEFSAII (Michael W. Deem and Ramdas Pophale) SiO2 
 PCOD8138589
Probable space group: C 2/C
;
_chemical_formula_sum "Si O2"
_cell_formula_units_Z 60
_cell_length_a 27.084727
_cell_length_b 21.683127
_cell_length_c 5.664834
_cell_angle_alpha 90.000000
_cell_angle_beta 122.417043
_cell_angle_gamma 90.000000
_cell_volume 2808.424209
_symmetry_space_group_name_H-M "C 2/C"
_symmetry_group_IT_number 15
_symmetry_cell_setting 'monoclinic'
loop_
_space_group_symop_operation_xyz
x,y,z
-x,y,1/2-z
-x,-y,-z
x,-y,1/2+z
1/2+x,1/2+y,z
1/2-x,1/2+y,1/2-z
1/2-x,1/2-y,-z
1/2+x,1/2-y,1/2+z
loop_
_atom_site_type_symbol
_atom_site_label
_atom_site_fract_x
_atom_site_fract_y
_atom_site_fract_z
Si Si1 0.224497 0.299675 0.255443
Si Si2 0.180744 0.849926 0.316240
Si Si3 0.854207 0.464457 0.955856
Si Si4 0.061745 0.356084 0.288377
Si Si5 0.500000 0.209682 0.250000
Si Si6 0.105691 0.743300 0.230865
Si Si7 0.745844 0.410542 0.870111
Si Si8 0.841898 0.984310 0.346176
O O1 0.250000 0.250000 0.500000
O O2 0.268114 0.304174 0.143648
O O3 0.223659 0.370427 0.347961
O O4 0.158389 0.279396 0.033481
O O5 0.120646 0.810950 0.166325
O O6 0.195891 0.868755 0.622414
O O7 0.172183 0.912173 0.139091
O O8 0.854956 0.502897 0.203490
O O9 0.911157 0.423013 0.125790
O O10 0.795348 0.424308 0.802298
O O11 0.103400 0.305482 0.513832
O O12 0.000000 0.360042 0.250000
O O13 0.049205 0.334321 0.991046
O O14 0.540926 0.250671 0.182944
O O15 0.716480 0.475734 0.873122
O O16 0.874922 0.009866 0.669827
#
# Coordination Sequence:
#
# PCOD8138589 Si02
#       8
#     8   8   8   8   4   8   8   8
#     4  12  24  37  61  99 136 177 215 277 339 415
#     4  11  23  38  59  96 133 171 221 272 334 408
#     4  12  28  42  65  97 132 183 234 280 336 405
#     4  10  25  46  68  89 125 172 231 299 346 389
#     4  10  24  48  70  88 126 176 234 286 360 404
#     4  11  24  40  66  97 130 174 224 282 345 406
#     4  11  23  39  59  90 137 182 215 260 332 409
#     4  10  20  38  58  85 129 174 214 254 312 399
#
# _framework density 21.364296
#
# number of rings (size 3 to 8) (size 9 to 14) (size 15 to 20)
#    0.000    1.067    2.667    3.600   11.200    0.533 
#    0.000    0.000    0.000    0.000    0.000    3.733 
#    0.000    0.000    0.000    0.000    0.000    0.000 
#
# Total GULP energy -371648.199671 kJ/mol
# GULP energy per Si atom -12388.273322 kJ/mol
# Density = 2.131567 g / cm^3
# Si number density = 21.364296 Si / 1000 Ang^3
#
#
#
# Elastic Constant Matrix: (Units=GPa)
#
#
# Indices 1 2 3 4 5 6 
#
# 1 50.9502 34.2797 21.9518 0.0000 -1.1791 0.0000
# 2 34.2797 103.6352 16.0163 0.0000 -4.9639 0.0000
# 3 21.9518 16.0163 90.7906 0.0000 -11.5537 0.0000
# 4 0.0000 0.0000 0.0000 38.1280 0.0000 -0.3712
# 5 -1.1791 -4.9639 -11.5537 0.0000 26.8324 0.0000
# 6 0.0000 0.0000 0.0000 -0.3712 0.0000 43.3927
#
#
#
# Elastic Compliance Matrix: (Units=1/GPa)
#
#
# Indices 1 2 3 4 5 6 
#
# 1 0.027606 -0.008406 -0.005539 0.000000 -0.002727 0.000000
# 2 -0.008406 0.012513 0.000077 0.000000 0.001979 0.000000
# 3 -0.005539 0.000077 0.013025 0.000000 0.005379 0.000000
# 4 0.000000 0.000000 0.000000 0.026230 0.000000 0.000224
# 5 -0.002727 0.001979 0.005379 0.000000 0.039831 0.000000
# 6 0.000000 0.000000 0.000000 0.000224 0.000000 0.023047
#
#
# Mechanical properties :
#
#
# Convention : Reuss Voigt Hill
#
# Bulk Modulus (GPa) = 39.35888 43.31907 41.33897
# Shear Modulus (GPa) = 28.01825 33.21251 30.61538
#
# Velocity S-wave (km/s) = 3.62533 3.94709 3.78963
# Velocity P-wave (km/s) = 5.99889 6.41039 6.20805
#
# Compressibility (1/GPa) = 0.02540723
#
# Stress axis : x y z
#
# Youngs Moduli (GPa) = 36.22427 79.91971 76.77827
#
# Poissons Ratio (x) = 0.67179 0.42526
# Poissons Ratio (y) = 0.30450 -0.00590
# Poissons Ratio (z) = 0.20064 -0.00614
#
# Static dielectric constant tensor:
#      x y z
#    x 3.404980 0.000000 0.139710 
#    y 0.000000 4.117290 0.000000 
#    z 0.139710 0.000000 3.714800 
# 
# 
# High freq. dielectric constant tensor:
#      x y z
#    x 1.817220 0.000000 -0.026910 
#    y 0.000000 1.847000 0.000000 
#    z -0.026910 0.000000 1.835590 
# 
# From -- ./inp_files/17528.got.cif
#   From: 2010.06.25/outbox.cif.g09.slc.cpg/sg15_9_cif.got.tgz:17528.got - 2010.06.28 07:06:18.
