data_PCOD8138434
_publ_section_title
;
Structure prediction by ZEFSAII (Michael W. Deem and Ramdas Pophale) SiO2 
 PCOD8138434
Probable space group: C 2/C
;
_chemical_formula_sum "Si O2"
_cell_formula_units_Z 56
_cell_length_a 15.711432
_cell_length_b 8.992756
_cell_length_c 18.826926
_cell_angle_alpha 90.000000
_cell_angle_beta 94.887875
_cell_angle_gamma 90.000000
_cell_volume 2650.365317
_symmetry_space_group_name_H-M "C 2/C"
_symmetry_group_IT_number 15
_symmetry_cell_setting 'monoclinic'
loop_
_space_group_symop_operation_xyz
x,y,z
-x,y,1/2-z
-x,-y,-z
x,-y,1/2+z
1/2+x,1/2+y,z
1/2-x,1/2+y,1/2-z
1/2-x,1/2-y,-z
1/2+x,1/2-y,1/2+z
loop_
_atom_site_type_symbol
_atom_site_label
_atom_site_fract_x
_atom_site_fract_y
_atom_site_fract_z
Si Si1 0.247745 0.015426 0.397318
Si Si2 0.098046 0.672479 0.544189
Si Si3 0.199505 0.476468 0.831637
Si Si4 0.465807 0.975424 0.599400
Si Si5 0.385932 0.252763 0.370539
Si Si6 0.839197 0.998357 0.961457
Si Si7 0.202402 0.158657 0.766358
O O1 0.297531 0.165140 0.380150
O O2 0.314467 0.881623 0.414076
O O3 0.188841 0.043094 0.461421
O O4 0.186449 0.959743 0.328700
O O5 0.089429 0.582861 0.470432
O O6 0.104966 0.848206 0.533238
O O7 0.014878 0.630049 0.585700
O O8 0.099550 0.498149 0.841084
O O9 0.255570 0.490506 0.906475
O O10 0.222076 0.319233 0.799008
O O11 0.217382 0.603714 0.775028
O O12 0.533624 0.852726 0.627135
O O13 0.400200 0.372427 0.434449
O O14 0.378485 0.333883 0.293290
#
# Coordination Sequence:
#
# PCOD8138434 Si02
#       7
#     8   8   8   8   8   8   8
#     4  11  19  38  64  94 118 165 214 263 305 371
#     4  10  20  37  64  96 120 160 211 264 303 386
#     4  11  22  41  65  90 122 168 210 258 309 380
#     4  10  22  41  62  89 130 165 203 253 334 374
#     4  10  24  39  59  95 133 160 202 268 321 381
#     4  11  21  38  68  93 118 159 219 263 306 363
#     4  11  22  39  61  94 122 164 215 257 304 378
#
# _framework density 21.129163999999999
#
# number of rings (size 3 to 8) (size 9 to 14) (size 15 to 20)
#    0.000    1.429    4.286    1.714    0.000    1.143 
#    0.000    1.429    0.000    1.714    0.000    0.000 
#    0.000    0.000    0.000    0.000    0.000    0.000 
#
# Total GULP energy -347173.367616 kJ/mol
# GULP energy per Si atom -12399.048843 kJ/mol
# Density = 2.108107 g / cm^3
# Si number density = 21.129164 Si / 1000 Ang^3
#
#
#
# Elastic Constant Matrix: (Units=GPa)
#
#
# Indices 1 2 3 4 5 6 
#
# 1 73.4610 21.6247 39.1791 0.0000 -16.7864 0.0000
# 2 21.6247 53.7606 12.8320 0.0000 -8.7414 0.0000
# 3 39.1791 12.8320 127.8267 0.0000 -11.2172 0.0000
# 4 0.0000 0.0000 0.0000 30.8070 0.0000 5.0466
# 5 -16.7864 -8.7414 -11.2172 0.0000 23.4837 0.0000
# 6 0.0000 0.0000 0.0000 5.0466 0.0000 19.3370
#
#
#
# Elastic Compliance Matrix: (Units=1/GPa)
#
#
# Indices 1 2 3 4 5 6 
#
# 1 0.019978 -0.005275 -0.004710 0.000000 0.010067 0.000000
# 2 -0.005275 0.021435 -0.000173 0.000000 0.004126 0.000000
# 3 -0.004710 -0.000173 0.009376 0.000000 0.001047 0.000000
# 4 0.000000 0.000000 0.000000 0.033910 0.000000 -0.008850
# 5 0.010067 0.004126 0.001047 0.000000 0.051815 0.000000
# 6 0.000000 0.000000 0.000000 -0.008850 0.000000 0.054024
#
#
# Mechanical properties :
#
#
# Convention : Reuss Voigt Hill
#
# Bulk Modulus (GPa) = 32.81630 44.70224 38.75927
# Shear Modulus (GPa) = 22.62327 26.81969 24.72148
#
# Velocity S-wave (km/s) = 3.27573 3.56662 3.42426
# Velocity P-wave (km/s) = 5.46554 6.17767 5.83249
#
# Compressibility (1/GPa) = 0.03047266
#
# Stress axis : x y z
#
# Youngs Moduli (GPa) = 50.05518 46.65302 106.65434
#
# Poissons Ratio (x) = 0.24608 0.50238
# Poissons Ratio (y) = 0.26403 0.01845
# Poissons Ratio (z) = 0.23578 0.00807
#
# Static dielectric constant tensor:
#      x y z
#    x 3.545670 0.000000 0.021480 
#    y 0.000000 3.884680 0.000000 
#    z 0.021480 0.000000 4.080470 
# 
# 
# High freq. dielectric constant tensor:
#      x y z
#    x 1.799290 0.000000 0.001930 
#    y 0.000000 1.830550 0.000000 
#    z 0.001930 0.000000 1.841460 
# 
# From -- ./inp_files/242825.got.cif
#   From: 2010.06.25/outbox.cif.g09.slc.cpg/sg15_122_cif.got.tgz:242825.got - 2010.06.28 07:06:18.
