data_PCOD8138329
_publ_section_title
;
Structure prediction by ZEFSAII (Michael W. Deem and Ramdas Pophale) SiO2 
 PCOD8138329
Probable space group: C 2/C
;
_chemical_formula_sum "Si O2"
_cell_formula_units_Z 60
_cell_length_a 11.782992
_cell_length_b 29.647214
_cell_length_c 17.832791
_cell_angle_alpha 90.000000
_cell_angle_beta 150.215191
_cell_angle_gamma 90.000000
_cell_volume 3094.505846
_symmetry_space_group_name_H-M "C 2/C"
_symmetry_group_IT_number 15
_symmetry_cell_setting 'monoclinic'
loop_
_space_group_symop_operation_xyz
x,y,z
-x,y,1/2-z
-x,-y,-z
x,-y,1/2+z
1/2+x,1/2+y,z
1/2-x,1/2+y,1/2-z
1/2-x,1/2-y,-z
1/2+x,1/2-y,1/2+z
loop_
_atom_site_type_symbol
_atom_site_label
_atom_site_fract_x
_atom_site_fract_y
_atom_site_fract_z
Si Si1 0.892452 0.915240 0.891910
Si Si2 0.000000 0.531290 0.250000
Si Si3 0.652354 0.946015 0.403409
Si Si4 0.842547 0.704868 0.087955
Si Si5 0.050491 0.362991 0.432285
Si Si6 0.855227 0.204764 0.025180
Si Si7 0.597450 0.663679 0.598913
Si Si8 0.688745 0.160081 0.178194
O O1 0.712157 0.939347 0.843168
O O2 0.758833 0.888027 0.751683
O O3 0.074834 0.948355 0.956905
O O4 0.053585 0.882491 0.031209
O O5 0.923354 0.498888 0.135946
O O6 0.500000 0.922752 0.250000
O O7 0.588632 0.916939 0.441408
O O8 0.000000 0.714958 0.250000
O O9 0.973156 0.677652 0.099450
O O10 0.750000 0.750000 0.000000
O O11 0.630359 0.674297 0.987307
O O12 0.215709 0.339287 0.467948
O O13 0.122026 0.347918 0.555046
O O14 0.796878 0.344307 0.273070
O O15 0.113752 0.198121 0.202817
O O16 0.750000 0.250000 0.000000
O O17 0.849058 0.204307 0.930314
#
# Coordination Sequence:
#
# PCOD8138329 Si02
#       8
#     8   4   8   8   8   8   8   8
#     4  11  19  42  64  93 122 170 214 258 325 385
#     4  10  22  36  72  96 120 168 226 260 306 414
#     4  10  20  37  63 100 124 154 208 266 320 375
#     4  12  27  45  60  87 126 171 227 263 315 375
#     4  12  23  40  61  99 132 161 207 268 333 376
#     4  11  24  40  65  93 124 171 222 266 319 381
#     4  11  23  41  68  86 129 173 214 272 312 387
#     4  11  26  41  66  92 130 177 208 272 329 384
#
# _framework density 19.389202000000001
#
# number of rings (size 3 to 8) (size 9 to 14) (size 15 to 20)
#    0.400    0.533    6.667    2.000    5.600    1.067 
#    0.000    0.667    0.000    1.600    0.000    0.000 
#    0.000    0.000    0.000    0.000    0.000    0.000 
#
# Total GULP energy -371869.434628 kJ/mol
# GULP energy per Si atom -12395.647821 kJ/mol
# Density = 1.934507 g / cm^3
# Si number density = 19.389202 Si / 1000 Ang^3
#
#
#
# Elastic Constant Matrix: (Units=GPa)
#
#
# Indices 1 2 3 4 5 6 
#
# 1 86.0277 29.7328 52.2365 0.0017 22.4051 0.0029
# 2 29.7328 74.4225 24.2234 -0.0001 5.2787 -0.0003
# 3 52.2365 24.2234 108.1379 0.0017 6.4520 -0.0023
# 4 0.0017 -0.0001 0.0017 25.1254 0.0011 15.5139
# 5 22.4051 5.2787 6.4520 0.0011 32.8050 0.0010
# 6 0.0029 -0.0003 -0.0023 15.5139 0.0010 54.8929
#
#
#
# Elastic Compliance Matrix: (Units=1/GPa)
#
#
# Indices 1 2 3 4 5 6 
#
# 1 0.021882 -0.005028 -0.008703 0.000001 -0.012424 -0.000001
# 2 -0.005028 0.015745 -0.001165 0.000000 0.001130 0.000000
# 3 -0.008703 -0.001165 0.013505 -0.000001 0.003475 0.000001
# 4 0.000001 0.000000 -0.000001 0.048214 -0.000001 -0.013626
# 5 -0.012424 0.001130 0.003475 -0.000001 0.038103 0.000000
# 6 -0.000001 0.000000 0.000001 -0.013626 0.000000 0.022068
#
#
# Mechanical properties :
#
#
# Convention : Reuss Voigt Hill
#
# Bulk Modulus (GPa) = 46.86188 53.44150 50.15169
# Shear Modulus (GPa) = 25.45517 33.39102 29.42309
#
# Velocity S-wave (km/s) = 3.62726 4.15438 3.89974
# Velocity P-wave (km/s) = 6.46253 7.11577 6.79700
#
# Compressibility (1/GPa) = 0.02133930
#
# Stress axis : x y z
#
# Youngs Moduli (GPa) = 45.69934 63.51280 74.04670
#
# Poissons Ratio (x) = 0.31937 0.64440
# Poissons Ratio (y) = 0.22979 0.08629
# Poissons Ratio (z) = 0.39770 0.07401
#
# Static dielectric constant tensor:
#      x y z
#    x 3.314650 0.000000 0.278540 
#    y 0.000000 3.593970 0.000010 
#    z 0.278540 0.000010 3.596690 
# 
# 
# High freq. dielectric constant tensor:
#      x y z
#    x 1.752290 0.000000 0.021250 
#    y 0.000000 1.745970 0.000000 
#    z 0.021250 0.000000 1.762270 
# 
# From -- ./inp_files/201411.got.cif
#   From: 2010.06.25/outbox.cif.g09.slc.cpg/sg15_101_cif.got.tgz:201411.got - 2010.06.28 07:06:18.
