data_PCOD8138033
_publ_section_title
;
Structure prediction by ZEFSAII (Michael W. Deem and Ramdas Pophale) SiO2 
 PCOD8138033
Probable space group: C 2/C
;
_chemical_formula_sum "Si O2"
_cell_formula_units_Z 56
_cell_length_a 26.831547
_cell_length_b 12.959765
_cell_length_c 16.341029
_cell_angle_alpha 90.000000
_cell_angle_beta 152.901101
_cell_angle_gamma 90.000000
_cell_volume 2588.434188
_symmetry_space_group_name_H-M "C 2/C"
_symmetry_group_IT_number 15
_symmetry_cell_setting 'monoclinic'
loop_
_space_group_symop_operation_xyz
x,y,z
-x,y,1/2-z
-x,-y,-z
x,-y,1/2+z
1/2+x,1/2+y,z
1/2-x,1/2+y,1/2-z
1/2-x,1/2-y,-z
1/2+x,1/2-y,1/2+z
loop_
_atom_site_type_symbol
_atom_site_label
_atom_site_fract_x
_atom_site_fract_y
_atom_site_fract_z
Si Si1 0.308601 0.364355 0.898866
Si Si2 0.402094 0.451518 0.451407
Si Si3 0.287227 0.168326 0.768315
Si Si4 0.367034 0.489284 0.220514
Si Si5 0.176747 0.518219 0.815073
Si Si6 0.492304 0.077893 0.144798
Si Si7 0.628682 0.722853 0.848960
O O1 0.392404 0.451686 0.996864
O O2 0.287893 0.290884 0.788984
O O3 0.206210 0.423322 0.794791
O O4 0.371724 0.289862 0.053754
O O5 0.339900 0.355662 0.400093
O O6 0.339133 0.476917 0.274833
O O7 0.531928 0.428779 0.635712
O O8 0.317733 0.131430 0.720355
O O9 0.365295 0.093501 0.937076
O O10 0.412064 0.378964 0.256167
O O11 0.262996 0.523305 0.015999
O O12 0.055761 0.502516 0.677381
O O13 0.500000 0.040789 0.250000
O O14 0.547994 0.186863 0.207453
O O15 0.750000 0.750000 0.000000
#
# Coordination Sequence:
#
# PCOD8138033 Si02
#       7
#     8   8   8   8   8   8   8
#     4  10  20  38  57  88 118 149 195 247 299 356
#     4  10  22  36  58  88 115 156 198 248 299 359
#     4  11  22  36  55  87 123 158 194 239 303 361
#     4  10  20  37  57  85 121 150 197 250 300 352
#     4  10  23  38  59  88 120 157 198 250 296 361
#     4  12  21  33  58  90 122 150 190 245 311 356
#     4  11  19  34  61  91 115 144 190 255 315 349
#
# _framework density 21.634699999999999
#
# number of rings (size 3 to 8) (size 9 to 14) (size 15 to 20)
#    0.000    1.429    4.286    3.000    0.000    4.571 
#    0.000    0.714    0.000    0.000   11.143    0.000 
#    0.000    0.000    0.000    0.000    0.000    0.000 
#
# Total GULP energy -346884.281581 kJ/mol
# GULP energy per Si atom -12388.724342 kJ/mol
# Density = 2.158546 g / cm^3
# Si number density = 21.634700 Si / 1000 Ang^3
#
#
#
# Elastic Constant Matrix: (Units=GPa)
#
#
# Indices 1 2 3 4 5 6 
#
# 1 80.5322 3.9911 3.1368 0.0000 -2.9505 0.0000
# 2 3.9911 26.8766 1.4417 0.0000 1.6195 0.0000
# 3 3.1368 1.4417 54.4540 0.0000 0.9254 0.0000
# 4 0.0000 0.0000 0.0000 25.3088 0.0000 -10.2487
# 5 -2.9505 1.6195 0.9254 0.0000 35.8820 0.0000
# 6 0.0000 0.0000 0.0000 -10.2487 0.0000 25.6951
#
#
#
# Elastic Compliance Matrix: (Units=1/GPa)
#
#
# Indices 1 2 3 4 5 6 
#
# 1 0.012580 -0.001899 -0.000694 0.000000 0.001138 0.000000
# 2 -0.001899 0.037646 -0.000856 0.000000 -0.001833 0.000000
# 3 -0.000694 -0.000856 0.018435 0.000000 -0.000494 0.000000
# 4 0.000000 0.000000 0.000000 0.047123 0.000000 0.018796
# 5 0.001138 -0.001833 -0.000494 0.000000 0.028058 0.000000
# 6 0.000000 0.000000 0.000000 0.018796 0.000000 0.046415
#
#
# Mechanical properties :
#
#
# Convention : Reuss Voigt Hill
#
# Bulk Modulus (GPa) = 16.19110 19.88909 18.04010
# Shear Modulus (GPa) = 22.96284 27.59672 25.27978
#
# Velocity S-wave (km/s) = 3.26143 3.57540 3.42202
# Velocity P-wave (km/s) = 4.65647 5.12423 4.89594
#
# Compressibility (1/GPa) = 0.06176231
#
# Stress axis : x y z
#
# Youngs Moduli (GPa) = 79.48965 26.56359 54.24422
#
# Poissons Ratio (x) = 0.05046 0.03763
# Poissons Ratio (y) = 0.15099 0.04644
# Poissons Ratio (z) = 0.05514 0.02274
#
# Static dielectric constant tensor:
#      x y z
#    x 4.231370 0.000000 0.063220 
#    y 0.000000 3.100850 0.000000 
#    z 0.063220 0.000000 4.439860 
# 
# 
# High freq. dielectric constant tensor:
#      x y z
#    x 1.867640 0.000000 0.005630 
#    y 0.000000 1.812250 0.000000 
#    z 0.005630 0.000000 1.839780 
# 
# From -- ./inp_files/178400.got.cif
#   From: 2010.06.25/outbox.cif.g09.slc.cpg/sg15_90_cif.got.tgz:178400.got - 2010.06.28 07:06:18.
