data_PCOD8138326
_publ_section_title
;
Structure prediction by ZEFSAII (Michael W. Deem and Ramdas Pophale) SiO2 
 PCOD8138326
Probable space group: C 2/C
;
_chemical_formula_sum "Si O2"
_cell_formula_units_Z 60
_cell_length_a 21.949917
_cell_length_b 18.491538
_cell_length_c 13.071421
_cell_angle_alpha 90.000000
_cell_angle_beta 146.902612
_cell_angle_gamma 90.000000
_cell_volume 2897.157347
_symmetry_space_group_name_H-M "C 2/C"
_symmetry_group_IT_number 15
_symmetry_cell_setting 'monoclinic'
loop_
_space_group_symop_operation_xyz
x,y,z
-x,y,1/2-z
-x,-y,-z
x,-y,1/2+z
1/2+x,1/2+y,z
1/2-x,1/2+y,1/2-z
1/2-x,1/2-y,-z
1/2+x,1/2-y,1/2+z
loop_
_atom_site_type_symbol
_atom_site_label
_atom_site_fract_x
_atom_site_fract_y
_atom_site_fract_z
Si Si1 0.698309 0.709822 0.334044
Si Si2 0.596527 0.160569 0.454441
Si Si3 0.500000 0.905635 0.250000
Si Si4 0.310665 0.265309 0.302501
Si Si5 0.986604 0.680172 0.945721
Si Si6 0.372014 0.561319 0.184390
Si Si7 0.201649 0.484994 0.062281
Si Si8 0.124697 0.075662 0.547078
O O1 0.750000 0.750000 0.500000
O O2 0.791229 0.722209 0.379441
O O3 0.579327 0.744990 0.146571
O O4 0.678098 0.625062 0.317011
O O5 0.500000 0.195078 0.250000
O O6 0.691423 0.221943 0.582162
O O7 0.560200 0.137178 0.520199
O O8 0.635979 0.088835 0.451685
O O9 0.527520 0.860419 0.184149
O O10 0.609235 0.951779 0.434251
O O11 0.388713 0.208436 0.352336
O O12 0.367491 0.343643 0.397241
O O13 0.292077 0.493622 0.097980
O O14 0.500812 0.543996 0.393693
O O15 0.355544 0.583195 0.044938
O O16 0.279127 0.477577 0.273616
#
# Coordination Sequence:
#
# PCOD8138326 Si02
#       8
#     8   8   4   8   8   8   8   8
#     4  11  19  32  57  95 134 154 201 263 338 394
#     4  10  24  44  63  89 130 183 218 263 316 390
#     4  12  26  38  66 102 132 176 210 282 334 380
#     4  10  20  37  62  96 129 163 206 271 333 388
#     4  11  23  39  65  99 129 162 215 275 337 387
#     4  11  21  37  64  91 126 175 212 276 321 380
#     4  11  24  41  56  91 131 175 225 251 314 395
#     4  10  22  38  62  91 127 175 211 268 331 385
#
# _framework density 20.709955999999998
#
# number of rings (size 3 to 8) (size 9 to 14) (size 15 to 20)
#    0.000    1.333    3.333    2.800    3.733    2.133 
#    0.000    0.000    0.000    1.600    0.000    0.000 
#    0.000    0.000    0.000    0.000    0.000    0.000 
#
# Total GULP energy -371667.294359 kJ/mol
# GULP energy per Si atom -12388.909812 kJ/mol
# Density = 2.066282 g / cm^3
# Si number density = 20.709956 Si / 1000 Ang^3
#
#
#
# Elastic Constant Matrix: (Units=GPa)
#
#
# Indices 1 2 3 4 5 6 
#
# 1 76.0348 40.5417 28.0545 0.0000 22.9453 0.0000
# 2 40.5417 71.0721 26.5761 0.0000 8.0689 0.0000
# 3 28.0545 26.5761 114.2841 0.0000 17.1084 0.0000
# 4 0.0000 0.0000 0.0000 33.9302 0.0000 6.6013
# 5 22.9453 8.0689 17.1084 0.0000 31.0169 0.0000
# 6 0.0000 0.0000 0.0000 6.6013 0.0000 33.5059
#
#
#
# Elastic Compliance Matrix: (Units=1/GPa)
#
#
# Indices 1 2 3 4 5 6 
#
# 1 0.024072 -0.011726 -0.001061 0.000000 -0.014172 0.000000
# 2 -0.011726 0.021263 -0.002765 0.000000 0.004668 0.000000
# 3 -0.001061 -0.002765 0.010277 0.000000 -0.004164 0.000000
# 4 0.000000 0.000000 0.000000 0.030647 0.000000 -0.006038
# 5 -0.014172 0.004668 -0.004164 0.000000 0.043807 0.000000
# 6 0.000000 0.000000 0.000000 -0.006038 0.000000 0.031035
#
#
# Mechanical properties :
#
#
# Convention : Reuss Voigt Hill
#
# Bulk Modulus (GPa) = 40.80159 50.19286 45.49722
# Shear Modulus (GPa) = 24.95324 30.77186 27.86255
#
# Velocity S-wave (km/s) = 3.47492 3.85885 3.67191
# Velocity P-wave (km/s) = 5.98701 6.64402 6.32405
#
# Compressibility (1/GPa) = 0.02450885
#
# Stress axis : x y z
#
# Youngs Moduli (GPa) = 41.54131 47.03015 97.30516
#
# Poissons Ratio (x) = 0.55147 0.10323
# Poissons Ratio (y) = 0.48711 0.26904
# Poissons Ratio (z) = 0.04407 0.13003
#
# Static dielectric constant tensor:
#      x y z
#    x 3.861790 0.000000 0.249690 
#    y 0.000000 3.448370 0.000000 
#    z 0.249690 0.000000 3.855320 
# 
# 
# High freq. dielectric constant tensor:
#      x y z
#    x 1.816090 0.000000 0.026950 
#    y 0.000000 1.789240 0.000000 
#    z 0.026950 0.000000 1.818910 
# 
# From -- ./inp_files/113825.got.cif
#   From: 2010.06.25/outbox.cif.g09.slc.cpg/sg15_57_cif.got.tgz:113825.got - 2010.06.28 07:06:18.
