data_PCOD8138167
_publ_section_title
;
Structure prediction by ZEFSAII (Michael W. Deem and Ramdas Pophale) SiO2 
 PCOD8138167
Probable space group: C 2/C
;
_chemical_formula_sum "Si O2"
_cell_formula_units_Z 64
_cell_length_a 8.795601
_cell_length_b 24.262981
_cell_length_c 14.767483
_cell_angle_alpha 90.000000
_cell_angle_beta 94.196870
_cell_angle_gamma 90.000000
_cell_volume 3143.040829
_symmetry_space_group_name_H-M "C 2/C"
_symmetry_group_IT_number 15
_symmetry_cell_setting 'monoclinic'
loop_
_space_group_symop_operation_xyz
x,y,z
-x,y,1/2-z
-x,-y,-z
x,-y,1/2+z
1/2+x,1/2+y,z
1/2-x,1/2+y,1/2-z
1/2-x,1/2-y,-z
1/2+x,1/2-y,1/2+z
loop_
_atom_site_type_symbol
_atom_site_label
_atom_site_fract_x
_atom_site_fract_y
_atom_site_fract_z
Si Si1 0.353250 0.029967 0.528083
Si Si2 0.714210 0.336096 0.442346
Si Si3 0.487041 0.872981 0.142134
Si Si4 0.608495 0.222556 0.394543
Si Si5 0.181660 0.692257 0.011303
Si Si6 0.334643 0.127945 0.219107
Si Si7 0.650841 0.570957 0.063681
Si Si8 0.669545 0.599945 0.389247
O O1 0.408470 0.068168 0.614447
O O2 0.303856 0.064248 0.438496
O O3 0.500000 0.000000 0.500000
O O4 0.208790 0.990918 0.545739
O O5 0.613061 0.289821 0.383486
O O6 0.771887 0.298942 0.526996
O O7 0.620533 0.389590 0.474658
O O8 0.842498 0.364782 0.386852
O O9 0.500000 0.865207 0.250000
O O10 0.383758 0.827138 0.088473
O O11 0.445138 0.197039 0.415508
O O12 0.653887 0.194009 0.300434
O O13 0.250000 0.750000 0.000000
O O14 0.324206 0.656219 0.052804
O O15 0.500000 0.103505 0.250000
O O16 0.288027 0.097786 0.125071
O O17 0.206861 0.113535 0.287152
O O18 0.492850 0.569220 0.112290
#
# Coordination Sequence:
#
# PCOD8138167 Si02
#       8
#     8   8   8   8   8   8   8   8
#     4  11  22  41  66  87 118 168 216 258 328 391
#     4   9  18  36  59  84 117 157 207 252 310 376
#     4  10  22  39  59  90 121 160 214 265 315 390
#     4   9  18  34  58  85 118 165 203 250 307 377
#     4  10  20  37  60  87 127 170 211 253 320 391
#     4  11  21  38  60  92 128 163 207 262 317 385
#     4  11  22  39  63  90 124 164 210 270 323 376
#     4  11  23  38  60  95 126 158 214 269 319 385
#
# _framework density 20.362448000000001
#
# number of rings (size 3 to 8) (size 9 to 14) (size 15 to 20)
#    0.000    1.750    2.500    2.250    0.000    3.500 
#    0.000    0.000    0.000    0.000    0.000    0.000 
#    0.000    0.000    0.000    0.000    0.000    0.000 
#
# Total GULP energy -396483.907684 kJ/mol
# GULP energy per Si atom -12390.122115 kJ/mol
# Density = 2.031610 g / cm^3
# Si number density = 20.362448 Si / 1000 Ang^3
#
#
#
# Elastic Constant Matrix: (Units=GPa)
#
#
# Indices 1 2 3 4 5 6 
#
# 1 79.9129 29.5027 20.3063 0.0000 -13.0077 0.0000
# 2 29.5027 123.9868 39.4387 0.0000 -12.0833 0.0000
# 3 20.3063 39.4387 96.6706 0.0000 -16.0237 0.0000
# 4 0.0000 0.0000 0.0000 17.0866 0.0000 -4.4972
# 5 -13.0077 -12.0833 -16.0237 0.0000 27.5255 0.0000
# 6 0.0000 0.0000 0.0000 -4.4972 0.0000 40.5417
#
#
#
# Elastic Compliance Matrix: (Units=1/GPa)
#
#
# Indices 1 2 3 4 5 6 
#
# 1 0.014598 -0.002610 -0.001160 0.000000 0.005078 0.000000
# 2 -0.002610 0.009842 -0.003271 0.000000 0.001183 0.000000
# 3 -0.001160 -0.003271 0.012832 0.000000 0.005486 0.000000
# 4 0.000000 0.000000 0.000000 0.060286 0.000000 0.006687
# 5 0.005078 0.001183 0.005486 0.000000 0.042442 0.000000
# 6 0.000000 0.000000 0.000000 0.006687 0.000000 0.025408
#
#
# Mechanical properties :
#
#
# Convention : Reuss Voigt Hill
#
# Bulk Modulus (GPa) = 43.12095 53.22953 48.17524
# Shear Modulus (GPa) = 26.70653 31.11894 28.91274
#
# Velocity S-wave (km/s) = 3.62547 3.91353 3.77225
# Velocity P-wave (km/s) = 6.22480 6.82779 6.53325
#
# Compressibility (1/GPa) = 0.02319058
#
# Stress axis : x y z
#
# Youngs Moduli (GPa) = 68.50045 101.60393 77.93109
#
# Poissons Ratio (x) = 0.26517 0.09041
# Poissons Ratio (y) = 0.17877 0.25491
# Poissons Ratio (z) = 0.07947 0.33235
#
# Static dielectric constant tensor:
#      x y z
#    x 3.262360 0.000000 0.151140 
#    y 0.000000 3.906360 0.000000 
#    z 0.151140 0.000000 3.535770 
# 
# 
# High freq. dielectric constant tensor:
#      x y z
#    x 1.793600 0.000000 -0.000940 
#    y 0.000000 1.799890 0.000000 
#    z -0.000940 0.000000 1.778860 
# 
# From -- ./inp_files/137835.got.cif
#   From: 2010.06.25/outbox.cif.g09.slc.cpg/sg15_69_cif.got.tgz:137835.got - 2010.06.28 07:06:18.
