data_PCOD8138149
_publ_section_title
;
Structure prediction by ZEFSAII (Michael W. Deem and Ramdas Pophale) SiO2 
 PCOD8138149
Probable space group: C 2/C
;
_chemical_formula_sum "Si O2"
_cell_formula_units_Z 56
_cell_length_a 8.576641
_cell_length_b 26.882887
_cell_length_c 18.303825
_cell_angle_alpha 90.000000
_cell_angle_beta 41.875621
_cell_angle_gamma 90.000000
_cell_volume 2817.062873
_symmetry_space_group_name_H-M "C 2/C"
_symmetry_group_IT_number 15
_symmetry_cell_setting 'monoclinic'
loop_
_space_group_symop_operation_xyz
x,y,z
-x,y,1/2-z
-x,-y,-z
x,-y,1/2+z
1/2+x,1/2+y,z
1/2-x,1/2+y,1/2-z
1/2-x,1/2-y,-z
1/2+x,1/2-y,1/2+z
loop_
_atom_site_type_symbol
_atom_site_label
_atom_site_fract_x
_atom_site_fract_y
_atom_site_fract_z
Si Si1 0.597197 0.678137 0.545503
Si Si2 0.345965 0.578631 0.444390
Si Si3 0.236665 0.088363 0.863122
Si Si4 0.681328 0.129579 0.251922
Si Si5 0.563528 0.528665 0.644106
Si Si6 0.495907 0.769532 0.831229
Si Si7 0.454913 0.103348 0.476390
O O1 0.407375 0.639594 0.583081
O O2 0.460598 0.723579 0.630660
O O3 0.780247 0.650848 0.536632
O O4 0.746208 0.702307 0.428101
O O5 0.279528 0.564410 0.550632
O O6 0.567410 0.614423 0.364451
O O7 0.407791 0.529729 0.377171
O O8 0.132672 0.608537 0.481752
O O9 0.500000 0.101216 0.750000
O O10 0.138647 0.049648 0.838134
O O11 0.500000 0.120841 0.250000
O O12 0.693180 0.187852 0.271534
O O13 0.597236 0.097537 0.350968
O O14 0.500000 0.540511 0.750000
O O15 0.809115 0.553128 0.537645
O O16 0.500000 0.745859 0.750000
#
# Coordination Sequence:
#
# PCOD8138149 Si02
#       7
#     8   8   8   8   8   8   8
#     4   9  20  38  58  84 114 149 192 235 284 343
#     4  12  23  38  60  87 117 151 194 239 285 338
#     4  11  24  40  58  84 118 153 192 238 288 343
#     4  10  20  37  60  86 117 152 192 239 286 338
#     4  11  23  40  59  83 116 155 195 235 285 341
#     4   9  17  34  61  84 109 150 192 232 286 340
#     4  10  21  37  58  85 117 152 192 238 287 339
#
# _framework density 19.87886
#
# number of rings (size 3 to 8) (size 9 to 14) (size 15 to 20)
#    0.000    1.714    0.000    6.429    0.000    5.143 
#    0.000    4.286    0.000   12.857    0.000    0.000 
#    0.000    0.000    0.000    0.000    0.000    0.000 
#
# Total GULP energy -347196.064735 kJ/mol
# GULP energy per Si atom -12399.859455 kJ/mol
# Density = 1.983362 g / cm^3
# Si number density = 19.878860 Si / 1000 Ang^3
#
#
#
# Elastic Constant Matrix: (Units=GPa)
#
#
# Indices 1 2 3 4 5 6 
#
# 1 126.1909 25.4247 42.6703 0.0000 2.5901 0.0000
# 2 25.4247 78.5501 28.6753 0.0000 -1.7292 0.0000
# 3 42.6703 28.6753 99.4514 -0.0001 11.4028 -0.0001
# 4 0.0000 0.0000 -0.0001 30.7484 0.0001 4.2256
# 5 2.5901 -1.7292 11.4028 0.0001 43.0380 0.0000
# 6 0.0000 0.0000 -0.0001 4.2256 0.0000 14.5558
#
#
#
# Elastic Compliance Matrix: (Units=1/GPa)
#
#
# Indices 1 2 3 4 5 6 
#
# 1 0.009489 -0.001749 -0.003603 0.000000 0.000313 0.000000
# 2 -0.001749 0.014674 -0.003672 0.000000 0.001668 0.000000
# 3 -0.003603 -0.003672 0.013048 0.000000 -0.003388 0.000000
# 4 0.000000 0.000000 0.000000 0.033873 0.000000 -0.009833
# 5 0.000313 0.001668 -0.003388 0.000000 0.024181 0.000000
# 6 0.000000 0.000000 0.000000 -0.009833 0.000000 0.071556
#
#
# Mechanical properties :
#
#
# Convention : Reuss Voigt Hill
#
# Bulk Modulus (GPa) = 52.18265 55.30367 53.74316
# Shear Modulus (GPa) = 26.14297 31.49659 28.81978
#
# Velocity S-wave (km/s) = 3.63038 3.98480 3.81172
# Velocity P-wave (km/s) = 6.62422 7.00373 6.81662
#
# Compressibility (1/GPa) = 0.01916346
#
# Stress axis : x y z
#
# Youngs Moduli (GPa) = 105.38813 68.14773 76.63961
#
# Poissons Ratio (x) = 0.11920 0.27612
# Poissons Ratio (y) = 0.18434 0.28140
# Poissons Ratio (z) = 0.37969 0.25022
#
# Static dielectric constant tensor:
#      x y z
#    x 3.580140 0.000000 0.061230 
#    y 0.000000 3.573310 0.000000 
#    z 0.061230 0.000000 3.806800 
# 
# 
# High freq. dielectric constant tensor:
#      x y z
#    x 1.762470 0.000000 0.008220 
#    y 0.000000 1.772180 0.000000 
#    z 0.008220 0.000000 1.792200 
# 
# From -- ./inp_files/81397.got.cif
#   From: 2010.06.25/outbox.cif.g09.slc.cpg/sg15_41_cif.got.tgz:81397.got - 2010.06.28 07:06:18.
