data_PCOD8138884
_publ_section_title
;
Structure prediction by ZEFSAII (Michael W. Deem and Ramdas Pophale) SiO2 
 PCOD8138884
Probable space group: C 2/C
;
_chemical_formula_sum "Si O2"
_cell_formula_units_Z 44
_cell_length_a 10.484216
_cell_length_b 22.111503
_cell_length_c 12.410401
_cell_angle_alpha 90.000000
_cell_angle_beta 48.690848
_cell_angle_gamma 90.000000
_cell_volume 2161.084459
_symmetry_space_group_name_H-M "C 2/C"
_symmetry_group_IT_number 15
_symmetry_cell_setting 'monoclinic'
loop_
_space_group_symop_operation_xyz
x,y,z
-x,y,1/2-z
-x,-y,-z
x,-y,1/2+z
1/2+x,1/2+y,z
1/2-x,1/2+y,1/2-z
1/2-x,1/2-y,-z
1/2+x,1/2-y,1/2+z
loop_
_atom_site_type_symbol
_atom_site_label
_atom_site_fract_x
_atom_site_fract_y
_atom_site_fract_z
Si Si1 0.611313 0.338569 0.086965
Si Si2 0.174102 0.395950 0.845629
Si Si3 0.023641 0.291679 0.609821
Si Si4 0.841742 0.574142 0.901080
Si Si5 0.977635 0.929993 0.541035
Si Si6 0.000000 0.540500 0.250000
O O1 0.500000 0.359323 0.250000
O O2 0.532242 0.279047 0.072590
O O3 0.801188 0.324502 0.021858
O O4 0.614915 0.394513 0.003310
O O5 0.363746 0.417838 0.710902
O O6 0.136889 0.323399 0.861293
O O7 0.041626 0.420460 0.831158
O O8 0.129084 0.419920 0.988219
O O9 0.000000 0.296078 0.750000
O O10 0.840855 0.502661 0.870271
O O11 0.000000 0.606469 0.750000
O O12 0.661044 0.600266 0.963593
O O13 0.000000 0.000000 0.500000
#
# Coordination Sequence:
#
# PCOD8138884 Si02
#       6
#     8   8   8   8   8   4
#     4  10  23  38  67  99 129 164 221 280 320 378
#     4  12  21  41  67  88 131 173 215 267 326 389
#     4  10  20  41  66  97 124 166 220 275 329 379
#     4  10  25  39  56  93 131 171 211 265 321 401
#     4  12  23  42  60  95 131 171 220 258 328 395
#     4  10  20  38  62  90 124 168 216 254 328 372
#
# _framework density 20.360149
#
# number of rings (size 3 to 8) (size 9 to 14) (size 15 to 20)
#    0.545    0.727    4.545    1.091    2.545    1.455 
#    0.000    0.909    0.000    0.000    0.000    0.000 
#    0.000    0.000    0.000    0.000    0.000    0.000 
#
# Total GULP energy -272688.746244 kJ/mol
# GULP energy per Si atom -12394.943011 kJ/mol
# Density = 2.031381 g / cm^3
# Si number density = 20.360149 Si / 1000 Ang^3
#
#
#
# Elastic Constant Matrix: (Units=GPa)
#
#
# Indices 1 2 3 4 5 6 
#
# 1 68.6496 9.9274 31.1258 0.0000 -5.0831 0.0000
# 2 9.9274 95.7923 25.3709 0.0000 4.3895 0.0000
# 3 31.1258 25.3709 149.0844 0.0000 -3.1541 0.0000
# 4 0.0000 0.0000 0.0000 23.1220 0.0000 -8.0134
# 5 -5.0831 4.3895 -3.1541 0.0000 41.4475 0.0000
# 6 0.0000 0.0000 0.0000 -8.0134 0.0000 22.6947
#
#
#
# Elastic Compliance Matrix: (Units=1/GPa)
#
#
# Indices 1 2 3 4 5 6 
#
# 1 0.016291 -0.000924 -0.003205 0.000000 0.001852 0.000000
# 2 -0.000924 0.011055 -0.001718 0.000000 -0.001415 0.000000
# 3 -0.003205 -0.001718 0.007677 0.000000 0.000373 0.000000
# 4 0.000000 0.000000 0.000000 0.049279 0.000000 0.017400
# 5 0.001852 -0.001415 0.000373 0.000000 0.024532 0.000000
# 6 0.000000 0.000000 0.000000 0.017400 0.000000 0.050207
#
#
# Mechanical properties :
#
#
# Convention : Reuss Voigt Hill
#
# Bulk Modulus (GPa) = 42.86706 49.59717 46.23211
# Shear Modulus (GPa) = 28.00937 33.92633 30.96785
#
# Velocity S-wave (km/s) = 3.71306 4.08647 3.90423
# Velocity P-wave (km/s) = 6.28351 6.83217 6.56358
#
# Compressibility (1/GPa) = 0.02332794
#
# Stress axis : x y z
#
# Youngs Moduli (GPa) = 61.38539 90.45707 130.25946
#
# Poissons Ratio (x) = 0.08361 0.41744
# Poissons Ratio (y) = 0.05674 0.22382
# Poissons Ratio (z) = 0.19672 0.15543
#
# Static dielectric constant tensor:
#      x y z
#    x 3.492200 0.000000 -0.323260 
#    y 0.000000 3.826850 0.000000 
#    z -0.323260 0.000000 3.882100 
# 
# 
# High freq. dielectric constant tensor:
#      x y z
#    x 1.772600 0.000000 -0.021180 
#    y 0.000000 1.784890 0.000000 
#    z -0.021180 0.000000 1.809400 
# 
# From -- ./inp_files/79707.got.cif
#   From: 2010.06.25/outbox.cif.g09.slc.cpg/sg15_40_cif.got.tgz:79707.got - 2010.06.28 07:06:18.
