data_PCOD8138319
_publ_section_title
;
Structure prediction by ZEFSAII (Michael W. Deem and Ramdas Pophale) SiO2 
 PCOD8138319
Probable space group: C 2/C
;
_chemical_formula_sum "Si O2"
_cell_formula_units_Z 64
_cell_length_a 6.615328
_cell_length_b 20.267571
_cell_length_c 24.626850
_cell_angle_alpha 90.000000
_cell_angle_beta 113.307323
_cell_angle_gamma 90.000000
_cell_volume 3032.437428
_symmetry_space_group_name_H-M "C 2/C"
_symmetry_group_IT_number 15
_symmetry_cell_setting 'monoclinic'
loop_
_space_group_symop_operation_xyz
x,y,z
-x,y,1/2-z
-x,-y,-z
x,-y,1/2+z
1/2+x,1/2+y,z
1/2-x,1/2+y,1/2-z
1/2-x,1/2-y,-z
1/2+x,1/2-y,1/2+z
loop_
_atom_site_type_symbol
_atom_site_label
_atom_site_fract_x
_atom_site_fract_y
_atom_site_fract_z
Si Si1 0.475797 0.981726 0.559349
Si Si2 0.329839 0.821328 0.183579
Si Si3 0.084384 0.064082 0.346654
Si Si4 0.146289 0.681919 0.139430
Si Si5 0.976448 0.380499 0.400832
Si Si6 0.694357 0.616109 0.090626
Si Si7 0.263371 0.820459 0.976928
Si Si8 0.515437 0.416489 0.312828
O O1 0.705653 0.945003 0.592403
O O2 0.272320 0.934580 0.552241
O O3 0.500000 0.000000 0.500000
O O4 0.442397 0.043909 0.596161
O O5 0.500000 0.814507 0.250000
O O6 0.191145 0.753724 0.169430
O O7 0.437275 0.830839 0.135946
O O8 0.195419 0.888785 0.178410
O O9 0.171484 0.127009 0.319326
O O10 0.871300 0.081142 0.359818
O O11 0.027613 0.996374 0.309600
O O12 0.895253 0.664356 0.128650
O O13 0.159778 0.684497 0.076185
O O14 0.051608 0.359214 0.468960
O O15 0.713716 0.383522 0.367273
O O16 0.482457 0.650989 0.042718
O O17 0.250000 0.750000 0.000000
O O18 0.500000 0.389382 0.250000
#
# Coordination Sequence:
#
# PCOD8138319 Si02
#       8
#     8   8   8   8   8   8   8   8
#     4  10  20  37  62  94 130 163 206 257 319 386
#     4  12  25  42  66  94 128 172 221 270 330 385
#     4   9  21  40  63  90 123 165 211 265 315 381
#     4  10  23  42  65  97 132 173 217 269 324 399
#     4  11  23  41  63  95 132 164 215 267 327 390
#     4  10  21  39  63  93 131 167 213 259 327 386
#     4  11  23  39  62  94 134 172 211 266 322 395
#     4  11  24  43  68  91 126 171 218 272 330 388
#
# _framework density 21.105135000000001
#
# number of rings (size 3 to 8) (size 9 to 14) (size 15 to 20)
#    0.000    1.500    2.500    3.000    1.750    6.000 
#    0.000    0.000    0.000    0.000    0.000    0.000 
#    0.000    0.000    0.000    0.000    0.000    0.000 
#
# Total GULP energy -396526.799436 kJ/mol
# GULP energy per Si atom -12391.462482 kJ/mol
# Density = 2.105710 g / cm^3
# Si number density = 21.105135 Si / 1000 Ang^3
#
#
#
# Elastic Constant Matrix: (Units=GPa)
#
#
# Indices 1 2 3 4 5 6 
#
# 1 108.3228 36.6952 44.3416 0.0000 8.7032 0.0000
# 2 36.6952 107.9608 24.8902 0.0000 15.4740 0.0000
# 3 44.3416 24.8902 81.6484 0.0000 19.3849 0.0000
# 4 0.0000 0.0000 0.0000 29.1814 0.0000 5.2316
# 5 8.7032 15.4740 19.3849 0.0000 23.0820 0.0000
# 6 0.0000 0.0000 0.0000 5.2316 0.0000 35.6703
#
#
#
# Elastic Compliance Matrix: (Units=1/GPa)
#
#
# Indices 1 2 3 4 5 6 
#
# 1 0.012826 -0.003242 -0.006676 0.000000 0.002944 0.000000
# 2 -0.003242 0.011299 -0.000219 0.000000 -0.006168 0.000000
# 3 -0.006676 -0.000219 0.019120 0.000000 -0.013393 0.000000
# 4 0.000000 0.000000 0.000000 0.035194 0.000000 -0.005162
# 5 0.002944 -0.006168 -0.013393 0.000000 0.057597 0.000000
# 6 0.000000 0.000000 0.000000 -0.005162 0.000000 0.028792
#
#
# Mechanical properties :
#
#
# Convention : Reuss Voigt Hill
#
# Bulk Modulus (GPa) = 43.53528 56.64289 50.08909
# Shear Modulus (GPa) = 25.93885 30.38707 28.16296
#
# Velocity S-wave (km/s) = 3.50956 3.79858 3.65692
# Velocity P-wave (km/s) = 6.09059 6.79232 6.45100
#
# Compressibility (1/GPa) = 0.02296988
#
# Stress axis : x y z
#
# Youngs Moduli (GPa) = 77.96377 88.50083 52.30082
#
# Poissons Ratio (x) = 0.28696 0.34918
# Poissons Ratio (y) = 0.25279 0.01146
# Poissons Ratio (z) = 0.52052 0.01940
#
# Static dielectric constant tensor:
#      x y z
#    x 3.569840 0.000000 -0.002550 
#    y 0.000000 2.492690 0.000000 
#    z -0.002550 0.000000 3.421080 
# 
# 
# High freq. dielectric constant tensor:
#      x y z
#    x 1.823600 0.000000 0.007340 
#    y 0.000000 1.849620 0.000000 
#    z 0.007340 0.000000 1.814090 
# 
# From -- ./inp_files/261826.got.cif
#   From: 2010.06.25/outbox.cif.g09.slc.cpg/sg15_131_cif.got.tgz:261826.got - 2010.06.28 07:06:18.
