data_PCOD8138123
_publ_section_title
;
Structure prediction by ZEFSAII (Michael W. Deem and Ramdas Pophale) SiO2 
 PCOD8138123
Probable space group: C 2/C
;
_chemical_formula_sum "Si O2"
_cell_formula_units_Z 60
_cell_length_a 11.357648
_cell_length_b 13.763534
_cell_length_c 18.615324
_cell_angle_alpha 90.000000
_cell_angle_beta 90.051171
_cell_angle_gamma 90.000000
_cell_volume 2909.971872
_symmetry_space_group_name_H-M "C 2/C"
_symmetry_group_IT_number 15
_symmetry_cell_setting 'monoclinic'
loop_
_space_group_symop_operation_xyz
x,y,z
-x,y,1/2-z
-x,-y,-z
x,-y,1/2+z
1/2+x,1/2+y,z
1/2-x,1/2+y,1/2-z
1/2-x,1/2-y,-z
1/2+x,1/2-y,1/2+z
loop_
_atom_site_type_symbol
_atom_site_label
_atom_site_fract_x
_atom_site_fract_y
_atom_site_fract_z
Si Si1 0.807106 0.852876 0.513111
Si Si2 0.759196 0.476777 0.588224
Si Si3 0.772847 0.357127 0.449429
Si Si4 0.378324 0.521419 0.775710
Si Si5 0.451339 0.733126 0.519286
Si Si6 0.283503 0.036736 0.354026
Si Si7 0.022543 0.370064 0.860776
Si Si8 0.500000 0.711010 0.750000
O O1 0.750000 0.750000 0.500000
O O2 0.743619 0.922103 0.455106
O O3 0.790015 0.891428 0.594240
O O4 0.948790 0.844004 0.503131
O O5 0.743571 0.390984 0.531236
O O6 0.654632 0.479622 0.646410
O O7 0.880489 0.455484 0.631440
O O8 0.644542 0.316169 0.425999
O O9 0.876560 0.276370 0.451644
O O10 0.816799 0.440251 0.397472
O O11 0.500000 0.471803 0.750000
O O12 0.281750 0.491912 0.717984
O O13 0.396317 0.639513 0.780606
O O14 0.508675 0.824922 0.560932
O O15 0.404590 0.084250 0.328110
O O16 0.059059 0.279978 0.810061
#
# Coordination Sequence:
#
# PCOD8138123 Si02
#       8
#     8   8   8   8   8   8   8   4
#     4  11  23  36  65  93 129 160 207 257 304 364
#     4  10  23  39  60  91 123 165 201 256 310 363
#     4   9  22  37  62  90 123 160 204 255 307 369
#     4  10  24  40  62  87 121 155 210 254 313 370
#     4  10  20  37  59  90 122 158 201 247 308 362
#     4  11  23  38  62  92 120 164 205 257 309 365
#     4  11  21  38  63  87 124 161 209 246 311 376
#     4  10  22  38  64  84 114 166 204 256 298 384
#
# _framework density 20.618755
#
# number of rings (size 3 to 8) (size 9 to 14) (size 15 to 20)
#    0.400    1.333    1.333    2.400    5.600    2.667 
#    0.000    0.000    0.000    0.000    0.000    0.000 
#    0.000    0.000    0.000    0.000    0.000    0.000 
#
# Total GULP energy -371760.573110 kJ/mol
# GULP energy per Si atom -12392.019104 kJ/mol
# Density = 2.057183 g / cm^3
# Si number density = 20.618755 Si / 1000 Ang^3
#
#
#
# Elastic Constant Matrix: (Units=GPa)
#
#
# Indices 1 2 3 4 5 6 
#
# 1 103.2710 32.6566 16.9162 0.0000 11.1712 0.0000
# 2 32.6566 87.4304 17.6365 0.0000 10.0668 0.0000
# 3 16.9162 17.6365 76.3118 0.0000 2.8749 0.0000
# 4 0.0000 0.0000 0.0000 27.5894 0.0000 4.6251
# 5 11.1712 10.0668 2.8749 0.0000 28.0792 0.0000
# 6 0.0000 0.0000 0.0000 4.6251 0.0000 40.8359
#
#
#
# Elastic Compliance Matrix: (Units=1/GPa)
#
#
# Indices 1 2 3 4 5 6 
#
# 1 0.011411 -0.003587 -0.001584 0.000000 -0.003092 0.000000
# 2 -0.003587 0.013597 -0.002226 0.000000 -0.003220 0.000000
# 3 -0.001584 -0.002226 0.013970 0.000000 -0.000002 0.000000
# 4 0.000000 0.000000 0.000000 0.036947 0.000000 -0.004185
# 5 -0.003092 -0.003220 -0.000002 0.000000 0.037998 0.000000
# 6 0.000000 0.000000 0.000000 -0.004185 0.000000 0.024962
#
#
# Mechanical properties :
#
#
# Convention : Reuss Voigt Hill
#
# Bulk Modulus (GPa) = 41.34895 44.60353 42.97624
# Shear Modulus (GPa) = 30.91350 32.62117 31.76734
#
# Velocity S-wave (km/s) = 3.87627 3.98189 3.92943
# Velocity P-wave (km/s) = 6.33494 6.54371 6.44017
#
# Compressibility (1/GPa) = 0.02418441
#
# Stress axis : x y z
#
# Youngs Moduli (GPa) = 87.63149 73.54468 71.58277
#
# Poissons Ratio (x) = 0.26379 0.11340
# Poissons Ratio (y) = 0.31432 0.15935
# Poissons Ratio (z) = 0.13882 0.16372
#
# Static dielectric constant tensor:
#      x y z
#    x 3.780600 0.000000 0.078180 
#    y 0.000000 3.815670 0.000000 
#    z 0.078180 0.000000 3.617830 
# 
# 
# High freq. dielectric constant tensor:
#      x y z
#    x 1.803110 0.000000 0.010460 
#    y 0.000000 1.810690 0.000000 
#    z 0.010460 0.000000 1.793990 
# 
# From -- ./inp_files/197881.got.cif
#   From: 2010.06.25/outbox.cif.g09.slc.cpg/sg15_99_cif.got.tgz:197881.got - 2010.06.28 07:06:18.
