data_PCOD8138851
_publ_section_title
;
Structure prediction by ZEFSAII (Michael W. Deem and Ramdas Pophale) SiO2 
 PCOD8138851
Probable space group: C 2/C
;
_chemical_formula_sum "Si O2"
_cell_formula_units_Z 48
_cell_length_a 10.668843
_cell_length_b 13.348139
_cell_length_c 23.660346
_cell_angle_alpha 90.000000
_cell_angle_beta 136.168658
_cell_angle_gamma 90.000000
_cell_volume 2333.472432
_symmetry_space_group_name_H-M "C 2/C"
_symmetry_group_IT_number 15
_symmetry_cell_setting 'monoclinic'
loop_
_space_group_symop_operation_xyz
x,y,z
-x,y,1/2-z
-x,-y,-z
x,-y,1/2+z
1/2+x,1/2+y,z
1/2-x,1/2+y,1/2-z
1/2-x,1/2-y,-z
1/2+x,1/2-y,1/2+z
loop_
_atom_site_type_symbol
_atom_site_label
_atom_site_fract_x
_atom_site_fract_y
_atom_site_fract_z
Si Si1 0.835282 0.721911 0.269204
Si Si2 0.468562 0.367573 0.617521
Si Si3 0.600896 0.451011 0.225073
Si Si4 0.484126 0.981099 0.808782
Si Si5 0.662948 0.574057 0.542101
Si Si6 0.189960 0.742508 0.837568
O O1 0.652279 0.698955 0.173941
O O2 0.919436 0.831432 0.287029
O O3 0.984595 0.639439 0.302392
O O4 0.794635 0.702030 0.321809
O O5 0.507133 0.484429 0.644840
O O6 0.368748 0.363426 0.525221
O O7 0.335501 0.320874 0.620380
O O8 0.500000 0.484790 0.250000
O O9 0.813115 0.476854 0.288536
O O10 0.500000 0.025367 0.750000
O O11 0.346243 0.010362 0.597453
O O12 0.500000 0.500000 0.500000
O O13 0.687291 0.650368 0.601926
O O14 0.000000 0.702372 0.750000
#
# Coordination Sequence:
#
# PCOD8138851 Si02
#       6
#     8   8   8   8   8   8
#     4  10  20  38  62  88 115 155 204 255 298 351
#     4  10  21  38  60  88 122 161 201 246 300 365
#     4  11  22  40  65  92 120 156 203 253 303 360
#     4  11  22  40  63  89 120 162 205 244 298 366
#     4  12  23  37  59  91 125 161 202 251 299 355
#     4  10  20  39  63  86 117 161 204 241 297 369
#
# _framework density 20.570202999999999
#
# number of rings (size 3 to 8) (size 9 to 14) (size 15 to 20)
#    0.000    1.333    0.000   10.000    0.000    0.000 
#    0.000    8.333    0.000    0.000    0.000    0.000 
#    0.000    0.000    0.000    0.000    0.000    0.000 
#
# Total GULP energy -297490.980717 kJ/mol
# GULP energy per Si atom -12395.457530 kJ/mol
# Density = 2.052338 g / cm^3
# Si number density = 20.570203 Si / 1000 Ang^3
#
#
#
# Elastic Constant Matrix: (Units=GPa)
#
#
# Indices 1 2 3 4 5 6 
#
# 1 113.3470 17.2906 44.2664 0.0000 -0.6029 0.0000
# 2 17.2906 108.0293 32.8902 0.0000 7.4538 0.0000
# 3 44.2664 32.8902 137.0577 0.0000 -2.0233 0.0000
# 4 0.0000 0.0000 0.0000 34.5524 0.0000 3.1195
# 5 -0.6029 7.4538 -2.0233 0.0000 25.0880 0.0000
# 6 0.0000 0.0000 0.0000 3.1195 0.0000 29.7244
#
#
#
# Elastic Compliance Matrix: (Units=1/GPa)
#
#
# Indices 1 2 3 4 5 6 
#
# 1 0.010142 -0.000691 -0.003107 0.000000 0.000198 0.000000
# 2 -0.000691 0.010291 -0.002294 0.000000 -0.003259 0.000000
# 3 -0.003107 -0.002294 0.008870 0.000000 0.001322 0.000000
# 4 0.000000 0.000000 0.000000 0.029218 0.000000 -0.003066
# 5 0.000198 -0.003259 0.001322 0.000000 0.040939 0.000000
# 6 0.000000 0.000000 0.000000 -0.003066 0.000000 0.033964
#
#
# Mechanical properties :
#
#
# Convention : Reuss Voigt Hill
#
# Bulk Modulus (GPa) = 58.41817 60.81428 59.61622
# Shear Modulus (GPa) = 33.04345 35.47207 34.25776
#
# Velocity S-wave (km/s) = 4.01231 4.15714 4.08537
# Velocity P-wave (km/s) = 7.06583 7.25747 7.16229
#
# Compressibility (1/GPa) = 0.01711796
#
# Stress axis : x y z
#
# Youngs Moduli (GPa) = 98.59664 97.17433 112.74215
#
# Poissons Ratio (x) = 0.06716 0.35029
# Poissons Ratio (y) = 0.06814 0.25868
# Poissons Ratio (z) = 0.30634 0.22296
#
# Static dielectric constant tensor:
#      x y z
#    x 3.922140 0.000000 -0.188650 
#    y 0.000000 3.923880 0.000000 
#    z -0.188650 0.000000 3.763010 
# 
# 
# High freq. dielectric constant tensor:
#      x y z
#    x 1.803520 0.000000 -0.012730 
#    y 0.000000 1.821860 0.000000 
#    z -0.012730 0.000000 1.785280 
# 
# From -- ./inp_files/237744.got.cif
#   From: 2010.06.25/outbox.cif.g09.slc.cpg/sg15_119_cif.got.tgz:237744.got - 2010.06.28 07:06:18.
