data_PCOD8138028
_publ_section_title
;
Structure prediction by ZEFSAII (Michael W. Deem and Ramdas Pophale) SiO2 
 PCOD8138028
Probable space group: C 2/C
;
_chemical_formula_sum "Si O2"
_cell_formula_units_Z 56
_cell_length_a 20.825204
_cell_length_b 5.045983
_cell_length_c 24.446907
_cell_angle_alpha 90.000000
_cell_angle_beta 79.882281
_cell_angle_gamma 90.000000
_cell_volume 2529.019313
_symmetry_space_group_name_H-M "C 2/C"
_symmetry_group_IT_number 15
_symmetry_cell_setting 'monoclinic'
loop_
_space_group_symop_operation_xyz
x,y,z
-x,y,1/2-z
-x,-y,-z
x,-y,1/2+z
1/2+x,1/2+y,z
1/2-x,1/2+y,1/2-z
1/2-x,1/2-y,-z
1/2+x,1/2-y,1/2+z
loop_
_atom_site_type_symbol
_atom_site_label
_atom_site_fract_x
_atom_site_fract_y
_atom_site_fract_z
Si Si1 0.221299 0.183629 0.820892
Si Si2 0.991525 0.247625 0.572278
Si Si3 0.421906 0.226810 0.543048
Si Si4 0.686352 0.596761 0.941056
Si Si5 0.608254 0.712223 0.619577
Si Si6 0.334314 0.202025 0.943785
Si Si7 0.307887 0.318113 0.293867
O O1 0.176907 0.219542 0.881584
O O2 0.279451 0.393555 0.810708
O O3 0.176490 0.210242 0.773266
O O4 0.254152 0.895165 0.820093
O O5 0.048967 0.327159 0.521103
O O6 0.030179 0.174739 0.622839
O O7 0.939947 0.490625 0.582448
O O8 0.951480 0.995295 0.561904
O O9 0.344248 0.297509 0.551634
O O10 0.762238 0.587941 0.944489
O O11 0.650810 0.781980 0.992588
O O12 0.653482 0.494753 0.582560
O O13 0.625711 0.716064 0.681444
O O14 0.617850 0.002930 0.592848
#
# Coordination Sequence:
#
# PCOD8138028 Si02
#       7
#     8   8   8   8   8   8   8
#     4  10  21  36  56  83 114 150 188 230 285 360
#     4  10  22  37  54  78 111 157 199 227 274 337
#     4  10  22  36  55  77 114 156 192 233 273 344
#     4  11  22  39  54  88 124 151 187 238 303 358
#     4  12  20  40  56  85 116 153 190 243 284 355
#     4  11  25  32  57  89 121 151 177 238 311 358
#     4  10  20  37  57  81 113 150 190 230 285 348
#
# _framework density 22.142970999999999
#
# number of rings (size 3 to 8) (size 9 to 14) (size 15 to 20)
#    0.000    1.429    4.286    0.857    4.000    5.714 
#    0.000    0.000    0.000    0.857    0.000    2.000 
#    0.000    0.000    0.000    0.000    0.000    0.000 
#
# Total GULP energy -347045.781859 kJ/mol
# GULP energy per Si atom -12394.492209 kJ/mol
# Density = 2.209257 g / cm^3
# Si number density = 22.142971 Si / 1000 Ang^3
#
#
#
# Elastic Constant Matrix: (Units=GPa)
#
#
# Indices 1 2 3 4 5 6 
#
# 1 93.2205 24.4998 29.5356 0.0000 33.5358 0.0000
# 2 24.4998 88.4816 31.5179 0.0000 16.4551 0.0000
# 3 29.5356 31.5179 139.0967 0.0000 35.2908 0.0000
# 4 0.0000 0.0000 0.0000 19.4465 0.0000 -2.3525
# 5 33.5358 16.4551 35.2908 0.0000 30.9642 0.0000
# 6 0.0000 0.0000 0.0000 -2.3525 0.0000 19.5958
#
#
#
# Elastic Compliance Matrix: (Units=1/GPa)
#
#
# Indices 1 2 3 4 5 6 
#
# 1 0.018064 -0.001804 0.001820 0.000000 -0.020680 0.000000
# 2 -0.001804 0.012986 -0.001835 0.000000 -0.002856 0.000000
# 3 0.001820 -0.001835 0.010511 0.000000 -0.012975 0.000000
# 4 0.000000 0.000000 0.000000 0.052181 0.000000 0.006264
# 5 -0.020680 -0.002856 -0.012975 0.000000 0.070999 0.000000
# 6 0.000000 0.000000 0.000000 0.006264 0.000000 0.051783
#
#
# Mechanical properties :
#
#
# Convention : Reuss Voigt Hill
#
# Bulk Modulus (GPa) = 26.36950 54.65614 40.51282
# Shear Modulus (GPa) = 21.47737 29.68434 25.58086
#
# Velocity S-wave (km/s) = 3.11777 3.66536 3.40260
# Velocity P-wave (km/s) = 4.98951 6.53070 5.81142
#
# Compressibility (1/GPa) = 0.03792260
#
# Stress axis : x y z
#
# Youngs Moduli (GPa) = 55.35750 77.00572 95.14256
#
# Poissons Ratio (x) = 0.13894 -0.17315
# Poissons Ratio (y) = 0.09988 0.17457
# Poissons Ratio (z) = -0.10074 0.14129
#
# Static dielectric constant tensor:
#      x y z
#    x 4.160020 0.000000 0.474110 
#    y 0.000000 4.136580 0.000000 
#    z 0.474110 0.000000 4.163450 
# 
# 
# High freq. dielectric constant tensor:
#      x y z
#    x 1.859680 0.000000 0.039060 
#    y 0.000000 1.888570 0.000000 
#    z 0.039060 0.000000 1.839140 
# 
# From -- ./inp_files/299743.got.cif
#   From: 2010.06.25/outbox.cif.g09.slc.cpg/sg15_150_cif.got.tgz:299743.got - 2010.06.28 07:06:18.
