data_PCOD8138724
_publ_section_title
;
Structure prediction by ZEFSAII (Michael W. Deem and Ramdas Pophale) SiO2 
 PCOD8138724
Probable space group: C 2/C
;
_chemical_formula_sum "Si O2"
_cell_formula_units_Z 64
_cell_length_a 19.395352
_cell_length_b 17.971612
_cell_length_c 23.633650
_cell_angle_alpha 90.000000
_cell_angle_beta 22.176613
_cell_angle_gamma 90.000000
_cell_volume 3109.493797
_symmetry_space_group_name_H-M "C 2/C"
_symmetry_group_IT_number 15
_symmetry_cell_setting 'monoclinic'
loop_
_space_group_symop_operation_xyz
x,y,z
-x,y,1/2-z
-x,-y,-z
x,-y,1/2+z
1/2+x,1/2+y,z
1/2-x,1/2+y,1/2-z
1/2-x,1/2-y,-z
1/2+x,1/2-y,1/2+z
loop_
_atom_site_type_symbol
_atom_site_label
_atom_site_fract_x
_atom_site_fract_y
_atom_site_fract_z
Si Si1 0.287131 0.518256 0.548628
Si Si2 0.363978 0.577508 0.159369
Si Si3 0.566831 0.634510 0.607388
Si Si4 0.536671 0.159068 0.445514
Si Si5 0.935145 0.474264 0.385605
Si Si6 0.218767 0.378144 0.450996
Si Si7 0.841117 0.419387 0.190415
Si Si8 0.997372 0.176486 0.539861
O O1 0.432542 0.571255 0.469471
O O2 0.395971 0.446933 0.445064
O O3 0.196131 0.560360 0.563344
O O4 0.122778 0.494006 0.715216
O O5 0.247666 0.633799 0.286823
O O6 0.262992 0.498495 0.229993
O O7 0.377552 0.616235 0.087444
O O8 0.721318 0.660873 0.535096
O O9 0.373765 0.631033 0.785682
O O10 0.564017 0.687872 0.554543
O O11 0.466192 0.156103 0.433823
O O12 0.426123 0.097558 0.564841
O O13 0.505745 0.243746 0.489725
O O14 0.818565 0.536209 0.506702
O O15 0.997024 0.415081 0.385965
O O16 0.708002 0.352260 0.305270
#
# Coordination Sequence:
#
# PCOD8138724 Si02
#       8
#     8   8   8   8   8   8   8   8
#     4  10  20  38  60  95 122 155 206 260 308 355
#     4  12  23  39  68  93 120 167 211 258 304 362
#     4  10  21  37  61  87 126 164 204 248 301 372
#     4  12  26  39  61  93 132 162 203 258 316 366
#     4  10  21  36  63  92 123 155 205 264 304 357
#     4  10  21  38  58  90 125 164 203 247 306 366
#     4  12  22  41  64  92 120 163 214 258 300 367
#     4  12  24  41  62  91 129 167 205 254 314 366
#
# _framework density 20.582128000000001
#
# number of rings (size 3 to 8) (size 9 to 14) (size 15 to 20)
#    0.000    1.000    5.000    2.250    1.750    0.500 
#    0.000    0.000    0.000    4.500    0.000    0.000 
#    0.000    0.000    0.000    0.000    0.000    0.000 
#
# Total GULP energy -396547.147462 kJ/mol
# GULP energy per Si atom -12392.098358 kJ/mol
# Density = 2.053528 g / cm^3
# Si number density = 20.582128 Si / 1000 Ang^3
#
#
#
# Elastic Constant Matrix: (Units=GPa)
#
#
# Indices 1 2 3 4 5 6 
#
# 1 113.7997 36.1266 22.2220 -0.0022 -1.7516 0.0063
# 2 36.1266 63.6090 23.5719 -0.0492 8.1619 0.0038
# 3 22.2220 23.5719 76.9884 -0.1213 6.8227 0.0991
# 4 -0.0022 -0.0492 -0.1213 26.2761 0.0479 3.2198
# 5 -1.7516 8.1619 6.8227 0.0479 29.3843 -0.0101
# 6 0.0063 0.0038 0.0991 3.2198 -0.0101 16.7892
#
#
#
# Elastic Compliance Matrix: (Units=1/GPa)
#
#
# Indices 1 2 3 4 5 6 
#
# 1 0.011055 -0.006040 -0.001581 -0.000024 0.002704 0.000013
# 2 -0.006040 0.021445 -0.004352 0.000027 -0.005306 0.000015
# 3 -0.001581 -0.004352 0.014988 0.000078 -0.002366 -0.000103
# 4 -0.000024 0.000027 0.000078 0.038974 -0.000093 -0.007475
# 5 0.002704 -0.005306 -0.002366 -0.000093 0.036216 0.000054
# 6 0.000013 0.000015 -0.000103 -0.007475 0.000054 0.060996
#
#
# Mechanical properties :
#
#
# Convention : Reuss Voigt Hill
#
# Bulk Modulus (GPa) = 42.47887 46.47089 44.47488
# Shear Modulus (GPa) = 23.20525 25.98836 24.59681
#
# Velocity S-wave (km/s) = 3.36139 3.55726 3.46071
# Velocity P-wave (km/s) = 5.97903 6.28485 6.13385
#
# Compressibility (1/GPa) = 0.02354112
#
# Stress axis : x y z
#
# Youngs Moduli (GPa) = 90.45560 46.63085 66.72047
#
# Poissons Ratio (x) = 0.28164 0.10551
# Poissons Ratio (y) = 0.54632 0.29039
# Poissons Ratio (z) = 0.14305 0.20295
#
# Static dielectric constant tensor:
#      x y z
#    x 4.318550 -0.000120 -0.026100 
#    y -0.000120 3.346740 0.000360 
#    z -0.026100 0.000360 3.909110 
# 
# 
# High freq. dielectric constant tensor:
#      x y z
#    x 1.817930 -0.000010 0.001350 
#    y -0.000010 1.761190 0.000040 
#    z 0.001350 0.000040 1.816360 
# 
# From -- ./inp_files/280485.got.cif
#   From: 2010.06.25/outbox.cif.g09.slc.cpg/sg15_141_cif.got.tgz:280485.got - 2010.06.28 07:06:18.
