data_PCOD8138037
_publ_section_title
;
Structure prediction by ZEFSAII (Michael W. Deem and Ramdas Pophale) SiO2 
 PCOD8138037
Probable space group: C 2/C
;
_chemical_formula_sum "Si O2"
_cell_formula_units_Z 64
_cell_length_a 26.378324
_cell_length_b 21.895539
_cell_length_c 18.361585
_cell_angle_alpha 90.000000
_cell_angle_beta 162.209655
_cell_angle_gamma 90.000000
_cell_volume 3240.214556
_symmetry_space_group_name_H-M "C 2/C"
_symmetry_group_IT_number 15
_symmetry_cell_setting 'monoclinic'
loop_
_space_group_symop_operation_xyz
x,y,z
-x,y,1/2-z
-x,-y,-z
x,-y,1/2+z
1/2+x,1/2+y,z
1/2-x,1/2+y,1/2-z
1/2-x,1/2-y,-z
1/2+x,1/2-y,1/2+z
loop_
_atom_site_type_symbol
_atom_site_label
_atom_site_fract_x
_atom_site_fract_y
_atom_site_fract_z
Si Si1 0.520149 0.851573 0.602195
Si Si2 0.050923 0.135799 0.145373
Si Si3 0.352088 0.841851 0.880086
Si Si4 0.266513 0.928142 0.338353
Si Si5 0.444762 0.742209 0.256091
Si Si6 0.658854 0.060884 0.013384
Si Si7 0.029205 0.784123 0.477899
Si Si8 0.324910 0.832426 0.539425
O O1 0.595876 0.865893 0.627660
O O2 0.397673 0.906259 0.457073
O O3 0.421748 0.786958 0.462805
O O4 0.663723 0.847670 0.859719
O O5 0.019342 0.170151 0.178893
O O6 0.220916 0.097746 0.376675
O O7 0.055893 0.192484 0.096034
O O8 0.912490 0.086919 0.937753
O O9 0.386244 0.897664 0.980004
O O10 0.157689 0.823508 0.605369
O O11 0.455813 0.784287 0.051027
O O12 0.299225 0.894709 0.459611
O O13 0.263365 0.999866 0.347212
O O14 0.500000 0.758999 0.250000
O O15 0.250000 0.750000 0.000000
O O16 0.500000 0.042215 0.750000
O O17 0.835374 0.789363 0.189948
O O18 0.500000 0.801898 0.750000
#
# Coordination Sequence:
#
# PCOD8138037 Si02
#       8
#     8   8   8   8   8   8   8   8
#     4  11  21  35  59  86 124 159 201 252 308 370
#     4  10  21  39  64  91 116 162 207 254 313 376
#     4  11  24  37  59  91 123 165 201 254 326 379
#     4  10  22  40  64  84 120 162 211 252 304 373
#     4  12  24  40  65  95 136 167 207 264 329 391
#     4  11  22  42  62  88 118 159 212 258 306 377
#     4  10  20  37  57  87 129 156 199 252 312 384
#     4   9  20  36  58  89 116 163 209 249 306 367
#
# _framework density 19.751778000000002
#
# number of rings (size 3 to 8) (size 9 to 14) (size 15 to 20)
#    0.000    1.500    1.250    5.250    5.250    1.000 
#    0.000    0.000    0.000    0.000    0.000    0.000 
#    0.000    0.000    0.000    0.000    0.000    0.000 
#
# Total GULP energy -396718.183949 kJ/mol
# GULP energy per Si atom -12397.443248 kJ/mol
# Density = 1.970682 g / cm^3
# Si number density = 19.751778 Si / 1000 Ang^3
#
#
#
# Elastic Constant Matrix: (Units=GPa)
#
#
# Indices 1 2 3 4 5 6 
#
# 1 103.2583 23.3494 27.1388 0.0000 4.0359 0.0000
# 2 23.3494 103.6439 22.7468 0.0000 1.8961 0.0000
# 3 27.1388 22.7468 104.1905 0.0001 5.7804 0.0000
# 4 0.0000 0.0000 0.0001 12.9535 0.0000 6.6672
# 5 4.0359 1.8961 5.7804 0.0000 15.7289 0.0000
# 6 0.0000 0.0000 0.0000 6.6672 0.0000 24.0604
#
#
#
# Elastic Compliance Matrix: (Units=1/GPa)
#
#
# Indices 1 2 3 4 5 6 
#
# 1 0.010784 -0.001893 -0.002302 0.000000 -0.001693 0.000000
# 2 -0.001893 0.010469 -0.001786 0.000000 -0.000120 0.000000
# 3 -0.002302 -0.001786 0.010762 0.000000 -0.003149 0.000000
# 4 0.000000 0.000000 0.000000 0.090041 0.000000 -0.024951
# 5 -0.001693 -0.000120 -0.003149 0.000000 0.065183 0.000000
# 6 0.000000 0.000000 0.000000 -0.024951 0.000000 0.048476
#
#
# Mechanical properties :
#
#
# Convention : Reuss Voigt Hill
#
# Bulk Modulus (GPa) = 49.86714 50.84028 50.35371
# Shear Modulus (GPa) = 19.65710 26.40575 23.03142
#
# Velocity S-wave (km/s) = 3.15811 3.66030 3.41844
# Velocity P-wave (km/s) = 6.21289 6.60751 6.41324
#
# Compressibility (1/GPa) = 0.02005329
#
# Stress axis : x y z
#
# Youngs Moduli (GPa) = 92.73296 95.51941 92.92049
#
# Poissons Ratio (x) = 0.18085 0.21386
# Poissons Ratio (y) = 0.17557 0.16594
# Poissons Ratio (z) = 0.21343 0.17058
#
# Static dielectric constant tensor:
#      x y z
#    x 3.716350 0.000000 0.055370 
#    y 0.000000 3.451760 0.000000 
#    z 0.055370 0.000000 3.739750 
# 
# 
# High freq. dielectric constant tensor:
#      x y z
#    x 1.764490 0.000000 0.002630 
#    y 0.000000 1.756850 0.000000 
#    z 0.002630 0.000000 1.781230 
# 
# From -- ./inp_files/223166.got.cif
#   From: 2010.06.25/outbox.cif.g09.slc.cpg/sg15_112_cif.got.tgz:223166.got - 2010.06.28 07:06:18.
