data_PCOD8138934
_publ_section_title
;
Structure prediction by ZEFSAII (Michael W. Deem and Ramdas Pophale) SiO2 
 PCOD8138934
Probable space group: C 2/C
;
_chemical_formula_sum "Si O2"
_cell_formula_units_Z 48
_cell_length_a 18.736648
_cell_length_b 8.451009
_cell_length_c 14.445090
_cell_angle_alpha 90.000000
_cell_angle_beta 91.128411
_cell_angle_gamma 90.000000
_cell_volume 2286.843703
_symmetry_space_group_name_H-M "C 2/C"
_symmetry_group_IT_number 15
_symmetry_cell_setting 'monoclinic'
loop_
_space_group_symop_operation_xyz
x,y,z
-x,y,1/2-z
-x,-y,-z
x,-y,1/2+z
1/2+x,1/2+y,z
1/2-x,1/2+y,1/2-z
1/2-x,1/2-y,-z
1/2+x,1/2-y,1/2+z
loop_
_atom_site_type_symbol
_atom_site_label
_atom_site_fract_x
_atom_site_fract_y
_atom_site_fract_z
Si Si1 0.923240 0.453417 0.263571
Si Si2 0.456513 0.851291 0.462475
Si Si3 0.401538 0.257076 0.586501
Si Si4 0.703777 0.832538 0.784723
Si Si5 0.208449 0.004384 0.360775
Si Si6 0.818722 0.461567 0.525723
O O1 0.918501 0.374734 0.363171
O O2 0.911029 0.316487 0.188309
O O3 0.868423 0.595586 0.257124
O O4 0.000000 0.533548 0.250000
O O5 0.518815 0.716494 0.457434
O O6 0.500000 0.000000 0.500000
O O7 0.385556 0.832553 0.524759
O O8 0.362445 0.426737 0.591532
O O9 0.351696 0.138468 0.525529
O O10 0.691759 0.646731 0.797467
O O11 0.764073 0.859413 0.708492
O O12 0.724149 0.920049 0.881799
O O13 0.265494 0.949036 0.438600
#
# Coordination Sequence:
#
# PCOD8138934 Si02
#       6
#     8   8   8   8   8   8
#     4   9  17  36  60  82 114 157 205 244 298 369
#     4   9  17  34  60  86 112 155 204 245 295 366
#     4   9  20  35  60  89 115 156 207 249 303 361
#     4  11  23  38  60  89 123 161 204 254 310 365
#     4  12  23  39  60  91 127 160 204 256 309 367
#     4  10  20  38  63  86 119 164 207 249 305 368
#
# _framework density 20.989629000000001
#
# number of rings (size 3 to 8) (size 9 to 14) (size 15 to 20)
#    0.000    2.000    1.667    4.000    0.000    0.000 
#    0.000    3.333    0.000    0.000    0.000    0.000 
#    0.000    0.000    0.000    0.000    0.000    0.000 
#
# Total GULP energy -297363.391981 kJ/mol
# GULP energy per Si atom -12390.141333 kJ/mol
# Density = 2.094186 g / cm^3
# Si number density = 20.989629 Si / 1000 Ang^3
#
#
#
# Elastic Constant Matrix: (Units=GPa)
#
#
# Indices 1 2 3 4 5 6 
#
# 1 108.5518 31.7336 24.5193 0.0000 -1.5485 0.0000
# 2 31.7336 72.1664 -9.2368 0.0000 -0.4673 0.0000
# 3 24.5193 -9.2368 54.5296 0.0000 -1.6228 0.0000
# 4 0.0000 0.0000 0.0000 18.2017 0.0000 -10.6630
# 5 -1.5485 -0.4673 -1.6228 0.0000 27.9337 0.0000
# 6 0.0000 0.0000 0.0000 -10.6630 0.0000 31.4517
#
#
#
# Elastic Compliance Matrix: (Units=1/GPa)
#
#
# Indices 1 2 3 4 5 6 
#
# 1 0.012614 -0.006409 -0.006752 0.000000 0.000200 0.000000
# 2 -0.006409 0.017425 0.005842 0.000000 0.000276 0.000000
# 3 -0.006752 0.005842 0.022395 0.000000 0.001024 0.000000
# 4 0.000000 0.000000 0.000000 0.068556 0.000000 0.023242
# 5 0.000200 0.000276 0.001024 0.000000 0.035874 0.000000
# 6 0.000000 0.000000 0.000000 0.023242 0.000000 0.039675
#
#
# Mechanical properties :
#
#
# Convention : Reuss Voigt Hill
#
# Bulk Modulus (GPa) = 26.45877 36.58667 31.52272
# Shear Modulus (GPa) = 22.34395 28.06622 25.20509
#
# Velocity S-wave (km/s) = 3.26624 3.66067 3.46907
# Velocity P-wave (km/s) = 5.18242 5.94441 5.57644
#
# Compressibility (1/GPa) = 0.03779465
#
# Stress axis : x y z
#
# Youngs Moduli (GPa) = 79.27838 57.38951 44.65378
#
# Poissons Ratio (x) = 0.36784 0.30148
# Poissons Ratio (y) = 0.50813 -0.26086
# Poissons Ratio (z) = 0.53525 -0.33526
#
# Static dielectric constant tensor:
#      x y z
#    x 4.247550 0.000000 -0.226060 
#    y 0.000000 3.404040 0.000000 
#    z -0.226060 0.000000 4.049490 
# 
# 
# High freq. dielectric constant tensor:
#      x y z
#    x 1.834790 0.000000 -0.003910 
#    y 0.000000 1.771320 0.000000 
#    z -0.003910 0.000000 1.834690 
# 
# From -- ./inp_files/159694.got.cif
#   From: 2010.06.25/outbox.cif.g09.slc.cpg/sg15_80_cif.got.tgz:159694.got - 2010.06.28 07:06:18.
