data_PCOD8138188
_publ_section_title
;
Structure prediction by ZEFSAII (Michael W. Deem and Ramdas Pophale) SiO2 
 PCOD8138188
Probable space group: C 2/C
;
_chemical_formula_sum "Si O2"
_cell_formula_units_Z 48
_cell_length_a 18.018749
_cell_length_b 8.935324
_cell_length_c 30.144852
_cell_angle_alpha 90.000000
_cell_angle_beta 150.434673
_cell_angle_gamma 90.000000
_cell_volume 2394.754333
_symmetry_space_group_name_H-M "C 2/C"
_symmetry_group_IT_number 15
_symmetry_cell_setting 'monoclinic'
loop_
_space_group_symop_operation_xyz
x,y,z
-x,y,1/2-z
-x,-y,-z
x,-y,1/2+z
1/2+x,1/2+y,z
1/2-x,1/2+y,1/2-z
1/2-x,1/2-y,-z
1/2+x,1/2-y,1/2+z
loop_
_atom_site_type_symbol
_atom_site_label
_atom_site_fract_x
_atom_site_fract_y
_atom_site_fract_z
Si Si1 0.913893 0.824731 0.248459
Si Si2 0.584674 0.325641 0.468737
Si Si3 0.590716 0.096858 0.392037
Si Si4 0.437011 0.844790 0.356043
Si Si5 0.065412 0.341725 0.047723
Si Si6 0.871883 0.985849 0.804867
O O1 0.741161 0.836877 0.147964
O O2 0.000000 0.872040 0.250000
O O3 0.961911 0.661219 0.292017
O O4 0.961942 0.947516 0.309779
O O5 0.584978 0.184790 0.435716
O O6 0.751695 0.395695 0.552322
O O7 0.537094 0.276255 0.493693
O O8 0.459659 0.451173 0.393329
O O9 0.560935 0.922530 0.388700
O O10 0.505883 0.806634 0.440779
O O11 0.375919 0.692409 0.303171
O O12 0.300664 0.963488 0.286682
O O13 0.000000 0.500000 0.000000
#
# Coordination Sequence:
#
# PCOD8138188 Si02
#       6
#     8   8   8   8   8   8
#     4  10  20  38  62  87 117 165 207 251 311 377
#     4  10  20  37  60  91 117 162 203 260 307 373
#     4  10  20  38  62  84 121 157 211 250 315 375
#     4  11  22  40  59  89 123 168 204 260 315 375
#     4  11  21  34  63  91 120 155 208 259 305 369
#     4  10  23  37  62  85 125 162 210 254 316 373
#
# _framework density 20.043810000000001
#
# number of rings (size 3 to 8) (size 9 to 14) (size 15 to 20)
#    0.000    1.667    3.333    3.000    2.333    1.333 
#    0.000    0.833    0.000    0.000    0.000    0.000 
#    0.000    0.000    0.000    0.000    0.000    0.000 
#
# Total GULP energy -297449.155088 kJ/mol
# GULP energy per Si atom -12393.714795 kJ/mol
# Density = 1.999819 g / cm^3
# Si number density = 20.043810 Si / 1000 Ang^3
#
#
#
# Elastic Constant Matrix: (Units=GPa)
#
#
# Indices 1 2 3 4 5 6 
#
# 1 92.4975 34.4111 21.3570 0.0000 -17.2588 0.0001
# 2 34.4111 102.0006 18.4614 -0.0001 -10.6816 0.0003
# 3 21.3570 18.4614 89.1004 0.0000 -12.0809 0.0000
# 4 0.0000 -0.0001 0.0000 32.9522 0.0000 -0.6831
# 5 -17.2588 -10.6816 -12.0809 0.0000 23.0852 0.0000
# 6 0.0001 0.0003 0.0000 -0.6831 0.0000 32.4639
#
#
#
# Elastic Compliance Matrix: (Units=1/GPa)
#
#
# Indices 1 2 3 4 5 6 
#
# 1 0.013998 -0.003609 -0.001523 0.000000 0.007998 0.000000
# 2 -0.003609 0.011451 -0.001243 0.000000 0.001949 0.000000
# 3 -0.001523 -0.001243 0.012501 0.000000 0.004828 0.000000
# 4 0.000000 0.000000 0.000000 0.030360 0.000000 0.000639
# 5 0.007998 0.001949 0.004828 0.000000 0.052726 0.000000
# 6 0.000000 0.000000 0.000000 0.000639 0.000000 0.030817
#
#
# Mechanical properties :
#
#
# Convention : Reuss Voigt Hill
#
# Bulk Modulus (GPa) = 39.68503 48.00641 43.84572
# Shear Modulus (GPa) = 28.90148 31.65819 30.27984
#
# Velocity S-wave (km/s) = 3.80138 3.97854 3.89097
# Velocity P-wave (km/s) = 6.25375 6.71623 6.48911
#
# Compressibility (1/GPa) = 0.02519842
#
# Stress axis : x y z
#
# Youngs Moduli (GPa) = 71.44026 87.33179 79.99662
#
# Poissons Ratio (x) = 0.31519 0.12183
# Poissons Ratio (y) = 0.25783 0.09945
# Poissons Ratio (z) = 0.10880 0.10856
#
# Static dielectric constant tensor:
#      x y z
#    x 3.814090 0.000000 -0.195230 
#    y 0.000000 3.502630 0.000000 
#    z -0.195230 0.000000 3.761050 
# 
# 
# High freq. dielectric constant tensor:
#      x y z
#    x 1.778530 0.000000 -0.010810 
#    y 0.000000 1.764330 0.000000 
#    z -0.010810 0.000000 1.787420 
# 
# From -- ./inp_files/180704.got.cif
#   From: 2010.06.25/outbox.cif.g09.slc.cpg/sg15_91_cif.got.tgz:180704.got - 2010.06.28 07:06:18.
