data_PCOD8138942
_publ_section_title
;
Structure prediction by ZEFSAII (Michael W. Deem and Ramdas Pophale) SiO2 
 PCOD8138942
Probable space group: C 2/C
;
_chemical_formula_sum "Si O2"
_cell_formula_units_Z 48
_cell_length_a 28.215925
_cell_length_b 8.017498
_cell_length_c 19.668332
_cell_angle_alpha 90.000000
_cell_angle_beta 151.385896
_cell_angle_gamma 90.000000
_cell_volume 2130.849351
_symmetry_space_group_name_H-M "C 2/C"
_symmetry_group_IT_number 15
_symmetry_cell_setting 'monoclinic'
loop_
_space_group_symop_operation_xyz
x,y,z
-x,y,1/2-z
-x,-y,-z
x,-y,1/2+z
1/2+x,1/2+y,z
1/2-x,1/2+y,1/2-z
1/2-x,1/2-y,-z
1/2+x,1/2-y,1/2+z
loop_
_atom_site_type_symbol
_atom_site_label
_atom_site_fract_x
_atom_site_fract_y
_atom_site_fract_z
Si Si1 0.576540 0.663848 0.672896
Si Si2 0.608121 0.860787 0.371344
Si Si3 0.631583 0.468419 0.609150
Si Si4 0.725637 0.745702 0.641741
Si Si5 0.896268 0.026198 0.650161
Si Si6 0.311384 0.015542 0.161817
O O1 0.613543 0.545807 0.659993
O O2 0.457790 0.650188 0.527487
O O3 0.624781 0.605204 0.803605
O O4 0.614293 0.852862 0.709931
O O5 0.500000 0.935535 0.250000
O O6 0.669742 0.868088 0.519040
O O7 0.601172 0.672134 0.336192
O O8 0.657849 0.973366 0.376410
O O9 0.647104 0.613512 0.573429
O O10 0.728685 0.352487 0.738918
O O11 0.813640 0.648135 0.712704
O O12 0.000000 0.091877 0.750000
O O13 0.803612 0.078408 0.485305
#
# Coordination Sequence:
#
# PCOD8138942 Si02
#       6
#     8   8   8   8   8   8
#     4  11  23  39  60  91 125 162 206 252 318 370
#     4  10  21  38  63  90 122 162 207 263 312 359
#     4  11  24  40  61  86 126 172 205 253 302 379
#     4  11  23  41  62  89 122 166 213 251 313 371
#     4  10  20  38  63  87 121 161 205 263 316 363
#     4  11  22  38  63  92 121 158 208 265 312 365
#
# _framework density 22.526228
#
# number of rings (size 3 to 8) (size 9 to 14) (size 15 to 20)
#    0.000    1.333    0.000    8.500    0.000    4.000 
#    0.000    1.667    0.000    0.000    0.000    0.000 
#    0.000    0.000    0.000    0.000    0.000    0.000 
#
# Total GULP energy -297656.636389 kJ/mol
# GULP energy per Si atom -12402.359850 kJ/mol
# Density = 2.247496 g / cm^3
# Si number density = 22.526228 Si / 1000 Ang^3
#
#
#
# Elastic Constant Matrix: (Units=GPa)
#
#
# Indices 1 2 3 4 5 6 
#
# 1 67.1297 7.2205 11.4941 0.0000 11.5860 0.0000
# 2 7.2205 54.6898 43.7585 0.0000 6.8108 0.0000
# 3 11.4941 43.7585 93.6835 0.0000 14.9008 0.0000
# 4 0.0000 0.0000 0.0000 42.3113 0.0000 -4.8234
# 5 11.5860 6.8108 14.9008 0.0000 37.8881 0.0000
# 6 0.0000 0.0000 0.0000 -4.8234 0.0000 30.7381
#
#
#
# Elastic Compliance Matrix: (Units=1/GPa)
#
#
# Indices 1 2 3 4 5 6 
#
# 1 0.015890 -0.000878 -0.000844 0.000000 -0.004369 0.000000
# 2 -0.000878 0.029246 -0.013610 0.000000 0.000364 0.000000
# 3 -0.000844 -0.013610 0.017820 0.000000 -0.004303 0.000000
# 4 0.000000 0.000000 0.000000 0.024065 0.000000 0.003776
# 5 -0.004369 0.000364 -0.004303 0.000000 0.029357 0.000000
# 6 0.000000 0.000000 0.000000 0.003776 0.000000 0.033125
#
#
# Mechanical properties :
#
#
# Convention : Reuss Voigt Hill
#
# Bulk Modulus (GPa) = 30.97049 37.82769 34.39909
# Shear Modulus (GPa) = 26.18752 32.38949 29.28851
#
# Velocity S-wave (km/s) = 3.41330 3.79602 3.60973
# Velocity P-wave (km/s) = 5.41411 6.00352 5.71642
#
# Compressibility (1/GPa) = 0.03228880
#
# Stress axis : x y z
#
# Youngs Moduli (GPa) = 62.93409 34.19319 56.11795
#
# Poissons Ratio (x) = 0.03003 0.04739
# Poissons Ratio (y) = 0.05526 0.76379
# Poissons Ratio (z) = 0.05314 0.46539
#
# Static dielectric constant tensor:
#      x y z
#    x 4.198880 0.000000 0.122570 
#    y 0.000000 3.751870 0.000000 
#    z 0.122570 0.000000 4.133410 
# 
# 
# High freq. dielectric constant tensor:
#      x y z
#    x 1.898430 0.000000 -0.001320 
#    y 0.000000 1.863650 0.000000 
#    z -0.001320 0.000000 1.890100 
# 
# From -- ./inp_files/258765.got.cif
#   From: 2010.06.25/outbox.cif.g09.slc.cpg/sg15_130_cif.got.tgz:258765.got - 2010.06.28 07:06:18.
