data_PCOD8138988
_publ_section_title
;
Structure prediction by ZEFSAII (Michael W. Deem and Ramdas Pophale) SiO2 
 PCOD8138988
Probable space group: C 2/C
;
_chemical_formula_sum "Si O2"
_cell_formula_units_Z 64
_cell_length_a 8.858839
_cell_length_b 20.262192
_cell_length_c 23.260473
_cell_angle_alpha 90.000000
_cell_angle_beta 50.628177
_cell_angle_gamma 90.000000
_cell_volume 3227.653502
_symmetry_space_group_name_H-M "C 2/C"
_symmetry_group_IT_number 15
_symmetry_cell_setting 'monoclinic'
loop_
_space_group_symop_operation_xyz
x,y,z
-x,y,1/2-z
-x,-y,-z
x,-y,1/2+z
1/2+x,1/2+y,z
1/2-x,1/2+y,1/2-z
1/2-x,1/2-y,-z
1/2+x,1/2-y,1/2+z
loop_
_atom_site_type_symbol
_atom_site_label
_atom_site_fract_x
_atom_site_fract_y
_atom_site_fract_z
Si Si1 0.725432 0.804408 0.456462
Si Si2 0.120023 0.687363 0.542886
Si Si3 0.915650 0.927851 0.963974
Si Si4 0.259588 0.434347 0.517951
Si Si5 0.924702 0.275390 0.206587
Si Si6 0.023156 0.264350 0.808612
Si Si7 0.476596 0.620116 0.178168
Si Si8 0.652287 0.892571 0.840888
O O1 0.750000 0.750000 0.500000
O O2 0.510510 0.815514 0.483146
O O3 0.790744 0.875063 0.465368
O O4 0.840617 0.778842 0.372793
O O5 0.250000 0.750000 0.500000
O O6 0.246280 0.622657 0.518788
O O7 0.015529 0.689000 0.629891
O O8 0.050736 0.903074 0.879562
O O9 0.071705 0.928658 0.976354
O O10 0.805240 0.996334 0.975999
O O11 0.040216 0.436428 0.598898
O O12 0.694747 0.289575 0.263594
O O13 0.000000 0.301561 0.250000
O O14 0.947486 0.197110 0.194984
O O15 0.066189 0.320602 0.845657
O O16 0.000000 0.295690 0.750000
O O17 0.703340 0.606643 0.139328
O O18 0.301451 0.582346 0.254718
#
# Coordination Sequence:
#
# PCOD8138988 Si02
#       8
#     8   8   8   8   8   8   8   8
#     4  12  25  39  65  99 128 165 213 267 322 377
#     4  12  25  39  65  98 128 167 212 264 324 381
#     4  11  26  44  64  90 132 172 218 262 320 380
#     4  11  26  44  63  93 129 174 216 264 316 382
#     4  11  22  38  61  95 131 163 203 267 323 377
#     4  11  22  38  59  95 132 160 208 263 321 379
#     4  10  20  38  63  95 123 162 211 261 313 380
#     4  10  21  36  65  94 123 162 211 261 316 375
#
# _framework density 19.828645000000002
#
# number of rings (size 3 to 8) (size 9 to 14) (size 15 to 20)
#    0.000    1.000    6.250    1.500    7.000    2.000 
#    0.000    1.250    2.750    0.000    0.000    0.000 
#    0.000    0.000    0.000    0.000    0.000    0.000 
#
# Total GULP energy -396442.890029 kJ/mol
# GULP energy per Si atom -12388.840313 kJ/mol
# Density = 1.978351 g / cm^3
# Si number density = 19.828645 Si / 1000 Ang^3
#
#
#
# Elastic Constant Matrix: (Units=GPa)
#
#
# Indices 1 2 3 4 5 6 
#
# 1 79.5171 18.7398 12.9293 0.0000 -9.4941 -0.0005
# 2 18.7398 69.9578 13.8011 0.0000 0.6274 -0.0002
# 3 12.9293 13.8011 84.0112 0.0002 -3.0784 -0.0004
# 4 0.0000 0.0000 0.0002 1.6651 0.0000 0.0931
# 5 -9.4941 0.6274 -3.0784 0.0000 40.6749 0.0003
# 6 -0.0005 -0.0002 -0.0004 0.0931 0.0003 25.6471
#
#
#
# Elastic Compliance Matrix: (Units=1/GPa)
#
#
# Indices 1 2 3 4 5 6 
#
# 1 0.014022 -0.003496 -0.001466 0.000000 0.003216 0.000000
# 2 -0.003496 0.015652 -0.002078 0.000001 -0.001215 0.000000
# 3 -0.001466 -0.002078 0.012493 -0.000002 0.000635 0.000000
# 4 0.000000 0.000001 -0.000002 0.600696 -0.000001 -0.002181
# 5 0.003216 -0.001215 0.000635 -0.000001 0.025403 0.000000
# 6 0.000000 0.000000 0.000000 -0.002181 0.000000 0.038999
#
#
# Mechanical properties :
#
#
# Convention : Reuss Voigt Hill
#
# Bulk Modulus (GPa) = 35.60207 36.04741 35.82474
# Shear Modulus (GPa) = 6.84270 26.13180 16.48725
#
# Velocity S-wave (km/s) = 1.85968 3.63420 2.88668
# Velocity P-wave (km/s) = 4.75448 5.98572 5.40527
#
# Compressibility (1/GPa) = 0.02808826
#
# Stress axis : x y z
#
# Youngs Moduli (GPa) = 71.31605 63.89150 80.04245
#
# Poissons Ratio (x) = 0.22335 0.11733
# Poissons Ratio (y) = 0.24931 0.16630
# Poissons Ratio (z) = 0.10454 0.13275
#
# Static dielectric constant tensor:
#      x y z
#    x 3.894410 0.000000 -0.118280 
#    y 0.000000 3.455420 0.000000 
#    z -0.118280 0.000000 4.094250 
# 
# 
# High freq. dielectric constant tensor:
#      x y z
#    x 1.796300 0.000000 -0.004070 
#    y 0.000000 1.730550 0.000000 
#    z -0.004070 0.000000 1.791610 
# 
# From -- ./inp_files/266083.got.cif
#   From: 2010.06.25/outbox.cif.g09.slc.cpg/sg15_134_cif.got.tgz:266083.got - 2010.06.28 07:06:18.
