data_PCOD8138110
_publ_section_title
;
Structure prediction by ZEFSAII (Michael W. Deem and Ramdas Pophale) SiO2 
 PCOD8138110
Probable space group: C 2/C
;
_chemical_formula_sum "Si O2"
_cell_formula_units_Z 40
_cell_length_a 8.636790
_cell_length_b 19.162723
_cell_length_c 10.376718
_cell_angle_alpha 90.000000
_cell_angle_beta 95.763797
_cell_angle_gamma 90.000000
_cell_volume 1708.710123
_symmetry_space_group_name_H-M "C 2/C"
_symmetry_group_IT_number 15
_symmetry_cell_setting 'monoclinic'
loop_
_space_group_symop_operation_xyz
x,y,z
-x,y,1/2-z
-x,-y,-z
x,-y,1/2+z
1/2+x,1/2+y,z
1/2-x,1/2+y,1/2-z
1/2-x,1/2-y,-z
1/2+x,1/2-y,1/2+z
loop_
_atom_site_type_symbol
_atom_site_label
_atom_site_fract_x
_atom_site_fract_y
_atom_site_fract_z
Si Si1 0.812667 0.924752 0.734921
Si Si2 0.676999 0.518745 0.535379
Si Si3 0.747542 0.667477 0.615598
Si Si4 0.000885 0.257284 0.015272
Si Si5 0.705476 0.782578 0.809575
O O1 0.752634 0.968608 0.603099
O O2 0.731386 0.848716 0.717991
O O3 0.000000 0.919352 0.750000
O O4 0.751654 0.958483 0.865686
O O5 0.500000 0.500000 0.500000
O O6 0.704573 0.586944 0.625835
O O7 0.634657 0.699130 0.496097
O O8 0.708728 0.707168 0.743770
O O9 0.930458 0.679146 0.594279
O O10 0.149158 0.217119 0.081183
O O11 0.043034 0.287495 0.876016
#
# Coordination Sequence:
#
# PCOD8138110 Si02
#       5
#     8   8   8   8   8
#     4  10  20  37  59  86 123 164 207 262 319 379
#     4  10  22  37  60  89 122 162 207 260 321 384
#     4  11  21  39  63  91 125 168 216 265 318 383
#     4  10  22  36  60  94 128 166 216 269 321 378
#     4  11  22  38  63  94 129 168 216 269 323 384
#
# _framework density 23.409472000000001
#
# number of rings (size 3 to 8) (size 9 to 14) (size 15 to 20)
#    0.000    1.600    0.000    7.200    0.000    8.000 
#    0.000    1.000    0.000    4.800    0.000    0.000 
#    0.000    0.000    0.000    0.000    0.000    0.000 
#
# Total GULP energy -247825.987812 kJ/mol
# GULP energy per Si atom -12391.299391 kJ/mol
# Density = 2.335619 g / cm^3
# Si number density = 23.409472 Si / 1000 Ang^3
#
#
#
# Elastic Constant Matrix: (Units=GPa)
#
#
# Indices 1 2 3 4 5 6 
#
# 1 69.8211 20.6176 11.0299 0.0000 -32.7981 0.0000
# 2 20.6176 100.1290 29.9759 0.0000 -12.6027 0.0000
# 3 11.0299 29.9759 118.9646 0.0000 -21.6278 0.0000
# 4 0.0000 0.0000 0.0000 43.5805 0.0000 1.1789
# 5 -32.7981 -12.6027 -21.6278 0.0000 26.9256 0.0000
# 6 0.0000 0.0000 0.0000 1.1789 0.0000 31.9454
#
#
#
# Elastic Compliance Matrix: (Units=1/GPa)
#
#
# Indices 1 2 3 4 5 6 
#
# 1 0.037305 -0.003410 0.006290 0.000000 0.048898 0.000000
# 2 -0.003410 0.011380 -0.002738 0.000000 -0.001027 0.000000
# 3 0.006290 -0.002738 0.011327 0.000000 0.015479 0.000000
# 4 0.000000 0.000000 0.000000 0.022969 0.000000 -0.000848
# 5 0.048898 -0.001027 0.015479 0.000000 0.108654 0.000000
# 6 0.000000 0.000000 0.000000 -0.000848 0.000000 0.031335
#
#
# Mechanical properties :
#
#
# Convention : Reuss Voigt Hill
#
# Bulk Modulus (GPa) = 16.58497 45.79573 31.19035
# Shear Modulus (GPa) = 20.59450 35.64306 28.11878
#
# Velocity S-wave (km/s) = 2.96928 3.90627 3.46955
# Velocity P-wave (km/s) = 4.34230 6.32065 5.42246
#
# Compressibility (1/GPa) = 0.06029557
#
# Stress axis : x y z
#
# Youngs Moduli (GPa) = 26.80601 87.87565 88.28818
#
# Poissons Ratio (x) = 0.29967 -0.55534
# Poissons Ratio (y) = 0.09141 0.24172
# Poissons Ratio (z) = -0.16861 0.24059
#
# Static dielectric constant tensor:
#      x y z
#    x 4.232070 0.000000 -0.036540 
#    y 0.000000 4.158390 0.000000 
#    z -0.036540 0.000000 4.616580 
# 
# 
# High freq. dielectric constant tensor:
#      x y z
#    x 1.908600 0.000000 0.003010 
#    y 0.000000 1.905340 0.000000 
#    z 0.003010 0.000000 1.943540 
# 
# From -- ./inp_files/76806.got.cif
#   From: 2010.06.25/outbox.cif.g09.slc.cpg/sg15_39_cif.got.tgz:76806.got - 2010.06.28 07:06:18.
