data_PCOD8138005
_publ_section_title
;
Structure prediction by ZEFSAII (Michael W. Deem and Ramdas Pophale) SiO2 
 PCOD8138005
Probable space group: C 2/C
;
_chemical_formula_sum "Si O2"
_cell_formula_units_Z 52
_cell_length_a 12.688377
_cell_length_b 25.362831
_cell_length_c 10.477470
_cell_angle_alpha 90.000000
_cell_angle_beta 128.307429
_cell_angle_gamma 90.000000
_cell_volume 2645.828367
_symmetry_space_group_name_H-M "C 2/C"
_symmetry_group_IT_number 15
_symmetry_cell_setting 'monoclinic'
loop_
_space_group_symop_operation_xyz
x,y,z
-x,y,1/2-z
-x,-y,-z
x,-y,1/2+z
1/2+x,1/2+y,z
1/2-x,1/2+y,1/2-z
1/2-x,1/2-y,-z
1/2+x,1/2-y,1/2+z
loop_
_atom_site_type_symbol
_atom_site_label
_atom_site_fract_x
_atom_site_fract_y
_atom_site_fract_z
Si Si1 0.885596 0.198537 0.882770
Si Si2 0.000000 0.862281 0.250000
Si Si3 0.422116 0.950999 0.569615
Si Si4 0.177552 0.445148 0.608176
Si Si5 0.773202 0.108280 0.417019
Si Si6 0.644559 0.367101 0.897038
Si Si7 0.825199 0.209529 0.303859
O O1 0.897019 0.174232 0.750623
O O2 0.766569 0.239902 0.781657
O O3 0.848157 0.150888 0.950892
O O4 0.027101 0.225130 0.032053
O O5 0.081647 0.898630 0.409681
O O6 0.500000 0.976580 0.750000
O O7 0.523933 0.931143 0.535247
O O8 0.340623 0.900702 0.561106
O O9 0.319514 0.994333 0.435534
O O10 0.269154 0.435757 0.802420
O O11 0.233883 0.408193 0.537215
O O12 0.755880 0.166892 0.346316
O O13 0.500000 0.392953 0.750000
O O14 0.661284 0.314649 0.826000
#
# Coordination Sequence:
#
# PCOD8138005 Si02
#       7
#     8   4   8   8   8   8   8
#     4  10  20  37  56  84 116 157 192 250 285 350
#     4  10  22  40  54  80 126 144 196 244 290 330
#     4   9  18  37  60  84 119 144 191 246 290 342
#     4   9  18  37  60  84 112 154 189 235 296 345
#     4   9  19  38  58  81 115 156 185 242 288 345
#     4   9  18  36  58  81 119 152 191 241 294 345
#     4   9  19  37  60  81 117 150 197 240 299 343
#
# _framework density 19.653579000000001
#
# number of rings (size 3 to 8) (size 9 to 14) (size 15 to 20)
#    0.000    2.769    0.000    1.385    0.000    2.462 
#   27.692    0.769    0.000    0.000    0.000    0.000 
#    0.000    0.000    0.000    0.000    0.000    0.000 
#
# Total GULP energy -322235.618133 kJ/mol
# GULP energy per Si atom -12393.677620 kJ/mol
# Density = 1.960885 g / cm^3
# Si number density = 19.653579 Si / 1000 Ang^3
#
#
#
# Elastic Constant Matrix: (Units=GPa)
#
#
# Indices 1 2 3 4 5 6 
#
# 1 130.9517 52.0833 27.6631 0.0000 -2.3358 0.0000
# 2 52.0833 63.1964 42.4112 0.0000 10.0038 0.0000
# 3 27.6631 42.4112 87.3166 0.0000 5.8503 0.0000
# 4 0.0000 0.0000 0.0000 27.6940 0.0000 10.4973
# 5 -2.3358 10.0038 5.8503 0.0000 28.4614 0.0000
# 6 0.0000 0.0000 0.0000 10.4973 0.0000 38.0142
#
#
#
# Elastic Compliance Matrix: (Units=1/GPa)
#
#
# Indices 1 2 3 4 5 6 
#
# 1 0.012067 -0.011755 0.001565 0.000000 0.004800 0.000000
# 2 -0.011755 0.035980 -0.013019 0.000000 -0.010935 0.000000
# 3 0.001565 -0.013019 0.017202 0.000000 0.001169 0.000000
# 4 0.000000 0.000000 0.000000 0.040330 0.000000 -0.011137
# 5 0.004800 -0.010935 0.001169 0.000000 0.039133 0.000000
# 6 0.000000 0.000000 0.000000 -0.011137 0.000000 0.029381
#
#
# Mechanical properties :
#
#
# Convention : Reuss Voigt Hill
#
# Bulk Modulus (GPa) = 53.10579 58.41999 55.76289
# Shear Modulus (GPa) = 22.04708 29.45440 25.75074
#
# Velocity S-wave (km/s) = 3.35294 3.87548 3.62364
# Velocity P-wave (km/s) = 6.48608 7.05799 6.77807
#
# Compressibility (1/GPa) = 0.01883034
#
# Stress axis : x y z
#
# Youngs Moduli (GPa) = 82.87266 27.79347 58.13255
#
# Poissons Ratio (x) = 0.32671 -0.09098
# Poissons Ratio (y) = 0.97417 0.75684
# Poissons Ratio (z) = -0.12970 0.36185
#
# Static dielectric constant tensor:
#      x y z
#    x 3.901030 0.000000 -0.107300 
#    y 0.000000 3.198130 0.000000 
#    z -0.107300 0.000000 3.616550 
# 
# 
# High freq. dielectric constant tensor:
#      x y z
#    x 1.783700 0.000000 -0.009370 
#    y 0.000000 1.727170 0.000000 
#    z -0.009370 0.000000 1.760950 
# 
# From -- ./inp_files/91321.got.cif
#   From: 2010.06.25/outbox.cif.g09.slc.cpg/sg15_46_cif.got.tgz:91321.got - 2010.06.28 07:06:18.
