data_PCOD8138953
_publ_section_title
;
Structure prediction by ZEFSAII (Michael W. Deem and Ramdas Pophale) SiO2 
 PCOD8138953
Probable space group: C 2/C
;
_chemical_formula_sum "Si O2"
_cell_formula_units_Z 64
_cell_length_a 27.213740
_cell_length_b 20.045399
_cell_length_c 12.153589
_cell_angle_alpha 90.000000
_cell_angle_beta 148.994661
_cell_angle_gamma 90.000000
_cell_volume 3415.184436
_symmetry_space_group_name_H-M "C 2/C"
_symmetry_group_IT_number 15
_symmetry_cell_setting 'monoclinic'
loop_
_space_group_symop_operation_xyz
x,y,z
-x,y,1/2-z
-x,-y,-z
x,-y,1/2+z
1/2+x,1/2+y,z
1/2-x,1/2+y,1/2-z
1/2-x,1/2-y,-z
1/2+x,1/2-y,1/2+z
loop_
_atom_site_type_symbol
_atom_site_label
_atom_site_fract_x
_atom_site_fract_y
_atom_site_fract_z
Si Si1 0.886362 0.112401 0.527326
Si Si2 0.178978 0.691699 0.833107
Si Si3 0.094164 0.550812 0.967028
Si Si4 0.388580 0.764034 0.531052
Si Si5 0.753348 0.447329 0.574002
Si Si6 0.990226 0.310940 0.112726
Si Si7 0.172432 0.694251 0.359528
Si Si8 0.748891 0.568925 0.414352
O O1 0.847989 0.188541 0.464971
O O2 0.841742 0.066877 0.538081
O O3 0.847682 0.086522 0.336094
O O4 0.000000 0.105486 0.750000
O O5 0.146658 0.698981 0.645632
O O6 0.090297 0.693906 0.744490
O O7 0.250000 0.750000 0.000000
O O8 0.234203 0.621823 0.955299
O O9 0.163574 0.517943 0.191087
O O10 0.158668 0.570645 0.986858
O O11 0.044020 0.614235 0.927876
O O12 0.000000 0.506304 0.750000
O O13 0.500000 0.755953 0.750000
O O14 0.359148 0.810934 0.574923
O O15 0.790080 0.377980 0.598206
O O16 0.730760 0.496374 0.430985
O O17 0.000000 0.272857 0.250000
O O18 0.911540 0.279021 0.881565
O O19 0.250000 0.750000 0.500000
#
# Coordination Sequence:
#
# PCOD8138953 Si02
#       8
#     8   8   8   8   8   8   8   8
#     4  10  22  42  65  84 117 169 206 260 326 373
#     4  12  23  37  63  93 123 166 205 260 307 360
#     4   9  18  37  61  82 124 165 195 233 309 377
#     4  11  22  38  61  94 126 156 215 257 307 366
#     4  10  23  38  62  92 119 162 209 254 310 375
#     4  10  20  38  63  89 122 165 211 239 302 385
#     4  11  22  39  64  90 125 167 206 259 313 364
#     4  11  22  40  61  92 123 159 213 254 306 384
#
# _framework density 18.739836
#
# number of rings (size 3 to 8) (size 9 to 14) (size 15 to 20)
#    0.000    1.500    6.250    0.000    1.750    3.000 
#    0.000    1.250    0.000    0.000    0.000    0.000 
#    0.000    0.000    0.000    0.000    0.000    0.000 
#
# Total GULP energy -396587.974172 kJ/mol
# GULP energy per Si atom -12393.374193 kJ/mol
# Density = 1.869718 g / cm^3
# Si number density = 18.739836 Si / 1000 Ang^3
#
#
#
# Elastic Constant Matrix: (Units=GPa)
#
#
# Indices 1 2 3 4 5 6 
#
# 1 111.9410 33.0378 64.2338 0.0000 -11.5984 0.0000
# 2 33.0378 76.2461 48.5254 0.0000 -2.7109 0.0000
# 3 64.2338 48.5254 140.8143 0.0000 -14.2094 0.0000
# 4 0.0000 0.0000 0.0000 24.7258 0.0000 -7.0636
# 5 -11.5984 -2.7109 -14.2094 0.0000 37.5631 0.0000
# 6 0.0000 0.0000 0.0000 -7.0636 0.0000 23.2601
#
#
#
# Elastic Compliance Matrix: (Units=1/GPa)
#
#
# Indices 1 2 3 4 5 6 
#
# 1 0.012531 -0.002366 -0.004708 0.000000 0.001918 0.000000
# 2 -0.002366 0.017284 -0.005016 0.000000 -0.001381 0.000000
# 3 -0.004708 -0.005016 0.011223 0.000000 0.002430 0.000000
# 4 0.000000 0.000000 0.000000 0.044286 0.000000 0.013449
# 5 0.001918 -0.001381 0.002430 0.000000 0.028034 0.000000
# 6 0.000000 0.000000 0.000000 0.013449 0.000000 0.047076
#
#
# Mechanical properties :
#
#
# Convention : Reuss Voigt Hill
#
# Bulk Modulus (GPa) = 59.31556 68.95506 64.13531
# Shear Modulus (GPa) = 26.28363 29.32342 27.80352
#
# Velocity S-wave (km/s) = 3.74913 3.96000 3.85601
# Velocity P-wave (km/s) = 7.10367 7.60162 7.35686
#
# Compressibility (1/GPa) = 0.01685898
#
# Stress axis : x y z
#
# Youngs Moduli (GPa) = 79.79891 57.85712 89.10424
#
# Poissons Ratio (x) = 0.13687 0.41947
# Poissons Ratio (y) = 0.18878 0.44698
# Poissons Ratio (z) = 0.37566 0.29023
#
# Static dielectric constant tensor:
#      x y z
#    x 3.548730 0.000000 -0.202110 
#    y 0.000000 2.511180 0.000000 
#    z -0.202110 0.000000 4.067380 
# 
# 
# High freq. dielectric constant tensor:
#      x y z
#    x 1.733980 0.000000 -0.005580 
#    y 0.000000 1.694750 0.000000 
#    z -0.005580 0.000000 1.748900 
# 
# From -- ./inp_files/124276.got.cif
#   From: 2010.06.25/outbox.cif.g09.slc.cpg/sg15_63_cif.got.tgz:124276.got - 2010.06.28 07:06:18.
