data_PCOD8138266
_publ_section_title
;
Structure prediction by ZEFSAII (Michael W. Deem and Ramdas Pophale) SiO2 
 PCOD8138266
Probable space group: C 2/C
;
_chemical_formula_sum "Si O2"
_cell_formula_units_Z 60
_cell_length_a 24.058102
_cell_length_b 15.327895
_cell_length_c 19.662622
_cell_angle_alpha 90.000000
_cell_angle_beta 155.736718
_cell_angle_gamma 90.000000
_cell_volume 2979.568469
_symmetry_space_group_name_H-M "C 2/C"
_symmetry_group_IT_number 15
_symmetry_cell_setting 'monoclinic'
loop_
_space_group_symop_operation_xyz
x,y,z
-x,y,1/2-z
-x,-y,-z
x,-y,1/2+z
1/2+x,1/2+y,z
1/2-x,1/2+y,1/2-z
1/2-x,1/2-y,-z
1/2+x,1/2-y,1/2+z
loop_
_atom_site_type_symbol
_atom_site_label
_atom_site_fract_x
_atom_site_fract_y
_atom_site_fract_z
Si Si1 0.649168 0.577073 0.035889
Si Si2 0.815949 0.307723 0.632135
Si Si3 0.003216 0.085634 0.174361
Si Si4 0.387474 0.652229 0.800472
Si Si5 0.486778 0.285414 0.931106
Si Si6 0.712452 0.147160 0.176214
Si Si7 0.269849 0.995174 0.915710
Si Si8 0.000000 0.581947 0.250000
O O1 0.715120 0.615663 0.041506
O O2 0.742438 0.594683 0.205953
O O3 0.622104 0.474433 0.991337
O O4 0.506122 0.624802 0.882266
O O5 0.750000 0.250000 0.500000
O O6 0.843299 0.249318 0.729356
O O7 0.950741 0.354510 0.755469
O O8 0.000514 0.176796 0.130592
O O9 0.000000 0.108861 0.250000
O O10 0.142232 0.036627 0.315640
O O11 0.263096 0.585928 0.658799
O O12 0.437617 0.648302 0.933800
O O13 0.329159 0.283445 0.781208
O O14 0.566791 0.193725 0.024599
O O15 0.684191 0.076086 0.087172
O O16 0.387079 0.015226 0.099171
#
# Coordination Sequence:
#
# PCOD8138266 Si02
#       8
#     8   8   8   8   8   8   8   4
#     4  10  21  37  62  86 116 157 205 243 303 362
#     4  12  22  35  56  89 124 155 188 241 308 364
#     4  10  21  40  63  88 118 164 209 250 295 375
#     4  10  20  37  62  86 120 160 200 244 295 376
#     4  10  21  40  65  90 121 158 210 255 308 355
#     4  10  21  43  63  90 118 162 209 260 304 363
#     4  10  22  40  60  84 125 164 199 246 311 363
#     4  12  24  38  54  90 128 162 194 248 312 368
#
# _framework density 20.137143999999999
#
# number of rings (size 3 to 8) (size 9 to 14) (size 15 to 20)
#    0.000    1.600    2.667    2.400    1.867    3.200 
#    6.000    2.000    0.000    0.000    0.000    0.000 
#    0.000    0.000    0.000    0.000    0.000    0.000 
#
# Total GULP energy -371922.733965 kJ/mol
# GULP energy per Si atom -12397.424465 kJ/mol
# Density = 2.009131 g / cm^3
# Si number density = 20.137144 Si / 1000 Ang^3
#
#
#
# Elastic Constant Matrix: (Units=GPa)
#
#
# Indices 1 2 3 4 5 6 
#
# 1 86.2030 15.2935 14.2585 -0.0002 -10.1497 0.0002
# 2 15.2935 51.3898 29.1562 -0.0004 0.7777 -0.0001
# 3 14.2585 29.1562 74.5060 -0.0004 -7.7952 -0.0001
# 4 -0.0002 -0.0004 -0.0004 31.2488 -0.0001 -2.5814
# 5 -10.1497 0.7777 -7.7952 -0.0001 29.5604 -0.0001
# 6 0.0002 -0.0001 -0.0001 -2.5814 -0.0001 25.7374
#
#
#
# Elastic Compliance Matrix: (Units=1/GPa)
#
#
# Indices 1 2 3 4 5 6 
#
# 1 0.012841 -0.003535 -0.000620 0.000000 0.004339 0.000000
# 2 -0.003535 0.026309 -0.010097 0.000000 -0.004569 0.000000
# 3 -0.000620 -0.010097 0.017993 0.000000 0.004798 0.000000
# 4 0.000000 0.000000 0.000000 0.032269 0.000000 0.003236
# 5 0.004339 -0.004569 0.004798 0.000000 0.036704 0.000000
# 6 0.000000 0.000000 0.000000 0.003236 0.000000 0.039179
#
#
# Mechanical properties :
#
#
# Convention : Reuss Voigt Hill
#
# Bulk Modulus (GPa) = 34.91731 36.61279 35.76505
# Shear Modulus (GPa) = 24.58871 27.53536 26.06203
#
# Velocity S-wave (km/s) = 3.49816 3.70184 3.60144
# Velocity P-wave (km/s) = 5.80462 6.04092 5.92394
#
# Compressibility (1/GPa) = 0.02863909
#
# Stress axis : x y z
#
# Youngs Moduli (GPa) = 77.87477 38.01007 55.57570
#
# Poissons Ratio (x) = 0.13438 0.03446
# Poissons Ratio (y) = 0.27532 0.56113
# Poissons Ratio (z) = 0.04829 0.38378
#
# Static dielectric constant tensor:
#      x y z
#    x 3.680080 0.000000 0.024420 
#    y 0.000000 3.542330 0.000000 
#    z 0.024420 0.000000 3.604890 
# 
# 
# High freq. dielectric constant tensor:
#      x y z
#    x 1.791210 0.000000 -0.004000 
#    y 0.000000 1.770290 0.000000 
#    z -0.004000 0.000000 1.781480 
# 
# From -- ./inp_files/255655.got.cif
#   From: 2010.06.25/outbox.cif.g09.slc.cpg/sg15_128_cif.got.tgz:255655.got - 2010.06.28 07:06:18.
