data_PCOD8138550
_publ_section_title
;
Structure prediction by ZEFSAII (Michael W. Deem and Ramdas Pophale) SiO2 
 PCOD8138550
Probable space group: C 2/C
;
_chemical_formula_sum "Si O2"
_cell_formula_units_Z 44
_cell_length_a 24.578756
_cell_length_b 15.743163
_cell_length_c 11.616580
_cell_angle_alpha 90.000000
_cell_angle_beta 29.610531
_cell_angle_gamma 90.000000
_cell_volume 2220.989479
_symmetry_space_group_name_H-M "C 2/C"
_symmetry_group_IT_number 15
_symmetry_cell_setting 'monoclinic'
loop_
_space_group_symop_operation_xyz
x,y,z
-x,y,1/2-z
-x,-y,-z
x,-y,1/2+z
1/2+x,1/2+y,z
1/2-x,1/2+y,1/2-z
1/2-x,1/2-y,-z
1/2+x,1/2-y,1/2+z
loop_
_atom_site_type_symbol
_atom_site_label
_atom_site_fract_x
_atom_site_fract_y
_atom_site_fract_z
Si Si1 0.860204 0.210022 0.346521
Si Si2 0.305896 0.165187 0.444535
Si Si3 0.099425 0.460159 0.890998
Si Si4 0.780797 0.619322 0.736039
Si Si5 0.969527 0.752002 0.426579
Si Si6 0.000000 0.329679 0.250000
O O1 0.750000 0.250000 0.500000
O O2 0.824463 0.125670 0.483861
O O3 0.912425 0.273514 0.342887
O O4 0.945912 0.188715 0.082967
O O5 0.250000 0.250000 0.500000
O O6 0.305597 0.084550 0.359973
O O7 0.242794 0.131041 0.673800
O O8 0.433993 0.185012 0.228951
O O9 0.157290 0.531238 0.861378
O O10 0.000000 0.500000 0.000000
O O11 0.059468 0.387726 0.048804
O O12 0.859853 0.698366 0.614190
O O13 0.000000 0.802049 0.250000
#
# Coordination Sequence:
#
# PCOD8138550 Si02
#       6
#     8   8   8   8   8   4
#     4  10  20  38  56  91 122 161 205 254 304 372
#     4  11  21  36  56  89 125 160 201 247 314 377
#     4  12  21  36  58  93 124 156 199 265 317 361
#     4  10  21  34  57  87 123 157 195 256 313 362
#     4   9  18  35  56  81 119 159 194 250 307 368
#     4  12  22  34  64  94 120 160 210 250 314 378
#
# _framework density 19.81099
#
# number of rings (size 3 to 8) (size 9 to 14) (size 15 to 20)
#    0.000    1.455    3.636    3.273    1.273    0.000 
#    0.000    0.000    0.000    1.091   16.545    0.000 
#    0.000    0.000    0.000    0.000    0.000    0.000 
#
# Total GULP energy -272548.384447 kJ/mol
# GULP energy per Si atom -12388.562929 kJ/mol
# Density = 1.976590 g / cm^3
# Si number density = 19.810990 Si / 1000 Ang^3
#
#
#
# Elastic Constant Matrix: (Units=GPa)
#
#
# Indices 1 2 3 4 5 6 
#
# 1 112.0647 43.3101 34.3406 0.0000 16.0750 0.0000
# 2 43.3101 67.3090 16.3020 0.0000 -4.8212 0.0000
# 3 34.3406 16.3020 90.3108 0.0000 25.1760 0.0000
# 4 0.0000 0.0000 0.0000 -9.6591 0.0000 -1.8653
# 5 16.0750 -4.8212 25.1760 0.0000 24.5081 0.0000
# 6 0.0000 0.0000 0.0000 -1.8653 0.0000 24.7856
#
#
#
# Elastic Compliance Matrix: (Units=1/GPa)
#
#
# Indices 1 2 3 4 5 6 
#
# 1 0.014529 -0.009937 -0.000742 0.000000 -0.010723 0.000000
# 2 -0.009937 0.023646 -0.005049 0.000000 0.016356 0.000000
# 3 -0.000742 -0.005049 0.017387 0.000000 -0.018367 0.000000
# 4 0.000000 0.000000 0.000000 -0.102047 0.000000 -0.007680
# 5 -0.010723 0.016356 -0.018367 0.000000 0.069921 0.000000
# 6 0.000000 0.000000 0.000000 -0.007680 0.000000 0.039768
#
#
# Mechanical properties :
#
#
# Convention : Reuss Voigt Hill
#
# Bulk Modulus (GPa) = 41.48567 50.84333 46.16450
# Shear Modulus (GPa) = 48.68746 19.64238 34.16492
#
# Velocity S-wave (km/s) = 4.96280 3.15221 4.15727
# Velocity P-wave (km/s) = 7.33657 6.24247 6.81153
#
# Compressibility (1/GPa) = 0.02410471
#
# Stress axis : x y z
#
# Youngs Moduli (GPa) = 68.82617 42.29130 57.51552
#
# Poissons Ratio (x) = 0.42026 0.04267
# Poissons Ratio (y) = 0.68395 0.29041
# Poissons Ratio (z) = 0.05106 0.21354
#
# Static dielectric constant tensor:
#      x y z
#    x 4.439660 0.000000 1.292190 
#    y 0.000000 3.444460 0.000000 
#    z 1.292190 0.000000 5.880230 
# 
# 
# High freq. dielectric constant tensor:
#      x y z
#    x 1.780690 0.000000 0.030530 
#    y 0.000000 1.727830 0.000000 
#    z 0.030530 0.000000 1.782950 
# 
# From -- ./inp_files/86115.got.cif
#   From: 2010.06.25/outbox.cif.g09.slc.cpg/sg15_44_cif.got.tgz:86115.got - 2010.06.28 07:06:18.
