data_PCOD8138220
_publ_section_title
;
Structure prediction by ZEFSAII (Michael W. Deem and Ramdas Pophale) SiO2 
 PCOD8138220
Probable space group: C 2/C
;
_chemical_formula_sum "Si O2"
_cell_formula_units_Z 60
_cell_length_a 11.514921
_cell_length_b 19.165909
_cell_length_c 28.877818
_cell_angle_alpha 90.000000
_cell_angle_beta 150.589130
_cell_angle_gamma 90.000000
_cell_volume 3129.661045
_symmetry_space_group_name_H-M "C 2/C"
_symmetry_group_IT_number 15
_symmetry_cell_setting 'monoclinic'
loop_
_space_group_symop_operation_xyz
x,y,z
-x,y,1/2-z
-x,-y,-z
x,-y,1/2+z
1/2+x,1/2+y,z
1/2-x,1/2+y,1/2-z
1/2-x,1/2-y,-z
1/2+x,1/2-y,1/2+z
loop_
_atom_site_type_symbol
_atom_site_label
_atom_site_fract_x
_atom_site_fract_y
_atom_site_fract_z
Si Si1 0.833720 0.500107 0.299726
Si Si2 0.257520 0.339965 0.756390
Si Si3 0.309278 0.674283 0.145074
Si Si4 0.979432 0.237450 0.896127
Si Si5 0.264753 0.499574 0.388543
Si Si6 0.005047 0.458230 0.954682
Si Si7 0.500000 0.121673 0.250000
Si Si8 0.538022 0.578248 0.629440
O O1 0.773170 0.578756 0.265123
O O2 0.618087 0.450993 0.207618
O O3 0.061946 0.469984 0.351853
O O4 0.870117 0.497466 0.367875
O O5 0.536025 0.318541 0.848434
O O6 0.093545 0.294983 0.666280
O O7 0.163219 0.327755 0.775463
O O8 0.500000 0.651838 0.250000
O O9 0.178536 0.747186 0.112529
O O10 0.113851 0.614937 0.074420
O O11 0.928953 0.161052 0.859500
O O12 0.250000 0.250000 0.000000
O O13 0.500000 0.500000 0.500000
O O14 0.184032 0.576312 0.344227
O O15 0.298033 0.453074 0.354237
O O16 0.267626 0.443423 0.027031
O O17 0.000000 0.500000 0.000000
#
# Coordination Sequence:
#
# PCOD8138220 Si02
#       8
#     8   8   8   8   8   8   4   8
#     4  11  21  40  59  92 131 159 217 270 318 381
#     4  10  20  39  65  85 119 169 211 253 320 379
#     4  10  20  37  61  87 117 162 218 254 304 379
#     4  11  22  39  63  92 127 169 219 260 315 388
#     4  11  21  34  62  95 125 157 209 266 329 370
#     4  12  24  36  62  93 128 173 207 268 319 380
#     4  10  22  40  62  92 126 164 202 268 324 394
#     4  12  23  39  65  96 129 167 215 273 325 375
#
# _framework density 19.171405
#
# number of rings (size 3 to 8) (size 9 to 14) (size 15 to 20)
#    0.000    1.067    8.000    0.800    1.867    3.200 
#    0.000    1.333    0.000    0.800    0.000    0.000 
#    0.000    0.000    0.000    0.000    0.000    0.000 
#
# Total GULP energy -371864.603772 kJ/mol
# GULP energy per Si atom -12395.486792 kJ/mol
# Density = 1.912777 g / cm^3
# Si number density = 19.171405 Si / 1000 Ang^3
#
#
#
# Elastic Constant Matrix: (Units=GPa)
#
#
# Indices 1 2 3 4 5 6 
#
# 1 141.2130 37.7357 38.0056 0.0039 9.8034 0.0047
# 2 37.7357 107.3401 37.8189 0.0027 0.7505 0.0032
# 3 38.0056 37.8189 101.6318 0.0022 2.4567 0.0045
# 4 0.0039 0.0027 0.0022 33.3998 0.0023 3.0877
# 5 9.8034 0.7505 2.4567 0.0023 32.4151 0.0033
# 6 0.0047 0.0032 0.0045 3.0877 0.0033 29.3890
#
#
#
# Elastic Compliance Matrix: (Units=1/GPa)
#
#
# Indices 1 2 3 4 5 6 
#
# 1 0.008434 -0.002138 -0.002302 0.000000 -0.002327 0.000000
# 2 -0.002138 0.011264 -0.003408 0.000000 0.000644 0.000000
# 3 -0.002302 -0.003408 0.011972 0.000000 -0.000132 -0.000001
# 4 0.000000 0.000000 0.000000 0.030234 -0.000002 -0.003176
# 5 -0.002327 0.000644 -0.000132 -0.000002 0.031549 -0.000003
# 6 0.000000 0.000000 -0.000001 -0.003176 -0.000003 0.034360
#
#
# Mechanical properties :
#
#
# Convention : Reuss Voigt Hill
#
# Bulk Modulus (GPa) = 62.60025 64.14505 63.37265
# Shear Modulus (GPa) = 33.59504 34.81574 34.20539
#
# Velocity S-wave (km/s) = 4.19065 4.26611 4.22855
# Velocity P-wave (km/s) = 7.49261 7.60247 7.54774
#
# Compressibility (1/GPa) = 0.01597438
#
# Stress axis : x y z
#
# Youngs Moduli (GPa) = 118.56991 88.78030 83.53098
#
# Poissons Ratio (x) = 0.18977 0.19231
# Poissons Ratio (y) = 0.25345 0.28465
# Poissons Ratio (z) = 0.27297 0.30253
#
# Static dielectric constant tensor:
#      x y z
#    x 4.392340 -0.000030 0.379090 
#    y -0.000030 3.418700 -0.000030 
#    z 0.379090 -0.000030 3.772340 
# 
# 
# High freq. dielectric constant tensor:
#      x y z
#    x 1.757270 0.000000 0.019600 
#    y 0.000000 1.718100 0.000000 
#    z 0.019600 0.000000 1.746870 
# 
# From -- ./inp_files/311577.got.cif
#   From: 2010.06.25/outbox.cif.g09.slc.cpg/sg15_156_cif.got.tgz:311577.got - 2010.06.28 07:06:18.
