data_PCOD8138941
_publ_section_title
;
Structure prediction by ZEFSAII (Michael W. Deem and Ramdas Pophale) SiO2 
 PCOD8138941
Probable space group: C 2/C
;
_chemical_formula_sum "Si O2"
_cell_formula_units_Z 64
_cell_length_a 14.842050
_cell_length_b 17.125142
_cell_length_c 16.942979
_cell_angle_alpha 90.000000
_cell_angle_beta 132.923929
_cell_angle_gamma 90.000000
_cell_volume 3153.423420
_symmetry_space_group_name_H-M "C 2/C"
_symmetry_group_IT_number 15
_symmetry_cell_setting 'monoclinic'
loop_
_space_group_symop_operation_xyz
x,y,z
-x,y,1/2-z
-x,-y,-z
x,-y,1/2+z
1/2+x,1/2+y,z
1/2-x,1/2+y,1/2-z
1/2-x,1/2-y,-z
1/2+x,1/2-y,1/2+z
loop_
_atom_site_type_symbol
_atom_site_label
_atom_site_fract_x
_atom_site_fract_y
_atom_site_fract_z
Si Si1 0.255196 0.124547 0.806412
Si Si2 0.014996 0.844979 0.345036
Si Si3 0.374298 0.227765 0.493703
Si Si4 0.627657 0.344507 0.871756
Si Si5 0.026040 0.598413 0.672689
Si Si6 0.300877 0.524568 0.580313
Si Si7 0.554878 0.932556 0.868009
Si Si8 0.932042 0.713464 0.017674
O O1 0.119373 0.146310 0.695716
O O2 0.334850 0.114399 0.774184
O O3 0.247069 0.049581 0.860608
O O4 0.315006 0.195156 0.893151
O O5 0.000000 0.806231 0.250000
O O6 0.076594 0.929432 0.371608
O O7 0.101480 0.786962 0.446914
O O8 0.385349 0.308313 0.548777
O O9 0.232427 0.206221 0.389316
O O10 0.429481 0.154792 0.574171
O O11 0.447949 0.240174 0.458031
O O12 0.500000 0.334663 0.750000
O O13 0.667514 0.433932 0.902030
O O14 0.000000 0.607064 0.750000
O O15 0.007139 0.509879 0.633084
O O16 0.200663 0.547753 0.453937
O O17 0.500000 0.912725 0.750000
O O18 0.525096 0.860998 0.906925
#
# Coordination Sequence:
#
# PCOD8138941 Si02
#       8
#     8   8   8   8   8   8   8   8
#     4   9  21  36  63  88 117 167 202 245 308 364
#     4  10  21  39  60  88 124 164 199 247 306 366
#     4  10  23  38  58  87 115 158 200 256 298 361
#     4  11  22  39  61  86 120 159 202 247 308 368
#     4  10  20  38  63  87 120 155 202 252 305 352
#     4  10  21  40  63  90 122 162 200 246 303 366
#     4  10  21  37  62  92 117 155 203 255 300 355
#     4  10  22  37  59  89 121 155 208 252 299 357
#
# _framework density 20.295401999999999
#
# number of rings (size 3 to 8) (size 9 to 14) (size 15 to 20)
#    0.000    2.000    1.250    1.875    1.750   11.000 
#    0.000    0.625    0.000    0.000    0.000    0.000 
#    0.000    0.000    0.000    0.000    0.000    0.000 
#
# Total GULP energy -396645.786179 kJ/mol
# GULP energy per Si atom -12395.180818 kJ/mol
# Density = 2.024921 g / cm^3
# Si number density = 20.295402 Si / 1000 Ang^3
#
#
#
# Elastic Constant Matrix: (Units=GPa)
#
#
# Indices 1 2 3 4 5 6 
#
# 1 124.1321 41.3413 44.1804 0.0000 13.6825 0.0000
# 2 41.3413 106.7585 32.6582 0.0000 -9.4568 0.0000
# 3 44.1804 32.6582 95.8915 0.0000 14.4086 0.0000
# 4 0.0000 0.0000 0.0000 20.7058 0.0000 2.3820
# 5 13.6825 -9.4568 14.4086 0.0000 29.6174 0.0000
# 6 0.0000 0.0000 0.0000 2.3820 0.0000 18.8683
#
#
#
# Elastic Compliance Matrix: (Units=1/GPa)
#
#
# Indices 1 2 3 4 5 6 
#
# 1 0.010897 -0.003707 -0.003046 0.000000 -0.004736 0.000000
# 2 -0.003707 0.012609 -0.003721 0.000000 0.007549 0.000000
# 3 -0.003046 -0.003721 0.014097 0.000000 -0.006639 0.000000
# 4 0.000000 0.000000 0.000000 0.049007 0.000000 -0.006187
# 5 -0.004736 0.007549 -0.006639 0.000000 0.041592 0.000000
# 6 0.000000 0.000000 0.000000 -0.006187 0.000000 0.053780
#
#
# Mechanical properties :
#
#
# Convention : Reuss Voigt Hill
#
# Bulk Modulus (GPa) = 60.04443 62.57133 61.30788
# Shear Modulus (GPa) = 23.98288 27.74511 25.86400
#
# Velocity S-wave (km/s) = 3.44130 3.70139 3.57371
# Velocity P-wave (km/s) = 6.74089 7.01173 6.87764
#
# Compressibility (1/GPa) = 0.01665434
#
# Stress axis : x y z
#
# Youngs Moduli (GPa) = 91.76946 79.30569 70.93877
#
# Poissons Ratio (x) = 0.29401 0.21610
# Poissons Ratio (y) = 0.34022 0.26394
# Poissons Ratio (z) = 0.27956 0.29507
#
# Static dielectric constant tensor:
#      x y z
#    x 3.739820 0.000000 0.158050 
#    y 0.000000 3.732530 0.000000 
#    z 0.158050 0.000000 3.741970 
# 
# 
# High freq. dielectric constant tensor:
#      x y z
#    x 1.790390 0.000000 0.012810 
#    y 0.000000 1.796530 0.000000 
#    z 0.012810 0.000000 1.790910 
# 
# From -- ./inp_files/205738.got.cif
#   From: 2010.06.25/outbox.cif.g09.slc.cpg/sg15_103_cif.got.tgz:205738.got - 2010.06.28 07:06:18.
