data_PCOD8138462
_publ_section_title
;
Structure prediction by ZEFSAII (Michael W. Deem and Ramdas Pophale) SiO2 
 PCOD8138462
Probable space group: C 2/C
;
_chemical_formula_sum "Si O2"
_cell_formula_units_Z 52
_cell_length_a 19.506165
_cell_length_b 8.730107
_cell_length_c 13.961925
_cell_angle_alpha 90.000000
_cell_angle_beta 94.531184
_cell_angle_gamma 90.000000
_cell_volume 2370.157687
_symmetry_space_group_name_H-M "C 2/C"
_symmetry_group_IT_number 15
_symmetry_cell_setting 'monoclinic'
loop_
_space_group_symop_operation_xyz
x,y,z
-x,y,1/2-z
-x,-y,-z
x,-y,1/2+z
1/2+x,1/2+y,z
1/2-x,1/2+y,1/2-z
1/2-x,1/2-y,-z
1/2+x,1/2-y,1/2+z
loop_
_atom_site_type_symbol
_atom_site_label
_atom_site_fract_x
_atom_site_fract_y
_atom_site_fract_z
Si Si1 0.903536 0.682382 0.587594
Si Si2 0.018928 0.197946 0.959300
Si Si3 0.936609 0.963299 0.861500
Si Si4 0.258652 0.189982 0.853045
Si Si5 0.500000 0.801733 0.250000
Si Si6 0.848392 0.626341 0.039563
Si Si7 0.322391 0.399464 0.710507
O O1 0.847354 0.559175 0.545726
O O2 0.867688 0.835371 0.627120
O O3 0.953587 0.728115 0.506514
O O4 0.945043 0.601932 0.682154
O O5 0.072258 0.327767 0.932986
O O6 0.065617 0.074237 0.024596
O O7 0.987735 0.110793 0.861554
O O8 0.865582 0.992602 0.797301
O O9 0.966172 0.806645 0.824629
O O10 0.199835 0.303101 0.884550
O O11 0.284389 0.255582 0.754906
O O12 0.231409 0.018364 0.838322
O O13 0.322847 0.182090 0.932828
#
# Coordination Sequence:
#
# PCOD8138462 Si02
#       7
#     8   8   8   8   4   8   8
#     4  10  22  40  66  89 127 157 202 260 316 357
#     4  10  20  37  65  94 120 157 196 257 314 367
#     4   9  19  34  64  89 122 151 205 249 313 356
#     4  11  26  42  64  85 126 171 207 250 301 361
#     4   8  18  36  56  92 122 160 180 260 318 348
#     4  11  24  43  60  91 128 164 205 250 302 381
#     4  11  23  44  63  91 123 165 211 258 303 364
#
# _framework density 21.939468999999999
#
# number of rings (size 3 to 8) (size 9 to 14) (size 15 to 20)
#    0.000    1.846    1.538    1.385    8.615    1.846 
#    2.769    0.000    0.000    0.000    0.000    0.000 
#    0.000    0.000    0.000    0.000    0.000    0.000 
#
# Total GULP energy -322183.638057 kJ/mol
# GULP energy per Si atom -12391.678387 kJ/mol
# Density = 2.188953 g / cm^3
# Si number density = 21.939469 Si / 1000 Ang^3
#
#
#
# Elastic Constant Matrix: (Units=GPa)
#
#
# Indices 1 2 3 4 5 6 
#
# 1 103.9228 44.0964 29.4765 0.0000 -6.3671 0.0000
# 2 44.0964 78.4140 18.9462 0.0000 11.5427 0.0000
# 3 29.4765 18.9462 44.7606 0.0000 -3.0148 0.0000
# 4 0.0000 0.0000 0.0000 -53.1413 0.0000 29.9568
# 5 -6.3671 11.5427 -3.0148 0.0000 20.9164 0.0000
# 6 0.0000 0.0000 0.0000 29.9568 0.0000 34.5007
#
#
#
# Elastic Compliance Matrix: (Units=1/GPa)
#
#
# Indices 1 2 3 4 5 6 
#
# 1 0.015452 -0.008493 -0.006007 0.000000 0.008525 0.000000
# 2 -0.008493 0.020678 -0.004142 0.000000 -0.014594 0.000000
# 3 -0.006007 -0.004142 0.028356 0.000000 0.004545 0.000000
# 4 0.000000 0.000000 0.000000 -0.012634 0.000000 0.010970
# 5 0.008525 -0.014594 0.004545 0.000000 0.059113 0.000000
# 6 0.000000 0.000000 0.000000 0.010970 0.000000 0.019460
#
#
# Mechanical properties :
#
#
# Convention : Reuss Voigt Hill
#
# Bulk Modulus (GPa) = 36.76216 45.79286 41.27751
# Shear Modulus (GPa) = 28.28400 9.42703 18.85552
#
# Velocity S-wave (km/s) = 3.59442 2.07513 2.93479
# Velocity P-wave (km/s) = 5.83258 5.16326 5.50809
#
# Compressibility (1/GPa) = 0.02720188
#
# Stress axis : x y z
#
# Youngs Moduli (GPa) = 64.71455 48.36015 35.26557
#
# Poissons Ratio (x) = 0.41074 0.21183
# Poissons Ratio (y) = 0.54964 0.14608
# Poissons Ratio (z) = 0.38873 0.20033
#
# Static dielectric constant tensor:
#      x y z
#    x 3.986240 0.000000 0.253950 
#    y 0.000000 3.708280 0.000000 
#    z 0.253950 0.000000 4.011600 
# 
# 
# High freq. dielectric constant tensor:
#      x y z
#    x 1.861020 0.000000 0.004870 
#    y 0.000000 1.846590 0.000000 
#    z 0.004870 0.000000 1.857240 
# 
# From -- ./inp_files/166288.got.cif
#   From: 2010.06.25/outbox.cif.g09.slc.cpg/sg15_84_cif.got.tgz:166288.got - 2010.06.28 07:06:18.
