data_PCOD8138528
_publ_section_title
;
Structure prediction by ZEFSAII (Michael W. Deem and Ramdas Pophale) SiO2 
 PCOD8138528
Probable space group: C 2/C
;
_chemical_formula_sum "Si O2"
_cell_formula_units_Z 60
_cell_length_a 11.650108
_cell_length_b 27.528565
_cell_length_c 9.860996
_cell_angle_alpha 90.000000
_cell_angle_beta 87.155823
_cell_angle_gamma 90.000000
_cell_volume 3158.631797
_symmetry_space_group_name_H-M "C 2/C"
_symmetry_group_IT_number 15
_symmetry_cell_setting 'monoclinic'
loop_
_space_group_symop_operation_xyz
x,y,z
-x,y,1/2-z
-x,-y,-z
x,-y,1/2+z
1/2+x,1/2+y,z
1/2-x,1/2+y,1/2-z
1/2-x,1/2-y,-z
1/2+x,1/2-y,1/2+z
loop_
_atom_site_type_symbol
_atom_site_label
_atom_site_fract_x
_atom_site_fract_y
_atom_site_fract_z
Si Si1 0.766771 0.315489 0.412575
Si Si2 0.750511 0.352506 0.712333
Si Si3 0.059397 0.239451 0.008843
Si Si4 0.614723 0.972377 0.445488
Si Si5 0.885316 0.633842 0.679992
Si Si6 0.000000 0.172660 0.250000
Si Si7 0.637525 0.046984 0.234221
Si Si8 0.840120 0.709752 0.447495
O O1 0.778808 0.338387 0.558839
O O2 0.864082 0.273880 0.397638
O O3 0.641353 0.291010 0.401927
O O4 0.783895 0.356959 0.296526
O O5 0.614301 0.360394 0.742073
O O6 0.816022 0.401669 0.729062
O O7 0.800140 0.310620 0.805775
O O8 0.966500 0.267215 0.922800
O O9 0.991687 0.204554 0.115087
O O10 0.595449 0.921503 0.368820
O O11 0.684997 0.964369 0.580234
O O12 0.500000 0.000000 0.500000
O O13 0.684159 0.006537 0.336817
O O14 0.852363 0.665957 0.553100
O O15 0.000000 0.651523 0.750000
O O16 0.500000 0.048057 0.250000
O O17 0.750000 0.750000 0.500000
#
# Coordination Sequence:
#
# PCOD8138528 Si02
#       8
#     8   8   8   8   8   4   8   8
#     4  10  24  36  58  84 122 166 206 246 304 365
#     4  11  24  39  62  90 121 161 214 257 312 367
#     4  10  20  38  54  83 121 162 209 247 293 358
#     4  10  22  39  62  91 130 157 194 259 330 387
#     4  12  23  40  60  90 126 168 207 251 322 386
#     4  10  20  42  60  80 120 166 206 252 308 368
#     4  10  22  38  60  94 122 151 193 252 319 383
#     4  12  24  38  62  88 124 171 215 260 303 369
#
# _framework density 18.995567000000001
#
# number of rings (size 3 to 8) (size 9 to 14) (size 15 to 20)
#    0.000    1.333    4.000    2.000   11.200    0.000 
#    0.000    0.000    0.000    0.800    3.467    0.000 
#    0.000    0.000    0.000    0.000    0.000    0.000 
#
# Total GULP energy -371868.230366 kJ/mol
# GULP energy per Si atom -12395.607679 kJ/mol
# Density = 1.895233 g / cm^3
# Si number density = 18.995567 Si / 1000 Ang^3
#
#
#
# Elastic Constant Matrix: (Units=GPa)
#
#
# Indices 1 2 3 4 5 6 
#
# 1 59.9630 23.1656 31.1996 0.0000 -6.4807 0.0000
# 2 23.1656 107.9879 44.4956 0.0000 -10.7610 0.0000
# 3 31.1996 44.4956 114.3404 0.0000 -8.4181 0.0000
# 4 0.0000 0.0000 0.0000 18.2719 0.0000 -17.7322
# 5 -6.4807 -10.7610 -8.4181 0.0000 24.0710 0.0000
# 6 0.0000 0.0000 0.0000 -17.7322 0.0000 11.2189
#
#
#
# Elastic Compliance Matrix: (Units=1/GPa)
#
#
# Indices 1 2 3 4 5 6 
#
# 1 0.020145 -0.002211 -0.004424 0.000000 0.002888 0.000000
# 2 -0.002211 0.011570 -0.003656 0.000000 0.003298 0.000000
# 3 -0.004424 -0.003656 0.011463 0.000000 0.001183 0.000000
# 4 0.000000 0.000000 0.000000 -0.102510 0.000000 -0.162024
# 5 0.002888 0.003298 0.001183 0.000000 0.044210 0.000000
# 6 0.000000 0.000000 0.000000 -0.162024 0.000000 -0.166955
#
#
# Mechanical properties :
#
#
# Convention : Reuss Voigt Hill
#
# Bulk Modulus (GPa) = 44.25632 53.33478 48.79555
# Shear Modulus (GPa) = -32.47524 22.94106 -4.76709
#
# Velocity S-wave (km/s) = -4.13924 3.47898 -1.58588
# Velocity P-wave (km/s) = 0.71019 6.65403 4.73183
#
# Compressibility (1/GPa) = 0.02259564
#
# Stress axis : x y z
#
# Youngs Moduli (GPa) = 49.63997 86.43187 87.23792
#
# Poissons Ratio (x) = 0.19109 0.38593
# Poissons Ratio (y) = 0.10975 0.31897
# Poissons Ratio (z) = 0.21960 0.31602
#
# Static dielectric constant tensor:
#      x y z
#    x 3.464790 0.000000 0.071340 
#    y 0.000000 3.523030 0.000000 
#    z 0.071340 0.000000 4.212220 
# 
# 
# High freq. dielectric constant tensor:
#      x y z
#    x 1.712030 0.000000 -0.004380 
#    y 0.000000 1.733690 0.000000 
#    z -0.004380 0.000000 1.756450 
# 
# From -- ./inp_files/34274.got.cif
#   From: 2010.06.25/outbox.cif.g09.slc.cpg/sg15_18_cif.got.tgz:34274.got - 2010.06.28 07:06:18.
