data_PCOD8138090
_publ_section_title
;
Structure prediction by ZEFSAII (Michael W. Deem and Ramdas Pophale) SiO2 
 PCOD8138090
Probable space group: C 2/C
;
_chemical_formula_sum "Si O2"
_cell_formula_units_Z 56
_cell_length_a 20.892260
_cell_length_b 30.979757
_cell_length_c 9.208869
_cell_angle_alpha 90.000000
_cell_angle_beta 29.892680
_cell_angle_gamma 90.000000
_cell_volume 2970.487301
_symmetry_space_group_name_H-M "C 2/C"
_symmetry_group_IT_number 15
_symmetry_cell_setting 'monoclinic'
loop_
_space_group_symop_operation_xyz
x,y,z
-x,y,1/2-z
-x,-y,-z
x,-y,1/2+z
1/2+x,1/2+y,z
1/2-x,1/2+y,1/2-z
1/2-x,1/2-y,-z
1/2+x,1/2-y,1/2+z
loop_
_atom_site_type_symbol
_atom_site_label
_atom_site_fract_x
_atom_site_fract_y
_atom_site_fract_z
Si Si1 0.495159 0.645616 0.928745
Si Si2 0.161640 0.525468 0.815376
Si Si3 0.141816 0.729023 0.116121
Si Si4 0.618264 0.413079 0.612927
Si Si5 0.877181 0.762555 0.663066
Si Si6 0.750991 0.862763 0.396739
Si Si7 0.894383 0.447885 0.758691
O O1 0.500000 0.633998 0.750000
O O2 0.638774 0.651219 0.707830
O O3 0.427768 0.606882 0.145913
O O4 0.411513 0.687900 0.125231
O O5 0.296252 0.546560 0.506487
O O6 0.156149 0.475524 0.778491
O O7 0.151533 0.526632 0.008413
O O8 0.049255 0.553532 0.958401
O O9 0.000912 0.733819 0.467498
O O10 0.250000 0.750000 0.000000
O O11 0.146933 0.756635 0.959433
O O12 0.162874 0.678723 0.041994
O O13 0.500000 0.430637 0.750000
O O14 0.694752 0.377973 0.365417
O O15 0.750000 0.750000 0.000000
O O16 0.662903 0.900063 0.640358
#
# Coordination Sequence:
#
# PCOD8138090 Si02
#       7
#     8   8   8   8   8   8   8
#     4  11  20  38  54  80 117 147 187 241 289 333
#     4   9  18  36  55  84 115 142 188 234 285 342
#     4  11  21  39  58  81 116 153 192 244 283 347
#     4   9  20  35  58  83 110 152 188 230 280 351
#     4  11  23  36  57  85 111 150 195 240 295 341
#     4  10  20  37  59  81 110 153 196 226 284 346
#     4   9  19  34  59  82 112 148 185 235 285 338
#
# _framework density 18.852125000000001
#
# number of rings (size 3 to 8) (size 9 to 14) (size 15 to 20)
#    0.000    2.000    2.857    0.857    0.000    7.429 
#    0.000    7.143    0.000    5.143    0.000    0.000 
#    0.000    0.000    0.000    0.000    0.000    0.000 
#
# Total GULP energy -347194.845691 kJ/mol
# GULP energy per Si atom -12399.815918 kJ/mol
# Density = 1.880922 g / cm^3
# Si number density = 18.852125 Si / 1000 Ang^3
#
#
#
# Elastic Constant Matrix: (Units=GPa)
#
#
# Indices 1 2 3 4 5 6 
#
# 1 88.0962 34.3366 37.1820 0.0000 -12.1939 0.0000
# 2 34.3366 81.0222 32.2920 0.0000 -15.6328 0.0000
# 3 37.1820 32.2920 114.1955 0.0000 -22.0838 -0.0001
# 4 0.0000 0.0000 0.0000 34.3238 0.0000 -9.1387
# 5 -12.1939 -15.6328 -22.0838 0.0000 28.3048 0.0001
# 6 0.0000 0.0000 -0.0001 -9.1387 0.0001 26.7699
#
#
#
# Elastic Compliance Matrix: (Units=1/GPa)
#
#
# Indices 1 2 3 4 5 6 
#
# 1 0.014719 -0.004718 -0.003222 0.000000 0.001221 0.000000
# 2 -0.004718 0.016170 -0.002005 0.000000 0.005334 0.000000
# 3 -0.003222 -0.002005 0.011648 0.000000 0.006592 0.000000
# 4 0.000000 0.000000 0.000000 0.032047 0.000000 0.010940
# 5 0.001221 0.005334 0.006592 0.000000 0.043945 0.000000
# 6 0.000000 0.000000 0.000000 0.010940 0.000000 0.041090
#
#
# Mechanical properties :
#
#
# Convention : Reuss Voigt Hill
#
# Bulk Modulus (GPa) = 44.15613 54.54835 49.35224
# Shear Modulus (GPa) = 26.72960 29.84660 28.28810
#
# Velocity S-wave (km/s) = 3.76953 3.98326 3.87786
# Velocity P-wave (km/s) = 6.51299 7.08186 6.80337
#
# Compressibility (1/GPa) = 0.02264691
#
# Stress axis : x y z
#
# Youngs Moduli (GPa) = 67.93873 61.84316 85.85259
#
# Poissons Ratio (x) = 0.29178 0.27664
# Poissons Ratio (y) = 0.32053 0.17212
# Poissons Ratio (z) = 0.21891 0.12398
#
# Static dielectric constant tensor:
#      x y z
#    x 3.503600 0.000000 -0.170330 
#    y 0.000000 3.378550 0.000000 
#    z -0.170330 0.000000 3.735100 
# 
# 
# High freq. dielectric constant tensor:
#      x y z
#    x 1.735510 0.000000 -0.012580 
#    y 0.000000 1.724880 0.000000 
#    z -0.012580 0.000000 1.733290 
# 
# From -- ./inp_files/59354.got.cif
#   From: 2010.06.25/outbox.cif.g09.slc.cpg/sg15_30_cif.got.tgz:59354.got - 2010.06.28 07:06:18.
