data_PCOD8138678
_publ_section_title
;
Structure prediction by ZEFSAII (Michael W. Deem and Ramdas Pophale) SiO2 
 PCOD8138678
Probable space group: C 2/C
;
_chemical_formula_sum "Si O2"
_cell_formula_units_Z 52
_cell_length_a 14.218153
_cell_length_b 26.583041
_cell_length_c 8.462879
_cell_angle_alpha 90.000000
_cell_angle_beta 123.784895
_cell_angle_gamma 90.000000
_cell_volume 2658.492921
_symmetry_space_group_name_H-M "C 2/C"
_symmetry_group_IT_number 15
_symmetry_cell_setting 'monoclinic'
loop_
_space_group_symop_operation_xyz
x,y,z
-x,y,1/2-z
-x,-y,-z
x,-y,1/2+z
1/2+x,1/2+y,z
1/2-x,1/2+y,1/2-z
1/2-x,1/2-y,-z
1/2+x,1/2-y,1/2+z
loop_
_atom_site_type_symbol
_atom_site_label
_atom_site_fract_x
_atom_site_fract_y
_atom_site_fract_z
Si Si1 0.378651 0.549479 0.091894
Si Si2 0.500000 0.234433 0.250000
Si Si3 0.150112 0.332033 0.665454
Si Si4 0.889506 0.219454 0.357319
Si Si5 0.235988 0.491061 0.188684
Si Si6 0.000000 0.144105 0.250000
Si Si7 0.000000 0.698697 0.750000
Si Si8 0.626209 0.935487 0.811198
O O1 0.500000 0.524131 0.250000
O O2 0.284133 0.536820 0.131751
O O3 0.391085 0.609942 0.104084
O O4 0.339601 0.531259 0.884631
O O5 0.415853 0.200350 0.269252
O O6 0.578559 0.269117 0.432905
O O7 0.262936 0.301582 0.726671
O O8 0.072493 0.336831 0.435475
O O9 0.174640 0.386694 0.764973
O O10 0.976149 0.176759 0.381913
O O11 0.909076 0.267903 0.263165
O O12 0.138165 0.515470 0.208369
O O13 0.193524 0.446049 0.036659
O O14 0.500000 0.926234 0.750000
#
# Coordination Sequence:
#
# PCOD8138678 Si02
#       8
#     8   4   8   8   8   4   4   8
#     4   9  19  36  58  87 116 149 188 232 280 343
#     4  10  22  38  60  86 116 144 192 234 288 338
#     4  11  21  41  59  87 114 150 192 239 283 340
#     4  10  20  38  60  86 117 152 182 232 288 342
#     4  10  21  39  61  82 113 160 188 234 295 326
#     4   9  20  34  54  87 120 143 192 222 274 351
#     4   9  22  40  62  85 114 151 194 230 288 343
#     4  11  23  41  57  84 117 149 199 239 280 340
#
# _framework density 19.559954999999999
#
# number of rings (size 3 to 8) (size 9 to 14) (size 15 to 20)
#    0.462    1.538    0.769    2.769    0.000    1.231 
#    9.692    1.538    0.000    0.000    0.000    0.000 
#    0.000    0.000    0.000    0.000    0.000    0.000 
#
# Total GULP energy -322267.328501 kJ/mol
# GULP energy per Si atom -12394.897250 kJ/mol
# Density = 1.951544 g / cm^3
# Si number density = 19.559955 Si / 1000 Ang^3
#
#
#
# Elastic Constant Matrix: (Units=GPa)
#
#
# Indices 1 2 3 4 5 6 
#
# 1 76.1421 15.8354 40.2349 0.0000 -0.8563 0.0000
# 2 15.8354 86.1983 55.7605 0.0000 -1.5314 0.0000
# 3 40.2349 55.7605 154.3237 0.0000 -6.3593 0.0000
# 4 0.0000 0.0000 0.0000 28.7169 0.0000 -4.5371
# 5 -0.8563 -1.5314 -6.3593 0.0000 26.9881 0.0000
# 6 0.0000 0.0000 0.0000 -4.5371 0.0000 6.1824
#
#
#
# Elastic Compliance Matrix: (Units=1/GPa)
#
#
# Indices 1 2 3 4 5 6 
#
# 1 0.015243 -0.000294 -0.003886 0.000000 -0.000449 0.000000
# 2 -0.000294 0.015151 -0.005415 0.000000 -0.000426 0.000000
# 3 -0.003886 -0.005415 0.009524 0.000000 0.001814 0.000000
# 4 0.000000 0.000000 0.000000 0.039390 0.000000 0.028907
# 5 -0.000449 -0.000426 0.001814 0.000000 0.037442 0.000000
# 6 0.000000 0.000000 0.000000 0.028907 0.000000 0.182963
#
#
# Mechanical properties :
#
#
# Convention : Reuss Voigt Hill
#
# Bulk Modulus (GPa) = 48.24658 60.03617 54.14137
# Shear Modulus (GPa) = 15.34621 26.03304 20.68963
#
# Velocity S-wave (km/s) = 2.80406 3.65216 3.25584
# Velocity P-wave (km/s) = 5.93323 6.96738 6.47100
#
# Compressibility (1/GPa) = 0.02072686
#
# Stress axis : x y z
#
# Youngs Moduli (GPa) = 65.60347 66.00409 104.99320
#
# Poissons Ratio (x) = 0.01942 0.40804
# Poissons Ratio (y) = 0.01930 0.56854
# Poissons Ratio (z) = 0.25496 0.35742
#
# Static dielectric constant tensor:
#      x y z
#    x 4.247000 0.000000 -0.173210 
#    y 0.000000 3.477410 0.000000 
#    z -0.173210 0.000000 3.664150 
# 
# 
# High freq. dielectric constant tensor:
#      x y z
#    x 1.771350 0.000000 -0.011930 
#    y 0.000000 1.752220 0.000000 
#    z -0.011930 0.000000 1.762000 
# 
# From -- ./inp_files/42351.got.cif
#   From: 2010.06.25/outbox.cif.g09.slc.cpg/sg15_22_cif.got.tgz:42351.got - 2010.06.28 07:06:18.
