data_PCOD8138352
_publ_section_title
;
Structure prediction by ZEFSAII (Michael W. Deem and Ramdas Pophale) SiO2 
 PCOD8138352
Probable space group: C 2/C
;
_chemical_formula_sum "Si O2"
_cell_formula_units_Z 48
_cell_length_a 8.194321
_cell_length_b 30.557308
_cell_length_c 10.604820
_cell_angle_alpha 90.000000
_cell_angle_beta 42.242336
_cell_angle_gamma 90.000000
_cell_volume 1785.145701
_symmetry_space_group_name_H-M "C 2/C"
_symmetry_group_IT_number 15
_symmetry_cell_setting 'monoclinic'
loop_
_space_group_symop_operation_xyz
x,y,z
-x,y,1/2-z
-x,-y,-z
x,-y,1/2+z
1/2+x,1/2+y,z
1/2-x,1/2+y,1/2-z
1/2-x,1/2-y,-z
1/2+x,1/2-y,1/2+z
loop_
_atom_site_type_symbol
_atom_site_label
_atom_site_fract_x
_atom_site_fract_y
_atom_site_fract_z
Si Si1 0.272970 0.727951 0.793944
Si Si2 0.873781 0.401034 0.688736
Si Si3 0.190856 0.914148 0.246848
Si Si4 0.841787 0.495462 0.714597
Si Si5 0.785943 0.837649 0.088911
Si Si6 0.269345 0.811422 0.654429
O O1 0.500000 0.742529 0.750000
O O2 0.403380 0.696610 0.618322
O O3 0.153710 0.770119 0.793839
O O4 0.057465 0.699747 0.981670
O O5 0.048338 0.403551 0.465267
O O6 0.000000 0.398207 0.750000
O O7 0.719919 0.446748 0.780581
O O8 0.722231 0.356065 0.763351
O O9 0.148751 0.886460 0.399254
O O10 0.000000 0.901139 0.250000
O O11 0.150219 0.964663 0.314617
O O12 0.000000 0.501314 0.750000
O O13 0.000000 0.500000 0.500000
O O14 0.500000 0.831741 0.250000
O O15 0.865835 0.822443 0.902248
#
# Coordination Sequence:
#
# PCOD8138352 Si02
#       6
#     8   8   8   8   8   8
#     4  11  22  38  61  93 126 161 211 262 315 367
#     4  10  21  40  63  90 127 166 207 251 313 378
#     4  11  21  39  69  96 123 163 214 261 307 376
#     4   9  20  37  65  94 125 170 212 252 313 387
#     4  10  20  37  63  89 121 162 212 251 307 376
#     4  11  23  40  64  89 125 169 211 257 310 378
#
# _framework density 26.888560999999999
#
# number of rings (size 3 to 8) (size 9 to 14) (size 15 to 20)
#    0.000    1.667    3.333    2.500    2.333    0.000 
#    0.000    7.500    0.000    0.000    0.000    0.000 
#    0.000    0.000    0.000    0.000    0.000    0.000 
#
# Total GULP energy -297387.777656 kJ/mol
# GULP energy per Si atom -12391.157402 kJ/mol
# Density = 2.682736 g / cm^3
# Si number density = 26.888561 Si / 1000 Ang^3
#
#
#
# Elastic Constant Matrix: (Units=GPa)
#
#
# Indices 1 2 3 4 5 6 
#
# 1 114.0135 58.7012 36.1189 0.0000 22.1810 0.0000
# 2 58.7012 254.8699 52.2202 0.0000 25.7436 0.0000
# 3 36.1189 52.2202 104.0069 0.0000 19.9003 0.0000
# 4 0.0000 0.0000 0.0000 28.5622 0.0000 11.7412
# 5 22.1810 25.7436 19.9003 0.0000 41.5635 0.0000
# 6 0.0000 0.0000 0.0000 11.7412 0.0000 53.6856
#
#
#
# Elastic Compliance Matrix: (Units=1/GPa)
#
#
# Indices 1 2 3 4 5 6 
#
# 1 0.011108 -0.001710 -0.002276 0.000000 -0.003779 0.000000
# 2 -0.001710 0.004766 -0.001551 0.000000 -0.001297 0.000000
# 3 -0.002276 -0.001551 0.011853 0.000000 -0.003500 0.000000
# 4 0.000000 0.000000 0.000000 0.038470 0.000000 -0.008414
# 5 -0.003779 -0.001297 -0.003500 0.000000 0.028555 0.000000
# 6 0.000000 0.000000 0.000000 -0.008414 0.000000 0.020467
#
#
# Mechanical properties :
#
#
# Convention : Reuss Voigt Hill
#
# Bulk Modulus (GPa) = 60.04778 85.21897 72.63338
# Shear Modulus (GPa) = 37.92347 46.48560 42.20454
#
# Velocity S-wave (km/s) = 3.75960 4.16242 3.96613
# Velocity P-wave (km/s) = 6.42080 7.40697 6.93145
#
# Compressibility (1/GPa) = 0.01665340
#
# Stress axis : x y z
#
# Youngs Moduli (GPa) = 90.02901 209.80838 84.36355
#
# Poissons Ratio (x) = 0.35884 0.19198
# Poissons Ratio (y) = 0.15398 0.13085
# Poissons Ratio (z) = 0.20487 0.32541
#
# Static dielectric constant tensor:
#      x y z
#    x 4.607070 0.000000 0.379310 
#    y 0.000000 5.775790 0.000000 
#    z 0.379310 0.000000 5.507960 
# 
# 
# High freq. dielectric constant tensor:
#      x y z
#    x 2.072940 0.000000 0.010540 
#    y 0.000000 2.108360 0.000000 
#    z 0.010540 0.000000 2.108610 
# 
# From -- ./inp_files/80518.got.cif
#   From: 2010.06.25/outbox.cif.g09.slc.cpg/sg15_41_cif.got.tgz:80518.got - 2010.06.28 07:06:18.
