data_PCOD8138075
_publ_section_title
;
Structure prediction by ZEFSAII (Michael W. Deem and Ramdas Pophale) SiO2 
 PCOD8138075
Probable space group: C 2/C
;
_chemical_formula_sum "Si O2"
_cell_formula_units_Z 64
_cell_length_a 9.060226
_cell_length_b 20.140747
_cell_length_c 21.718499
_cell_angle_alpha 90.000000
_cell_angle_beta 125.288450
_cell_angle_gamma 90.000000
_cell_volume 3234.966348
_symmetry_space_group_name_H-M "C 2/C"
_symmetry_group_IT_number 15
_symmetry_cell_setting 'monoclinic'
loop_
_space_group_symop_operation_xyz
x,y,z
-x,y,1/2-z
-x,-y,-z
x,-y,1/2+z
1/2+x,1/2+y,z
1/2-x,1/2+y,1/2-z
1/2-x,1/2-y,-z
1/2+x,1/2-y,1/2+z
loop_
_atom_site_type_symbol
_atom_site_label
_atom_site_fract_x
_atom_site_fract_y
_atom_site_fract_z
Si Si1 0.745028 0.346436 0.542800
Si Si2 0.914562 0.428129 0.480963
Si Si3 0.712223 0.425702 0.310582
Si Si4 0.962780 0.234581 0.907665
Si Si5 0.687139 0.711191 0.759227
Si Si6 0.357259 0.654767 0.344103
Si Si7 0.770007 0.653034 0.416470
Si Si8 0.209299 0.930557 0.784546
O O1 0.826954 0.409368 0.526006
O O2 0.553679 0.326641 0.465557
O O3 0.715975 0.365164 0.606828
O O4 0.880208 0.284675 0.574838
O O5 0.754909 0.421893 0.393211
O O6 0.000000 0.500000 0.500000
O O7 0.077824 0.377919 0.501917
O O8 0.500000 0.424765 0.250000
O O9 0.789343 0.358751 0.297575
O O10 0.793321 0.494734 0.302743
O O11 0.849734 0.210610 0.822021
O O12 0.817800 0.269800 0.917803
O O13 0.500000 0.718052 0.750000
O O14 0.817082 0.770388 0.812772
O O15 0.572580 0.644493 0.396673
O O16 0.259965 0.604361 0.273626
O O17 0.800995 0.614060 0.359159
O O18 0.000000 0.935840 0.750000
#
# Coordination Sequence:
#
# PCOD8138075 Si02
#       8
#     8   8   8   8   8   8   8   8
#     4  10  22  37  59  94 121 158 209 263 314 367
#     4  11  22  41  66  88 123 165 213 255 311 381
#     4  10  21  37  64  91 118 158 213 257 304 369
#     4  10  20  37  58  87 124 158 208 262 313 369
#     4  11  20  34  60  93 120 158 211 266 312 360
#     4  11  22  37  62  96 127 162 212 261 316 379
#     4  10  21  37  62  90 122 167 204 255 314 386
#     4   9  18  36  59  88 118 161 208 248 300 372
#
# _framework density 19.783823999999999
#
# number of rings (size 3 to 8) (size 9 to 14) (size 15 to 20)
#    0.000    1.750    3.750    1.500    3.500    0.500 
#    0.000    0.625    0.000    0.000    0.000    0.000 
#    0.000    0.000    0.000    0.000    0.000    0.000 
#
# Total GULP energy -396681.538929 kJ/mol
# GULP energy per Si atom -12396.298092 kJ/mol
# Density = 1.973880 g / cm^3
# Si number density = 19.783824 Si / 1000 Ang^3
#
#
#
# Elastic Constant Matrix: (Units=GPa)
#
#
# Indices 1 2 3 4 5 6 
#
# 1 56.2560 28.7636 34.3287 0.0000 -8.1015 0.0000
# 2 28.7636 133.6331 46.0859 0.0000 -14.5256 0.0000
# 3 34.3287 46.0859 120.6639 0.0000 -5.9666 0.0000
# 4 0.0000 0.0000 0.0000 33.4447 0.0000 -1.5290
# 5 -8.1015 -14.5256 -5.9666 0.0000 29.0572 0.0000
# 6 0.0000 0.0000 0.0000 -1.5290 0.0000 20.0051
#
#
#
# Elastic Compliance Matrix: (Units=1/GPa)
#
#
# Indices 1 2 3 4 5 6 
#
# 1 0.022959 -0.002678 -0.005313 0.000000 0.003972 0.000000
# 2 -0.002678 0.009336 -0.002637 0.000000 0.003379 0.000000
# 3 -0.005313 -0.002637 0.010777 0.000000 -0.000586 0.000000
# 4 0.000000 0.000000 0.000000 0.030005 0.000000 0.002293
# 5 0.003972 0.003379 -0.000586 0.000000 0.037091 0.000000
# 6 0.000000 0.000000 0.000000 0.002293 0.000000 0.050163
#
#
# Mechanical properties :
#
#
# Convention : Reuss Voigt Hill
#
# Bulk Modulus (GPa) = 45.83493 58.76772 52.30132
# Shear Modulus (GPa) = 26.47491 29.92638 28.20065
#
# Velocity S-wave (km/s) = 3.66212 3.89352 3.77960
# Velocity P-wave (km/s) = 6.41091 7.06980 6.74840
#
# Compressibility (1/GPa) = 0.02181742
#
# Stress axis : x y z
#
# Youngs Moduli (GPa) = 43.55605 107.10933 92.78973
#
# Poissons Ratio (x) = 0.28682 0.49296
# Poissons Ratio (y) = 0.11664 0.24468
# Poissons Ratio (z) = 0.23140 0.28244
#
# Static dielectric constant tensor:
#      x y z
#    x 3.257890 0.000000 0.203250 
#    y 0.000000 4.048370 0.000000 
#    z 0.203250 0.000000 3.473350 
# 
# 
# High freq. dielectric constant tensor:
#      x y z
#    x 1.732790 0.000000 0.013710 
#    y 0.000000 1.771450 0.000000 
#    z 0.013710 0.000000 1.788590 
# 
# From -- ./inp_files/233891.got.cif
#   From: 2010.06.25/outbox.cif.g09.slc.cpg/sg15_117_cif.got.tgz:233891.got - 2010.06.28 07:06:18.
