data_PCOD8138029
_publ_section_title
;
Structure prediction by ZEFSAII (Michael W. Deem and Ramdas Pophale) SiO2 
 PCOD8138029
Probable space group: C 2/C
;
_chemical_formula_sum "Si O2"
_cell_formula_units_Z 48
_cell_length_a 17.389612
_cell_length_b 15.540456
_cell_length_c 9.391914
_cell_angle_alpha 90.000000
_cell_angle_beta 101.190632
_cell_angle_gamma 90.000000
_cell_volume 2489.837279
_symmetry_space_group_name_H-M "C 2/C"
_symmetry_group_IT_number 15
_symmetry_cell_setting 'monoclinic'
loop_
_space_group_symop_operation_xyz
x,y,z
-x,y,1/2-z
-x,-y,-z
x,-y,1/2+z
1/2+x,1/2+y,z
1/2-x,1/2+y,1/2-z
1/2-x,1/2-y,-z
1/2+x,1/2-y,1/2+z
loop_
_atom_site_type_symbol
_atom_site_label
_atom_site_fract_x
_atom_site_fract_y
_atom_site_fract_z
Si Si1 0.354306 0.255362 0.443280
Si Si2 0.298691 0.035333 0.209882
Si Si3 0.977787 0.296006 0.587347
Si Si4 0.251673 0.605414 0.026348
Si Si5 0.952247 0.556192 0.874102
Si Si6 0.680149 0.776642 0.875198
O O1 0.447754 0.254349 0.450754
O O2 0.330129 0.338481 0.526325
O O3 0.325943 0.166954 0.510301
O O4 0.306227 0.261007 0.277516
O O5 0.239290 0.064310 0.313731
O O6 0.327357 0.119049 0.132897
O O7 0.371189 0.990020 0.312676
O O8 0.254471 0.969732 0.091307
O O9 0.940619 0.355557 0.453125
O O10 0.902160 0.236336 0.595741
O O11 0.000000 0.340326 0.750000
O O12 0.000000 0.575148 0.750000
O O13 0.000000 0.500000 0.000000
O O14 0.750000 0.750000 0.000000
#
# Coordination Sequence:
#
# PCOD8138029 Si02
#       6
#     8   8   8   8   8   8
#     4   9  20  38  57  82 121 159 188 239 294 352
#     4  11  22  35  55  88 117 155 194 240 292 355
#     4  10  20  37  57  83 114 153 193 233 289 350
#     4  10  21  36  58  82 121 153 198 235 292 341
#     4  12  21  32  52  83 122 149 179 234 298 359
#     4  10  21  36  58  87 114 150 202 240 291 353
#
# _framework density 19.278368
#
# number of rings (size 3 to 8) (size 9 to 14) (size 15 to 20)
#    0.000    1.667    0.000    7.500    4.667    0.000 
#    3.000    0.000    0.000    1.000    0.000    0.000 
#    0.000    0.000    0.000    0.000    0.000    0.000 
#
# Total GULP energy -297425.205368 kJ/mol
# GULP energy per Si atom -12392.716890 kJ/mol
# Density = 1.923449 g / cm^3
# Si number density = 19.278368 Si / 1000 Ang^3
#
#
#
# Elastic Constant Matrix: (Units=GPa)
#
#
# Indices 1 2 3 4 5 6 
#
# 1 124.3875 48.1624 54.1449 0.0000 -13.4558 0.0000
# 2 48.1624 62.7842 41.4855 0.0000 -13.0846 0.0000
# 3 54.1449 41.4855 102.6409 0.0000 -12.6668 0.0000
# 4 0.0000 0.0000 0.0000 34.0088 0.0000 1.2340
# 5 -13.4558 -13.0846 -12.6668 0.0000 36.2417 0.0000
# 6 0.0000 0.0000 0.0000 1.2340 0.0000 25.1842
#
#
#
# Elastic Compliance Matrix: (Units=1/GPa)
#
#
# Indices 1 2 3 4 5 6 
#
# 1 0.012396 -0.006936 -0.003634 0.000000 0.000828 0.000000
# 2 -0.006936 0.026511 -0.006473 0.000000 0.004734 0.000000
# 3 -0.003634 -0.006473 0.014444 0.000000 0.001362 0.000000
# 4 0.000000 0.000000 0.000000 0.029456 0.000000 -0.001443
# 5 0.000828 0.004734 0.001362 0.000000 0.030086 0.000000
# 6 0.000000 0.000000 0.000000 -0.001443 0.000000 0.039778
#
#
# Mechanical properties :
#
#
# Convention : Reuss Voigt Hill
#
# Bulk Modulus (GPa) = 51.90029 64.15534 58.02782
# Shear Modulus (GPa) = 25.88291 28.82159 27.35225
#
# Velocity S-wave (km/s) = 3.66811 3.87075 3.77079
# Velocity P-wave (km/s) = 6.70224 7.30257 7.00884
#
# Compressibility (1/GPa) = 0.01926771
#
# Stress axis : x y z
#
# Youngs Moduli (GPa) = 80.67008 37.71964 69.23412
#
# Poissons Ratio (x) = 0.26161 0.25158
# Poissons Ratio (y) = 0.55949 0.44812
# Poissons Ratio (z) = 0.29313 0.24414
#
# Static dielectric constant tensor:
#      x y z
#    x 3.495880 0.000000 -0.344230 
#    y 0.000000 2.312500 0.000000 
#    z -0.344230 0.000000 3.566800 
# 
# 
# High freq. dielectric constant tensor:
#      x y z
#    x 1.740170 0.000000 -0.025480 
#    y 0.000000 1.714300 0.000000 
#    z -0.025480 0.000000 1.765350 
# 
# From -- ./inp_files/47931.got.cif
#   From: 2010.06.25/outbox.cif.g09.slc.cpg/sg15_24_cif.got.tgz:47931.got - 2010.06.28 07:06:18.
