data_PCOD8138773
_publ_section_title
;
Structure prediction by ZEFSAII (Michael W. Deem and Ramdas Pophale) SiO2 
 PCOD8138773
Probable space group: C 2/C
;
_chemical_formula_sum "Si O2"
_cell_formula_units_Z 48
_cell_length_a 27.782738
_cell_length_b 8.907695
_cell_length_c 14.382992
_cell_angle_alpha 90.000000
_cell_angle_beta 140.024487
_cell_angle_gamma 90.000000
_cell_volume 2286.840221
_symmetry_space_group_name_H-M "C 2/C"
_symmetry_group_IT_number 15
_symmetry_cell_setting 'monoclinic'
loop_
_space_group_symop_operation_xyz
x,y,z
-x,y,1/2-z
-x,-y,-z
x,-y,1/2+z
1/2+x,1/2+y,z
1/2-x,1/2+y,1/2-z
1/2-x,1/2-y,-z
1/2+x,1/2-y,1/2+z
loop_
_atom_site_type_symbol
_atom_site_label
_atom_site_fract_x
_atom_site_fract_y
_atom_site_fract_z
Si Si1 0.417296 0.814138 0.167328
Si Si2 0.415402 0.997247 0.839132
Si Si3 0.830908 0.923521 0.316834
Si Si4 0.179403 0.584618 0.134969
Si Si5 0.914694 0.015855 0.610306
Si Si6 0.662579 0.289641 0.360629
O O1 0.500000 0.836379 0.250000
O O2 0.394380 0.640373 0.130346
O O3 0.407652 0.861095 0.259765
O O4 0.364688 0.920033 0.027209
O O5 0.361738 0.018188 0.848731
O O6 0.391426 0.848580 0.746591
O O7 0.500000 0.000000 0.000000
O O8 0.814669 0.752587 0.319330
O O9 0.899427 0.994269 0.477313
O O10 0.848523 0.921412 0.233045
O O11 0.760694 0.023567 0.237293
O O12 0.000000 0.063907 0.750000
O O13 0.863221 0.145304 0.578314
O O14 0.750000 0.250000 0.500000
#
# Coordination Sequence:
#
# PCOD8138773 Si02
#       6
#     8   8   8   8   8   8
#     4  10  20  38  61  88 125 161 201 259 314 373
#     4  11  22  39  63  94 124 161 211 264 317 374
#     4  10  22  40  63  88 125 169 208 261 320 381
#     4  10  21  39  61  87 123 163 208 254 315 380
#     4  10  23  42  63  91 127 166 212 260 320 383
#     4  11  24  44  65  93 133 168 214 270 323 384
#
# _framework density 20.989660000000001
#
# number of rings (size 3 to 8) (size 9 to 14) (size 15 to 20)
#    0.000    1.667    1.667    3.000    2.333    2.667 
#    6.000    4.167    0.000    0.000    0.000    0.000 
#    0.000    0.000    0.000    0.000    0.000    0.000 
#
# Total GULP energy -297577.554301 kJ/mol
# GULP energy per Si atom -12399.064763 kJ/mol
# Density = 2.094189 g / cm^3
# Si number density = 20.989660 Si / 1000 Ang^3
#
#
#
# Elastic Constant Matrix: (Units=GPa)
#
#
# Indices 1 2 3 4 5 6 
#
# 1 52.8634 22.6994 23.9612 0.0000 -2.8103 0.0000
# 2 22.6994 38.4301 28.9451 0.0000 3.5525 0.0000
# 3 23.9612 28.9451 135.6000 0.0000 1.5081 0.0000
# 4 0.0000 0.0000 0.0000 36.2881 0.0000 1.8932
# 5 -2.8103 3.5525 1.5081 0.0000 38.2119 0.0000
# 6 0.0000 0.0000 0.0000 1.8932 0.0000 10.2897
#
#
#
# Elastic Compliance Matrix: (Units=1/GPa)
#
#
# Indices 1 2 3 4 5 6 
#
# 1 0.026026 -0.014523 -0.001536 0.000000 0.003325 0.000000
# 2 -0.014523 0.039376 -0.005789 0.000000 -0.004500 0.000000
# 3 -0.001536 -0.005789 0.008881 0.000000 0.000075 0.000000
# 4 0.000000 0.000000 0.000000 0.027824 0.000000 -0.005120
# 5 0.003325 -0.004500 0.000075 0.000000 0.026830 0.000000
# 6 0.000000 0.000000 0.000000 -0.005120 0.000000 0.098127
#
#
# Mechanical properties :
#
#
# Convention : Reuss Voigt Hill
#
# Bulk Modulus (GPa) = 32.69377 42.01166 37.35271
# Shear Modulus (GPa) = 17.79649 27.04379 22.42014
#
# Velocity S-wave (km/s) = 2.91498 3.59337 3.27180
# Velocity P-wave (km/s) = 5.19032 6.10535 5.66633
#
# Compressibility (1/GPa) = 0.03058687
#
# Stress axis : x y z
#
# Youngs Moduli (GPa) = 38.42344 25.39643 112.60207
#
# Poissons Ratio (x) = 0.36884 0.17293
# Poissons Ratio (y) = 0.55803 0.65182
# Poissons Ratio (z) = 0.05901 0.14701
#
# Static dielectric constant tensor:
#      x y z
#    x 4.769210 0.000000 -1.341880 
#    y 0.000000 3.738170 0.000000 
#    z -1.341880 0.000000 5.311280 
# 
# 
# High freq. dielectric constant tensor:
#      x y z
#    x 1.814320 0.000000 -0.009650 
#    y 0.000000 1.810500 0.000000 
#    z -0.009650 0.000000 1.846420 
# 
# From -- ./inp_files/176986.got.cif
#   From: 2010.06.25/outbox.cif.g09.slc.cpg/sg15_89_cif.got.tgz:176986.got - 2010.06.28 07:06:18.
