data_PCOD8138165
_publ_section_title
;
Structure prediction by ZEFSAII (Michael W. Deem and Ramdas Pophale) SiO2 
 PCOD8138165
Probable space group: C 2/C
;
_chemical_formula_sum "Si O2"
_cell_formula_units_Z 60
_cell_length_a 27.190873
_cell_length_b 9.316855
_cell_length_c 26.024200
_cell_angle_alpha 90.000000
_cell_angle_beta 26.299424
_cell_angle_gamma 90.000000
_cell_volume 2921.020159
_symmetry_space_group_name_H-M "C 2/C"
_symmetry_group_IT_number 15
_symmetry_cell_setting 'monoclinic'
loop_
_space_group_symop_operation_xyz
x,y,z
-x,y,1/2-z
-x,-y,-z
x,-y,1/2+z
1/2+x,1/2+y,z
1/2-x,1/2+y,1/2-z
1/2-x,1/2-y,-z
1/2+x,1/2-y,1/2+z
loop_
_atom_site_type_symbol
_atom_site_label
_atom_site_fract_x
_atom_site_fract_y
_atom_site_fract_z
Si Si1 0.886298 0.910509 0.116054
Si Si2 0.244050 0.669137 0.843959
Si Si3 0.535700 0.160867 0.972562
Si Si4 0.364046 0.713172 0.468929
Si Si5 0.183219 0.939448 0.652192
Si Si6 0.573737 0.219499 0.826369
Si Si7 0.251280 0.000498 0.353603
Si Si8 0.500000 0.599848 0.250000
O O1 0.820557 0.919352 0.231738
O O2 0.802969 0.949513 0.148896
O O3 0.920493 0.744261 0.086589
O O4 0.000000 0.000000 0.000000
O O5 0.116965 0.679102 0.944644
O O6 0.250846 0.578825 0.890282
O O7 0.277355 0.830951 0.828371
O O8 0.598406 0.224878 0.864033
O O9 0.500000 0.000000 0.000000
O O10 0.264255 0.822396 0.550646
O O11 0.441803 0.786824 0.439613
O O12 0.324069 0.556956 0.528094
O O13 0.434112 0.700311 0.351401
O O14 0.121994 0.864943 0.757441
O O15 0.091502 0.991626 0.695963
O O16 0.630446 0.077259 0.750335
#
# Coordination Sequence:
#
# PCOD8138165 Si02
#       8
#     8   8   8   8   8   8   8   4
#     4  12  24  38  59  87 130 183 214 250 301 375
#     4  12  26  38  59  93 136 173 220 254 317 388
#     4  12  23  34  56  88 128 173 218 257 306 366
#     4  10  21  41  69  94 122 159 213 270 335 380
#     4  10  23  40  65  91 123 163 216 270 319 381
#     4  10  20  37  60  87 125 167 208 259 307 373
#     4  11  23  39  61  92 132 171 212 257 318 386
#     4  10  22  42  72  94 116 158 220 284 330 380
#
# _framework density 20.540769000000001
#
# number of rings (size 3 to 8) (size 9 to 14) (size 15 to 20)
#    0.000    1.067    4.000    2.800    3.733    0.000 
#    0.000    0.667    0.000    8.000    0.000    0.000 
#    0.000    0.000    0.000    0.000    0.000    0.000 
#
# Total GULP energy -371793.438204 kJ/mol
# GULP energy per Si atom -12393.114607 kJ/mol
# Density = 2.049402 g / cm^3
# Si number density = 20.540769 Si / 1000 Ang^3
#
#
#
# Elastic Constant Matrix: (Units=GPa)
#
#
# Indices 1 2 3 4 5 6 
#
# 1 107.8885 44.5439 24.3643 -0.0015 0.2302 0.0007
# 2 44.5439 101.2044 10.3326 -0.0062 -1.6681 0.0033
# 3 24.3643 10.3326 79.3005 -0.0030 6.8065 0.0019
# 4 -0.0015 -0.0062 -0.0030 22.2937 0.0021 -5.6443
# 5 0.2302 -1.6681 6.8065 0.0021 30.0814 -0.0008
# 6 0.0007 0.0033 0.0019 -5.6443 -0.0008 25.7872
#
#
#
# Elastic Compliance Matrix: (Units=1/GPa)
#
#
# Indices 1 2 3 4 5 6 
#
# 1 0.012013 -0.004968 -0.003072 -0.000001 0.000328 0.000000
# 2 -0.004968 0.012091 -0.000112 0.000003 0.000734 -0.000001
# 3 -0.003072 -0.000112 0.013836 0.000002 -0.003113 -0.000001
# 4 -0.000001 0.000003 0.000002 0.047487 -0.000003 0.010394
# 5 0.000328 0.000734 -0.003113 -0.000003 0.033986 0.000000
# 6 0.000000 -0.000001 -0.000001 0.010394 0.000000 0.041054
#
#
# Mechanical properties :
#
#
# Convention : Reuss Voigt Hill
#
# Bulk Modulus (GPa) = 46.21888 49.65277 47.93582
# Shear Modulus (GPa) = 27.17639 29.57598 28.37618
#
# Velocity S-wave (km/s) = 3.64132 3.79867 3.72083
# Velocity P-wave (km/s) = 6.34262 6.59281 6.46892
#
# Compressibility (1/GPa) = 0.02163618
#
# Stress axis : x y z
#
# Youngs Moduli (GPa) = 83.24244 82.70407 72.27626
#
# Poissons Ratio (x) = 0.41091 0.22201
# Poissons Ratio (y) = 0.41358 0.00809
# Poissons Ratio (z) = 0.25569 0.00926
#
# Static dielectric constant tensor:
#      x y z
#    x 3.082730 -0.000010 0.489300 
#    y -0.000010 3.708530 0.000010 
#    z 0.489300 0.000010 3.330140 
# 
# 
# High freq. dielectric constant tensor:
#      x y z
#    x 1.794450 0.000000 -0.014570 
#    y 0.000000 1.788900 0.000000 
#    z -0.014570 0.000000 1.809220 
# 
# From -- ./inp_files/283388.got.cif
#   From: 2010.06.25/outbox.cif.g09.slc.cpg/sg15_142_cif.got.tgz:283388.got - 2010.06.28 07:06:18.
