data_PCOD8138457
_publ_section_title
;
Structure prediction by ZEFSAII (Michael W. Deem and Ramdas Pophale) SiO2 
 PCOD8138457
Probable space group: C 2/C
;
_chemical_formula_sum "Si O2"
_cell_formula_units_Z 52
_cell_length_a 16.636080
_cell_length_b 9.008971
_cell_length_c 17.989884
_cell_angle_alpha 90.000000
_cell_angle_beta 67.944057
_cell_angle_gamma 90.000000
_cell_volume 2498.899834
_symmetry_space_group_name_H-M "C 2/C"
_symmetry_group_IT_number 15
_symmetry_cell_setting 'monoclinic'
loop_
_space_group_symop_operation_xyz
x,y,z
-x,y,1/2-z
-x,-y,-z
x,-y,1/2+z
1/2+x,1/2+y,z
1/2-x,1/2+y,1/2-z
1/2-x,1/2-y,-z
1/2+x,1/2-y,1/2+z
loop_
_atom_site_type_symbol
_atom_site_label
_atom_site_fract_x
_atom_site_fract_y
_atom_site_fract_z
Si Si1 0.000000 0.077060 0.250000
Si Si2 0.463633 0.166477 0.659510
Si Si3 0.308034 0.916805 0.305879
Si Si4 0.332400 0.106119 0.588006
Si Si5 0.134701 0.821961 0.195534
Si Si6 0.387751 0.067872 0.404362
Si Si7 0.197508 0.651033 0.304946
O O1 0.996629 0.178583 0.325395
O O2 0.086200 0.977964 0.215979
O O3 0.408832 0.093611 0.746065
O O4 0.399845 0.205468 0.612381
O O5 0.534298 0.046443 0.609374
O O6 0.308834 0.983938 0.388416
O O7 0.269140 0.753413 0.318227
O O8 0.258365 0.026707 0.265229
O O9 0.234646 0.157177 0.637783
O O10 0.351499 0.122644 0.495185
O O11 0.348462 0.936411 0.611398
O O12 0.087021 0.713736 0.152638
O O13 0.130088 0.746267 0.279031
#
# Coordination Sequence:
#
# PCOD8138457 Si02
#       7
#     4   8   8   8   8   8   8
#     4  12  26  40  68  96 124 158 226 272 302 366
#     4  11  22  42  65  92 128 167 215 260 308 378
#     4  10  20  37  65  92 125 165 220 255 309 373
#     4  11  24  42  68  92 132 168 211 255 329 376
#     4  11  25  42  67  94 127 164 218 265 312 372
#     4  11  24  40  66  96 131 168 207 264 321 379
#     4  10  20  37  65  90 119 166 215 258 302 377
#
# _framework density 20.809156000000002
#
# number of rings (size 3 to 8) (size 9 to 14) (size 15 to 20)
#    0.000    1.231    4.615    1.846    6.462    0.615 
#    0.000    0.769    0.000    0.000    0.000    0.000 
#    0.000    0.000    0.000    0.000    0.000    0.000 
#
# Total GULP energy -322278.498001 kJ/mol
# GULP energy per Si atom -12395.326846 kJ/mol
# Density = 2.076179 g / cm^3
# Si number density = 20.809156 Si / 1000 Ang^3
#
#
#
# Elastic Constant Matrix: (Units=GPa)
#
#
# Indices 1 2 3 4 5 6 
#
# 1 76.6943 35.4261 15.9186 0.0000 4.8952 0.0000
# 2 35.4261 113.1868 14.8075 0.0000 5.6882 0.0000
# 3 15.9186 14.8075 69.6607 0.0000 22.3432 0.0000
# 4 0.0000 0.0000 0.0000 20.9309 0.0000 4.5138
# 5 4.8952 5.6882 22.3432 0.0000 23.7426 0.0000
# 6 0.0000 0.0000 0.0000 4.5138 0.0000 47.5979
#
#
#
# Elastic Compliance Matrix: (Units=1/GPa)
#
#
# Indices 1 2 3 4 5 6 
#
# 1 0.015696 -0.004574 -0.002761 0.000000 0.000458 0.000000
# 2 -0.004574 0.010425 -0.000963 0.000000 -0.000649 0.000000
# 3 -0.002761 -0.000963 0.021391 0.000000 -0.019330 0.000000
# 4 0.000000 0.000000 0.000000 0.048774 0.000000 -0.004625
# 5 0.000458 -0.000649 -0.019330 0.000000 0.060370 0.000000
# 6 0.000000 0.000000 0.000000 -0.004625 0.000000 0.021448
#
#
# Mechanical properties :
#
#
# Convention : Reuss Voigt Hill
#
# Bulk Modulus (GPa) = 32.34687 43.53845 37.94266
# Shear Modulus (GPa) = 24.38960 31.34691 27.86826
#
# Velocity S-wave (km/s) = 3.42725 3.88545 3.66352
# Velocity P-wave (km/s) = 5.58925 6.41070 6.01402
#
# Compressibility (1/GPa) = 0.03091490
#
# Stress axis : x y z
#
# Youngs Moduli (GPa) = 63.71213 95.92151 46.74867
#
# Poissons Ratio (x) = 0.43877 0.12909
# Poissons Ratio (y) = 0.29144 0.04501
# Poissons Ratio (z) = 0.17593 0.09235
#
# Static dielectric constant tensor:
#      x y z
#    x 3.807110 0.000000 0.314100 
#    y 0.000000 4.023440 0.000000 
#    z 0.314100 0.000000 3.505760 
# 
# 
# High freq. dielectric constant tensor:
#      x y z
#    x 1.819440 0.000000 0.027610 
#    y 0.000000 1.824030 0.000000 
#    z 0.027610 0.000000 1.779990 
# 
# From -- ./inp_files/209020.got.cif
#   From: 2010.06.25/outbox.cif.g09.slc.cpg/sg15_105_cif.got.tgz:209020.got - 2010.06.28 07:06:18.
