data_PCOD8138526
_publ_section_title
;
Structure prediction by ZEFSAII (Michael W. Deem and Ramdas Pophale) SiO2 
 PCOD8138526
Probable space group: C 2/C
;
_chemical_formula_sum "Si O2"
_cell_formula_units_Z 56
_cell_length_a 12.169094
_cell_length_b 26.833669
_cell_length_c 12.282571
_cell_angle_alpha 90.000000
_cell_angle_beta 144.895985
_cell_angle_gamma 90.000000
_cell_volume 2306.442849
_symmetry_space_group_name_H-M "C 2/C"
_symmetry_group_IT_number 15
_symmetry_cell_setting 'monoclinic'
loop_
_space_group_symop_operation_xyz
x,y,z
-x,y,1/2-z
-x,-y,-z
x,-y,1/2+z
1/2+x,1/2+y,z
1/2-x,1/2+y,1/2-z
1/2-x,1/2-y,-z
1/2+x,1/2-y,1/2+z
loop_
_atom_site_type_symbol
_atom_site_label
_atom_site_fract_x
_atom_site_fract_y
_atom_site_fract_z
Si Si1 0.190750 0.183442 0.650931
Si Si2 0.971697 0.907205 0.401662
Si Si3 0.917913 0.636747 0.548335
Si Si4 0.654643 0.936908 0.695372
Si Si5 0.159560 0.930713 0.962435
Si Si6 0.373869 0.719496 0.243782
Si Si7 0.760818 0.517178 0.913594
O O1 0.092295 0.151196 0.669193
O O2 0.367596 0.152389 0.745441
O O3 0.270028 0.239291 0.738334
O O4 0.018627 0.184228 0.425287
O O5 0.885077 0.923436 0.447958
O O6 0.878315 0.937242 0.227383
O O7 0.199847 0.917186 0.592603
O O8 0.920190 0.611079 0.431263
O O9 0.853287 0.597414 0.586879
O O10 0.790731 0.686449 0.442621
O O11 0.476465 0.964363 0.606930
O O12 0.758311 0.975595 0.697549
O O13 0.000000 0.908761 0.750000
O O14 0.187549 0.990478 0.965046
O O15 0.500000 0.745433 0.250000
#
# Coordination Sequence:
#
# PCOD8138526 Si02
#       7
#     8   8   8   8   8   8   8
#     4  12  24  35  54  74 106 156 193 238 283 323
#     4  12  22  37  61  79 109 161 199 232 292 331
#     4  11  21  38  52  73 111 147 193 240 274 327
#     4  10  20  38  54  78 109 142 196 243 274 335
#     4  11  22  38  58  82 111 148 202 242 275 346
#     4  12  24  35  47  75 112 142 195 245 272 322
#     4  10  22  39  54  81 112 145 192 247 289 328
#
# _framework density 24.279812
#
# number of rings (size 3 to 8) (size 9 to 14) (size 15 to 20)
#    0.000    0.857    7.143    2.143    2.000    0.000 
#    0.000    1.429    0.000    0.000    0.000    0.000 
#    0.000    0.000    0.000   20.571    4.286    9.286 
#
# Total GULP energy -347051.885247 kJ/mol
# GULP energy per Si atom -12394.710187 kJ/mol
# Density = 2.422455 g / cm^3
# Si number density = 24.279812 Si / 1000 Ang^3
#
#
#
# Elastic Constant Matrix: (Units=GPa)
#
#
# Indices 1 2 3 4 5 6 
#
# 1 22.3160 6.7795 5.5581 0.0000 5.3253 0.0000
# 2 6.7795 127.5659 34.8822 0.0000 5.8812 0.0000
# 3 5.5581 34.8822 123.7838 0.0000 24.5147 0.0000
# 4 0.0000 0.0000 0.0000 43.4669 0.0000 9.2708
# 5 5.3253 5.8812 24.5147 0.0000 21.5617 0.0000
# 6 0.0000 0.0000 0.0000 9.2708 0.0000 34.1766
#
#
#
# Elastic Compliance Matrix: (Units=1/GPa)
#
#
# Indices 1 2 3 4 5 6 
#
# 1 0.048207 -0.002242 0.000909 0.000000 -0.012328 0.000000
# 2 -0.002242 0.008602 -0.002540 0.000000 0.001096 0.000000
# 3 0.000909 -0.002540 0.011178 0.000000 -0.012240 0.000000
# 4 0.000000 0.000000 0.000000 0.024419 0.000000 -0.006624
# 5 -0.012328 0.001096 -0.012240 0.000000 0.063041 0.000000
# 6 0.000000 0.000000 0.000000 -0.006624 0.000000 0.031057
#
#
# Mechanical properties :
#
#
# Convention : Reuss Voigt Hill
#
# Bulk Modulus (GPa) = 16.60034 40.90060 28.75047
# Shear Modulus (GPa) = 23.32833 34.93743 29.13288
#
# Velocity S-wave (km/s) = 3.10306 3.79746 3.46769
# Velocity P-wave (km/s) = 4.43741 6.00914 5.28206
#
# Compressibility (1/GPa) = 0.06023975
#
# Stress axis : x y z
#
# Youngs Moduli (GPa) = 20.74370 116.24654 89.46296
#
# Poissons Ratio (x) = 0.26064 -0.08129
# Poissons Ratio (y) = 0.04651 0.22728
# Poissons Ratio (z) = -0.01885 0.29532
#
# Static dielectric constant tensor:
#      x y z
#    x 4.001210 0.000000 0.438060 
#    y 0.000000 4.685910 0.000000 
#    z 0.438060 0.000000 4.638820 
# 
# 
# High freq. dielectric constant tensor:
#      x y z
#    x 1.906950 0.000000 0.033380 
#    y 0.000000 1.971650 0.000000 
#    z 0.033380 0.000000 1.988940 
# 
# From -- ./inp_files/157229.got.cif
#   From: 2010.06.25/outbox.cif.g09.slc.cpg/sg15_79_cif.got.tgz:157229.got - 2010.06.28 07:06:18.
