data_PCOD8138606
_publ_section_title
;
Structure prediction by ZEFSAII (Michael W. Deem and Ramdas Pophale) SiO2 
 PCOD8138606
Probable space group: C 2/C
;
_chemical_formula_sum "Si O2"
_cell_formula_units_Z 64
_cell_length_a 12.391087
_cell_length_b 26.218093
_cell_length_c 14.842874
_cell_angle_alpha 90.000000
_cell_angle_beta 141.874174
_cell_angle_gamma 90.000000
_cell_volume 2977.066015
_symmetry_space_group_name_H-M "C 2/C"
_symmetry_group_IT_number 15
_symmetry_cell_setting 'monoclinic'
loop_
_space_group_symop_operation_xyz
x,y,z
-x,y,1/2-z
-x,-y,-z
x,-y,1/2+z
1/2+x,1/2+y,z
1/2-x,1/2+y,1/2-z
1/2-x,1/2-y,-z
1/2+x,1/2-y,1/2+z
loop_
_atom_site_type_symbol
_atom_site_label
_atom_site_fract_x
_atom_site_fract_y
_atom_site_fract_z
Si Si1 0.597752 0.656387 0.728363
Si Si2 0.601184 0.202268 0.052348
Si Si3 0.545517 0.897772 0.041716
Si Si4 0.119629 0.431781 0.746249
Si Si5 0.552346 0.234788 0.375379
Si Si6 0.476674 0.711455 0.341675
Si Si7 0.656396 0.950964 0.289632
Si Si8 0.999002 0.114393 0.023336
O O1 0.500000 0.632543 0.750000
O O2 0.796937 0.641324 0.868237
O O3 0.578236 0.717031 0.710504
O O4 0.509637 0.633527 0.582954
O O5 0.459755 0.204175 0.039836
O O6 0.771890 0.218968 0.219548
O O7 0.606369 0.142485 0.025071
O O8 0.571471 0.239249 0.947252
O O9 0.596168 0.939091 0.148901
O O10 0.498248 0.928743 0.920808
O O11 0.173709 0.488633 0.809763
O O12 0.301594 0.404617 0.838893
O O13 0.000000 0.408998 0.750000
O O14 0.500000 0.202689 0.250000
O O15 0.750000 0.250000 0.500000
O O16 0.500000 0.707566 0.250000
O O17 0.540686 0.660008 0.432505
O O18 0.500000 0.929863 0.250000
O O19 0.845687 0.927329 0.440362
#
# Coordination Sequence:
#
# PCOD8138606 Si02
#       8
#     8   8   8   8   8   8   8   8
#     4  10  20  38  58  91 129 175 213 260 328 391
#     4  12  24  43  61  93 133 173 222 270 319 384
#     4  11  23  40  65  93 133 171 221 272 331 397
#     4  11  23  44  69 103 131 168 218 277 346 407
#     4  11  22  36  59  90 131 176 220 262 323 390
#     4  12  27  44  64  94 131 181 229 274 321 384
#     4  10  25  44  71  95 130 174 221 276 340 404
#     4  11  23  43  68  98 136 168 223 277 332 399
#
# _framework density 21.497675000000001
#
# number of rings (size 3 to 8) (size 9 to 14) (size 15 to 20)
#    0.000    1.000    2.500    4.875    3.500    1.000 
#    0.000    0.000    0.000    6.000    0.000    0.000 
#    0.000    0.000    0.000    0.000    0.000    0.000 
#
# Total GULP energy -396508.602580 kJ/mol
# GULP energy per Si atom -12390.893831 kJ/mol
# Density = 2.144875 g / cm^3
# Si number density = 21.497675 Si / 1000 Ang^3
#
#
#
# Elastic Constant Matrix: (Units=GPa)
#
#
# Indices 1 2 3 4 5 6 
#
# 1 98.1528 10.8807 19.4488 0.0000 -17.6313 0.0000
# 2 10.8807 64.0816 6.4061 0.0000 -10.4116 0.0000
# 3 19.4488 6.4061 98.9931 0.0000 -12.4339 0.0000
# 4 0.0000 0.0000 0.0000 249.6006 0.0000 16.6122
# 5 -17.6313 -10.4116 -12.4339 0.0000 35.0923 0.0000
# 6 0.0000 0.0000 0.0000 16.6122 0.0000 4.2367
#
#
#
# Elastic Compliance Matrix: (Units=1/GPa)
#
#
# Indices 1 2 3 4 5 6 
#
# 1 0.011495 -0.000995 -0.001576 0.000000 0.004922 0.000000
# 2 -0.000995 0.016503 -0.000335 0.000000 0.004278 0.000000
# 3 -0.001576 -0.000335 0.010802 0.000000 0.002936 0.000000
# 4 0.000000 0.000000 0.000000 0.005421 0.000000 -0.021256
# 5 0.004922 0.004278 0.002936 0.000000 0.033279 0.000000
# 6 0.000000 0.000000 0.000000 -0.021256 0.000000 0.319381
#
#
# Mechanical properties :
#
#
# Convention : Reuss Voigt Hill
#
# Bulk Modulus (GPa) = 30.31407 37.18874 33.75141
# Shear Modulus (GPa) = 12.08643 72.75205 42.41924
#
# Velocity S-wave (km/s) = 2.37369 5.82368 4.44689
# Velocity P-wave (km/s) = 4.65234 7.90929 6.48850
#
# Compressibility (1/GPa) = 0.03298798
#
# Stress axis : x y z
#
# Youngs Moduli (GPa) = 86.99577 60.59686 92.57735
#
# Poissons Ratio (x) = 0.06027 0.14588
# Poissons Ratio (y) = 0.08652 0.03104
# Poissons Ratio (z) = 0.13709 0.02031
#
# Static dielectric constant tensor:
#      x y z
#    x 4.074070 0.000000 0.065820 
#    y 0.000000 4.110080 0.000000 
#    z 0.065820 0.000000 4.244810 
# 
# 
# High freq. dielectric constant tensor:
#      x y z
#    x 1.847690 0.000000 -0.001200 
#    y 0.000000 1.832180 0.000000 
#    z -0.001200 0.000000 1.868070 
# 
# From -- ./inp_files/148774.got.cif
#   From: 2010.06.25/outbox.cif.g09.slc.cpg/sg15_75_cif.got.tgz:148774.got - 2010.06.28 07:06:18.
