data_PCOD8138336
_publ_section_title
;
Structure prediction by ZEFSAII (Michael W. Deem and Ramdas Pophale) SiO2 
 PCOD8138336
Probable space group: C 2/C
;
_chemical_formula_sum "Si O2"
_cell_formula_units_Z 64
_cell_length_a 9.978075
_cell_length_b 29.479348
_cell_length_c 17.615041
_cell_angle_alpha 90.000000
_cell_angle_beta 39.404177
_cell_angle_gamma 90.000000
_cell_volume 3289.093465
_symmetry_space_group_name_H-M "C 2/C"
_symmetry_group_IT_number 15
_symmetry_cell_setting 'monoclinic'
loop_
_space_group_symop_operation_xyz
x,y,z
-x,y,1/2-z
-x,-y,-z
x,-y,1/2+z
1/2+x,1/2+y,z
1/2-x,1/2+y,1/2-z
1/2-x,1/2-y,-z
1/2+x,1/2-y,1/2+z
loop_
_atom_site_type_symbol
_atom_site_label
_atom_site_fract_x
_atom_site_fract_y
_atom_site_fract_z
Si Si1 0.450987 0.141752 0.498492
Si Si2 0.212246 0.489342 0.701197
Si Si3 0.390240 0.340341 0.473206
Si Si4 0.484261 0.278379 0.564231
Si Si5 0.704507 0.294004 0.615561
Si Si6 0.927674 0.054996 0.971566
Si Si7 0.686159 0.300064 0.224304
Si Si8 0.028839 0.538781 0.049634
O O1 0.328815 0.160881 0.477672
O O2 0.688247 0.161239 0.395981
O O3 0.325006 0.158775 0.628142
O O4 0.477969 0.087714 0.487508
O O5 0.346782 0.535109 0.652658
O O6 0.359562 0.455565 0.587894
O O7 0.155922 0.465978 0.806316
O O8 0.000000 0.502345 0.750000
O O9 0.360273 0.314858 0.566685
O O10 0.453937 0.391785 0.456862
O O11 0.587454 0.316790 0.345833
O O12 0.635706 0.303384 0.558439
O O13 0.629390 0.246745 0.447957
O O14 0.320702 0.245446 0.679701
O O15 0.500000 0.279703 0.750000
O O16 0.756215 0.033863 0.989290
O O17 0.500000 0.285989 0.250000
O O18 0.000000 0.500000 0.000000
#
# Coordination Sequence:
#
# PCOD8138336 Si02
#       8
#     8   8   8   8   8   8   8   8
#     4   9  21  39  55  84 116 146 193 242 283 350
#     4   9  19  39  58  85 118 152 191 245 292 344
#     4  10  20  37  63  85 109 155 200 240 288 344
#     4  10  21  36  55  85 112 152 194 232 285 350
#     4  10  21  38  54  76 122 151 178 237 291 339
#     4   9  20  39  60  84 119 153 197 245 289 348
#     4   9  19  35  58  85 116 146 192 244 286 340
#     4  10  21  37  60  86 116 153 193 240 298 350
#
# _framework density 19.458248000000001
#
# number of rings (size 3 to 8) (size 9 to 14) (size 15 to 20)
#    0.000    2.500    0.000    0.750    1.750    7.000 
#    9.000    5.000    0.000    0.000    0.000    0.000 
#    0.000    0.000    0.000    0.000    0.000    0.000 
#
# Total GULP energy -396735.119949 kJ/mol
# GULP energy per Si atom -12397.972498 kJ/mol
# Density = 1.941396 g / cm^3
# Si number density = 19.458248 Si / 1000 Ang^3
#
#
#
# Elastic Constant Matrix: (Units=GPa)
#
#
# Indices 1 2 3 4 5 6 
#
# 1 83.2804 69.8727 28.8478 0.0000 2.8202 0.0000
# 2 69.8727 118.4469 37.3279 0.0000 -5.2826 0.0000
# 3 28.8478 37.3279 81.2235 0.0000 -14.0822 0.0000
# 4 0.0000 0.0000 0.0000 20.0391 0.0000 -2.4443
# 5 2.8202 -5.2826 -14.0822 0.0000 26.1820 0.0000
# 6 0.0000 0.0000 0.0000 -2.4443 0.0000 35.1555
#
#
#
# Elastic Compliance Matrix: (Units=1/GPa)
#
#
# Indices 1 2 3 4 5 6 
#
# 1 0.025489 -0.014157 -0.003880 0.000000 -0.007689 0.000000
# 2 -0.014157 0.017741 -0.002471 0.000000 0.003775 0.000000
# 3 -0.003880 -0.002471 0.016334 0.000000 0.008705 0.000000
# 4 0.000000 0.000000 0.000000 0.050329 0.000000 0.003499
# 5 -0.007689 0.003775 0.008705 0.000000 0.044466 0.000000
# 6 0.000000 0.000000 0.000000 0.003499 0.000000 0.028688
#
#
# Mechanical properties :
#
#
# Convention : Reuss Voigt Hill
#
# Bulk Modulus (GPa) = 53.90812 61.67196 57.79004
# Shear Modulus (GPa) = 21.71589 26.06882 23.89236
#
# Velocity S-wave (km/s) = 3.34432 3.66420 3.50791
# Velocity P-wave (km/s) = 6.53279 7.04735 6.79494
#
# Compressibility (1/GPa) = 0.01855008
#
# Stress axis : x y z
#
# Youngs Moduli (GPa) = 39.23188 56.36777 61.22032
#
# Poissons Ratio (x) = 0.79797 0.23754
# Poissons Ratio (y) = 0.55539 0.15125
# Poissons Ratio (z) = 0.15222 0.13926
#
# Static dielectric constant tensor:
#      x y z
#    x 3.636950 0.000000 -0.090400 
#    y 0.000000 3.411350 0.000000 
#    z -0.090400 0.000000 3.642090 
# 
# 
# High freq. dielectric constant tensor:
#      x y z
#    x 1.757800 0.000000 -0.004780 
#    y 0.000000 1.747780 0.000000 
#    z -0.004780 0.000000 1.758960 
# 
# From -- ./inp_files/194207.got.cif
#   From: 2010.06.25/outbox.cif.g09.slc.cpg/sg15_98_cif.got.tgz:194207.got - 2010.06.28 07:06:18.
