data_PCOD8138245
_publ_section_title
;
Structure prediction by ZEFSAII (Michael W. Deem and Ramdas Pophale) SiO2 
 PCOD8138245
Probable space group: C 2/C
;
_chemical_formula_sum "Si O2"
_cell_formula_units_Z 40
_cell_length_a 43.239802
_cell_length_b 6.561799
_cell_length_c 13.662182
_cell_angle_alpha 90.000000
_cell_angle_beta 25.486965
_cell_angle_gamma 90.000000
_cell_volume 1668.029894
_symmetry_space_group_name_H-M "C 2/C"
_symmetry_group_IT_number 15
_symmetry_cell_setting 'monoclinic'
loop_
_space_group_symop_operation_xyz
x,y,z
-x,y,1/2-z
-x,-y,-z
x,-y,1/2+z
1/2+x,1/2+y,z
1/2-x,1/2+y,1/2-z
1/2-x,1/2-y,-z
1/2+x,1/2-y,1/2+z
loop_
_atom_site_type_symbol
_atom_site_label
_atom_site_fract_x
_atom_site_fract_y
_atom_site_fract_z
Si Si1 0.400285 0.301318 0.773509
Si Si2 0.327502 0.103576 0.614640
Si Si3 0.717920 0.450897 0.270259
Si Si4 0.440438 0.771106 0.642205
Si Si5 0.651476 0.990115 0.727475
O O1 0.416401 0.538671 0.715459
O O2 0.475870 0.189842 0.577162
O O3 0.361579 0.211547 0.786873
O O4 0.345620 0.283320 0.024547
O O5 0.317574 0.342122 0.665968
O O6 0.256872 0.009418 0.764166
O O7 0.395512 0.083668 0.346346
O O8 0.342412 0.996502 0.674488
O O9 0.776195 0.381781 0.022916
O O10 0.417575 0.849153 0.599811
#
# Coordination Sequence:
#
# PCOD8138245 Si02
#       5
#     8   8   8   8   8
#     4  10  20  40  64  89 135 170 214 267 331 384
#     4  10  21  39  62  95 126 169 219 265 326 385
#     4  10  20  37  61  93 128 170 207 270 324 380
#     4   9  22  41  63  95 129 175 214 270 328 389
#     4  11  21  39  67  95 129 171 219 269 324 395
#
# _framework density 23.980384000000001
#
# number of rings (size 3 to 8) (size 9 to 14) (size 15 to 20)
#    0.000    2.000    2.000    1.200    0.000    0.800 
#    3.600    3.000    0.000   12.000    0.000    0.000 
#    0.000    0.000    0.000    0.000    0.000    0.000 
#
# Total GULP energy -247934.696929 kJ/mol
# GULP energy per Si atom -12396.734846 kJ/mol
# Density = 2.392580 g / cm^3
# Si number density = 23.980384 Si / 1000 Ang^3
#
#
#
# Elastic Constant Matrix: (Units=GPa)
#
#
# Indices 1 2 3 4 5 6 
#
# 1 156.0223 21.4383 67.7561 0.0000 13.4972 0.0000
# 2 21.4383 21.2428 37.2814 0.0000 3.2708 0.0000
# 3 67.7561 37.2814 147.9951 0.0000 -13.8766 0.0000
# 4 0.0000 0.0000 0.0000 51.1140 0.0000 -8.0500
# 5 13.4972 3.2708 -13.8766 0.0000 22.1504 0.0000
# 6 0.0000 0.0000 0.0000 -8.0500 0.0000 36.1251
#
#
#
# Elastic Compliance Matrix: (Units=1/GPa)
#
#
# Indices 1 2 3 4 5 6 
#
# 1 0.009465 0.002031 -0.005752 0.000000 -0.009670 0.000000
# 2 0.002031 0.104006 -0.030476 0.000000 -0.035688 0.000000
# 3 -0.005752 -0.030476 0.018930 0.000000 0.019864 0.000000
# 4 0.000000 0.000000 0.000000 0.020276 0.000000 0.004518
# 5 -0.009670 -0.035688 0.019864 0.000000 0.068752 0.000000
# 6 0.000000 0.000000 0.000000 0.004518 0.000000 0.028688
#
#
# Mechanical properties :
#
#
# Convention : Reuss Voigt Hill
#
# Bulk Modulus (GPa) = 15.62318 64.24576 39.93447
# Shear Modulus (GPa) = 14.71253 35.13019 24.92136
#
# Velocity S-wave (km/s) = 2.47963 3.83163 3.22722
# Velocity P-wave (km/s) = 3.83760 6.81354 5.52953
#
# Compressibility (1/GPa) = 0.06400745
#
# Stress axis : x y z
#
# Youngs Moduli (GPa) = 105.65779 9.61481 52.82608
#
# Poissons Ratio (x) = -0.01953 0.30383
# Poissons Ratio (y) = -0.21463 1.60995
# Poissons Ratio (z) = 0.60770 0.29303
#
# Static dielectric constant tensor:
#      x y z
#    x 3.854760 0.000000 -0.240310 
#    y 0.000000 4.538920 0.000000 
#    z -0.240310 0.000000 4.741240 
# 
# 
# High freq. dielectric constant tensor:
#      x y z
#    x 1.915840 0.000000 -0.016310 
#    y 0.000000 1.988240 0.000000 
#    z -0.016310 0.000000 1.959460 
# 
# From -- ./inp_files/125435.got.cif
#   From: 2010.06.25/outbox.cif.g09.slc.cpg/sg15_63_cif.got.tgz:125435.got - 2010.06.28 07:06:18.
