data_PCOD8138657
_publ_section_title
;
Structure prediction by ZEFSAII (Michael W. Deem and Ramdas Pophale) SiO2 
 PCOD8138657
Probable space group: C 2/C
;
_chemical_formula_sum "Si O2"
_cell_formula_units_Z 64
_cell_length_a 17.579718
_cell_length_b 24.898932
_cell_length_c 15.173569
_cell_angle_alpha 90.000000
_cell_angle_beta 149.330944
_cell_angle_gamma 90.000000
_cell_volume 3387.796778
_symmetry_space_group_name_H-M "C 2/C"
_symmetry_group_IT_number 15
_symmetry_cell_setting 'monoclinic'
loop_
_space_group_symop_operation_xyz
x,y,z
-x,y,1/2-z
-x,-y,-z
x,-y,1/2+z
1/2+x,1/2+y,z
1/2-x,1/2+y,1/2-z
1/2-x,1/2-y,-z
1/2+x,1/2-y,1/2+z
loop_
_atom_site_type_symbol
_atom_site_label
_atom_site_fract_x
_atom_site_fract_y
_atom_site_fract_z
Si Si1 0.177355 0.148551 0.424950
Si Si2 0.829961 0.993004 0.353257
Si Si3 0.666815 0.472136 0.942251
Si Si4 0.173957 0.695002 0.099558
Si Si5 0.173508 0.421273 0.923347
Si Si6 0.824487 0.603783 0.888012
Si Si7 0.318793 0.193087 0.743770
Si Si8 0.826583 0.600784 0.271100
O O1 0.215213 0.085578 0.452276
O O2 0.251190 0.178537 0.417210
O O3 0.250176 0.172161 0.584946
O O4 0.000000 0.158667 0.250000
O O5 0.809338 0.969838 0.429872
O O6 0.761236 0.950510 0.218654
O O7 0.750275 0.050003 0.259765
O O8 0.000000 0.000000 0.500000
O O9 0.500000 0.486067 0.750000
O O10 0.763862 0.519232 0.997387
O O11 0.242777 0.751539 0.196371
O O12 0.220656 0.654024 0.223515
O O13 0.996348 0.699090 0.910825
O O14 0.228328 0.394699 0.885960
O O15 0.000000 0.430283 0.750000
O O16 0.214474 0.383402 0.047885
O O17 0.772730 0.652905 0.776230
O O18 0.997990 0.592054 0.047448
#
# Coordination Sequence:
#
# PCOD8138657 Si02
#       8
#     8   8   8   8   8   8   8   8
#     4  11  23  38  58  83 119 153 192 235 284 342
#     4  11  21  33  57  84 118 149 187 234 282 338
#     4  10  21  35  50  85 120 150 188 224 279 343
#     4  11  24  39  63  80 116 152 193 246 282 343
#     4   9  19  37  59  82 114 150 187 231 279 336
#     4  10  20  38  60  82 115 150 187 236 282 340
#     4  11  23  42  58  87 112 151 200 234 292 339
#     4   9  22  38  57  86 111 149 193 231 284 341
#
# _framework density 18.891334000000001
#
# number of rings (size 3 to 8) (size 9 to 14) (size 15 to 20)
#    0.000    1.750    1.250    2.625    5.250    2.000 
#    0.000    0.625    0.000    0.000    0.000    0.000 
#    0.000    0.000    0.000    0.000    0.000    0.000 
#
# Total GULP energy -396800.777603 kJ/mol
# GULP energy per Si atom -12400.024300 kJ/mol
# Density = 1.884834 g / cm^3
# Si number density = 18.891334 Si / 1000 Ang^3
#
#
#
# Elastic Constant Matrix: (Units=GPa)
#
#
# Indices 1 2 3 4 5 6 
#
# 1 86.1318 81.6433 59.8937 0.0000 -8.6707 0.0000
# 2 81.6433 133.7583 63.8748 0.0000 -20.7116 0.0000
# 3 59.8937 63.8748 84.7529 0.0000 -19.0244 0.0000
# 4 0.0000 0.0000 0.0000 38.3557 0.0000 1.4012
# 5 -8.6707 -20.7116 -19.0244 0.0000 18.3344 0.0000
# 6 0.0000 0.0000 0.0000 1.4012 0.0000 23.8417
#
#
#
# Elastic Compliance Matrix: (Units=1/GPa)
#
#
# Indices 1 2 3 4 5 6 
#
# 1 0.041472 -0.019384 -0.019830 0.000000 -0.022861 0.000000
# 2 -0.019384 0.021147 0.001388 0.000000 0.016163 0.000000
# 3 -0.019830 0.001388 0.030001 0.000000 0.023321 0.000000
# 4 0.000000 0.000000 0.000000 0.026128 0.000000 -0.001536
# 5 -0.022861 0.016163 0.023321 0.000000 0.086188 0.000000
# 6 0.000000 0.000000 0.000000 -0.001536 0.000000 0.042034
#
#
# Mechanical properties :
#
#
# Convention : Reuss Voigt Hill
#
# Bulk Modulus (GPa) = 58.93100 79.49628 69.21364
# Shear Modulus (GPa) = 15.23101 22.72177 18.97639
#
# Velocity S-wave (km/s) = 2.84252 3.47185 3.17283
# Velocity P-wave (km/s) = 6.48349 7.63176 7.08094
#
# Compressibility (1/GPa) = 0.01696900
#
# Stress axis : x y z
#
# Youngs Moduli (GPa) = 24.11276 47.28746 33.33190
#
# Poissons Ratio (x) = 0.91660 0.66099
# Poissons Ratio (y) = 0.46739 -0.04628
# Poissons Ratio (z) = 0.47817 -0.06565
#
# Static dielectric constant tensor:
#      x y z
#    x 2.979280 0.000000 0.019200 
#    y 0.000000 3.521570 0.000000 
#    z 0.019200 0.000000 3.599260 
# 
# 
# High freq. dielectric constant tensor:
#      x y z
#    x 1.739470 0.000000 -0.006600 
#    y 0.000000 1.727840 0.000000 
#    z -0.006600 0.000000 1.746120 
# 
# From -- ./inp_files/164219.got.cif
#   From: 2010.06.25/outbox.cif.g09.slc.cpg/sg15_83_cif.got.tgz:164219.got - 2010.06.28 07:06:18.
