data_PCOD8138809
_publ_section_title
;
Structure prediction by ZEFSAII (Michael W. Deem and Ramdas Pophale) SiO2 
 PCOD8138809
Probable space group: C 2/C
;
_chemical_formula_sum "Si O2"
_cell_formula_units_Z 64
_cell_length_a 21.648794
_cell_length_b 8.985619
_cell_length_c 27.319386
_cell_angle_alpha 90.000000
_cell_angle_beta 151.061179
_cell_angle_gamma 90.000000
_cell_volume 2571.498219
_symmetry_space_group_name_H-M "C 2/C"
_symmetry_group_IT_number 15
_symmetry_cell_setting 'monoclinic'
loop_
_space_group_symop_operation_xyz
x,y,z
-x,y,1/2-z
-x,-y,-z
x,-y,1/2+z
1/2+x,1/2+y,z
1/2-x,1/2+y,1/2-z
1/2-x,1/2-y,-z
1/2+x,1/2-y,1/2+z
loop_
_atom_site_type_symbol
_atom_site_label
_atom_site_fract_x
_atom_site_fract_y
_atom_site_fract_z
Si Si1 0.230634 0.520276 0.955823
Si Si2 0.742967 0.034948 0.358482
Si Si3 0.222346 0.493640 0.212635
Si Si4 0.362066 0.336620 0.632927
Si Si5 0.279394 0.781243 0.870679
Si Si6 0.438052 0.234259 0.958700
Si Si7 0.923019 0.251894 0.849175
Si Si8 0.011883 0.709534 0.310114
O O1 0.305402 0.492897 0.956257
O O2 0.144637 0.670075 0.893712
O O3 0.143168 0.378676 0.908604
O O4 0.332954 0.540150 0.070781
O O5 0.837164 0.130216 0.388461
O O6 0.606330 0.099329 0.276584
O O7 0.711598 0.875782 0.312827
O O8 0.270835 0.620610 0.209182
O O9 0.158112 0.590256 0.213007
O O10 0.335118 0.383871 0.308520
O O11 0.121017 0.407771 0.108682
O O12 0.500000 0.369929 0.750000
O O13 0.258734 0.356733 0.604608
O O14 0.429586 0.737793 0.977132
O O15 0.468088 0.204744 0.036715
O O16 0.985092 0.197040 0.841104
O O17 0.000000 0.801569 0.250000
#
# Coordination Sequence:
#
# PCOD8138809 Si02
#       8
#     8   8   8   8   8   8   8   8
#     4   9  20  36  64  99 128 187 233 284 351 418
#     4  10  20  41  68  96 135 178 229 289 345 430
#     4  11  26  44  65 103 136 181 236 286 359 423
#     4  10  20  38  61  99 141 179 235 291 352 417
#     4  10  22  39  68  94 138 175 223 293 347 407
#     4  11  24  43  64 101 139 181 234 289 355 424
#     4  11  25  44  70  99 139 187 233 292 355 422
#     4  10  21  41  70  98 132 180 235 284 350 418
#
# _framework density 24.888214999999999
#
# number of rings (size 3 to 8) (size 9 to 14) (size 15 to 20)
#    0.000    1.750    1.250    3.750    7.000    2.000 
#    0.000    5.625    0.000    0.000    0.000    0.000 
#    0.000    0.000    0.000    0.000    0.000    0.000 
#
# Total GULP energy -396501.754688 kJ/mol
# GULP energy per Si atom -12390.679834 kJ/mol
# Density = 2.483157 g / cm^3
# Si number density = 24.888215 Si / 1000 Ang^3
#
#
#
# Elastic Constant Matrix: (Units=GPa)
#
#
# Indices 1 2 3 4 5 6 
#
# 1 128.4565 7.0973 14.7637 0.0008 -4.4219 0.0005
# 2 7.0973 57.9591 5.0134 0.0005 2.5030 -0.0002
# 3 14.7637 5.0134 112.8211 0.0030 -6.1970 0.0004
# 4 0.0008 0.0005 0.0030 21.1610 0.0008 -9.0370
# 5 -4.4219 2.5030 -6.1970 0.0008 27.6111 0.0000
# 6 0.0005 -0.0002 0.0004 -9.0370 0.0000 25.5301
#
#
#
# Elastic Compliance Matrix: (Units=1/GPa)
#
#
# Indices 1 2 3 4 5 6 
#
# 1 0.007985 -0.000946 -0.000939 0.000000 0.001154 0.000000
# 2 -0.000946 0.017518 -0.000759 0.000000 -0.001910 0.000000
# 3 -0.000939 -0.000759 0.009128 -0.000002 0.001967 -0.000001
# 4 0.000000 0.000000 -0.000002 0.055673 -0.000002 0.019707
# 5 0.001154 -0.001910 0.001967 -0.000002 0.037017 -0.000001
# 6 0.000000 0.000000 -0.000001 0.019707 -0.000001 0.046145
#
#
# Mechanical properties :
#
#
# Convention : Reuss Voigt Hill
#
# Bulk Modulus (GPa) = 34.08305 39.22060 36.65183
# Shear Modulus (GPa) = 26.52018 33.01792 29.76905
#
# Velocity S-wave (km/s) = 3.26785 3.64627 3.46223
# Velocity P-wave (km/s) = 5.28797 5.78964 5.54448
#
# Compressibility (1/GPa) = 0.02934010
#
# Stress axis : x y z
#
# Youngs Moduli (GPa) = 125.23943 57.08545 109.54910
#
# Poissons Ratio (x) = 0.05402 0.10292
# Poissons Ratio (y) = 0.11852 0.08320
# Poissons Ratio (z) = 0.11766 0.04336
#
# Static dielectric constant tensor:
#      x y z
#    x 4.866110 0.000000 -0.258710 
#    y 0.000000 4.423850 0.000000 
#    z -0.258710 0.000000 4.384610 
# 
# 
# High freq. dielectric constant tensor:
#      x y z
#    x 2.003120 0.000000 -0.021220 
#    y 0.000000 1.982170 0.000000 
#    z -0.021220 0.000000 1.989430 
# 
# From -- ./inp_files/318652.got.cif
#   From: 2010.06.25/outbox.cif.g09.slc.cpg/sg15_160_cif.got.tgz:318652.got - 2010.06.28 07:06:18.
