data_PCOD8138985
_publ_section_title
;
Structure prediction by ZEFSAII (Michael W. Deem and Ramdas Pophale) SiO2 
 PCOD8138985
Probable space group: C 2/C
;
_chemical_formula_sum "Si O2"
_cell_formula_units_Z 64
_cell_length_a 23.761014
_cell_length_b 20.386752
_cell_length_c 17.192582
_cell_angle_alpha 90.000000
_cell_angle_beta 20.309543
_cell_angle_gamma 90.000000
_cell_volume 2890.670173
_symmetry_space_group_name_H-M "C 2/C"
_symmetry_group_IT_number 15
_symmetry_cell_setting 'monoclinic'
loop_
_space_group_symop_operation_xyz
x,y,z
-x,y,1/2-z
-x,-y,-z
x,-y,1/2+z
1/2+x,1/2+y,z
1/2-x,1/2+y,1/2-z
1/2-x,1/2-y,-z
1/2+x,1/2-y,1/2+z
loop_
_atom_site_type_symbol
_atom_site_label
_atom_site_fract_x
_atom_site_fract_y
_atom_site_fract_z
Si Si1 0.092726 0.179661 0.553319
Si Si2 0.495368 0.298520 0.920649
Si Si3 0.354977 0.398607 0.878031
Si Si4 0.039339 0.097045 0.903272
Si Si5 0.536369 0.040474 0.841922
Si Si6 0.913301 0.403532 0.657337
Si Si7 0.721428 0.524669 0.170962
Si Si8 0.140905 0.287352 0.358344
O O1 0.976109 0.127557 0.662351
O O2 0.259837 0.144708 0.361148
O O3 0.121707 0.240065 0.457578
O O4 0.000000 0.205679 0.750000
O O5 0.625095 0.327703 0.690350
O O6 0.558956 0.234820 0.883247
O O7 0.443962 0.348566 0.053650
O O8 0.329503 0.285998 0.089315
O O9 0.500000 0.412659 0.750000
O O10 0.358593 0.452754 0.805999
O O11 0.181322 0.406617 0.145056
O O12 0.877626 0.054337 0.128112
O O13 0.201814 0.053798 0.697116
O O14 0.600661 0.965197 0.765182
O O15 0.429175 0.062606 0.053313
O O16 0.411149 0.043340 0.931443
O O17 0.071364 0.358794 0.470760
#
# Coordination Sequence:
#
# PCOD8138985 Si02
#       8
#     8   8   8   8   8   8   8   8
#     4  11  24  41  65  99 135 177 225 285 339 410
#     4  10  22  43  69  95 132 184 227 287 340 411
#     4  11  25  41  63  99 139 177 228 288 348 410
#     4   9  20  37  64  90 134 175 223 269 351 410
#     4  11  24  42  68 102 136 180 231 292 339 418
#     4  11  24  42  70  97 139 180 230 279 354 412
#     4  10  20  38  63  93 132 181 222 277 342 412
#     4  11  22  46  71  96 134 183 233 276 347 418
#
# _framework density 22.140194999999999
#
# number of rings (size 3 to 8) (size 9 to 14) (size 15 to 20)
#    0.000    1.500    2.500    1.875    3.500    2.500 
#    0.000    3.750    0.000    0.000    0.000    0.000 
#    0.000    0.000    0.000    0.000    0.000    0.000 
#
# Total GULP energy -396646.152628 kJ/mol
# GULP energy per Si atom -12395.192270 kJ/mol
# Density = 2.208980 g / cm^3
# Si number density = 22.140195 Si / 1000 Ang^3
#
#
#
# Elastic Constant Matrix: (Units=GPa)
#
#
# Indices 1 2 3 4 5 6 
#
# 1 91.2105 16.9278 33.9659 -0.0078 -12.7404 0.0154
# 2 16.9278 79.9172 19.8784 -0.0199 -2.1793 0.0267
# 3 33.9659 19.8784 103.3383 0.0092 -13.8927 0.0118
# 4 -0.0078 -0.0199 0.0092 35.9597 0.0014 -0.5951
# 5 -12.7404 -2.1793 -13.8927 0.0014 39.5303 -0.0079
# 6 0.0154 0.0267 0.0118 -0.5951 -0.0079 18.4526
#
#
#
# Elastic Compliance Matrix: (Units=1/GPa)
#
#
# Indices 1 2 3 4 5 6 
#
# 1 0.013017 -0.001797 -0.003550 0.000003 0.002849 -0.000005
# 2 -0.001797 0.013391 -0.002061 0.000007 -0.000565 -0.000017
# 3 -0.003550 -0.002061 0.011620 -0.000005 0.002826 0.000000
# 4 0.000003 0.000007 -0.000005 0.027824 -0.000001 0.000897
# 5 0.002849 -0.000565 0.002826 -0.000001 0.027177 0.000008
# 6 -0.000005 -0.000017 0.000000 0.000897 0.000008 0.054222
#
#
# Mechanical properties :
#
#
# Convention : Reuss Voigt Hill
#
# Bulk Modulus (GPa) = 43.08059 46.22334 44.65196
# Shear Modulus (GPa) = 29.44571 32.36813 30.90692
#
# Velocity S-wave (km/s) = 3.65083 3.82771 3.74031
# Velocity P-wave (km/s) = 6.10506 6.36066 6.23417
#
# Compressibility (1/GPa) = 0.02321231
#
# Stress axis : x y z
#
# Youngs Moduli (GPa) = 76.82307 74.67804 86.05681
#
# Poissons Ratio (x) = 0.13416 0.30550
# Poissons Ratio (y) = 0.13801 0.17740
# Poissons Ratio (z) = 0.27272 0.15394
#
# Static dielectric constant tensor:
#      x y z
#    x 3.985280 -0.000040 -0.097870 
#    y -0.000040 4.043600 0.000060 
#    z -0.097870 0.000060 3.888910 
# 
# 
# High freq. dielectric constant tensor:
#      x y z
#    x 1.873770 0.000000 -0.009580 
#    y 0.000000 1.869330 0.000000 
#    z -0.009580 0.000000 1.862110 
# 
# From -- ./inp_files/220239.got.cif
#   From: 2010.06.25/outbox.cif.g09.slc.cpg/sg15_111_cif.got.tgz:220239.got - 2010.06.28 07:06:18.
