data_PCOD8138491
_publ_section_title
;
Structure prediction by ZEFSAII (Michael W. Deem and Ramdas Pophale) SiO2 
 PCOD8138491
Probable space group: C 2/C
;
_chemical_formula_sum "Si O2"
_cell_formula_units_Z 56
_cell_length_a 11.016310
_cell_length_b 19.069220
_cell_length_c 11.594341
_cell_angle_alpha 90.000000
_cell_angle_beta 75.669968
_cell_angle_gamma 90.000000
_cell_volume 2359.868953
_symmetry_space_group_name_H-M "C 2/C"
_symmetry_group_IT_number 15
_symmetry_cell_setting 'monoclinic'
loop_
_space_group_symop_operation_xyz
x,y,z
-x,y,1/2-z
-x,-y,-z
x,-y,1/2+z
1/2+x,1/2+y,z
1/2-x,1/2+y,1/2-z
1/2-x,1/2-y,-z
1/2+x,1/2-y,1/2+z
loop_
_atom_site_type_symbol
_atom_site_label
_atom_site_fract_x
_atom_site_fract_y
_atom_site_fract_z
Si Si1 0.500000 0.707356 0.250000
Si Si2 0.231993 0.339098 0.579138
Si Si3 0.793638 0.905724 0.155722
Si Si4 0.123169 0.232926 0.786232
Si Si5 0.682813 0.408404 0.619644
Si Si6 0.000000 0.978694 0.250000
Si Si7 0.854067 0.538723 0.265013
Si Si8 0.947718 0.741864 0.523060
O O1 0.378518 0.659230 0.303659
O O2 0.522947 0.760668 0.349238
O O3 0.186525 0.294865 0.700724
O O4 0.223312 0.420921 0.614776
O O5 0.142672 0.322745 0.490874
O O6 0.373497 0.315891 0.514036
O O7 0.776203 0.829483 0.219018
O O8 0.679768 0.956781 0.217945
O O9 0.794854 0.893530 0.018932
O O10 0.925538 0.934435 0.172040
O O11 0.000000 0.204616 0.750000
O O12 0.077193 0.261159 0.921924
O O13 0.593045 0.474807 0.652380
O O14 0.813970 0.428098 0.651677
O O15 0.000000 0.551193 0.250000
#
# Coordination Sequence:
#
# PCOD8138491 Si02
#       8
#     4   8   8   8   8   4   8   8
#     4  11  18  36  64 100 138 152 213 286 346 387
#     4  10  22  42  65  99 131 183 224 260 333 411
#     4  11  21  38  65  98 127 171 216 281 332 388
#     4  10  20  38  67 100 135 164 222 281 330 392
#     4  10  21  36  61  96 129 167 212 273 336 390
#     4   9  20  34  58  96 130 160 201 266 344 395
#     4  11  24  44  64  87 134 186 224 265 329 416
#     4  10  20  37  66  95 133 172 214 273 338 392
#
# _framework density 23.730132000000001
#
# number of rings (size 3 to 8) (size 9 to 14) (size 15 to 20)
#    0.000    1.714    3.571    1.714    0.000    1.714 
#    7.714    4.286    4.714    0.000    0.000    0.000 
#    0.000    0.000    0.000    0.000    0.000    0.000 
#
# Total GULP energy -347143.859915 kJ/mol
# GULP energy per Si atom -12397.994997 kJ/mol
# Density = 2.367612 g / cm^3
# Si number density = 23.730132 Si / 1000 Ang^3
#
#
#
# Elastic Constant Matrix: (Units=GPa)
#
#
# Indices 1 2 3 4 5 6 
#
# 1 91.5515 4.2953 26.5692 0.0000 17.1483 0.0000
# 2 4.2953 48.1803 23.1530 0.0000 10.2288 0.0000
# 3 26.5692 23.1530 133.9734 0.0000 25.6829 0.0000
# 4 0.0000 0.0000 0.0000 24.8112 0.0000 6.7009
# 5 17.1483 10.2288 25.6829 0.0000 39.4812 0.0000
# 6 0.0000 0.0000 0.0000 6.7009 0.0000 23.9687
#
#
#
# Elastic Compliance Matrix: (Units=1/GPa)
#
#
# Indices 1 2 3 4 5 6 
#
# 1 0.012202 0.000654 -0.001696 0.000000 -0.004366 0.000000
# 2 0.000654 0.023178 -0.003347 0.000000 -0.004112 0.000000
# 3 -0.001696 -0.003347 0.009221 0.000000 -0.004395 0.000000
# 4 0.000000 0.000000 0.000000 0.043596 0.000000 -0.012188
# 5 -0.004366 -0.004112 -0.004395 0.000000 0.031149 0.000000
# 6 0.000000 0.000000 0.000000 -0.012188 0.000000 0.045129
#
#
# Mechanical properties :
#
#
# Convention : Reuss Voigt Hill
#
# Bulk Modulus (GPa) = 27.91418 42.41558 35.16488
# Shear Modulus (GPa) = 26.99856 32.29806 29.64831
#
# Velocity S-wave (km/s) = 3.37669 3.69325 3.53851
# Velocity P-wave (km/s) = 5.19533 6.00831 5.61655
#
# Compressibility (1/GPa) = 0.03582409
#
# Stress axis : x y z
#
# Youngs Moduli (GPa) = 81.95308 43.14346 108.44285
#
# Poissons Ratio (x) = -0.02822 0.18391
# Poissons Ratio (y) = -0.05361 0.36297
# Poissons Ratio (z) = 0.13899 0.14441
#
# Static dielectric constant tensor:
#      x y z
#    x 4.322060 0.000000 0.188210 
#    y 0.000000 4.061800 0.000000 
#    z 0.188210 0.000000 4.281990 
# 
# 
# High freq. dielectric constant tensor:
#      x y z
#    x 1.934210 0.000000 0.016930 
#    y 0.000000 1.922860 0.000000 
#    z 0.016930 0.000000 1.939710 
# 
# From -- ./inp_files/88941.got.cif
#   From: 2010.06.25/outbox.cif.g09.slc.cpg/sg15_45_cif.got.tgz:88941.got - 2010.06.28 07:06:18.
