data_PCOD8138691
_publ_section_title
;
Structure prediction by ZEFSAII (Michael W. Deem and Ramdas Pophale) SiO2 
 PCOD8138691
Probable space group: C 2/C
;
_chemical_formula_sum "Si O2"
_cell_formula_units_Z 32
_cell_length_a 6.899864
_cell_length_b 18.691375
_cell_length_c 12.231883
_cell_angle_alpha 90.000000
_cell_angle_beta 128.786198
_cell_angle_gamma 90.000000
_cell_volume 1229.659945
_symmetry_space_group_name_H-M "C 2/C"
_symmetry_group_IT_number 15
_symmetry_cell_setting 'monoclinic'
loop_
_space_group_symop_operation_xyz
x,y,z
-x,y,1/2-z
-x,-y,-z
x,-y,1/2+z
1/2+x,1/2+y,z
1/2-x,1/2+y,1/2-z
1/2-x,1/2-y,-z
1/2+x,1/2-y,1/2+z
loop_
_atom_site_type_symbol
_atom_site_label
_atom_site_fract_x
_atom_site_fract_y
_atom_site_fract_z
Si Si1 0.268577 0.324174 0.884813
Si Si2 0.780670 0.334037 0.389786
Si Si3 0.431933 0.534991 0.350864
Si Si4 0.963295 0.466327 0.103910
O O1 0.400711 0.246118 0.932745
O O2 0.400311 0.379465 0.850057
O O3 0.000000 0.303785 0.750000
O O4 0.241531 0.361654 0.993405
O O5 0.500000 0.341231 0.250000
O O6 0.971941 0.381960 0.385934
O O7 0.500000 0.516271 0.250000
O O8 0.159478 0.495741 0.266952
O O9 0.664429 0.516447 0.517042
O O10 0.000000 0.500000 0.000000
#
# Coordination Sequence:
#
# PCOD8138691 Si02
#       4
#     8   8   8   8
#     4  10  21  39  65  91 121 167 214 257 316 380
#     4  10  21  40  63  89 125 165 209 262 316 376
#     4  10  21  39  63  92 128 166 208 261 314 374
#     4  10  20  38  60  87 126 164 202 256 313 368
#
# _framework density 26.023455999999999
#
# number of rings (size 3 to 8) (size 9 to 14) (size 15 to 20)
#    0.000    2.000    0.000    5.250    0.000    1.000 
#    0.000   26.250    0.000    0.000    0.000    0.000 
#    0.000    0.000    0.000    0.000    0.000    0.000 
#
# Total GULP energy -198242.720697 kJ/mol
# GULP energy per Si atom -12390.170044 kJ/mol
# Density = 2.596423 g / cm^3
# Si number density = 26.023456 Si / 1000 Ang^3
#
#
#
# Elastic Constant Matrix: (Units=GPa)
#
#
# Indices 1 2 3 4 5 6 
#
# 1 126.6129 49.9424 75.1339 0.0000 37.2121 0.0000
# 2 49.9424 146.0956 50.5072 0.0000 26.5444 0.0000
# 3 75.1339 50.5072 226.2328 0.0000 2.8987 0.0000
# 4 0.0000 0.0000 0.0000 27.7896 0.0000 25.6628
# 5 37.2121 26.5444 2.8987 0.0000 39.6612 0.0000
# 6 0.0000 0.0000 0.0000 25.6628 0.0000 22.4416
#
#
#
# Elastic Compliance Matrix: (Units=1/GPa)
#
#
# Indices 1 2 3 4 5 6 
#
# 1 0.014763 -0.001187 -0.004475 0.000000 -0.012730 0.000000
# 2 -0.001187 0.008578 -0.001463 0.000000 -0.004520 0.000000
# 3 -0.004475 -0.001463 0.006172 0.000000 0.004727 0.000000
# 4 0.000000 0.000000 0.000000 -0.642307 0.000000 0.734504
# 5 -0.012730 -0.004520 0.004727 0.000000 0.039838 0.000000
# 6 0.000000 0.000000 0.000000 0.734504 0.000000 -0.795375
#
#
# Mechanical properties :
#
#
# Convention : Reuss Voigt Hill
#
# Bulk Modulus (GPa) = 65.51358 94.45649 79.98504
# Shear Modulus (GPa) = -3.70646 39.53566 17.91460
#
# Velocity S-wave (km/s) = -1.19473 3.90196 2.62659
# Velocity P-wave (km/s) = 4.82973 7.52834 6.32464
#
# Compressibility (1/GPa) = 0.01526401
#
# Stress axis : x y z
#
# Youngs Moduli (GPa) = 67.73627 116.58282 162.01072
#
# Poissons Ratio (x) = 0.13835 0.72499
# Poissons Ratio (y) = 0.08038 0.23701
# Poissons Ratio (z) = 0.30311 0.17055
#
# Static dielectric constant tensor:
#      x y z
#    x 4.858230 0.000000 0.463090 
#    y 0.000000 4.903870 0.000000 
#    z 0.463090 0.000000 5.682580 
# 
# 
# High freq. dielectric constant tensor:
#      x y z
#    x 2.052960 0.000000 -0.008650 
#    y 0.000000 2.038110 0.000000 
#    z -0.008650 0.000000 2.092840 
# 
# From -- ./inp_files/76245.got.cif
#   From: 2010.06.25/outbox.cif.g09.slc.cpg/sg15_39_cif.got.tgz:76245.got - 2010.06.28 07:06:18.
