data_PCOD8138584
_publ_section_title
;
Structure prediction by ZEFSAII (Michael W. Deem and Ramdas Pophale) SiO2 
 PCOD8138584
Probable space group: C 2/C
;
_chemical_formula_sum "Si O2"
_cell_formula_units_Z 52
_cell_length_a 15.267670
_cell_length_b 25.792851
_cell_length_c 11.821374
_cell_angle_alpha 90.000000
_cell_angle_beta 33.814451
_cell_angle_gamma 90.000000
_cell_volume 2590.653248
_symmetry_space_group_name_H-M "C 2/C"
_symmetry_group_IT_number 15
_symmetry_cell_setting 'monoclinic'
loop_
_space_group_symop_operation_xyz
x,y,z
-x,y,1/2-z
-x,-y,-z
x,-y,1/2+z
1/2+x,1/2+y,z
1/2-x,1/2+y,1/2-z
1/2-x,1/2-y,-z
1/2+x,1/2-y,1/2+z
loop_
_atom_site_type_symbol
_atom_site_label
_atom_site_fract_x
_atom_site_fract_y
_atom_site_fract_z
Si Si1 0.500000 0.601878 0.750000
Si Si2 0.768983 0.815492 0.862077
Si Si3 0.544321 0.948814 0.886859
Si Si4 0.500000 0.255401 0.750000
Si Si5 0.733744 0.036843 0.963651
Si Si6 0.147076 0.423117 0.008563
Si Si7 0.500000 0.774546 0.750000
Si Si8 0.785843 0.811399 0.581674
O O1 0.597589 0.564800 0.731028
O O2 0.622320 0.636613 0.549483
O O3 0.747836 0.812897 0.752395
O O4 0.937487 0.792886 0.717543
O O5 0.634381 0.780801 0.059340
O O6 0.753825 0.874046 0.927391
O O7 0.389805 0.931389 0.982224
O O8 0.685266 0.959534 0.647801
O O9 0.594187 0.910207 0.934705
O O10 0.500000 0.000000 0.000000
O O11 0.745540 0.976608 0.912679
O O12 0.000000 0.428685 0.250000
O O13 0.618328 0.810367 0.695687
O O14 0.607810 0.738973 0.554409
#
# Coordination Sequence:
#
# PCOD8138584 Si02
#       8
#     4   8   8   4   8   8   4   8
#     4  11  24  37  54  96 126 157 190 253 298 356
#     4  11  22  41  61  88 115 159 190 253 291 368
#     4   9  17  36  61  81 106 155 203 244 290 343
#     4  10  24  41  60  84 120 147 202 238 312 344
#     4  10  20  38  58  84 124 154 200 249 291 354
#     4  11  20  37  61  86 112 154 206 241 288 360
#     4   9  20  40  68  92 118 160 192 255 292 380
#     4  10  21  40  63  92 125 151 204 238 315 352
#
# _framework density 20.072157000000001
#
# number of rings (size 3 to 8) (size 9 to 14) (size 15 to 20)
#    0.000    1.846    3.846    1.846    0.000    3.077 
#    2.769    8.462    0.000    0.000    0.000    0.000 
#    0.000    0.000    0.000    0.000    0.000    0.000 
#
# Total GULP energy -322282.650080 kJ/mol
# GULP energy per Si atom -12395.486542 kJ/mol
# Density = 2.002647 g / cm^3
# Si number density = 20.072157 Si / 1000 Ang^3
#
#
#
# Elastic Constant Matrix: (Units=GPa)
#
#
# Indices 1 2 3 4 5 6 
#
# 1 127.2316 61.3373 50.0075 -0.0001 -4.2097 -0.0002
# 2 61.3373 108.7493 26.8978 0.0000 -11.6188 -0.0001
# 3 50.0075 26.8978 56.2857 -0.0002 0.1933 -0.0004
# 4 -0.0001 0.0000 -0.0002 20.3403 0.0001 -15.7198
# 5 -4.2097 -11.6188 0.1933 0.0001 38.7551 0.0002
# 6 -0.0002 -0.0001 -0.0004 -15.7198 0.0002 28.0497
#
#
#
# Elastic Compliance Matrix: (Units=1/GPa)
#
#
# Indices 1 2 3 4 5 6 
#
# 1 0.014666 -0.005735 -0.010289 0.000000 -0.000075 0.000000
# 2 -0.005735 0.013070 -0.001162 0.000000 0.003301 0.000000
# 3 -0.010289 -0.001162 0.027469 0.000001 -0.001603 0.000001
# 4 0.000000 0.000000 0.000001 0.086727 0.000000 0.048604
# 5 -0.000075 0.003301 -0.001603 0.000000 0.026793 0.000000
# 6 0.000000 0.000000 0.000001 0.048604 0.000000 0.062890
#
#
# Mechanical properties :
#
#
# Convention : Reuss Voigt Hill
#
# Bulk Modulus (GPa) = 48.00172 63.19465 55.59818
# Shear Modulus (GPa) = 18.31959 27.69729 23.00844
#
# Velocity S-wave (km/s) = 3.02435 3.71871 3.38936
# Velocity P-wave (km/s) = 6.01349 7.07040 6.56325
#
# Compressibility (1/GPa) = 0.02083259
#
# Stress axis : x y z
#
# Youngs Moduli (GPa) = 68.18373 76.50900 36.40475
#
# Poissons Ratio (x) = 0.43879 0.37458
# Poissons Ratio (y) = 0.39105 0.04230
# Poissons Ratio (z) = 0.70157 0.08890
#
# Static dielectric constant tensor:
#      x y z
#    x 4.423890 0.000000 -0.077240 
#    y 0.000000 3.956870 0.000000 
#    z -0.077240 0.000000 3.517470 
# 
# 
# High freq. dielectric constant tensor:
#      x y z
#    x 1.785400 0.000000 0.003280 
#    y 0.000000 1.789270 0.000000 
#    z 0.003280 0.000000 1.775250 
# 
# From -- ./inp_files/100953.got.cif
#   From: 2010.06.25/outbox.cif.g09.slc.cpg/sg15_51_cif.got.tgz:100953.got - 2010.06.28 07:06:18.
