data_PCOD8138811
_publ_section_title
;
Structure prediction by ZEFSAII (Michael W. Deem and Ramdas Pophale) SiO2 
 PCOD8138811
Probable space group: C 2/C
;
_chemical_formula_sum "Si O2"
_cell_formula_units_Z 32
_cell_length_a 6.937417
_cell_length_b 31.538999
_cell_length_c 7.111266
_cell_angle_alpha 90.000000
_cell_angle_beta 66.160836
_cell_angle_gamma 90.000000
_cell_volume 1423.192114
_symmetry_space_group_name_H-M "C 2/C"
_symmetry_group_IT_number 15
_symmetry_cell_setting 'monoclinic'
loop_
_space_group_symop_operation_xyz
x,y,z
-x,y,1/2-z
-x,-y,-z
x,-y,1/2+z
1/2+x,1/2+y,z
1/2-x,1/2+y,1/2-z
1/2-x,1/2-y,-z
1/2+x,1/2-y,1/2+z
loop_
_atom_site_type_symbol
_atom_site_label
_atom_site_fract_x
_atom_site_fract_y
_atom_site_fract_z
Si Si1 0.435396 0.195660 0.560139
Si Si2 0.329530 0.445332 0.588642
Si Si3 0.500000 0.736753 0.750000
Si Si4 0.266981 0.961244 0.295099
Si Si5 0.500000 0.123061 0.250000
O O1 0.500000 0.192787 0.750000
O O2 0.562012 0.233220 0.403276
O O3 0.190529 0.205806 0.629693
O O4 0.473354 0.150766 0.447473
O O5 0.289342 0.443368 0.383560
O O6 0.233161 0.487680 0.718223
O O7 0.206776 0.404953 0.719042
O O8 0.413324 0.445021 0.983263
O O9 0.500000 0.944336 0.250000
#
# Coordination Sequence:
#
# PCOD8138811 Si02
#       5
#     8   8   4   8   4
#     4  10  21  41  67  96 129 169 197 247 315 372
#     4  10  22  38  58  87 117 156 217 274 310 371
#     4   9  20  40  72 100 126 156 216 246 276 390
#     4  10  20  38  62  81 109 159 222 267 316 366
#     4  11  24  40  56  94 138 158 206 272 318 372
#
# _framework density 22.484667000000002
#
# number of rings (size 3 to 8) (size 9 to 14) (size 15 to 20)
#    0.000    2.000    1.250    1.500    0.000    3.000 
#    0.000    2.500    0.000    0.000    0.000    0.000 
#    0.000    0.000    0.000    0.000    0.000    0.000 
#
# Total GULP energy -198377.964793 kJ/mol
# GULP energy per Si atom -12398.622800 kJ/mol
# Density = 2.243349 g / cm^3
# Si number density = 22.484667 Si / 1000 Ang^3
#
#
#
# Elastic Constant Matrix: (Units=GPa)
#
#
# Indices 1 2 3 4 5 6 
#
# 1 140.7397 60.9681 35.1974 0.0000 -24.3029 0.0000
# 2 60.9681 138.9991 60.2336 0.0000 -16.8489 0.0000
# 3 35.1974 60.2336 91.9476 0.0000 -8.2037 0.0000
# 4 0.0000 0.0000 0.0000 281.6146 0.0000 -117.4992
# 5 -24.3029 -16.8489 -8.2037 0.0000 39.0307 0.0000
# 6 0.0000 0.0000 0.0000 -117.4992 0.0000 74.7604
#
#
#
# Elastic Compliance Matrix: (Units=1/GPa)
#
#
# Indices 1 2 3 4 5 6 
#
# 1 0.009506 -0.003123 -0.001208 0.000000 0.004317 0.000000
# 2 -0.003123 0.011431 -0.006142 0.000000 0.001700 0.000000
# 3 -0.001208 -0.006142 0.015346 0.000000 -0.000178 0.000000
# 4 0.000000 0.000000 0.000000 0.010315 0.000000 0.016212
# 5 0.004317 0.001700 -0.000178 0.000000 0.029005 0.000000
# 6 0.000000 0.000000 0.000000 0.016212 0.000000 0.038856
#
#
# Mechanical properties :
#
#
# Convention : Reuss Voigt Hill
#
# Bulk Modulus (GPa) = 65.19692 76.05386 70.62539
# Shear Modulus (GPa) = 35.58311 93.43363 64.50837
#
# Velocity S-wave (km/s) = 3.98244 6.45326 5.36211
# Velocity P-wave (km/s) = 7.08559 9.45644 8.35553
#
# Compressibility (1/GPa) = 0.01533815
#
# Stress axis : x y z
#
# Youngs Moduli (GPa) = 105.20162 87.47911 65.16562
#
# Poissons Ratio (x) = 0.27316 0.07872
# Poissons Ratio (y) = 0.32850 0.40022
# Poissons Ratio (z) = 0.12708 0.53725
#
# Static dielectric constant tensor:
#      x y z
#    x 4.365200 0.000000 -0.441940 
#    y 0.000000 3.875700 0.000000 
#    z -0.441940 0.000000 4.338110 
# 
# 
# High freq. dielectric constant tensor:
#      x y z
#    x 1.883940 0.000000 -0.013790 
#    y 0.000000 1.863180 0.000000 
#    z -0.013790 0.000000 1.904630 
# 
# From -- ./inp_files/2405.got.cif
#   From: 2010.06.25/outbox.cif.g09.slc.cpg/sg15_2_cif.got.tgz:2405.got - 2010.06.28 07:06:18.
