data_PCOD8138024
_publ_section_title
;
Structure prediction by ZEFSAII (Michael W. Deem and Ramdas Pophale) SiO2 
 PCOD8138024
Probable space group: C 2/C
;
_chemical_formula_sum "Si O2"
_cell_formula_units_Z 48
_cell_length_a 15.176133
_cell_length_b 9.556261
_cell_length_c 26.974191
_cell_angle_alpha 90.000000
_cell_angle_beta 32.354718
_cell_angle_gamma 90.000000
_cell_volume 2093.537108
_symmetry_space_group_name_H-M "C 2/C"
_symmetry_group_IT_number 15
_symmetry_cell_setting 'monoclinic'
loop_
_space_group_symop_operation_xyz
x,y,z
-x,y,1/2-z
-x,-y,-z
x,-y,1/2+z
1/2+x,1/2+y,z
1/2-x,1/2+y,1/2-z
1/2-x,1/2-y,-z
1/2+x,1/2-y,1/2+z
loop_
_atom_site_type_symbol
_atom_site_label
_atom_site_fract_x
_atom_site_fract_y
_atom_site_fract_z
Si Si1 0.947867 0.988972 0.830009
Si Si2 0.803304 0.731624 0.048245
Si Si3 0.146840 0.149865 0.868971
Si Si4 0.091067 0.139148 0.358280
Si Si5 0.045999 0.275144 0.821507
Si Si6 0.493951 0.068463 0.810567
O O1 0.761833 0.928429 0.924501
O O2 0.000000 0.942099 0.750000
O O3 0.072370 0.920335 0.811093
O O4 0.952205 0.156696 0.833785
O O5 0.866606 0.773250 0.072438
O O6 0.650320 0.828346 0.105482
O O7 0.948211 0.750455 0.939591
O O8 0.034355 0.239014 0.885081
O O9 0.078176 0.990978 0.903197
O O10 0.333007 0.142067 0.757582
O O11 0.263708 0.215523 0.285486
O O12 0.958422 0.423659 0.855708
O O13 0.500000 0.032792 0.750000
#
# Coordination Sequence:
#
# PCOD8138024 Si02
#       6
#     8   8   8   8   8   8
#     4  11  22  37  57  82 111 145 181 220 274 333
#     4  11  20  36  59  84 108 141 185 230 267 314
#     4   9  19  35  57  81 108 147 187 217 264 332
#     4  10  21  37  58  83 110 143 184 227 267 317
#     4  10  20  37  57  80 110 146 182 221 270 327
#     4   9  18  34  57  80 107 148 186 219 264 325
#
# _framework density 22.927703999999999
#
# number of rings (size 3 to 8) (size 9 to 14) (size 15 to 20)
#    0.000    2.000    0.000    5.000    0.000    0.000 
#    0.000    5.833    0.000    4.000    0.000    0.000 
#    0.000    0.000    0.000    0.000    0.000    0.000 
#
# Total GULP energy -297609.419227 kJ/mol
# GULP energy per Si atom -12400.392468 kJ/mol
# Density = 2.287552 g / cm^3
# Si number density = 22.927704 Si / 1000 Ang^3
#
#
#
# Elastic Constant Matrix: (Units=GPa)
#
#
# Indices 1 2 3 4 5 6 
#
# 1 97.1299 36.1441 3.5202 0.0000 11.1044 0.0001
# 2 36.1441 96.7492 -0.0719 -0.0001 7.1528 0.0001
# 3 3.5202 -0.0719 44.2863 0.0001 2.8024 -0.0002
# 4 0.0000 -0.0001 0.0001 20.6221 0.0000 -12.4065
# 5 11.1044 7.1528 2.8024 0.0000 20.4613 0.0000
# 6 0.0001 0.0001 -0.0002 -12.4065 0.0000 30.7297
#
#
#
# Elastic Compliance Matrix: (Units=1/GPa)
#
#
# Indices 1 2 3 4 5 6 
#
# 1 0.012510 -0.004290 -0.000672 0.000000 -0.005198 0.000000
# 2 -0.004290 0.012084 0.000485 0.000000 -0.001963 0.000000
# 3 -0.000672 0.000485 0.022820 0.000000 -0.002930 0.000000
# 4 0.000000 0.000000 0.000000 0.064048 0.000000 0.025858
# 5 -0.005198 -0.001963 -0.002930 0.000000 0.052781 0.000000
# 6 0.000000 0.000000 0.000000 0.025858 0.000000 0.042982
#
#
# Mechanical properties :
#
#
# Convention : Reuss Voigt Hill
#
# Bulk Modulus (GPa) = 26.00149 35.26112 30.63131
# Shear Modulus (GPa) = 21.83402 27.60083 24.71743
#
# Velocity S-wave (km/s) = 3.08928 3.47338 3.28694
# Velocity P-wave (km/s) = 4.90817 5.61235 5.27203
#
# Compressibility (1/GPa) = 0.03845933
#
# Stress axis : x y z
#
# Youngs Moduli (GPa) = 79.93302 82.75328 43.82124
#
# Poissons Ratio (x) = 0.35501 0.02947
# Poissons Ratio (y) = 0.34291 -0.02124
# Poissons Ratio (z) = 0.05375 -0.04012
#
# Static dielectric constant tensor:
#      x y z
#    x 4.358090 0.000000 -0.105240 
#    y 0.000000 4.199150 0.000000 
#    z -0.105240 0.000000 3.674910 
# 
# 
# High freq. dielectric constant tensor:
#      x y z
#    x 1.920520 0.000000 0.004920 
#    y 0.000000 1.907930 0.000000 
#    z 0.004920 0.000000 1.867570 
# 
# From -- ./inp_files/312815.got.cif
#   From: 2010.06.25/outbox.cif.g09.slc.cpg/sg15_157_cif.got.tgz:312815.got - 2010.06.28 07:06:18.
