data_PCOD8138242
_publ_section_title
;
Structure prediction by ZEFSAII (Michael W. Deem and Ramdas Pophale) SiO2 
 PCOD8138242
Probable space group: C 2/C
;
_chemical_formula_sum "Si O2"
_cell_formula_units_Z 56
_cell_length_a 18.853632
_cell_length_b 8.574094
_cell_length_c 20.515140
_cell_angle_alpha 90.000000
_cell_angle_beta 125.100114
_cell_angle_gamma 90.000000
_cell_volume 2713.250732
_symmetry_space_group_name_H-M "C 2/C"
_symmetry_group_IT_number 15
_symmetry_cell_setting 'monoclinic'
loop_
_space_group_symop_operation_xyz
x,y,z
-x,y,1/2-z
-x,-y,-z
x,-y,1/2+z
1/2+x,1/2+y,z
1/2-x,1/2+y,1/2-z
1/2-x,1/2-y,-z
1/2+x,1/2-y,1/2+z
loop_
_atom_site_type_symbol
_atom_site_label
_atom_site_fract_x
_atom_site_fract_y
_atom_site_fract_z
Si Si1 0.205018 0.875790 0.393264
Si Si2 0.985265 0.648114 0.613434
Si Si3 0.944240 0.845440 0.963044
Si Si4 0.168489 0.629335 0.771344
Si Si5 0.615578 0.172022 0.445291
Si Si6 0.737088 0.319214 0.694160
Si Si7 0.824335 0.219854 0.091727
O O1 0.290804 0.884712 0.482270
O O2 0.130877 0.765028 0.385717
O O3 0.226774 0.818256 0.332548
O O4 0.173191 0.052564 0.372340
O O5 0.947027 0.474789 0.595362
O O6 0.916010 0.768503 0.604700
O O7 0.008915 0.707374 0.553148
O O8 0.067791 0.653830 0.703774
O O9 0.853004 0.887953 0.881123
O O10 0.929251 0.787724 0.027973
O O11 0.000000 0.000000 0.000000
O O12 0.192643 0.454554 0.764156
O O13 0.226002 0.749969 0.760268
O O14 0.186965 0.651510 0.857628
O O15 0.750000 0.250000 0.000000
#
# Coordination Sequence:
#
# PCOD8138242 Si02
#       7
#     8   8   8   8   8   8   8
#     4  10  21  38  64  94 120 160 217 259 313 377
#     4  11  23  41  60  94 128 171 212 265 322 381
#     4  10  22  36  61  95 128 162 214 270 313 376
#     4  11  25  43  63  93 132 170 216 258 326 387
#     4  10  20  37  61  91 126 159 209 265 312 377
#     4  10  23  42  65  90 130 171 210 264 317 385
#     4  12  24  40  68  94 126 170 215 268 324 377
#
# _framework density 20.639448999999999
#
# number of rings (size 3 to 8) (size 9 to 14) (size 15 to 20)
#    0.000    1.429    1.429    3.429    6.000    1.143 
#    0.000    2.857    0.000    0.000    0.000    0.000 
#    0.000    0.000    0.000    0.000    0.000    0.000 
#
# Total GULP energy -347308.017947 kJ/mol
# GULP energy per Si atom -12403.857784 kJ/mol
# Density = 2.059247 g / cm^3
# Si number density = 20.639449 Si / 1000 Ang^3
#
#
#
# Elastic Constant Matrix: (Units=GPa)
#
#
# Indices 1 2 3 4 5 6 
#
# 1 119.2325 25.5094 40.2206 0.0000 3.1494 0.0000
# 2 25.5094 83.3569 16.2420 0.0000 20.0895 0.0000
# 3 40.2206 16.2420 83.6439 0.0000 -2.7423 0.0000
# 4 0.0000 0.0000 0.0000 22.4832 0.0000 4.6663
# 5 3.1494 20.0895 -2.7423 0.0000 24.6995 0.0000
# 6 0.0000 0.0000 0.0000 4.6663 0.0000 52.1174
#
#
#
# Elastic Compliance Matrix: (Units=1/GPa)
#
#
# Indices 1 2 3 4 5 6 
#
# 1 0.010418 -0.002311 -0.004560 0.000000 0.000045 0.000000
# 2 -0.002311 0.016405 -0.002511 0.000000 -0.013327 0.000000
# 3 -0.004560 -0.002511 0.014775 0.000000 0.004264 0.000000
# 4 0.000000 0.000000 0.000000 0.045320 0.000000 -0.004058
# 5 0.000045 -0.013327 0.004264 0.000000 0.051794 0.000000
# 6 0.000000 0.000000 0.000000 -0.004058 0.000000 0.019551
#
#
# Mechanical properties :
#
#
# Convention : Reuss Voigt Hill
#
# Bulk Modulus (GPa) = 43.79132 50.01970 46.90551
# Shear Modulus (GPa) = 27.07993 33.47741 30.27867
#
# Velocity S-wave (km/s) = 3.62615 4.03179 3.83434
# Velocity P-wave (km/s) = 6.22859 6.77948 6.50986
#
# Compressibility (1/GPa) = 0.02283558
#
# Stress axis : x y z
#
# Youngs Moduli (GPa) = 95.98589 60.95690 67.68009
#
# Poissons Ratio (x) = 0.14085 0.30859
# Poissons Ratio (y) = 0.22179 0.16997
# Poissons Ratio (z) = 0.43765 0.15309
#
# Static dielectric constant tensor:
#      x y z
#    x 4.095620 0.000000 -0.107810 
#    y 0.000000 3.867410 0.000000 
#    z -0.107810 0.000000 3.528460 
# 
# 
# High freq. dielectric constant tensor:
#      x y z
#    x 1.829130 0.000000 -0.010460 
#    y 0.000000 1.814410 0.000000 
#    z -0.010460 0.000000 1.790510 
# 
# From -- ./inp_files/247569.got.cif
#   From: 2010.06.25/outbox.cif.g09.slc.cpg/sg15_124_cif.got.tgz:247569.got - 2010.06.28 07:06:18.
