data_PCOD8138232
_publ_section_title
;
Structure prediction by ZEFSAII (Michael W. Deem and Ramdas Pophale) SiO2 
 PCOD8138232
Probable space group: C 2/C
;
_chemical_formula_sum "Si O2"
_cell_formula_units_Z 56
_cell_length_a 14.385781
_cell_length_b 9.304815
_cell_length_c 23.887817
_cell_angle_alpha 90.000000
_cell_angle_beta 122.160068
_cell_angle_gamma 90.000000
_cell_volume 2706.933735
_symmetry_space_group_name_H-M "C 2/C"
_symmetry_group_IT_number 15
_symmetry_cell_setting 'monoclinic'
loop_
_space_group_symop_operation_xyz
x,y,z
-x,y,1/2-z
-x,-y,-z
x,-y,1/2+z
1/2+x,1/2+y,z
1/2-x,1/2+y,1/2-z
1/2-x,1/2-y,-z
1/2+x,1/2-y,1/2+z
loop_
_atom_site_type_symbol
_atom_site_label
_atom_site_fract_x
_atom_site_fract_y
_atom_site_fract_z
Si Si1 0.613835 0.653687 0.848960
Si Si2 0.000000 0.393025 0.750000
Si Si3 0.146598 0.488709 0.702252
Si Si4 0.639253 0.315126 0.694639
Si Si5 0.900936 0.016941 0.425778
Si Si6 0.530102 0.238748 0.094098
Si Si7 0.184260 0.253318 0.035100
Si Si8 0.500000 0.408027 0.750000
O O1 0.535777 0.678563 0.877864
O O2 0.744266 0.638902 0.903673
O O3 0.588159 0.506411 0.809848
O O4 0.597085 0.790488 0.803542
O O5 0.946639 0.493597 0.779854
O O6 0.255038 0.412580 0.759743
O O7 0.174447 0.651041 0.692760
O O8 0.095082 0.402336 0.633324
O O9 0.575353 0.380158 0.620402
O O10 0.561150 0.311060 0.723900
O O11 0.877414 0.853686 0.397625
O O12 0.807326 0.095142 0.432662
O O13 0.000000 0.000000 0.500000
O O14 0.441753 0.197668 0.016693
O O15 0.250000 0.250000 0.000000
#
# Coordination Sequence:
#
# PCOD8138232 Si02
#       8
#     8   4   8   8   8   8   8   4
#     4   9  17  32  61  92 120 163 208 255 319 376
#     4   9  19  36  60  90 130 162 208 262 318 384
#     4  11  24  39  63  94 126 166 215 268 324 387
#     4  12  25  40  64  93 128 169 213 268 331 382
#     4  10  20  37  61  89 125 167 210 257 313 377
#     4   9  18  38  58  91 126 163 211 259 310 384
#     4   9  18  32  61  95 122 166 214 255 309 384
#     4  11  23  38  62  90 134 156 214 272 322 378
#
# _framework density 20.687614
#
# number of rings (size 3 to 8) (size 9 to 14) (size 15 to 20)
#    0.000    2.000    1.429    2.143    6.000    0.000 
#    0.000    4.286    3.143    0.857    0.000    0.000 
#    0.000    0.000    0.000    0.000    0.000    0.000 
#
# Total GULP energy -346888.869772 kJ/mol
# GULP energy per Si atom -12388.888206 kJ/mol
# Density = 2.064053 g / cm^3
# Si number density = 20.687614 Si / 1000 Ang^3
#
#
#
# Elastic Constant Matrix: (Units=GPa)
#
#
# Indices 1 2 3 4 5 6 
#
# 1 65.2216 37.4070 34.2024 0.0000 -5.4654 0.0000
# 2 37.4070 141.0911 62.0721 0.0000 7.3869 0.0000
# 3 34.2024 62.0721 133.1038 0.0000 9.2065 0.0000
# 4 0.0000 0.0000 0.0000 26.9653 0.0000 -4.1803
# 5 -5.4654 7.3869 9.2065 0.0000 22.9003 0.0000
# 6 0.0000 0.0000 0.0000 -4.1803 0.0000 26.9096
#
#
#
# Elastic Compliance Matrix: (Units=1/GPa)
#
#
# Indices 1 2 3 4 5 6 
#
# 1 0.020355 -0.004108 -0.003849 0.000000 0.007731 0.000000
# 2 -0.004108 0.009780 -0.003312 0.000000 -0.002804 0.000000
# 3 -0.003849 -0.003312 0.010323 0.000000 -0.004001 0.000000
# 4 0.000000 0.000000 0.000000 0.038000 0.000000 0.005903
# 5 0.007731 -0.002804 -0.004001 0.000000 0.048025 0.000000
# 6 0.000000 0.000000 0.000000 0.005903 0.000000 0.038079
#
#
# Mechanical properties :
#
#
# Convention : Reuss Voigt Hill
#
# Bulk Modulus (GPa) = 55.80126 67.41996 61.61061
# Shear Modulus (GPa) = 25.89692 29.07071 27.48381
#
# Velocity S-wave (km/s) = 3.54193 3.75270 3.64883
# Velocity P-wave (km/s) = 6.61505 7.17198 6.89913
#
# Compressibility (1/GPa) = 0.01792074
#
# Stress axis : x y z
#
# Youngs Moduli (GPa) = 49.12855 102.24535 96.87000
#
# Poissons Ratio (x) = 0.42000 0.37289
# Poissons Ratio (y) = 0.20181 0.32079
# Poissons Ratio (z) = 0.18912 0.33859
#
# Static dielectric constant tensor:
#      x y z
#    x 5.486980 0.000000 -1.346760 
#    y 0.000000 3.767330 0.000000 
#    z -1.346760 0.000000 5.487590 
# 
# 
# High freq. dielectric constant tensor:
#      x y z
#    x 1.791540 0.000000 -0.007840 
#    y 0.000000 1.789870 0.000000 
#    z -0.007840 0.000000 1.830690 
# 
# From -- ./inp_files/242830.got.cif
#   From: 2010.06.25/outbox.cif.g09.slc.cpg/sg15_122_cif.got.tgz:242830.got - 2010.06.28 07:06:18.
