data_PCOD8138094
_publ_section_title
;
Structure prediction by ZEFSAII (Michael W. Deem and Ramdas Pophale) SiO2 
 PCOD8138094
Probable space group: C 2/C
;
_chemical_formula_sum "Si O2"
_cell_formula_units_Z 56
_cell_length_a 31.847623
_cell_length_b 8.368649
_cell_length_c 17.976184
_cell_angle_alpha 90.000000
_cell_angle_beta 142.223253
_cell_angle_gamma 90.000000
_cell_volume 2934.926161
_symmetry_space_group_name_H-M "C 2/C"
_symmetry_group_IT_number 15
_symmetry_cell_setting 'monoclinic'
loop_
_space_group_symop_operation_xyz
x,y,z
-x,y,1/2-z
-x,-y,-z
x,-y,1/2+z
1/2+x,1/2+y,z
1/2-x,1/2+y,1/2-z
1/2-x,1/2-y,-z
1/2+x,1/2-y,1/2+z
loop_
_atom_site_type_symbol
_atom_site_label
_atom_site_fract_x
_atom_site_fract_y
_atom_site_fract_z
Si Si1 0.663942 0.979296 0.361131
Si Si2 0.231502 0.463857 0.607347
Si Si3 0.556760 0.560840 0.134690
Si Si4 0.381531 0.928659 0.935572
Si Si5 0.159326 0.713885 0.715636
Si Si6 0.479493 0.182522 0.806563
Si Si7 0.337310 0.716516 0.735521
O O1 0.666274 0.165377 0.340273
O O2 0.717960 0.937671 0.501084
O O3 0.691479 0.885237 0.328457
O O4 0.587792 0.926404 0.278765
O O5 0.161149 0.415629 0.548580
O O6 0.286307 0.351075 0.725467
O O7 0.263085 0.643679 0.655701
O O8 0.586709 0.714944 0.135970
O O9 0.528578 0.635063 0.173017
O O10 0.613910 0.425342 0.226744
O O11 0.500000 0.500000 0.000000
O O12 0.366394 0.799832 0.850260
O O13 0.358068 0.104749 0.878493
O O14 0.461306 0.913013 0.066289
O O15 0.500000 0.202869 0.750000
#
# Coordination Sequence:
#
# PCOD8138094 Si02
#       7
#     8   8   8   8   8   8   8
#     4  10  21  37  61  82 117 153 191 239 283 353
#     4  11  20  38  57  86 119 148 191 237 293 336
#     4  10  20  37  59  82 114 148 195 239 282 345
#     4  11  21  37  60  85 118 149 195 241 287 352
#     4   9  22  35  57  85 108 154 193 230 285 346
#     4  11  22  39  59  87 115 155 192 240 304 341
#     4  10  22  37  60  88 114 155 196 240 285 341
#
# _framework density 19.080548
#
# number of rings (size 3 to 8) (size 9 to 14) (size 15 to 20)
#    0.000    1.714    2.857    1.714    2.000    1.714 
#    0.000    2.143    0.000    0.000    0.000    0.000 
#    0.000    0.000    0.000    0.000    0.000    0.000 
#
# Total GULP energy -346950.613525 kJ/mol
# GULP energy per Si atom -12391.093340 kJ/mol
# Density = 1.903712 g / cm^3
# Si number density = 19.080548 Si / 1000 Ang^3
#
#
#
# Elastic Constant Matrix: (Units=GPa)
#
#
# Indices 1 2 3 4 5 6 
#
# 1 65.6384 24.4692 6.6588 0.0000 -4.8578 0.0000
# 2 24.4692 96.0136 24.0553 0.0000 -2.8196 0.0000
# 3 6.6588 24.0553 85.4757 0.0000 -4.0524 0.0000
# 4 0.0000 0.0000 0.0000 23.8186 0.0000 -0.7351
# 5 -4.8578 -2.8196 -4.0524 0.0000 30.2425 0.0000
# 6 0.0000 0.0000 0.0000 -0.7351 0.0000 29.0039
#
#
#
# Elastic Compliance Matrix: (Units=1/GPa)
#
#
# Indices 1 2 3 4 5 6 
#
# 1 0.016997 -0.004260 -0.000015 0.000000 0.002331 0.000000
# 2 -0.004260 0.012285 -0.003123 0.000000 0.000043 0.000000
# 3 -0.000015 -0.003123 0.012646 0.000000 0.001401 0.000000
# 4 0.000000 0.000000 0.000000 0.042017 0.000000 0.001065
# 5 0.002331 0.000043 0.001401 0.000000 0.033632 0.000000
# 6 0.000000 0.000000 0.000000 0.001065 0.000000 0.034505
#
#
# Mechanical properties :
#
#
# Convention : Reuss Voigt Hill
#
# Bulk Modulus (GPa) = 36.85714 39.72160 38.28937
# Shear Modulus (GPa) = 28.42192 29.40932 28.91562
#
# Velocity S-wave (km/s) = 3.86369 3.93023 3.89710
# Velocity P-wave (km/s) = 6.26599 6.43884 6.35300
#
# Compressibility (1/GPa) = 0.02713178
#
# Stress axis : x y z
#
# Youngs Moduli (GPa) = 58.83425 81.40332 79.07757
#
# Poissons Ratio (x) = 0.34674 0.00117
# Poissons Ratio (y) = 0.25060 0.24699
# Poissons Ratio (z) = 0.00087 0.25425
#
# Static dielectric constant tensor:
#      x y z
#    x 3.088930 0.000000 -0.127550 
#    y 0.000000 5.611180 0.000000 
#    z -0.127550 0.000000 3.388840 
# 
# 
# High freq. dielectric constant tensor:
#      x y z
#    x 1.738020 0.000000 0.002140 
#    y 0.000000 1.743650 0.000000 
#    z 0.002140 0.000000 1.748740 
# 
# From -- ./inp_files/218181.got.cif
#   From: 2010.06.25/outbox.cif.g09.slc.cpg/sg15_110_cif.got.tgz:218181.got - 2010.06.28 07:06:18.
