data_PCOD8138668
_publ_section_title
;
Structure prediction by ZEFSAII (Michael W. Deem and Ramdas Pophale) SiO2 
 PCOD8138668
Probable space group: C 2/C
;
_chemical_formula_sum "Si O2"
_cell_formula_units_Z 44
_cell_length_a 14.172865
_cell_length_b 12.815381
_cell_length_c 16.395828
_cell_angle_alpha 90.000000
_cell_angle_beta 51.576565
_cell_angle_gamma 90.000000
_cell_volume 2333.070687
_symmetry_space_group_name_H-M "C 2/C"
_symmetry_group_IT_number 15
_symmetry_cell_setting 'monoclinic'
loop_
_space_group_symop_operation_xyz
x,y,z
-x,y,1/2-z
-x,-y,-z
x,-y,1/2+z
1/2+x,1/2+y,z
1/2-x,1/2+y,1/2-z
1/2-x,1/2-y,-z
1/2+x,1/2-y,1/2+z
loop_
_atom_site_type_symbol
_atom_site_label
_atom_site_fract_x
_atom_site_fract_y
_atom_site_fract_z
Si Si1 0.500000 0.870646 0.750000
Si Si2 0.621475 0.745330 0.819402
Si Si3 0.694071 0.055272 0.020079
Si Si4 0.927604 0.090931 0.993189
Si Si5 0.574626 0.898810 0.985183
Si Si6 0.846066 0.708999 0.611039
O O1 0.588670 0.797314 0.752033
O O2 0.413145 0.937216 0.855783
O O3 0.524272 0.659271 0.893405
O O4 0.747328 0.686419 0.733680
O O5 0.636796 0.835922 0.878205
O O6 0.678964 0.939938 0.988578
O O7 0.828105 0.047722 0.984052
O O8 0.680680 0.149297 0.960945
O O9 0.853574 0.166307 0.093519
O O10 0.000000 0.000000 0.000000
O O11 0.474614 0.824408 0.080145
O O12 0.500000 0.000000 0.000000
#
# Coordination Sequence:
#
# PCOD8138668 Si02
#       6
#     4   8   8   8   8   8
#     4  12  18  32  68  90 110 150 200 238 300 328
#     4  11  21  35  60  88 121 155 193 244 299 343
#     4  11  21  38  63  90 119 149 204 247 288 353
#     4  11  23  37  56  89 118 154 197 245 290 345
#     4   9  19  37  58  89 118 152 193 243 292 353
#     4  10  20  38  60  84 122 151 194 243 292 345
#
# _framework density 18.859266000000002
#
# number of rings (size 3 to 8) (size 9 to 14) (size 15 to 20)
#    0.000    1.455    7.273    1.636    0.000    4.364 
#    0.000    3.636    0.000    2.182    0.000    0.000 
#    0.000    0.000    0.000    0.000    0.000    0.000 
#
# Total GULP energy -272590.185608 kJ/mol
# GULP energy per Si atom -12390.462982 kJ/mol
# Density = 1.881634 g / cm^3
# Si number density = 18.859266 Si / 1000 Ang^3
#
#
#
# Elastic Constant Matrix: (Units=GPa)
#
#
# Indices 1 2 3 4 5 6 
#
# 1 112.2441 77.6215 34.5051 0.0000 -7.1291 0.0000
# 2 77.6215 86.1822 43.6006 0.0000 3.1053 0.0000
# 3 34.5051 43.6006 139.3051 0.0000 -11.5430 0.0000
# 4 0.0000 0.0000 0.0000 7.7260 0.0000 -9.2864
# 5 -7.1291 3.1053 -11.5430 0.0000 19.2564 0.0000
# 6 0.0000 0.0000 0.0000 -9.2864 0.0000 25.2749
#
#
#
# Elastic Compliance Matrix: (Units=1/GPa)
#
#
# Indices 1 2 3 4 5 6 
#
# 1 0.027815 -0.027148 0.002971 0.000000 0.016457 0.000000
# 2 -0.027148 0.040769 -0.007801 0.000000 -0.021301 0.000000
# 3 0.002971 -0.007801 0.009554 0.000000 0.008085 0.000000
# 4 0.000000 0.000000 0.000000 0.231804 0.000000 0.085169
# 5 0.016457 -0.021301 0.008085 0.000000 0.066305 0.000000
# 6 0.000000 0.000000 0.000000 0.085169 0.000000 0.070858
#
#
# Mechanical properties :
#
#
# Convention : Reuss Voigt Hill
#
# Bulk Modulus (GPa) = 70.51106 72.13176 71.32141
# Shear Modulus (GPa) = 9.69390 22.58506 16.13948
#
# Velocity S-wave (km/s) = 2.26964 3.46433 2.92855
# Velocity P-wave (km/s) = 6.65865 7.37106 7.02389
#
# Compressibility (1/GPa) = 0.01418217
#
# Stress axis : x y z
#
# Youngs Moduli (GPa) = 35.95147 24.52851 104.66801
#
# Poissons Ratio (x) = 0.66591 -0.31097
# Poissons Ratio (y) = 0.97602 0.81648
# Poissons Ratio (z) = -0.10681 0.19134
#
# Static dielectric constant tensor:
#      x y z
#    x 3.825020 0.000000 -0.187260 
#    y 0.000000 3.782460 0.000000 
#    z -0.187260 0.000000 3.536680 
# 
# 
# High freq. dielectric constant tensor:
#      x y z
#    x 1.719520 0.000000 -0.018530 
#    y 0.000000 1.723210 0.000000 
#    z -0.018530 0.000000 1.736730 
# 
# From -- ./inp_files/151778.got.cif
#   From: 2010.06.25/outbox.cif.g09.slc.cpg/sg15_76_cif.got.tgz:151778.got - 2010.06.28 07:06:18.
