data_PCOD8138391
_publ_section_title
;
Structure prediction by ZEFSAII (Michael W. Deem and Ramdas Pophale) SiO2 
 PCOD8138391
Probable space group: C 2/C
;
_chemical_formula_sum "Si O2"
_cell_formula_units_Z 64
_cell_length_a 20.113799
_cell_length_b 16.422091
_cell_length_c 15.345583
_cell_angle_alpha 90.000000
_cell_angle_beta 38.959002
_cell_angle_gamma 90.000000
_cell_volume 3187.085539
_symmetry_space_group_name_H-M "C 2/C"
_symmetry_group_IT_number 15
_symmetry_cell_setting 'monoclinic'
loop_
_space_group_symop_operation_xyz
x,y,z
-x,y,1/2-z
-x,-y,-z
x,-y,1/2+z
1/2+x,1/2+y,z
1/2-x,1/2+y,1/2-z
1/2-x,1/2-y,-z
1/2+x,1/2-y,1/2+z
loop_
_atom_site_type_symbol
_atom_site_label
_atom_site_fract_x
_atom_site_fract_y
_atom_site_fract_z
Si Si1 0.237325 0.491599 0.658948
Si Si2 0.586205 0.134970 0.783109
Si Si3 0.217423 0.693633 0.162819
Si Si4 0.700842 0.513254 0.591499
Si Si5 0.620044 0.683840 0.645347
Si Si6 0.144323 0.381152 0.029259
Si Si7 0.310379 0.708601 0.245121
Si Si8 0.103103 0.040762 0.358040
O O1 0.142406 0.555048 0.763211
O O2 0.187605 0.401812 0.696671
O O3 0.312783 0.510651 0.497407
O O4 0.300775 0.497938 0.684455
O O5 0.460506 0.121421 0.923325
O O6 0.616319 0.151793 0.652849
O O7 0.621839 0.213297 0.800287
O O8 0.122381 0.742226 0.212336
O O9 0.234119 0.729559 0.242048
O O10 0.326745 0.710400 0.999469
O O11 0.691665 0.610361 0.611183
O O12 0.813227 0.474866 0.508807
O O13 0.610928 0.476480 0.746519
O O14 0.500000 0.656242 0.750000
O O15 0.235875 0.322729 0.899190
O O16 0.394026 0.638201 0.131469
O O17 0.000000 0.000000 0.500000
#
# Coordination Sequence:
#
# PCOD8138391 Si02
#       8
#     8   8   8   8   8   8   8   8
#     4   9  20  39  57  85 118 151 198 246 294 363
#     4  10  20  37  64  85 114 163 201 238 304 360
#     4   9  21  40  52  85 122 145 190 254 291 350
#     4   9  20  37  59  81 119 151 191 246 294 350
#     4  10  21  37  62  83 112 155 199 236 300 358
#     4   9  20  40  57  87 121 153 196 250 298 357
#     4  10  21  37  58  86 123 150 199 256 295 351
#     4  10  22  36  57  86 121 155 198 244 303 356
#
# _framework density 20.081042
#
# number of rings (size 3 to 8) (size 9 to 14) (size 15 to 20)
#    0.000    2.500    0.000    0.375    7.000    2.000 
#    9.000    8.125    0.000    0.000    0.000    0.000 
#    0.000    0.000    0.000    0.000    0.000    0.000 
#
# Total GULP energy -396611.427368 kJ/mol
# GULP energy per Si atom -12394.107105 kJ/mol
# Density = 2.003534 g / cm^3
# Si number density = 20.081042 Si / 1000 Ang^3
#
#
#
# Elastic Constant Matrix: (Units=GPa)
#
#
# Indices 1 2 3 4 5 6 
#
# 1 89.0980 66.9087 25.3453 0.0000 -5.6728 0.0000
# 2 66.9087 119.6763 36.9644 0.0000 -18.7321 0.0000
# 3 25.3453 36.9644 65.1728 0.0000 -9.1921 0.0000
# 4 0.0000 0.0000 0.0000 26.4469 0.0000 0.1716
# 5 -5.6728 -18.7321 -9.1921 0.0000 33.4575 0.0000
# 6 0.0000 0.0000 0.0000 0.1716 0.0000 36.0291
#
#
#
# Elastic Compliance Matrix: (Units=1/GPa)
#
#
# Indices 1 2 3 4 5 6 
#
# 1 0.019831 -0.011011 -0.001938 0.000000 -0.003335 0.000000
# 2 -0.011011 0.016863 -0.004384 0.000000 0.006370 0.000000
# 3 -0.001938 -0.004384 0.018924 0.000000 0.002416 0.000000
# 4 0.000000 0.000000 0.000000 0.037813 0.000000 -0.000180
# 5 -0.003335 0.006370 0.002416 0.000000 0.033554 0.000000
# 6 0.000000 0.000000 0.000000 -0.000180 0.000000 0.027756
#
#
# Mechanical properties :
#
#
# Convention : Reuss Voigt Hill
#
# Bulk Modulus (GPa) = 47.72259 59.15377 53.43818
# Shear Modulus (GPa) = 25.45966 28.83526 27.14746
#
# Velocity S-wave (km/s) = 3.56454 3.79350 3.68080
# Velocity P-wave (km/s) = 6.38419 6.97918 6.68831
#
# Compressibility (1/GPa) = 0.02095444
#
# Stress axis : x y z
#
# Youngs Moduli (GPa) = 50.42630 59.30250 52.84161
#
# Poissons Ratio (x) = 0.65295 0.10238
# Poissons Ratio (y) = 0.55522 0.23164
# Poissons Ratio (z) = 0.09770 0.25997
#
# Static dielectric constant tensor:
#      x y z
#    x 3.718470 0.000000 0.228960 
#    y 0.000000 3.621640 0.000000 
#    z 0.228960 0.000000 3.650480 
# 
# 
# High freq. dielectric constant tensor:
#      x y z
#    x 1.777190 0.000000 0.019870 
#    y 0.000000 1.779680 0.000000 
#    z 0.019870 0.000000 1.775600 
# 
# From -- ./inp_files/163238.got.cif
#   From: 2010.06.25/outbox.cif.g09.slc.cpg/sg15_82_cif.got.tgz:163238.got - 2010.06.28 07:06:18.
