data_PCOD8138695
_publ_section_title
;
Structure prediction by ZEFSAII (Michael W. Deem and Ramdas Pophale) SiO2 
 PCOD8138695
Probable space group: C 2/C
;
_chemical_formula_sum "Si O2"
_cell_formula_units_Z 44
_cell_length_a 13.566974
_cell_length_b 7.783435
_cell_length_c 23.372215
_cell_angle_alpha 90.000000
_cell_angle_beta 132.492602
_cell_angle_gamma 90.000000
_cell_volume 1819.853508
_symmetry_space_group_name_H-M "C 2/C"
_symmetry_group_IT_number 15
_symmetry_cell_setting 'monoclinic'
loop_
_space_group_symop_operation_xyz
x,y,z
-x,y,1/2-z
-x,-y,-z
x,-y,1/2+z
1/2+x,1/2+y,z
1/2-x,1/2+y,1/2-z
1/2-x,1/2-y,-z
1/2+x,1/2-y,1/2+z
loop_
_atom_site_type_symbol
_atom_site_label
_atom_site_fract_x
_atom_site_fract_y
_atom_site_fract_z
Si Si1 0.882783 0.244347 0.428635
Si Si2 0.686548 0.859958 0.759467
Si Si3 0.089211 0.018022 0.468919
Si Si4 0.000000 0.864332 0.250000
Si Si5 0.732093 0.447584 0.906447
Si Si6 0.690439 0.685192 0.649465
O O1 0.801147 0.245475 0.337882
O O2 0.831208 0.086946 0.450304
O O3 0.860922 0.424901 0.452512
O O4 0.038028 0.203552 0.473741
O O5 0.548618 0.764343 0.719474
O O6 0.700502 0.848347 0.696346
O O7 0.693972 0.056360 0.783052
O O8 0.184927 0.057987 0.453568
O O9 0.955108 0.905384 0.402905
O O10 0.112070 0.984166 0.320681
O O11 0.773406 0.258887 0.899403
#
# Coordination Sequence:
#
# PCOD8138695 Si02
#       6
#     8   8   8   4   8   8
#     4   9  21  39  64  87 126 158 205 248 305 358
#     4  10  20  40  58  91 123 159 202 261 293 373
#     4  10  21  43  63  88 123 166 195 259 300 363
#     4  10  20  38  60  88 122 156 202 248 314 348
#     4  11  22  39  62  91 119 163 200 251 300 367
#     4  11  23  39  64  89 125 158 212 249 309 356
#
# _framework density 24.177772999999998
#
# number of rings (size 3 to 8) (size 9 to 14) (size 15 to 20)
#    0.000    1.818    1.818    2.727    2.545    1.455 
#    3.273    8.182    0.000    0.000    0.000    0.000 
#    0.000    0.000    0.000    0.000    0.000    0.000 
#
# Total GULP energy -272583.159756 kJ/mol
# GULP energy per Si atom -12390.143625 kJ/mol
# Density = 2.412274 g / cm^3
# Si number density = 24.177773 Si / 1000 Ang^3
#
#
#
# Elastic Constant Matrix: (Units=GPa)
#
#
# Indices 1 2 3 4 5 6 
#
# 1 130.7859 34.3021 28.4904 0.0000 -27.7944 0.0000
# 2 34.3021 83.5691 -10.4713 0.0000 10.8787 0.0000
# 3 28.4904 -10.4713 66.5288 0.0000 -6.1143 0.0000
# 4 0.0000 0.0000 0.0000 32.0412 0.0000 -1.6187
# 5 -27.7944 10.8787 -6.1143 0.0000 39.8466 0.0000
# 6 0.0000 0.0000 0.0000 -1.6187 0.0000 34.5078
#
#
#
# Elastic Compliance Matrix: (Units=1/GPa)
#
#
# Indices 1 2 3 4 5 6 
#
# 1 0.013022 -0.007402 -0.005803 0.000000 0.010214 0.000000
# 2 -0.007402 0.016799 0.004988 0.000000 -0.008984 0.000000
# 3 -0.005803 0.004988 0.018059 0.000000 -0.002639 0.000000
# 4 0.000000 0.000000 0.000000 0.031284 0.000000 0.001468
# 5 0.010214 -0.008984 -0.002639 0.000000 0.034269 0.000000
# 6 0.000000 0.000000 0.000000 0.001468 0.000000 0.029048
#
#
# Mechanical properties :
#
#
# Convention : Reuss Voigt Hill
#
# Bulk Modulus (GPa) = 31.80001 42.83624 37.31812
# Shear Modulus (GPa) = 29.51673 36.51663 33.01668
#
# Velocity S-wave (km/s) = 3.49782 3.89052 3.69938
# Velocity P-wave (km/s) = 5.43085 6.15932 5.80652
#
# Compressibility (1/GPa) = 0.03144653
#
# Stress axis : x y z
#
# Youngs Moduli (GPa) = 76.79230 59.52789 55.37481
#
# Poissons Ratio (x) = 0.44062 0.32134
# Poissons Ratio (y) = 0.56840 -0.27622
# Poissons Ratio (z) = 0.44562 -0.29693
#
# Static dielectric constant tensor:
#      x y z
#    x 4.388750 0.000000 -0.148030 
#    y 0.000000 4.441680 0.000000 
#    z -0.148030 0.000000 4.319550 
# 
# 
# High freq. dielectric constant tensor:
#      x y z
#    x 1.943400 0.000000 -0.015690 
#    y 0.000000 1.959580 0.000000 
#    z -0.015690 0.000000 1.968660 
# 
# From -- ./inp_files/202616.got.cif
#   From: 2010.06.25/outbox.cif.g09.slc.cpg/sg15_102_cif.got.tgz:202616.got - 2010.06.28 07:06:18.
