data_PCOD8138375
_publ_section_title
;
Structure prediction by ZEFSAII (Michael W. Deem and Ramdas Pophale) SiO2 
 PCOD8138375
Probable space group: C 2/C
;
_chemical_formula_sum "Si O2"
_cell_formula_units_Z 48
_cell_length_a 19.659041
_cell_length_b 6.953597
_cell_length_c 16.453189
_cell_angle_alpha 90.000000
_cell_angle_beta 94.853419
_cell_angle_gamma 90.000000
_cell_volume 2241.103593
_symmetry_space_group_name_H-M "C 2/C"
_symmetry_group_IT_number 15
_symmetry_cell_setting 'monoclinic'
loop_
_space_group_symop_operation_xyz
x,y,z
-x,y,1/2-z
-x,-y,-z
x,-y,1/2+z
1/2+x,1/2+y,z
1/2-x,1/2+y,1/2-z
1/2-x,1/2-y,-z
1/2+x,1/2-y,1/2+z
loop_
_atom_site_type_symbol
_atom_site_label
_atom_site_fract_x
_atom_site_fract_y
_atom_site_fract_z
Si Si1 0.849772 0.667270 0.113811
Si Si2 0.348361 0.878561 0.238402
Si Si3 0.077658 0.509854 0.095829
Si Si4 0.289808 0.521174 0.697747
Si Si5 0.975510 0.206877 0.528506
Si Si6 0.718305 0.949128 0.524516
O O1 0.876972 0.465866 0.156223
O O2 0.904056 0.795245 0.069728
O O3 0.831538 0.780482 0.196009
O O4 0.785710 0.605688 0.049214
O O5 0.340538 0.649157 0.228907
O O6 0.400556 0.931599 0.314496
O O7 0.272347 0.964020 0.246053
O O8 0.141195 0.575750 0.047647
O O9 0.031160 0.701039 0.095624
O O10 0.033608 0.339311 0.051568
O O11 0.266180 0.517915 0.601533
O O12 0.000000 0.000000 0.500000
O O13 0.750000 0.750000 0.500000
#
# Coordination Sequence:
#
# PCOD8138375 Si02
#       6
#     8   8   8   8   8   8
#     4  11  23  38  63  95 126 168 220 258 316 391
#     4  11  22  40  61  93 129 165 203 265 328 389
#     4   9  23  42  62  90 124 162 212 269 313 374
#     4  11  22  38  60  93 133 163 202 261 327 383
#     4  10  23  44  65  88 124 169 220 265 313 380
#     4  10  20  37  63  93 122 166 206 263 317 378
#
# _framework density 21.418018
#
# number of rings (size 3 to 8) (size 9 to 14) (size 15 to 20)
#    0.000    1.667    3.333    0.500    2.333    3.333 
#    0.000    0.000    0.000    0.000    0.000    0.000 
#    0.000    0.000    0.000    0.000    0.000    0.000 
#
# Total GULP energy -297417.095863 kJ/mol
# GULP energy per Si atom -12392.378994 kJ/mol
# Density = 2.136927 g / cm^3
# Si number density = 21.418018 Si / 1000 Ang^3
#
#
#
# Elastic Constant Matrix: (Units=GPa)
#
#
# Indices 1 2 3 4 5 6 
#
# 1 61.9243 45.9668 21.5722 0.0000 12.3691 0.0000
# 2 45.9668 131.5630 39.1862 0.0000 2.8121 0.0000
# 3 21.5722 39.1862 97.6901 0.0000 11.5377 0.0000
# 4 0.0000 0.0000 0.0000 42.7666 0.0000 -4.6784
# 5 12.3691 2.8121 11.5377 0.0000 31.8571 0.0000
# 6 0.0000 0.0000 0.0000 -4.6784 0.0000 39.9674
#
#
#
# Elastic Compliance Matrix: (Units=1/GPa)
#
#
# Indices 1 2 3 4 5 6 
#
# 1 0.024046 -0.007874 -0.001181 0.000000 -0.008213 0.000000
# 2 -0.007874 0.011219 -0.003140 0.000000 0.003204 0.000000
# 3 -0.001181 -0.003140 0.012191 0.000000 -0.003679 0.000000
# 4 0.000000 0.000000 0.000000 0.023686 0.000000 0.002773
# 5 -0.008213 0.003204 -0.003679 0.000000 0.035629 0.000000
# 6 0.000000 0.000000 0.000000 0.002773 0.000000 0.025345
#
#
# Mechanical properties :
#
#
# Convention : Reuss Voigt Hill
#
# Bulk Modulus (GPa) = 43.35458 56.06975 49.71217
# Shear Modulus (GPa) = 30.45172 35.21503 32.83337
#
# Velocity S-wave (km/s) = 3.77474 4.05925 3.91958
# Velocity P-wave (km/s) = 6.26772 6.94302 6.61399
#
# Compressibility (1/GPa) = 0.02306561
#
# Stress axis : x y z
#
# Youngs Moduli (GPa) = 41.58747 89.13687 82.02529
#
# Poissons Ratio (x) = 0.70186 0.09690
# Poissons Ratio (y) = 0.32746 0.25754
# Poissons Ratio (z) = 0.04913 0.27987
#
# Static dielectric constant tensor:
#      x y z
#    x 3.743200 0.000000 0.103250 
#    y 0.000000 4.454350 0.000000 
#    z 0.103250 0.000000 3.889880 
# 
# 
# High freq. dielectric constant tensor:
#      x y z
#    x 1.820980 0.000000 0.001250 
#    y 0.000000 1.850030 0.000000 
#    z 0.001250 0.000000 1.843590 
# 
# From -- ./inp_files/217582.got.cif
#   From: 2010.06.25/outbox.cif.g09.slc.cpg/sg15_109_cif.got.tgz:217582.got - 2010.06.28 07:06:18.
