data_PCOD8138671
_publ_section_title
;
Structure prediction by ZEFSAII (Michael W. Deem and Ramdas Pophale) SiO2 
 PCOD8138671
Probable space group: C 2/C
;
_chemical_formula_sum "Si O2"
_cell_formula_units_Z 56
_cell_length_a 22.605211
_cell_length_b 13.562014
_cell_length_c 24.507910
_cell_angle_alpha 90.000000
_cell_angle_beta 20.922952
_cell_angle_gamma 90.000000
_cell_volume 2683.142384
_symmetry_space_group_name_H-M "C 2/C"
_symmetry_group_IT_number 15
_symmetry_cell_setting 'monoclinic'
loop_
_space_group_symop_operation_xyz
x,y,z
-x,y,1/2-z
-x,-y,-z
x,-y,1/2+z
1/2+x,1/2+y,z
1/2-x,1/2+y,1/2-z
1/2-x,1/2-y,-z
1/2+x,1/2-y,1/2+z
loop_
_atom_site_type_symbol
_atom_site_label
_atom_site_fract_x
_atom_site_fract_y
_atom_site_fract_z
Si Si1 0.587076 0.670679 0.337850
Si Si2 0.492087 0.547158 0.318528
Si Si3 0.866744 0.450669 0.653498
Si Si4 0.370100 0.342893 0.313350
Si Si5 0.256038 0.127072 0.818730
Si Si6 0.511032 0.160907 0.347729
Si Si7 0.356466 0.984476 0.335378
O O1 0.540908 0.635577 0.316646
O O2 0.743413 0.609724 0.222449
O O3 0.631844 0.785168 0.300443
O O4 0.434900 0.658002 0.510408
O O5 0.500000 0.588392 0.250000
O O6 0.615607 0.454970 0.220631
O O7 0.310159 0.503424 0.486322
O O8 0.760905 0.535338 0.773900
O O9 0.000000 0.500000 0.500000
O O10 0.953772 0.377414 0.621610
O O11 0.500000 0.322553 0.250000
O O12 0.406035 0.268060 0.232463
O O13 0.184031 0.329688 0.495152
O O14 0.333985 0.097746 0.809054
O O15 0.593439 0.089857 0.232109
O O16 0.500000 0.942762 0.250000
#
# Coordination Sequence:
#
# PCOD8138671 Si02
#       7
#     8   8   8   8   8   8   8
#     4  11  23  42  64  87 121 157 197 246 296 353
#     4  10  22  38  60  89 120 156 197 243 295 351
#     4  11  24  42  63  88 120 157 199 248 299 354
#     4  11  21  36  58  87 121 156 195 242 294 352
#     4  10  24  41  62  90 117 155 201 244 295 353
#     4  11  23  37  58  88 119 156 200 243 294 352
#     4  10  20  38  60  85 119 155 194 244 295 349
#
# _framework density 20.871051999999999
#
# number of rings (size 3 to 8) (size 9 to 14) (size 15 to 20)
#    0.000    1.429    0.000    5.571    0.000    7.429 
#    0.000    2.857    0.000    0.000    0.000    0.000 
#    0.000    0.000    0.000    0.000    0.000    0.000 
#
# Total GULP energy -347346.716358 kJ/mol
# GULP energy per Si atom -12405.239870 kJ/mol
# Density = 2.082355 g / cm^3
# Si number density = 20.871052 Si / 1000 Ang^3
#
#
#
# Elastic Constant Matrix: (Units=GPa)
#
#
# Indices 1 2 3 4 5 6 
#
# 1 85.9726 10.1398 23.0554 0.0016 1.6072 -0.0001
# 2 10.1398 73.0824 3.2799 0.0369 -1.0601 -0.0079
# 3 23.0554 3.2799 99.0045 0.0214 -1.4733 -0.0081
# 4 0.0016 0.0369 0.0214 34.9456 0.0069 6.9657
# 5 1.6072 -1.0601 -1.4733 0.0069 33.8984 -0.0009
# 6 -0.0001 -0.0079 -0.0081 6.9657 -0.0009 19.7469
#
#
#
# Elastic Compliance Matrix: (Units=1/GPa)
#
#
# Indices 1 2 3 4 5 6 
#
# 1 0.012615 -0.001632 -0.002895 0.000004 -0.000775 -0.000003
# 2 -0.001632 0.013920 -0.000074 -0.000017 0.000509 0.000012
# 3 -0.002895 -0.000074 0.010786 -0.000008 0.000604 0.000007
# 4 0.000004 -0.000017 -0.000008 0.030780 -0.000008 -0.010858
# 5 -0.000775 0.000509 0.000604 -0.000008 0.029579 0.000005
# 6 -0.000003 0.000012 0.000007 -0.010858 0.000005 0.054471
#
#
# Mechanical properties :
#
#
# Convention : Reuss Voigt Hill
#
# Bulk Modulus (GPa) = 35.56102 36.77886 36.16994
# Shear Modulus (GPa) = 29.28677 32.49047 30.88862
#
# Velocity S-wave (km/s) = 3.75003 3.94981 3.85122
# Velocity P-wave (km/s) = 5.98546 6.20174 6.09456
#
# Compressibility (1/GPa) = 0.02812068
#
# Stress axis : x y z
#
# Youngs Moduli (GPa) = 79.27119 71.83773 92.71126
#
# Poissons Ratio (x) = 0.11721 0.26841
# Poissons Ratio (y) = 0.12934 0.00683
# Poissons Ratio (z) = 0.22950 0.00529
#
# Static dielectric constant tensor:
#      x y z
#    x 3.765710 -0.000010 0.048330 
#    y -0.000010 3.761170 0.000040 
#    z 0.048330 0.000040 4.002130 
# 
# 
# High freq. dielectric constant tensor:
#      x y z
#    x 1.816190 0.000000 0.003180 
#    y 0.000000 1.817610 0.000010 
#    z 0.003180 0.000010 1.834440 
# 
# From -- ./inp_files/302286.got.cif
#   From: 2010.06.25/outbox.cif.g09.slc.cpg/sg15_152_cif.got.tgz:302286.got - 2010.06.28 07:06:18.
