data_PCOD8138916
_publ_section_title
;
Structure prediction by ZEFSAII (Michael W. Deem and Ramdas Pophale) SiO2 
 PCOD8138916
Probable space group: C 2/C
;
_chemical_formula_sum "Si O2"
_cell_formula_units_Z 52
_cell_length_a 7.863134
_cell_length_b 25.624703
_cell_length_c 17.099012
_cell_angle_alpha 90.000000
_cell_angle_beta 48.447834
_cell_angle_gamma 90.000000
_cell_volume 2578.288581
_symmetry_space_group_name_H-M "C 2/C"
_symmetry_group_IT_number 15
_symmetry_cell_setting 'monoclinic'
loop_
_space_group_symop_operation_xyz
x,y,z
-x,y,1/2-z
-x,-y,-z
x,-y,1/2+z
1/2+x,1/2+y,z
1/2-x,1/2+y,1/2-z
1/2-x,1/2-y,-z
1/2+x,1/2-y,1/2+z
loop_
_atom_site_type_symbol
_atom_site_label
_atom_site_fract_x
_atom_site_fract_y
_atom_site_fract_z
Si Si1 0.563643 0.672075 0.442249
Si Si2 0.522618 0.940198 0.472338
Si Si3 0.876529 0.928552 0.481318
Si Si4 0.653515 0.027619 0.630819
Si Si5 0.480928 0.749956 0.589274
Si Si6 0.705662 0.647214 0.127766
Si Si7 0.000000 0.266654 0.750000
O O1 0.665946 0.622481 0.454844
O O2 0.405878 0.706634 0.549478
O O3 0.389664 0.658666 0.428068
O O4 0.785176 0.699375 0.340302
O O5 0.773060 0.921445 0.425015
O O6 0.480718 0.935933 0.391618
O O7 0.343541 0.906604 0.577959
O O8 0.500000 0.000000 0.500000
O O9 0.143344 0.938752 0.394359
O O10 0.745376 0.975480 0.563435
O O11 0.500000 0.010922 0.750000
O O12 0.750000 0.750000 0.500000
O O13 0.368331 0.805866 0.605907
O O14 0.423105 0.733253 0.696969
O O15 0.500000 0.638333 0.250000
#
# Coordination Sequence:
#
# PCOD8138916 Si02
#       7
#     8   8   8   8   8   8   4
#     4  11  22  39  66  92 131 168 215 275 324 387
#     4  10  22  42  61  98 136 167 218 276 326 386
#     4  10  22  41  64  93 131 172 220 275 323 386
#     4  10  22  41  63  92 132 176 219 271 330 390
#     4  10  22  40  62  94 131 165 209 269 330 388
#     4  12  23  41  69  99 125 169 228 272 323 391
#     4  10  20  38  62  96 124 168 216 256 332 394
#
# _framework density 20.168417000000002
#
# number of rings (size 3 to 8) (size 9 to 14) (size 15 to 20)
#    0.000    1.538    3.077    2.308    1.077    1.846 
#    0.000    5.385    0.000    0.000    0.000    0.000 
#    0.000    0.000    0.000    0.000    0.000    0.000 
#
# Total GULP energy -322170.825349 kJ/mol
# GULP energy per Si atom -12391.185590 kJ/mol
# Density = 2.012251 g / cm^3
# Si number density = 20.168417 Si / 1000 Ang^3
#
#
#
# Elastic Constant Matrix: (Units=GPa)
#
#
# Indices 1 2 3 4 5 6 
#
# 1 152.5796 39.9482 53.1835 -0.0001 20.7878 -0.0001
# 2 39.9482 81.8539 48.5161 0.0000 12.0331 0.0000
# 3 53.1835 48.5161 100.5808 -0.0002 15.6009 -0.0003
# 4 -0.0001 0.0000 -0.0002 154.0603 0.0001 202.0615
# 5 20.7878 12.0331 15.6009 0.0001 32.4201 0.0001
# 6 -0.0001 0.0000 -0.0003 202.0615 0.0001 353.6063
#
#
#
# Elastic Compliance Matrix: (Units=1/GPa)
#
#
# Indices 1 2 3 4 5 6 
#
# 1 0.008580 -0.001843 -0.003134 0.000000 -0.003309 0.000000
# 2 -0.001843 0.017705 -0.007272 0.000000 -0.001890 0.000000
# 3 -0.003134 -0.007272 0.015537 0.000000 -0.002767 0.000000
# 4 0.000000 0.000000 0.000000 0.025909 0.000000 -0.014805
# 5 -0.003309 -0.001890 -0.002767 0.000000 0.035000 0.000000
# 6 0.000000 0.000000 0.000000 -0.014805 0.000000 0.011288
#
#
# Mechanical properties :
#
#
# Convention : Reuss Voigt Hill
#
# Bulk Modulus (GPa) = 57.73125 68.70110 63.21618
# Shear Modulus (GPa) = 34.65186 120.90844 77.78015
#
# Velocity S-wave (km/s) = 4.14952 7.75110 6.21684
# Velocity P-wave (km/s) = 7.18643 10.68848 9.10737
#
# Compressibility (1/GPa) = 0.01732164
#
# Stress axis : x y z
#
# Youngs Moduli (GPa) = 116.55164 56.48234 64.36342
#
# Poissons Ratio (x) = 0.10410 0.20175
# Poissons Ratio (y) = 0.21481 0.46807
# Poissons Ratio (z) = 0.36533 0.41076
#
# Static dielectric constant tensor:
#      x y z
#    x 3.915190 0.000000 -0.062920 
#    y 0.000000 3.993040 0.000000 
#    z -0.062920 0.000000 3.378530 
# 
# 
# High freq. dielectric constant tensor:
#      x y z
#    x 1.815970 0.000000 0.018070 
#    y 0.000000 1.776980 0.000000 
#    z 0.018070 0.000000 1.774220 
# 
# From -- ./inp_files/138460.got.cif
#   From: 2010.06.25/outbox.cif.g09.slc.cpg/sg15_70_cif.got.tgz:138460.got - 2010.06.28 07:06:18.
