data_PCOD8138556
_publ_section_title
;
Structure prediction by ZEFSAII (Michael W. Deem and Ramdas Pophale) SiO2 
 PCOD8138556
Probable space group: C 2/C
;
_chemical_formula_sum "Si O2"
_cell_formula_units_Z 64
_cell_length_a 17.967505
_cell_length_b 24.692331
_cell_length_c 7.907865
_cell_angle_alpha 90.000000
_cell_angle_beta 108.866805
_cell_angle_gamma 90.000000
_cell_volume 3319.903788
_symmetry_space_group_name_H-M "C 2/C"
_symmetry_group_IT_number 15
_symmetry_cell_setting 'monoclinic'
loop_
_space_group_symop_operation_xyz
x,y,z
-x,y,1/2-z
-x,-y,-z
x,-y,1/2+z
1/2+x,1/2+y,z
1/2-x,1/2+y,1/2-z
1/2-x,1/2-y,-z
1/2+x,1/2-y,1/2+z
loop_
_atom_site_type_symbol
_atom_site_label
_atom_site_fract_x
_atom_site_fract_y
_atom_site_fract_z
Si Si1 0.989950 0.401332 0.054375
Si Si2 0.761779 0.658998 0.277450
Si Si3 0.912685 0.711921 0.519392
Si Si4 0.331895 0.051558 0.299830
Si Si5 0.140839 0.243156 0.178268
Si Si6 0.160228 0.433350 0.077719
Si Si7 0.248797 0.332206 0.121841
Si Si8 0.416787 0.292573 0.215005
O O1 0.000000 0.424036 0.250000
O O2 0.070002 0.414748 0.017480
O O3 0.974773 0.337023 0.043666
O O4 0.920381 0.434893 0.918604
O O5 0.824595 0.690132 0.437568
O O6 0.769779 0.594982 0.334504
O O7 0.675432 0.683529 0.254149
O O8 0.781940 0.670004 0.094215
O O9 0.917233 0.737038 0.714087
O O10 0.930315 0.754711 0.386938
O O11 0.315720 0.988718 0.315236
O O12 0.317340 0.058874 0.095570
O O13 0.216938 0.281332 0.204607
O O14 0.095526 0.241847 0.966610
O O15 0.215822 0.385717 0.192072
O O16 0.343987 0.332821 0.194908
O O17 0.500000 0.324462 0.250000
#
# Coordination Sequence:
#
# PCOD8138556 Si02
#       8
#     8   8   8   8   8   8   8   8
#     4  11  23  36  51  80 120 154 197 231 275 338
#     4   9  18  36  57  80 115 148 186 242 294 336
#     4  11  22  34  55  87 112 159 192 230 289 341
#     4  10  22  37  57  81 113 154 197 242 288 331
#     4  11  20  38  59  85 117 147 195 239 288 355
#     4  11  22  38  57  80 116 154 197 240 283 348
#     4  10  20  38  57  82 111 155 191 239 296 346
#     4  11  24  37  56  80 119 147 191 240 291 347
#
# _framework density 19.277666
#
# number of rings (size 3 to 8) (size 9 to 14) (size 15 to 20)
#    0.000    1.500    2.500    3.375    3.500    1.000 
#    0.000    0.000    0.000    0.000    0.000    7.875 
#    0.000    0.000    0.000    0.000    0.000    0.000 
#
# Total GULP energy -396566.186974 kJ/mol
# GULP energy per Si atom -12392.693343 kJ/mol
# Density = 1.923379 g / cm^3
# Si number density = 19.277666 Si / 1000 Ang^3
#
#
#
# Elastic Constant Matrix: (Units=GPa)
#
#
# Indices 1 2 3 4 5 6 
#
# 1 84.2394 52.0731 7.8115 0.0000 6.3008 0.0000
# 2 52.0731 112.2837 15.1973 0.0000 -0.7136 0.0000
# 3 7.8115 15.1973 50.6840 0.0000 -8.6870 0.0000
# 4 0.0000 0.0000 0.0000 23.3193 0.0000 7.9833
# 5 6.3008 -0.7136 -8.6870 0.0000 13.9628 0.0000
# 6 0.0000 0.0000 0.0000 7.9833 0.0000 20.8835
#
#
#
# Elastic Compliance Matrix: (Units=1/GPa)
#
#
# Indices 1 2 3 4 5 6 
#
# 1 0.017731 -0.008016 -0.001982 0.000000 -0.009644 0.000000
# 2 -0.008016 0.012932 -0.002137 0.000000 0.002949 0.000000
# 3 -0.001982 -0.002137 0.023295 0.000000 0.015278 0.000000
# 4 0.000000 0.000000 0.000000 0.049340 0.000000 -0.018862
# 5 -0.009644 0.002949 0.015278 0.000000 0.085627 0.000000
# 6 0.000000 0.000000 0.000000 -0.018862 0.000000 0.055095
#
#
# Mechanical properties :
#
#
# Convention : Reuss Voigt Hill
#
# Bulk Modulus (GPa) = 33.68367 44.15232 38.91799
# Shear Modulus (GPa) = 17.97361 23.10814 20.54088
#
# Velocity S-wave (km/s) = 3.05676 3.46598 3.26778
# Velocity P-wave (km/s) = 5.47441 6.24263 5.87110
#
# Compressibility (1/GPa) = 0.02968798
#
# Stress axis : x y z
#
# Youngs Moduli (GPa) = 56.39739 77.33042 42.92795
#
# Poissons Ratio (x) = 0.61989 0.08509
# Poissons Ratio (y) = 0.45209 0.09172
# Poissons Ratio (z) = 0.11179 0.16522
#
# Static dielectric constant tensor:
#      x y z
#    x 3.389480 0.000000 -0.020530 
#    y 0.000000 3.670320 0.000000 
#    z -0.020530 0.000000 3.624540 
# 
# 
# High freq. dielectric constant tensor:
#      x y z
#    x 1.728100 0.000000 -0.001980 
#    y 0.000000 1.729600 0.000000 
#    z -0.001980 0.000000 1.762380 
# 
# From -- ./inp_files/51270.got.cif
#   From: 2010.06.25/outbox.cif.g09.slc.cpg/sg15_26_cif.got.tgz:51270.got - 2010.06.28 07:06:18.
