data_PCOD8138590
_publ_section_title
;
Structure prediction by ZEFSAII (Michael W. Deem and Ramdas Pophale) SiO2 
 PCOD8138590
Probable space group: C 2/C
;
_chemical_formula_sum "Si O2"
_cell_formula_units_Z 60
_cell_length_a 17.537097
_cell_length_b 11.254065
_cell_length_c 15.842111
_cell_angle_alpha 90.000000
_cell_angle_beta 129.707413
_cell_angle_gamma 90.000000
_cell_volume 2405.389719
_symmetry_space_group_name_H-M "C 2/C"
_symmetry_group_IT_number 15
_symmetry_cell_setting 'monoclinic'
loop_
_space_group_symop_operation_xyz
x,y,z
-x,y,1/2-z
-x,-y,-z
x,-y,1/2+z
1/2+x,1/2+y,z
1/2-x,1/2+y,1/2-z
1/2-x,1/2-y,-z
1/2+x,1/2-y,1/2+z
loop_
_atom_site_type_symbol
_atom_site_label
_atom_site_fract_x
_atom_site_fract_y
_atom_site_fract_z
Si Si1 0.864515 0.867226 0.616073
Si Si2 0.403713 0.194082 0.788082
Si Si3 0.500000 0.995041 0.750000
Si Si4 0.359835 0.853959 0.536414
Si Si5 0.073833 0.233454 0.511737
Si Si6 0.792825 0.947964 0.332085
Si Si7 0.840718 0.097838 0.524299
Si Si8 0.196052 0.552491 0.107765
O O1 0.918663 0.801672 0.731735
O O2 0.867927 0.782892 0.536753
O O3 0.751150 0.896668 0.563204
O O4 0.909011 0.997434 0.619339
O O5 0.289408 0.158233 0.719915
O O6 0.460255 0.075971 0.798135
O O7 0.456805 0.246124 0.910338
O O8 0.415571 0.909212 0.655507
O O9 0.242360 0.855478 0.469972
O O10 0.400545 0.719999 0.544726
O O11 0.371256 0.937127 0.461521
O O12 0.099526 0.119118 0.588983
O O13 0.119632 0.349665 0.589006
O O14 0.787811 0.040797 0.405004
O O15 0.778774 0.021774 0.236679
#
# Coordination Sequence:
#
# PCOD8138590 Si02
#       8
#     8   8   4   8   8   8   8   8
#     4  10  20  39  68  95 119 164 222 279 320 385
#     4  12  21  38  69  98 126 159 230 284 321 376
#     4  12  20  36  62  98 118 164 220 288 310 376
#     4  10  20  38  58  87 122 163 213 261 322 389
#     4  11  22  40  66  97 121 167 224 279 324 378
#     4  11  25  39  63  93 132 170 209 270 337 395
#     4   9  21  37  60  85 121 167 209 258 328 390
#     4  11  22  38  66  89 126 171 213 265 335 391
#
# _framework density 24.943985000000001
#
# number of rings (size 3 to 8) (size 9 to 14) (size 15 to 20)
#    0.000    1.333    5.333    0.400    3.733    0.533 
#    4.800    0.667    0.000    0.000    0.000    0.000 
#    0.000    0.000    0.000    0.000    0.000    0.000 
#
# Total GULP energy -371696.189661 kJ/mol
# GULP energy per Si atom -12389.872989 kJ/mol
# Density = 2.488721 g / cm^3
# Si number density = 24.943985 Si / 1000 Ang^3
#
#
#
# Elastic Constant Matrix: (Units=GPa)
#
#
# Indices 1 2 3 4 5 6 
#
# 1 9.0136 -1.8890 -10.0676 0.0000 0.4920 0.0000
# 2 -1.8890 161.3969 56.2195 0.0000 9.1792 0.0000
# 3 -10.0676 56.2195 119.1814 0.0000 5.6522 0.0000
# 4 0.0000 0.0000 0.0000 50.7752 0.0000 2.5222
# 5 0.4920 9.1792 5.6522 0.0000 23.9883 0.0000
# 6 0.0000 0.0000 0.0000 2.5222 0.0000 18.3187
#
#
#
# Elastic Compliance Matrix: (Units=1/GPa)
#
#
# Indices 1 2 3 4 5 6 
#
# 1 0.123871 -0.002414 0.011811 0.000000 -0.004400 0.000000
# 2 -0.002414 0.007561 -0.003677 0.000000 -0.001977 0.000000
# 3 0.011811 -0.003677 0.011192 0.000000 -0.001473 0.000000
# 4 0.000000 0.000000 0.000000 0.019830 0.000000 -0.002730
# 5 -0.004400 -0.001977 -0.001473 0.000000 0.042881 0.000000
# 6 0.000000 0.000000 0.000000 -0.002730 0.000000 0.054965
#
#
# Mechanical properties :
#
#
# Convention : Reuss Voigt Hill
#
# Bulk Modulus (GPa) = 6.49079 42.01308 24.25194
# Shear Modulus (GPa) = 16.65477 34.97168 25.81322
#
# Velocity S-wave (km/s) = 2.58677 3.74840 3.22039
# Velocity P-wave (km/s) = 3.39553 5.96771 4.85506
#
# Compressibility (1/GPa) = 0.15406435
#
# Stress axis : x y z
#
# Youngs Moduli (GPa) = 8.07295 132.26080 89.34569
#
# Poissons Ratio (x) = 0.31930 -1.05528
# Poissons Ratio (y) = 0.01949 0.32850
# Poissons Ratio (z) = -0.09535 0.48628
#
# Static dielectric constant tensor:
#      x y z
#    x 3.856080 0.000000 -0.006130 
#    y 0.000000 5.080020 0.000000 
#    z -0.006130 0.000000 4.335180 
# 
# 
# High freq. dielectric constant tensor:
#      x y z
#    x 1.944440 0.000000 -0.000360 
#    y 0.000000 2.018380 0.000000 
#    z -0.000360 0.000000 1.983870 
# 
# From -- ./inp_files/219314.got.cif
#   From: 2010.06.25/outbox.cif.g09.slc.cpg/sg15_110_cif.got.tgz:219314.got - 2010.06.28 07:06:18.
