data_PCOD8138546
_publ_section_title
;
Structure prediction by ZEFSAII (Michael W. Deem and Ramdas Pophale) SiO2 
 PCOD8138546
Probable space group: C 2/C
;
_chemical_formula_sum "Si O2"
_cell_formula_units_Z 36
_cell_length_a 19.775084
_cell_length_b 8.016198
_cell_length_c 15.513767
_cell_angle_alpha 90.000000
_cell_angle_beta 137.004567
_cell_angle_gamma 90.000000
_cell_volume 1677.066339
_symmetry_space_group_name_H-M "C 2/C"
_symmetry_group_IT_number 15
_symmetry_cell_setting 'monoclinic'
loop_
_space_group_symop_operation_xyz
x,y,z
-x,y,1/2-z
-x,-y,-z
x,-y,1/2+z
1/2+x,1/2+y,z
1/2-x,1/2+y,1/2-z
1/2-x,1/2-y,-z
1/2+x,1/2-y,1/2+z
loop_
_atom_site_type_symbol
_atom_site_label
_atom_site_fract_x
_atom_site_fract_y
_atom_site_fract_z
Si Si1 0.000000 0.764755 0.250000
Si Si2 0.101127 0.824185 0.659364
Si Si3 0.791538 0.711402 0.444958
Si Si4 0.990877 0.447625 0.148837
Si Si5 0.584567 0.532156 0.966330
O O1 0.968271 0.638231 0.299036
O O2 0.086494 0.878560 0.373514
O O3 0.206638 0.850360 0.801931
O O4 0.112067 0.836067 0.566546
O O5 0.058610 0.639909 0.640441
O O6 0.027891 0.967145 0.626263
O O7 0.750000 0.750000 0.500000
O O8 0.873880 0.564620 0.517739
O O9 0.838299 0.883054 0.454563
O O10 0.000000 0.350366 0.250000
#
# Coordination Sequence:
#
# PCOD8138546 Si02
#       5
#     4   8   8   8   8
#     4  10  20  38  56  86 120 154 204 244 294 358
#     4  10  21  41  60  87 121 160 202 248 301 359
#     4  11  19  37  64  85 118 162 201 242 304 363
#     4   9  20  37  58  89 115 165 193 240 316 340
#     4  10  23  38  62  88 119 161 202 250 295 357
#
# _framework density 21.466055999999998
#
# number of rings (size 3 to 8) (size 9 to 14) (size 15 to 20)
#    0.667    1.333    2.222    1.333    3.111    2.667 
#    0.000   21.111    0.000    0.000    0.000    0.000 
#    0.000    0.000    0.000    0.000    0.000    0.000 
#
# Total GULP energy -223011.464913 kJ/mol
# GULP energy per Si atom -12389.525829 kJ/mol
# Density = 2.141720 g / cm^3
# Si number density = 21.466056 Si / 1000 Ang^3
#
#
#
# Elastic Constant Matrix: (Units=GPa)
#
#
# Indices 1 2 3 4 5 6 
#
# 1 63.7855 15.9582 51.1832 0.0000 1.9583 0.0000
# 2 15.9582 81.5551 46.5929 0.0000 -5.8938 0.0000
# 3 51.1832 46.5929 185.2141 0.0000 7.3232 0.0000
# 4 0.0000 0.0000 0.0000 35.4350 0.0000 -14.3790
# 5 1.9583 -5.8938 7.3232 0.0000 35.7052 0.0000
# 6 0.0000 0.0000 0.0000 -14.3790 0.0000 21.5515
#
#
#
# Elastic Compliance Matrix: (Units=1/GPa)
#
#
# Indices 1 2 3 4 5 6 
#
# 1 0.020201 -0.000910 -0.005347 0.000000 -0.000161 0.000000
# 2 -0.000910 0.014716 -0.003578 0.000000 0.003213 0.000000
# 3 -0.005347 -0.003578 0.007852 0.000000 -0.001908 0.000000
# 4 0.000000 0.000000 0.000000 0.038698 0.000000 0.025819
# 5 -0.000161 0.003213 -0.001908 0.000000 0.028938 0.000000
# 6 0.000000 0.000000 0.000000 0.025819 0.000000 0.063627
#
#
# Mechanical properties :
#
#
# Convention : Reuss Voigt Hill
#
# Bulk Modulus (GPa) = 43.28996 62.00260 52.64628
# Shear Modulus (GPa) = 24.82629 32.99303 28.90966
#
# Velocity S-wave (km/s) = 3.40448 3.92469 3.67381
# Velocity P-wave (km/s) = 5.97197 7.03451 6.52491
#
# Compressibility (1/GPa) = 0.02310004
#
# Stress axis : x y z
#
# Youngs Moduli (GPa) = 49.50298 67.95456 127.35173
#
# Poissons Ratio (x) = 0.06181 0.68098
# Poissons Ratio (y) = 0.04502 0.45561
# Poissons Ratio (z) = 0.26470 0.24311
#
# Static dielectric constant tensor:
#      x y z
#    x 3.659920 0.000000 -0.078680 
#    y 0.000000 3.728240 0.000000 
#    z -0.078680 0.000000 4.117150 
# 
# 
# High freq. dielectric constant tensor:
#      x y z
#    x 1.806950 0.000000 -0.011490 
#    y 0.000000 1.834650 0.000000 
#    z -0.011490 0.000000 1.859170 
# 
# From -- ./inp_files/109517.got.cif
#   From: 2010.06.25/outbox.cif.g09.slc.cpg/sg15_55_cif.got.tgz:109517.got - 2010.06.28 07:06:18.
