data_PCOD8138611
_publ_section_title
;
Structure prediction by ZEFSAII (Michael W. Deem and Ramdas Pophale) SiO2 
 PCOD8138611
Probable space group: C 2/C
;
_chemical_formula_sum "Si O2"
_cell_formula_units_Z 40
_cell_length_a 16.398032
_cell_length_b 9.726178
_cell_length_c 18.576709
_cell_angle_alpha 90.000000
_cell_angle_beta 46.785922
_cell_angle_gamma 90.000000
_cell_volume 2159.291760
_symmetry_space_group_name_H-M "C 2/C"
_symmetry_group_IT_number 15
_symmetry_cell_setting 'monoclinic'
loop_
_space_group_symop_operation_xyz
x,y,z
-x,y,1/2-z
-x,-y,-z
x,-y,1/2+z
1/2+x,1/2+y,z
1/2-x,1/2+y,1/2-z
1/2-x,1/2-y,-z
1/2+x,1/2-y,1/2+z
loop_
_atom_site_type_symbol
_atom_site_label
_atom_site_fract_x
_atom_site_fract_y
_atom_site_fract_z
Si Si1 0.118038 0.335555 0.648405
Si Si2 0.971286 0.367389 0.064914
Si Si3 0.213529 0.697321 0.443278
Si Si4 0.888664 0.611938 0.773449
Si Si5 0.808537 0.378367 0.048527
O O1 0.160406 0.468493 0.666778
O O2 0.108913 0.377133 0.570182
O O3 0.197156 0.206159 0.605519
O O4 0.000000 0.286162 0.750000
O O5 0.920126 0.408830 0.171965
O O6 0.871954 0.302798 0.076867
O O7 0.000000 0.500000 0.000000
O O8 0.081033 0.270841 0.009336
O O9 0.250000 0.750000 0.500000
O O10 0.291471 0.774606 0.338571
O O11 0.231066 0.535754 0.418482
O O12 0.000000 0.655486 0.750000
#
# Coordination Sequence:
#
# PCOD8138611 Si02
#       5
#     8   8   8   8   8
#     4  10  20  38  59  77 111 157 192 222 293 360
#     4  10  21  37  57  85 118 149 191 241 291 347
#     4  11  19  37  60  84 112 148 192 244 286 344
#     4  11  20  34  61  84 109 155 194 229 294 351
#     4  10  22  37  57  83 115 149 190 242 286 342
#
# _framework density 18.524592999999999
#
# number of rings (size 3 to 8) (size 9 to 14) (size 15 to 20)
#    0.000    1.600    4.000    3.600    0.000    5.600 
#    0.000    1.000    0.000    0.000    0.000    0.000 
#    0.000    0.000    0.000    0.000    0.000    0.000 
#
# Total GULP energy -247833.765038 kJ/mol
# GULP energy per Si atom -12391.688252 kJ/mol
# Density = 1.848243 g / cm^3
# Si number density = 18.524593 Si / 1000 Ang^3
#
#
#
# Elastic Constant Matrix: (Units=GPa)
#
#
# Indices 1 2 3 4 5 6 
#
# 1 96.3562 42.9705 57.3487 0.0000 17.7978 0.0000
# 2 42.9705 84.2611 50.7099 0.0000 -9.1393 0.0000
# 3 57.3487 50.7099 151.9789 0.0000 13.4221 0.0000
# 4 0.0000 0.0000 0.0000 32.4844 0.0000 -6.6679
# 5 17.7978 -9.1393 13.4221 0.0000 33.2559 0.0000
# 6 0.0000 0.0000 0.0000 -6.6679 0.0000 23.5882
#
#
#
# Elastic Compliance Matrix: (Units=1/GPa)
#
#
# Indices 1 2 3 4 5 6 
#
# 1 0.017931 -0.008518 -0.002976 0.000000 -0.010736 0.000000
# 2 -0.008518 0.020291 -0.004616 0.000000 0.011998 0.000000
# 3 -0.002976 -0.004616 0.009555 0.000000 -0.003532 0.000000
# 4 0.000000 0.000000 0.000000 0.032680 0.000000 0.009238
# 5 -0.010736 0.011998 -0.003532 0.000000 0.040538 0.000000
# 6 0.000000 0.000000 0.000000 0.009238 0.000000 0.045006
#
#
# Mechanical properties :
#
#
# Convention : Reuss Voigt Hill
#
# Bulk Modulus (GPa) = 64.27661 70.51716 67.39688
# Shear Modulus (GPa) = 24.58147 29.97016 27.27581
#
# Velocity S-wave (km/s) = 3.64670 4.02662 3.84136
# Velocity P-wave (km/s) = 7.24600 7.73096 7.49240
#
# Compressibility (1/GPa) = 0.01555776
#
# Stress axis : x y z
#
# Youngs Moduli (GPa) = 55.76973 49.28345 104.65827
#
# Poissons Ratio (x) = 0.41978 0.31146
# Poissons Ratio (y) = 0.47503 0.48308
# Poissons Ratio (z) = 0.16597 0.22748
#
# Static dielectric constant tensor:
#      x y z
#    x 4.575130 0.000000 0.229350 
#    y 0.000000 3.221150 0.000000 
#    z 0.229350 0.000000 3.678020 
# 
# 
# High freq. dielectric constant tensor:
#      x y z
#    x 1.723510 0.000000 0.003460 
#    y 0.000000 1.697750 0.000000 
#    z 0.003460 0.000000 1.734890 
# 
# From -- ./inp_files/126367.got.cif
#   From: 2010.06.25/outbox.cif.g09.slc.cpg/sg15_64_cif.got.tgz:126367.got - 2010.06.28 07:06:18.
