data_PCOD8138520
_publ_section_title
;
Structure prediction by ZEFSAII (Michael W. Deem and Ramdas Pophale) SiO2 
 PCOD8138520
Probable space group: C 2/C
;
_chemical_formula_sum "Si O2"
_cell_formula_units_Z 56
_cell_length_a 14.309175
_cell_length_b 17.704415
_cell_length_c 12.349577
_cell_angle_alpha 90.000000
_cell_angle_beta 118.480731
_cell_angle_gamma 90.000000
_cell_volume 2749.957830
_symmetry_space_group_name_H-M "C 2/C"
_symmetry_group_IT_number 15
_symmetry_cell_setting 'monoclinic'
loop_
_space_group_symop_operation_xyz
x,y,z
-x,y,1/2-z
-x,-y,-z
x,-y,1/2+z
1/2+x,1/2+y,z
1/2-x,1/2+y,1/2-z
1/2-x,1/2-y,-z
1/2+x,1/2-y,1/2+z
loop_
_atom_site_type_symbol
_atom_site_label
_atom_site_fract_x
_atom_site_fract_y
_atom_site_fract_z
Si Si1 0.207672 0.595673 0.413412
Si Si2 0.500000 0.818198 0.750000
Si Si3 0.890563 0.179571 0.390149
Si Si4 0.287386 0.155294 0.839072
Si Si5 0.125294 0.435272 0.316939
Si Si6 0.079387 0.218335 0.624768
Si Si7 0.500000 0.295720 0.750000
Si Si8 0.849936 0.701995 0.526533
O O1 0.105368 0.633096 0.303284
O O2 0.310001 0.623205 0.403696
O O3 0.213838 0.613954 0.544969
O O4 0.196787 0.507548 0.382429
O O5 0.492100 0.761215 0.646436
O O6 0.848815 0.265476 0.379397
O O7 0.911275 0.158441 0.272608
O O8 0.006901 0.165557 0.508504
O O9 0.344376 0.101812 0.781825
O O10 0.164896 0.168675 0.737184
O O11 0.158341 0.382871 0.436519
O O12 0.000000 0.454448 0.250000
O O13 0.138949 0.287918 0.596064
O O14 0.452590 0.239378 0.636051
O O15 0.750000 0.750000 0.500000
#
# Coordination Sequence:
#
# PCOD8138520 Si02
#       8
#     8   4   8   8   8   8   4   8
#     4  12  27  42  65 102 143 179 215 280 352 409
#     4  12  22  39  62 101 130 176 220 272 338 413
#     4  11  21  42  70 101 134 175 233 280 331 402
#     4  12  23  44  66  99 138 179 229 281 332 404
#     4  12  25  44  66 101 145 174 221 281 351 403
#     4  11  22  37  70  96 128 173 237 280 323 384
#     4  10  20  37  70 103 126 168 230 282 320 383
#     4  11  20  39  67  97 127 173 221 270 325 388
#
# _framework density 20.363949000000002
#
# number of rings (size 3 to 8) (size 9 to 14) (size 15 to 20)
#    0.000    0.571    7.143    2.143    0.000    1.714 
#    0.000    0.714    0.000    0.857    0.000    0.000 
#    0.000    0.000    0.000    0.000    0.000    0.000 
#
# Total GULP energy -346926.396875 kJ/mol
# GULP energy per Si atom -12390.228460 kJ/mol
# Density = 2.031760 g / cm^3
# Si number density = 20.363949 Si / 1000 Ang^3
#
#
#
# Elastic Constant Matrix: (Units=GPa)
#
#
# Indices 1 2 3 4 5 6 
#
# 1 133.3979 60.9922 38.3078 0.0000 -15.0793 0.0000
# 2 60.9922 111.0269 49.2617 0.0000 -9.3689 0.0000
# 3 38.3078 49.2617 85.6358 0.0000 -4.1581 0.0000
# 4 0.0000 0.0000 0.0000 27.0178 0.0000 -3.0105
# 5 -15.0793 -9.3689 -4.1581 0.0000 49.1295 0.0000
# 6 0.0000 0.0000 0.0000 -3.0105 0.0000 20.7521
#
#
#
# Elastic Compliance Matrix: (Units=1/GPa)
#
#
# Indices 1 2 3 4 5 6 
#
# 1 0.010431 -0.004733 -0.001839 0.000000 0.002143 0.000000
# 2 -0.004733 0.014389 -0.006122 0.000000 0.000773 0.000000
# 3 -0.001839 -0.006122 0.016004 0.000000 -0.000378 0.000000
# 4 0.000000 0.000000 0.000000 0.037621 0.000000 0.005458
# 5 0.002143 0.000773 -0.000378 0.000000 0.021128 0.000000
# 6 0.000000 0.000000 0.000000 0.005458 0.000000 0.048980
#
#
# Mechanical properties :
#
#
# Convention : Reuss Voigt Hill
#
# Bulk Modulus (GPa) = 64.79289 69.68710 67.24000
# Shear Modulus (GPa) = 27.91967 31.47979 29.69973
#
# Velocity S-wave (km/s) = 3.70677 3.93601 3.82310
# Velocity P-wave (km/s) = 7.08567 7.41291 7.25114
#
# Compressibility (1/GPa) = 0.01543379
#
# Stress axis : x y z
#
# Youngs Moduli (GPa) = 95.86817 69.49950 62.48630
#
# Poissons Ratio (x) = 0.32896 0.11493
# Poissons Ratio (y) = 0.45377 0.38255
# Poissons Ratio (z) = 0.17633 0.42548
#
# Static dielectric constant tensor:
#      x y z
#    x 4.126460 0.000000 -0.218220 
#    y 0.000000 3.209300 0.000000 
#    z -0.218220 0.000000 3.866860 
# 
# 
# High freq. dielectric constant tensor:
#      x y z
#    x 1.821130 0.000000 -0.004870 
#    y 0.000000 1.753750 0.000000 
#    z -0.004870 0.000000 1.812390 
# 
# From -- ./inp_files/98428.got.cif
#   From: 2010.06.25/outbox.cif.g09.slc.cpg/sg15_50_cif.got.tgz:98428.got - 2010.06.28 07:06:18.
