data_PCOD8138795
_publ_section_title
;
Structure prediction by ZEFSAII (Michael W. Deem and Ramdas Pophale) SiO2 
 PCOD8138795
Probable space group: C 2/C
;
_chemical_formula_sum "Si O2"
_cell_formula_units_Z 52
_cell_length_a 13.227436
_cell_length_b 11.906876
_cell_length_c 19.206673
_cell_angle_alpha 90.000000
_cell_angle_beta 117.977746
_cell_angle_gamma 90.000000
_cell_volume 2671.469481
_symmetry_space_group_name_H-M "C 2/C"
_symmetry_group_IT_number 15
_symmetry_cell_setting 'monoclinic'
loop_
_space_group_symop_operation_xyz
x,y,z
-x,y,1/2-z
-x,-y,-z
x,-y,1/2+z
1/2+x,1/2+y,z
1/2-x,1/2+y,1/2-z
1/2-x,1/2-y,-z
1/2+x,1/2-y,1/2+z
loop_
_atom_site_type_symbol
_atom_site_label
_atom_site_fract_x
_atom_site_fract_y
_atom_site_fract_z
Si Si1 0.002076 0.507492 0.419164
Si Si2 0.319874 0.945296 0.629942
Si Si3 0.480413 0.228563 0.855111
Si Si4 0.323008 0.186733 0.680732
Si Si5 0.000000 0.277775 0.750000
Si Si6 0.939607 0.881357 0.970707
Si Si7 0.569264 0.250012 0.126683
O O1 0.129940 0.520470 0.429413
O O2 0.000000 0.500000 0.500000
O O3 0.946461 0.392259 0.375167
O O4 0.930243 0.614814 0.370146
O O5 0.392572 0.849553 0.690154
O O6 0.195079 0.898389 0.574882
O O7 0.327098 0.051301 0.684523
O O8 0.383206 0.246819 0.765540
O O9 0.608869 0.229700 0.865363
O O10 0.478706 0.327153 0.910731
O O11 0.190674 0.217258 0.634215
O O12 0.955102 0.204665 0.802086
O O13 0.971349 0.798683 0.044457
O O14 0.000000 0.000000 0.000000
#
# Coordination Sequence:
#
# PCOD8138795 Si02
#       7
#     8   8   8   8   4   8   8
#     4  10  20  38  61  92 111 151 210 254 285 354
#     4  10  21  39  65  86 127 159 199 249 312 359
#     4  10  22  39  65  90 117 157 214 247 300 359
#     4  10  20  40  65  89 116 163 203 255 295 359
#     4  10  22  40  62  88 116 164 212 248 292 366
#     4  12  24  40  60  93 130 162 191 252 319 363
#     4  11  22  39  63  87 126 157 203 252 310 356
#
# _framework density 19.464942000000001
#
# number of rings (size 3 to 8) (size 9 to 14) (size 15 to 20)
#    0.000    1.538    3.077    3.692    0.000    4.308 
#    2.769    1.538    0.000    0.000    0.000    0.000 
#    0.000    0.000    0.000    0.000    0.000    0.000 
#
# Total GULP energy -322309.701077 kJ/mol
# GULP energy per Si atom -12396.526964 kJ/mol
# Density = 1.942064 g / cm^3
# Si number density = 19.464942 Si / 1000 Ang^3
#
#
#
# Elastic Constant Matrix: (Units=GPa)
#
#
# Indices 1 2 3 4 5 6 
#
# 1 115.2141 32.9074 62.5169 0.0000 3.2050 0.0000
# 2 32.9074 85.5017 29.9087 0.0000 -5.2404 0.0000
# 3 62.5169 29.9087 116.4905 0.0000 -9.3878 0.0000
# 4 0.0000 0.0000 0.0000 23.8693 0.0000 -3.2302
# 5 3.2050 -5.2404 -9.3878 0.0000 45.4358 0.0000
# 6 0.0000 0.0000 0.0000 -3.2302 0.0000 29.5616
#
#
#
# Elastic Compliance Matrix: (Units=1/GPa)
#
#
# Indices 1 2 3 4 5 6 
#
# 1 0.013114 -0.002935 -0.006494 0.000000 -0.002605 0.000000
# 2 -0.002935 0.013536 -0.001787 0.000000 0.001399 0.000000
# 3 -0.006494 -0.001787 0.012761 0.000000 0.002889 0.000000
# 4 0.000000 0.000000 0.000000 0.042524 0.000000 0.004647
# 5 -0.002605 0.001399 0.002889 0.000000 0.022951 0.000000
# 6 0.000000 0.000000 0.000000 0.004647 0.000000 0.034335
#
#
# Mechanical properties :
#
#
# Convention : Reuss Voigt Hill
#
# Bulk Modulus (GPa) = 58.89999 63.09692 60.99846
# Shear Modulus (GPa) = 29.88363 32.56488 31.22426
#
# Velocity S-wave (km/s) = 3.92248 4.09467 4.00950
# Velocity P-wave (km/s) = 7.13020 7.40548 7.26914
#
# Compressibility (1/GPa) = 0.01697793
#
# Stress axis : x y z
#
# Youngs Moduli (GPa) = 76.25272 73.87500 78.36111
#
# Poissons Ratio (x) = 0.21684 0.50891
# Poissons Ratio (y) = 0.22382 0.14006
# Poissons Ratio (z) = 0.49521 0.13205
#
# Static dielectric constant tensor:
#      x y z
#    x 3.789950 0.000000 -0.175030 
#    y 0.000000 3.621600 0.000000 
#    z -0.175030 0.000000 3.832910 
# 
# 
# High freq. dielectric constant tensor:
#      x y z
#    x 1.766410 0.000000 -0.009640 
#    y 0.000000 1.748120 0.000000 
#    z -0.009640 0.000000 1.760810 
# 
# From -- ./inp_files/237201.got.cif
#   From: 2010.06.25/outbox.cif.g09.slc.cpg/sg15_119_cif.got.tgz:237201.got - 2010.06.28 07:06:18.
