data_PCOD8138393
_publ_section_title
;
Structure prediction by ZEFSAII (Michael W. Deem and Ramdas Pophale) SiO2 
 PCOD8138393
Probable space group: C 2/C
;
_chemical_formula_sum "Si O2"
_cell_formula_units_Z 48
_cell_length_a 29.349449
_cell_length_b 17.088549
_cell_length_c 9.290632
_cell_angle_alpha 90.000000
_cell_angle_beta 34.005992
_cell_angle_gamma 90.000000
_cell_volume 2606.029802
_symmetry_space_group_name_H-M "C 2/C"
_symmetry_group_IT_number 15
_symmetry_cell_setting 'monoclinic'
loop_
_space_group_symop_operation_xyz
x,y,z
-x,y,1/2-z
-x,-y,-z
x,-y,1/2+z
1/2+x,1/2+y,z
1/2-x,1/2+y,1/2-z
1/2-x,1/2-y,-z
1/2+x,1/2-y,1/2+z
loop_
_atom_site_type_symbol
_atom_site_label
_atom_site_fract_x
_atom_site_fract_y
_atom_site_fract_z
Si Si1 0.221120 0.288235 0.224234
Si Si2 0.194045 0.096839 0.796344
Si Si3 0.593265 0.084830 0.983908
Si Si4 0.941341 0.024220 0.778870
Si Si5 0.171876 0.527572 0.495651
Si Si6 0.195088 0.138633 0.472934
O O1 0.291347 0.344227 0.107803
O O2 0.141671 0.338516 0.402560
O O3 0.195402 0.225360 0.409848
O O4 0.250000 0.250000 0.000000
O O5 0.266935 0.034341 0.591857
O O6 0.189153 0.144574 0.660738
O O7 0.109392 0.052162 0.041278
O O8 0.500000 0.106004 0.250000
O O9 0.615528 0.011017 0.023431
O O10 0.612367 0.064160 0.769417
O O11 0.000000 0.055720 0.750000
O O12 0.882404 0.093781 0.887280
O O13 0.000000 0.000000 0.500000
O O14 0.221932 0.596728 0.290284
#
# Coordination Sequence:
#
# PCOD8138393 Si02
#       6
#     8   8   8   8   8   8
#     4  11  24  39  61  86 121 163 199 243 298 369
#     4  10  22  39  63  86 118 164 203 240 302 362
#     4  11  22  39  60  89 117 149 195 249 306 344
#     4  11  23  38  62  95 122 154 205 258 304 353
#     4  10  20  37  64  86 112 152 202 247 286 355
#     4  11  21  39  62  84 121 162 200 242 297 364
#
# _framework density 18.418821999999999
#
# number of rings (size 3 to 8) (size 9 to 14) (size 15 to 20)
#    0.000    1.333    5.000    1.000    2.333    0.667 
#    0.000    0.000    0.000    0.000    0.000    0.000 
#    0.000    0.000    0.000    0.000    0.000    0.000 
#
# Total GULP energy -297680.492225 kJ/mol
# GULP energy per Si atom -12403.353843 kJ/mol
# Density = 1.837690 g / cm^3
# Si number density = 18.418822 Si / 1000 Ang^3
#
#
#
# Elastic Constant Matrix: (Units=GPa)
#
#
# Indices 1 2 3 4 5 6 
#
# 1 106.4636 30.2148 47.9275 0.0000 1.1467 0.0000
# 2 30.2148 89.6457 32.9801 0.0000 -1.1458 0.0000
# 3 47.9275 32.9801 110.8526 0.0000 -0.9558 0.0000
# 4 0.0000 0.0000 0.0000 27.1329 0.0000 9.6127
# 5 1.1467 -1.1458 -0.9558 0.0000 33.7426 0.0000
# 6 0.0000 0.0000 0.0000 9.6127 0.0000 30.8900
#
#
#
# Elastic Compliance Matrix: (Units=1/GPa)
#
#
# Indices 1 2 3 4 5 6 
#
# 1 0.012126 -0.002430 -0.004525 0.000000 -0.000623 0.000000
# 2 -0.002430 0.013017 -0.002818 0.000000 0.000445 0.000000
# 3 -0.004525 -0.002818 0.011819 0.000000 0.000393 0.000000
# 4 0.000000 0.000000 0.000000 0.041422 0.000000 -0.012890
# 5 -0.000623 0.000445 0.000393 0.000000 0.029683 0.000000
# 6 0.000000 0.000000 0.000000 -0.012890 0.000000 0.036384
#
#
# Mechanical properties :
#
#
# Convention : Reuss Voigt Hill
#
# Bulk Modulus (GPa) = 57.42125 58.80078 58.11102
# Shear Modulus (GPa) = 29.44557 31.40907 30.42732
#
# Velocity S-wave (km/s) = 4.00267 4.13397 4.06885
# Velocity P-wave (km/s) = 7.25292 7.40134 7.32751
#
# Compressibility (1/GPa) = 0.01741515
#
# Stress axis : x y z
#
# Youngs Moduli (GPa) = 82.46405 76.82514 84.60757
#
# Poissons Ratio (x) = 0.18671 0.38287
# Poissons Ratio (y) = 0.20042 0.23842
# Poissons Ratio (z) = 0.37317 0.21649
#
# Static dielectric constant tensor:
#      x y z
#    x 3.204740 0.000000 0.146910 
#    y 0.000000 3.302340 0.000000 
#    z 0.146910 0.000000 3.343710 
# 
# 
# High freq. dielectric constant tensor:
#      x y z
#    x 1.727460 0.000000 0.009930 
#    y 0.000000 1.710370 0.000000 
#    z 0.009930 0.000000 1.717100 
# 
# From -- ./inp_files/48083.got.cif
#   From: 2010.06.25/outbox.cif.g09.slc.cpg/sg15_25_cif.got.tgz:48083.got - 2010.06.28 07:06:18.
