data_PCOD8138519
_publ_section_title
;
Structure prediction by ZEFSAII (Michael W. Deem and Ramdas Pophale) SiO2 
 PCOD8138519
Probable space group: C 2/C
;
_chemical_formula_sum "Si O2"
_cell_formula_units_Z 64
_cell_length_a 12.316184
_cell_length_b 14.400303
_cell_length_c 18.354036
_cell_angle_alpha 90.000000
_cell_angle_beta 96.998182
_cell_angle_gamma 90.000000
_cell_volume 3230.961475
_symmetry_space_group_name_H-M "C 2/C"
_symmetry_group_IT_number 15
_symmetry_cell_setting 'monoclinic'
loop_
_space_group_symop_operation_xyz
x,y,z
-x,y,1/2-z
-x,-y,-z
x,-y,1/2+z
1/2+x,1/2+y,z
1/2-x,1/2+y,1/2-z
1/2-x,1/2-y,-z
1/2+x,1/2-y,1/2+z
loop_
_atom_site_type_symbol
_atom_site_label
_atom_site_fract_x
_atom_site_fract_y
_atom_site_fract_z
Si Si1 0.377333 0.278646 0.919074
Si Si2 0.912610 0.507701 0.055369
Si Si3 0.502152 0.464594 0.919502
Si Si4 0.270502 0.396115 0.530391
Si Si5 0.728578 0.723986 0.609673
Si Si6 0.534244 0.843022 0.336643
Si Si7 0.124418 0.716995 0.419571
Si Si8 0.032762 0.147984 0.671985
O O1 0.415308 0.381963 0.900669
O O2 0.434483 0.206138 0.869781
O O3 0.247750 0.267552 0.903252
O O4 0.408992 0.255074 0.004110
O O5 0.942950 0.442737 0.125771
O O6 0.904149 0.609182 0.088189
O O7 0.799750 0.481953 0.005220
O O8 0.000000 0.500000 0.000000
O O9 0.625741 0.431205 0.915125
O O10 0.469863 0.548349 0.865582
O O11 0.500000 0.500000 0.000000
O O12 0.306571 0.338051 0.462407
O O13 0.204694 0.329907 0.581696
O O14 0.855016 0.716500 0.644302
O O15 0.652767 0.693827 0.671136
O O16 0.500000 0.855272 0.250000
O O17 0.053617 0.776123 0.359320
O O18 0.000000 0.124020 0.750000
#
# Coordination Sequence:
#
# PCOD8138519 Si02
#       8
#     8   8   8   8   8   8   8   8
#     4  11  23  42  68  99 127 172 219 278 325 387
#     4  11  22  39  67 101 130 173 223 271 325 400
#     4  12  21  41  69  98 127 171 224 276 323 384
#     4  10  20  37  70 100 119 165 230 274 314 377
#     4  10  21  42  67  93 130 170 218 272 324 391
#     4  11  25  42  67  96 133 176 220 272 330 393
#     4  11  24  42  67  99 135 170 221 269 333 392
#     4  12  28  44  64  96 138 177 215 272 342 397
#
# _framework density 19.808344999999999
#
# number of rings (size 3 to 8) (size 9 to 14) (size 15 to 20)
#    0.000    1.000    5.000    1.500    7.000    1.000 
#    0.000    0.000    0.000    0.000    0.000    0.000 
#    0.000    0.000    0.000    0.000    0.000    0.000 
#
# Total GULP energy -396765.904933 kJ/mol
# GULP energy per Si atom -12398.934529 kJ/mol
# Density = 1.976326 g / cm^3
# Si number density = 19.808345 Si / 1000 Ang^3
#
#
#
# Elastic Constant Matrix: (Units=GPa)
#
#
# Indices 1 2 3 4 5 6 
#
# 1 92.1934 39.6711 50.9217 0.0000 -12.1273 0.0000
# 2 39.6711 137.0930 44.1686 0.0000 -2.0631 0.0000
# 3 50.9217 44.1686 104.2873 0.0000 -10.0205 0.0000
# 4 0.0000 0.0000 0.0000 24.1971 0.0000 -4.3698
# 5 -12.1273 -2.0631 -10.0205 0.0000 30.3273 0.0000
# 6 0.0000 0.0000 0.0000 -4.3698 0.0000 29.7981
#
#
#
# Elastic Compliance Matrix: (Units=1/GPa)
#
#
# Indices 1 2 3 4 5 6 
#
# 1 0.015973 -0.002519 -0.006336 0.000000 0.004122 0.000000
# 2 -0.002519 0.008856 -0.002644 0.000000 -0.001278 0.000000
# 3 -0.006336 -0.002644 0.013986 0.000000 0.001907 0.000000
# 4 0.000000 0.000000 0.000000 0.042452 0.000000 0.006225
# 5 0.004122 -0.001278 0.001907 0.000000 0.035165 0.000000
# 6 0.000000 0.000000 0.000000 0.006225 0.000000 0.034472
#
#
# Mechanical properties :
#
#
# Convention : Reuss Voigt Hill
#
# Bulk Modulus (GPa) = 63.22390 67.01071 65.11730
# Shear Modulus (GPa) = 27.90612 30.11866 29.01239
#
# Velocity S-wave (km/s) = 3.75748 3.90359 3.83123
# Velocity P-wave (km/s) = 7.12825 7.36345 7.24680
#
# Compressibility (1/GPa) = 0.01581680
#
# Stress axis : x y z
#
# Youngs Moduli (GPa) = 62.60755 112.92271 71.50130
#
# Poissons Ratio (x) = 0.28440 0.45306
# Poissons Ratio (y) = 0.15768 0.18902
# Poissons Ratio (z) = 0.39670 0.29853
#
# Static dielectric constant tensor:
#      x y z
#    x 3.790080 0.000000 0.045180 
#    y 0.000000 5.149960 0.000000 
#    z 0.045180 0.000000 3.730070 
# 
# 
# High freq. dielectric constant tensor:
#      x y z
#    x 1.786990 0.000000 -0.006670 
#    y 0.000000 1.786490 0.000000 
#    z -0.006670 0.000000 1.747760 
# 
# From -- ./inp_files/198362.got.cif
#   From: 2010.06.25/outbox.cif.g09.slc.cpg/sg15_100_cif.got.tgz:198362.got - 2010.06.28 07:06:18.
