data_PCOD8138264
_publ_section_title
;
Structure prediction by ZEFSAII (Michael W. Deem and Ramdas Pophale) SiO2 
 PCOD8138264
Probable space group: C 2/C
;
_chemical_formula_sum "Si O2"
_cell_formula_units_Z 40
_cell_length_a 8.928363
_cell_length_b 10.936699
_cell_length_c 27.871720
_cell_angle_alpha 90.000000
_cell_angle_beta 137.380351
_cell_angle_gamma 90.000000
_cell_volume 1842.862264
_symmetry_space_group_name_H-M "C 2/C"
_symmetry_group_IT_number 15
_symmetry_cell_setting 'monoclinic'
loop_
_space_group_symop_operation_xyz
x,y,z
-x,y,1/2-z
-x,-y,-z
x,-y,1/2+z
1/2+x,1/2+y,z
1/2-x,1/2+y,1/2-z
1/2-x,1/2-y,-z
1/2+x,1/2-y,1/2+z
loop_
_atom_site_type_symbol
_atom_site_label
_atom_site_fract_x
_atom_site_fract_y
_atom_site_fract_z
Si Si1 0.434891 0.724846 0.109186
Si Si2 0.239236 0.169533 0.936105
Si Si3 0.062615 0.117374 0.484748
Si Si4 0.067375 0.353530 0.592200
Si Si5 0.767846 0.082876 0.671179
O O1 0.465167 0.608001 0.079985
O O2 0.306672 0.678370 0.125340
O O3 0.669068 0.794328 0.173450
O O4 0.309831 0.836513 0.052826
O O5 0.396846 0.282209 0.964118
O O6 0.198751 0.092727 0.878682
O O7 0.008747 0.227164 0.900542
O O8 0.374723 0.096327 0.009935
O O9 0.000000 0.000000 0.500000
O O10 0.112930 0.462100 0.641192
O O11 0.000000 0.055736 0.750000
#
# Coordination Sequence:
#
# PCOD8138264 Si02
#       5
#     8   8   8   8   8
#     4   9  20  34  52  80 109 142 185 227 273 332
#     4   9  20  36  59  88 113 141 190 243 284 336
#     4   9  16  31  55  82 112 141 176 230 285 328
#     4  10  20  37  62  86 110 145 190 242 286 329
#     4  11  23  38  55  79 117 156 186 226 284 346
#
# _framework density 21.705365
#
# number of rings (size 3 to 8) (size 9 to 14) (size 15 to 20)
#    0.000    2.400    0.000    3.000    0.000    6.400 
#    0.000    0.000    0.000    0.000    0.000    0.000 
#    0.000    0.000    0.000    0.000    0.000    0.000 
#
# Total GULP energy -247801.071794 kJ/mol
# GULP energy per Si atom -12390.053590 kJ/mol
# Density = 2.165596 g / cm^3
# Si number density = 21.705365 Si / 1000 Ang^3
#
#
#
# Elastic Constant Matrix: (Units=GPa)
#
#
# Indices 1 2 3 4 5 6 
#
# 1 77.2288 13.8833 12.6849 0.0000 12.1334 0.0000
# 2 13.8833 61.1690 32.4402 0.0000 6.1570 0.0000
# 3 12.6849 32.4402 95.8277 0.0000 7.5232 0.0000
# 4 0.0000 0.0000 0.0000 25.5636 0.0000 2.7839
# 5 12.1334 6.1570 7.5232 0.0000 15.5999 0.0000
# 6 0.0000 0.0000 0.0000 2.7839 0.0000 26.7096
#
#
#
# Elastic Compliance Matrix: (Units=1/GPa)
#
#
# Indices 1 2 3 4 5 6 
#
# 1 0.015079 -0.002113 -0.000442 0.000000 -0.010681 0.000000
# 2 -0.002113 0.020572 -0.006419 0.000000 -0.003380 0.000000
# 3 -0.000442 -0.006419 0.012931 0.000000 -0.003358 0.000000
# 4 0.000000 0.000000 0.000000 0.039567 0.000000 -0.004124
# 5 -0.010681 -0.003380 -0.003358 0.000000 0.075365 0.000000
# 6 0.000000 0.000000 0.000000 -0.004124 0.000000 0.037870
#
#
# Mechanical properties :
#
#
# Convention : Reuss Voigt Hill
#
# Bulk Modulus (GPa) = 32.64390 39.13803 35.89096
# Shear Modulus (GPa) = 21.78239 25.25575 23.51907
#
# Velocity S-wave (km/s) = 3.17132 3.41482 3.29532
# Velocity P-wave (km/s) = 5.33684 5.79816 5.57228
#
# Compressibility (1/GPa) = 0.03063360
#
# Stress axis : x y z
#
# Youngs Moduli (GPa) = 66.31688 48.60916 77.33559
#
# Poissons Ratio (x) = 0.10270 0.03420
# Poissons Ratio (y) = 0.14011 0.49643
# Poissons Ratio (z) = 0.02933 0.31203
#
# Static dielectric constant tensor:
#      x y z
#    x 4.077810 0.000000 -0.071050 
#    y 0.000000 3.096660 0.000000 
#    z -0.071050 0.000000 3.621320 
# 
# 
# High freq. dielectric constant tensor:
#      x y z
#    x 1.864310 0.000000 0.015510 
#    y 0.000000 1.853940 0.000000 
#    z 0.015510 0.000000 1.801350 
# 
# From -- ./inp_files/187901.got.cif
#   From: 2010.06.25/outbox.cif.g09.slc.cpg/sg15_94_cif.got.tgz:187901.got - 2010.06.28 07:06:18.
