data_PCOD8138141
_publ_section_title
;
Structure prediction by ZEFSAII (Michael W. Deem and Ramdas Pophale) SiO2 
 PCOD8138141
Probable space group: C 2/C
;
_chemical_formula_sum "Si O2"
_cell_formula_units_Z 64
_cell_length_a 22.474861
_cell_length_b 17.722485
_cell_length_c 21.114762
_cell_angle_alpha 90.000000
_cell_angle_beta 156.377575
_cell_angle_gamma 90.000000
_cell_volume 3370.043168
_symmetry_space_group_name_H-M "C 2/C"
_symmetry_group_IT_number 15
_symmetry_cell_setting 'monoclinic'
loop_
_space_group_symop_operation_xyz
x,y,z
-x,y,1/2-z
-x,-y,-z
x,-y,1/2+z
1/2+x,1/2+y,z
1/2-x,1/2+y,1/2-z
1/2-x,1/2-y,-z
1/2+x,1/2-y,1/2+z
loop_
_atom_site_type_symbol
_atom_site_label
_atom_site_fract_x
_atom_site_fract_y
_atom_site_fract_z
Si Si1 0.668817 0.027446 0.412129
Si Si2 0.677343 0.314105 0.129370
Si Si3 0.832497 0.115478 0.741400
Si Si4 0.169892 0.175155 0.898560
Si Si5 0.680069 0.031083 0.058630
Si Si6 0.395224 0.449017 0.942050
Si Si7 0.338024 0.053394 0.723595
Si Si8 0.158691 0.159767 0.214940
O O1 0.500000 0.056537 0.250000
O O2 0.768521 0.102304 0.503776
O O3 0.710522 0.980203 0.514468
O O4 0.693277 0.968519 0.379375
O O5 0.686533 0.338191 0.212051
O O6 0.780529 0.363598 0.183986
O O7 0.731413 0.229460 0.175555
O O8 0.511860 0.317485 0.939664
O O9 0.803874 0.166924 0.651741
O O10 0.717124 0.046066 0.632024
O O11 0.000018 0.081458 0.899079
O O12 0.000000 0.184210 0.750000
O O13 0.250000 0.250000 0.000000
O O14 0.789781 0.098808 0.183318
O O15 0.510613 0.050454 0.909516
O O16 0.252334 0.494319 0.823049
O O17 0.328209 0.377051 0.841244
O O18 0.500000 0.500000 0.000000
#
# Coordination Sequence:
#
# PCOD8138141 Si02
#       8
#     8   8   8   8   8   8   8   8
#     4   9  21  39  60  85 112 149 200 241 283 350
#     4  11  23  37  55  85 116 153 183 245 297 349
#     4  10  21  39  57  82 119 151 196 239 288 350
#     4  11  23  38  58  83 118 158 197 241 294 341
#     4  10  20  37  60  85 111 152 195 242 279 353
#     4  11  19  38  60  83 117 152 192 240 286 352
#     4  11  20  36  61  85 115 150 193 236 296 344
#     4  11  22  38  57  83 121 148 195 237 298 349
#
# _framework density 18.990855
#
# number of rings (size 3 to 8) (size 9 to 14) (size 15 to 20)
#    0.000    1.500    3.750    1.875    0.000    7.000 
#    0.000    0.625    0.000    0.000    0.000    0.000 
#    0.000    0.000    0.000    0.000    0.000    0.000 
#
# Total GULP energy -396776.074935 kJ/mol
# GULP energy per Si atom -12399.252342 kJ/mol
# Density = 1.894763 g / cm^3
# Si number density = 18.990855 Si / 1000 Ang^3
#
#
#
# Elastic Constant Matrix: (Units=GPa)
#
#
# Indices 1 2 3 4 5 6 
#
# 1 79.0956 49.8769 49.7224 0.0143 -1.0984 0.0026
# 2 49.8769 124.2614 68.8761 0.0390 -0.6653 0.0186
# 3 49.7224 68.8761 134.1341 0.0087 -2.2735 0.0101
# 4 0.0143 0.0390 0.0087 44.4336 0.0063 -3.4242
# 5 -1.0984 -0.6653 -2.2735 0.0063 32.6260 0.0018
# 6 0.0026 0.0186 0.0101 -3.4242 0.0018 26.1117
#
#
#
# Elastic Compliance Matrix: (Units=1/GPa)
#
#
# Indices 1 2 3 4 5 6 
#
# 1 0.018521 -0.005074 -0.004257 0.000000 0.000223 0.000003
# 2 -0.005074 0.012640 -0.004614 -0.000009 -0.000235 -0.000008
# 3 -0.004257 -0.004614 0.011412 0.000003 0.000558 0.000000
# 4 0.000000 -0.000009 0.000003 0.022735 -0.000005 0.002981
# 5 0.000223 -0.000235 0.000558 -0.000005 0.030692 -0.000003
# 6 0.000003 -0.000008 0.000000 0.002981 -0.000003 0.038688
#
#
# Mechanical properties :
#
#
# Convention : Reuss Voigt Hill
#
# Bulk Modulus (GPa) = 68.09656 74.93798 71.51727
# Shear Modulus (GPa) = 29.85581 31.90195 30.87888
#
# Velocity S-wave (km/s) = 3.96929 4.10305 4.03673
# Velocity P-wave (km/s) = 7.54602 7.87353 7.71151
#
# Compressibility (1/GPa) = 0.01468503
#
# Stress axis : x y z
#
# Youngs Moduli (GPa) = 53.99191 79.11317 87.62933
#
# Poissons Ratio (x) = 0.40139 0.37301
# Poissons Ratio (y) = 0.27393 0.40430
# Poissons Ratio (z) = 0.22983 0.36501
#
# Static dielectric constant tensor:
#      x y z
#    x 1.353020 0.002190 -0.934730 
#    y 0.002190 3.507610 0.000780 
#    z -0.934730 0.000780 3.473880 
# 
# 
# High freq. dielectric constant tensor:
#      x y z
#    x 1.726140 0.000000 -0.005590 
#    y 0.000000 1.737930 0.000000 
#    z -0.005590 0.000000 1.758470 
# 
# From -- ./inp_files/282252.got.cif
#   From: 2010.06.25/outbox.cif.g09.slc.cpg/sg15_142_cif.got.tgz:282252.got - 2010.06.28 07:06:18.
