data_PCOD8138859
_publ_section_title
;
Structure prediction by ZEFSAII (Michael W. Deem and Ramdas Pophale) SiO2 
 PCOD8138859
Probable space group: C 2/C
;
_chemical_formula_sum "Si O2"
_cell_formula_units_Z 56
_cell_length_a 8.975012
_cell_length_b 16.592825
_cell_length_c 26.265616
_cell_angle_alpha 90.000000
_cell_angle_beta 132.907545
_cell_angle_gamma 90.000000
_cell_volume 2864.988432
_symmetry_space_group_name_H-M "C 2/C"
_symmetry_group_IT_number 15
_symmetry_cell_setting 'monoclinic'
loop_
_space_group_symop_operation_xyz
x,y,z
-x,y,1/2-z
-x,-y,-z
x,-y,1/2+z
1/2+x,1/2+y,z
1/2-x,1/2+y,1/2-z
1/2-x,1/2-y,-z
1/2+x,1/2-y,1/2+z
loop_
_atom_site_type_symbol
_atom_site_label
_atom_site_fract_x
_atom_site_fract_y
_atom_site_fract_z
Si Si1 0.240435 0.126196 0.409503
Si Si2 0.669314 0.682916 0.682775
Si Si3 0.647090 0.446513 0.392365
Si Si4 0.468193 0.216426 0.663149
Si Si5 0.890313 0.694221 0.067390
Si Si6 0.700909 0.537537 0.023540
Si Si7 0.948158 0.609425 0.561815
O O1 0.068224 0.188563 0.351979
O O2 0.448492 0.145867 0.429255
O O3 0.283371 0.130290 0.479887
O O4 0.153600 0.038363 0.374191
O O5 0.565660 0.596826 0.671113
O O6 0.804347 0.676513 0.663107
O O7 0.497575 0.751565 0.635360
O O8 0.805242 0.705435 0.762921
O O9 0.670227 0.441354 0.457764
O O10 0.827935 0.396341 0.408975
O O11 0.442358 0.178633 0.602029
O O12 0.756055 0.623452 0.063104
O O13 0.750000 0.750000 0.000000
O O14 0.885594 0.474922 0.073481
O O15 0.500000 0.500000 0.000000
#
# Coordination Sequence:
#
# PCOD8138859 Si02
#       7
#     8   8   8   8   8   8   8
#     4  10  20  38  62  88 122 150 200 248 300 351
#     4  10  22  41  61  80 125 158 203 240 302 364
#     4  11  20  40  60  87 124 154 189 259 297 355
#     4  10  23  40  60  88 114 164 200 243 299 368
#     4  11  19  37  63  87 117 159 196 248 297 356
#     4  11  21  35  59  95 118 150 199 244 304 356
#     4  11  20  37  62  90 120 151 200 251 300 354
#
# _framework density 19.546326000000001
#
# number of rings (size 3 to 8) (size 9 to 14) (size 15 to 20)
#    0.000    1.429    4.286    2.143    2.000    0.571 
#    7.714    1.429    0.000    0.000    0.000    0.000 
#    0.000    0.000    0.000    0.000    0.000    0.000 
#
# Total GULP energy -347194.607996 kJ/mol
# GULP energy per Si atom -12399.807428 kJ/mol
# Density = 1.950184 g / cm^3
# Si number density = 19.546326 Si / 1000 Ang^3
#
#
#
# Elastic Constant Matrix: (Units=GPa)
#
#
# Indices 1 2 3 4 5 6 
#
# 1 80.9401 52.3529 28.8113 0.0000 11.6124 0.0000
# 2 52.3529 147.9975 55.1247 0.0000 22.9393 0.0000
# 3 28.8113 55.1247 87.0672 -0.0001 21.7075 0.0000
# 4 0.0000 0.0000 -0.0001 28.3184 -0.0001 10.6792
# 5 11.6124 22.9393 21.7075 -0.0001 29.7052 0.0000
# 6 0.0000 0.0000 0.0000 10.6792 0.0000 40.3122
#
#
#
# Elastic Compliance Matrix: (Units=1/GPa)
#
#
# Indices 1 2 3 4 5 6 
#
# 1 0.016393 -0.004851 -0.002066 0.000000 -0.001153 0.000000
# 2 -0.004851 0.010558 -0.004304 0.000000 -0.003112 0.000000
# 3 -0.002066 -0.004304 0.016952 0.000000 -0.008257 0.000000
# 4 0.000000 0.000000 0.000000 0.039232 0.000000 -0.010393
# 5 -0.001153 -0.003112 -0.008257 0.000000 0.042552 0.000000
# 6 0.000000 0.000000 0.000000 -0.010393 0.000000 0.027560
#
#
# Mechanical properties :
#
#
# Convention : Reuss Voigt Hill
#
# Bulk Modulus (GPa) = 46.59199 65.39807 55.99503
# Shear Modulus (GPa) = 27.34593 31.64823 29.49708
#
# Velocity S-wave (km/s) = 3.74442 4.02822 3.88891
# Velocity P-wave (km/s) = 6.52554 7.42738 6.99102
#
# Compressibility (1/GPa) = 0.02146292
#
# Stress axis : x y z
#
# Youngs Moduli (GPa) = 61.00110 94.71402 58.98843
#
# Poissons Ratio (x) = 0.45943 0.12188
# Poissons Ratio (y) = 0.29590 0.25386
# Poissons Ratio (z) = 0.12604 0.40761
#
# Static dielectric constant tensor:
#      x y z
#    x 3.737050 0.000000 0.122470 
#    y 0.000000 3.940380 0.000000 
#    z 0.122470 0.000000 3.388140 
# 
# 
# High freq. dielectric constant tensor:
#      x y z
#    x 1.758690 0.000000 0.011990 
#    y 0.000000 1.776940 0.000000 
#    z 0.011990 0.000000 1.736010 
# 
# From -- ./inp_files/265602.got.cif
#   From: 2010.06.25/outbox.cif.g09.slc.cpg/sg15_133_cif.got.tgz:265602.got - 2010.06.28 07:06:18.
