data_PCOD8138062
_publ_section_title
;
Structure prediction by ZEFSAII (Michael W. Deem and Ramdas Pophale) SiO2 
 PCOD8138062
Probable space group: C 2/C
;
_chemical_formula_sum "Si O2"
_cell_formula_units_Z 56
_cell_length_a 10.993600
_cell_length_b 16.129003
_cell_length_c 16.229326
_cell_angle_alpha 90.000000
_cell_angle_beta 108.458676
_cell_angle_gamma 90.000000
_cell_volume 2729.664060
_symmetry_space_group_name_H-M "C 2/C"
_symmetry_group_IT_number 15
_symmetry_cell_setting 'monoclinic'
loop_
_space_group_symop_operation_xyz
x,y,z
-x,y,1/2-z
-x,-y,-z
x,-y,1/2+z
1/2+x,1/2+y,z
1/2-x,1/2+y,1/2-z
1/2-x,1/2-y,-z
1/2+x,1/2-y,1/2+z
loop_
_atom_site_type_symbol
_atom_site_label
_atom_site_fract_x
_atom_site_fract_y
_atom_site_fract_z
Si Si1 0.869708 0.317603 0.255838
Si Si2 0.929054 0.957503 0.816590
Si Si3 0.023249 0.576350 0.388909
Si Si4 0.272604 0.839824 0.804985
Si Si5 0.805900 0.942990 0.564444
Si Si6 0.627163 0.919209 0.083012
Si Si7 0.783040 0.464181 0.134503
O O1 0.748109 0.258246 0.210707
O O2 0.860448 0.342807 0.350447
O O3 0.870277 0.398636 0.199300
O O4 0.000000 0.272193 0.250000
O O5 0.833476 0.881711 0.776935
O O6 0.000000 0.990480 0.750000
O O7 0.040051 0.933884 0.905312
O O8 0.845527 0.029522 0.839090
O O9 0.071900 0.617835 0.485038
O O10 0.143665 0.553715 0.355194
O O11 0.920932 0.634302 0.318590
O O12 0.969332 0.485385 0.398603
O O13 0.251294 0.867949 0.894428
O O14 0.750462 0.930456 0.462498
O O15 0.761345 0.031828 0.594339
#
# Coordination Sequence:
#
# PCOD8138062 Si02
#       7
#     8   8   8   8   8   8   8
#     4  12  22  33  54  97 121 154 201 261 301 369
#     4  10  20  37  58  83 117 160 195 250 307 373
#     4   9  18  38  58  86 114 164 200 253 292 368
#     4  10  22  36  55  82 131 158 188 246 340 348
#     4   9  19  38  59  85 113 162 203 257 301 364
#     4   9  18  35  61  82 118 156 210 248 298 345
#     4  11  21  34  66  89 111 155 224 251 290 359
#
# _framework density 20.515343999999999
#
# number of rings (size 3 to 8) (size 9 to 14) (size 15 to 20)
#    0.000    2.000    1.429    5.143    0.000    0.571 
#    2.571    0.000    9.429    1.714    0.000    0.000 
#    0.000    0.000    0.000    0.000    0.000    0.000 
#
# Total GULP energy -346995.616214 kJ/mol
# GULP energy per Si atom -12392.700579 kJ/mol
# Density = 2.046865 g / cm^3
# Si number density = 20.515344 Si / 1000 Ang^3
#
#
#
# Elastic Constant Matrix: (Units=GPa)
#
#
# Indices 1 2 3 4 5 6 
#
# 1 95.9081 25.0311 48.7653 0.0000 9.6153 0.0000
# 2 25.0311 62.4846 43.6344 0.0000 0.1825 0.0000
# 3 48.7653 43.6344 103.1814 0.0000 21.7859 0.0000
# 4 0.0000 0.0000 0.0000 16.8116 0.0000 10.6073
# 5 9.6153 0.1825 21.7859 0.0000 27.9147 0.0000
# 6 0.0000 0.0000 0.0000 10.6073 0.0000 23.3682
#
#
#
# Elastic Compliance Matrix: (Units=1/GPa)
#
#
# Indices 1 2 3 4 5 6 
#
# 1 0.013809 -0.001412 -0.005899 0.000000 -0.000144 0.000000
# 2 -0.001412 0.024815 -0.011847 0.000000 0.009570 0.000000
# 3 -0.005899 -0.011847 0.020407 0.000000 -0.013817 0.000000
# 4 0.000000 0.000000 0.000000 0.083356 0.000000 -0.037837
# 5 -0.000144 0.009570 -0.013817 0.000000 0.046594 0.000000
# 6 0.000000 0.000000 0.000000 -0.037837 0.000000 0.059969
#
#
# Mechanical properties :
#
#
# Convention : Reuss Voigt Hill
#
# Bulk Modulus (GPa) = 48.27556 55.15952 51.71754
# Shear Modulus (GPa) = 16.99692 23.22844 20.11268
#
# Velocity S-wave (km/s) = 2.88149 3.36854 3.13449
# Velocity P-wave (km/s) = 5.88669 6.48650 6.19386
#
# Compressibility (1/GPa) = 0.02071442
#
# Stress axis : x y z
#
# Youngs Moduli (GPa) = 72.41704 40.29847 49.00260
#
# Poissons Ratio (x) = 0.05690 0.28906
# Poissons Ratio (y) = 0.10226 0.58055
# Poissons Ratio (z) = 0.42718 0.47743
#
# Static dielectric constant tensor:
#      x y z
#    x 4.015580 0.000000 0.140740 
#    y 0.000000 3.156260 0.000000 
#    z 0.140740 0.000000 3.894290 
# 
# 
# High freq. dielectric constant tensor:
#      x y z
#    x 1.810010 0.000000 0.007830 
#    y 0.000000 1.741460 0.000000 
#    z 0.007830 0.000000 1.815650 
# 
# From -- ./inp_files/197935.got.cif
#   From: 2010.06.25/outbox.cif.g09.slc.cpg/sg15_99_cif.got.tgz:197935.got - 2010.06.28 07:06:18.
