data_PCOD8138456
_publ_section_title
;
Structure prediction by ZEFSAII (Michael W. Deem and Ramdas Pophale) SiO2 
 PCOD8138456
Probable space group: C 2/C
;
_chemical_formula_sum "Si O2"
_cell_formula_units_Z 52
_cell_length_a 12.972401
_cell_length_b 29.520234
_cell_length_c 7.930342
_cell_angle_alpha 90.000000
_cell_angle_beta 127.281540
_cell_angle_gamma 90.000000
_cell_volume 2416.375044
_symmetry_space_group_name_H-M "C 2/C"
_symmetry_group_IT_number 15
_symmetry_cell_setting 'monoclinic'
loop_
_space_group_symop_operation_xyz
x,y,z
-x,y,1/2-z
-x,-y,-z
x,-y,1/2+z
1/2+x,1/2+y,z
1/2-x,1/2+y,1/2-z
1/2-x,1/2-y,-z
1/2+x,1/2-y,1/2+z
loop_
_atom_site_type_symbol
_atom_site_label
_atom_site_fract_x
_atom_site_fract_y
_atom_site_fract_z
Si Si1 0.000000 0.056594 0.750000
Si Si2 0.081351 0.889595 0.658953
Si Si3 0.219159 0.531898 0.513466
Si Si4 0.871831 0.695704 0.735211
Si Si5 0.841983 0.438047 0.913413
Si Si6 0.932475 0.389368 0.502232
Si Si7 0.874934 0.205586 0.237025
O O1 0.980325 0.085960 0.562737
O O2 0.875221 0.025097 0.663508
O O3 0.218514 0.910010 0.849273
O O4 0.098847 0.837284 0.614840
O O5 0.000000 0.893110 0.750000
O O6 0.148031 0.484473 0.473375
O O7 0.165251 0.548203 0.285895
O O8 0.179223 0.571880 0.603379
O O9 0.856399 0.745616 0.809814
O O10 0.747858 0.690162 0.494272
O O11 0.000000 0.691499 0.750000
O O12 0.869728 0.657788 0.879283
O O13 0.969203 0.406424 0.047838
O O14 0.000000 0.380752 0.750000
O O15 0.000000 0.213486 0.250000
#
# Coordination Sequence:
#
# PCOD8138456 Si02
#       7
#     4   8   8   8   8   8   8
#     4  10  24  40  58  92 126 164 212 262 312 380
#     4  10  22  38  62  87 127 163 211 261 318 380
#     4  10  23  37  60  85 125 162 206 262 312 374
#     4  10  20  37  65  89 123 165 209 259 315 379
#     4  10  22  38  58  88 122 160 211 258 307 381
#     4  10  22  40  59  90 129 162 208 260 316 375
#     4   9  20  37  60  93 123 159 212 263 310 379
#
# _framework density 21.519838
#
# number of rings (size 3 to 8) (size 9 to 14) (size 15 to 20)
#    0.000    2.154    0.000    1.385    7.538    2.462 
#    1.385    0.000    0.000    5.538    0.000    0.000 
#    0.000    0.000    0.000    0.000    0.000    0.000 
#
# Total GULP energy -322152.499829 kJ/mol
# GULP energy per Si atom -12390.480763 kJ/mol
# Density = 2.147086 g / cm^3
# Si number density = 21.519838 Si / 1000 Ang^3
#
#
#
# Elastic Constant Matrix: (Units=GPa)
#
#
# Indices 1 2 3 4 5 6 
#
# 1 98.2726 42.2327 36.4280 0.0000 8.8205 0.0000
# 2 42.2327 150.1582 14.3138 0.0000 -5.5271 0.0000
# 3 36.4280 14.3138 37.0045 0.0000 13.2373 0.0000
# 4 0.0000 0.0000 0.0000 33.4319 0.0000 1.3655
# 5 8.8205 -5.5271 13.2373 0.0000 25.2580 0.0000
# 6 0.0000 0.0000 0.0000 1.3655 0.0000 30.0473
#
#
#
# Elastic Compliance Matrix: (Units=1/GPa)
#
#
# Indices 1 2 3 4 5 6 
#
# 1 0.017635 -0.003291 -0.016771 0.000000 0.001911 0.000000
# 2 -0.003291 0.007803 -0.000985 0.000000 0.003373 0.000000
# 3 -0.016771 -0.000985 0.051564 0.000000 -0.021383 0.000000
# 4 0.000000 0.000000 0.000000 0.029967 0.000000 -0.001362
# 5 0.001911 0.003373 -0.021383 0.000000 0.050869 0.000000
# 6 0.000000 0.000000 0.000000 -0.001362 0.000000 0.033343
#
#
# Mechanical properties :
#
#
# Convention : Reuss Voigt Hill
#
# Bulk Modulus (GPa) = 28.64718 52.37604 40.51161
# Shear Modulus (GPa) = 20.41549 30.57816 25.49682
#
# Velocity S-wave (km/s) = 3.08341 3.77361 3.44583
# Velocity P-wave (km/s) = 5.10073 6.58621 5.89048
#
# Compressibility (1/GPa) = 0.03490745
#
# Stress axis : x y z
#
# Youngs Moduli (GPa) = 56.70424 128.15004 19.39342
#
# Poissons Ratio (x) = 0.42174 0.32525
# Poissons Ratio (y) = 0.18661 0.01911
# Poissons Ratio (z) = 0.95100 0.12628
#
# Static dielectric constant tensor:
#      x y z
#    x 4.161350 0.000000 0.297840 
#    y 0.000000 0.364660 0.000000 
#    z 0.297840 0.000000 3.657680 
# 
# 
# High freq. dielectric constant tensor:
#      x y z
#    x 1.846120 0.000000 0.023320 
#    y 0.000000 1.865040 0.000000 
#    z 0.023320 0.000000 1.827040 
# 
# From -- ./inp_files/43639.got.cif
#   From: 2010.06.25/outbox.cif.g09.slc.cpg/sg15_22_cif.got.tgz:43639.got - 2010.06.28 07:06:18.
