data_PCOD8138078
_publ_section_title
;
Structure prediction by ZEFSAII (Michael W. Deem and Ramdas Pophale) SiO2 
 PCOD8138078
Probable space group: C 2/C
;
_chemical_formula_sum "Si O2"
_cell_formula_units_Z 44
_cell_length_a 6.504550
_cell_length_b 23.552083
_cell_length_c 16.373271
_cell_angle_alpha 90.000000
_cell_angle_beta 63.971135
_cell_angle_gamma 90.000000
_cell_volume 2253.904112
_symmetry_space_group_name_H-M "C 2/C"
_symmetry_group_IT_number 15
_symmetry_cell_setting 'monoclinic'
loop_
_space_group_symop_operation_xyz
x,y,z
-x,y,1/2-z
-x,-y,-z
x,-y,1/2+z
1/2+x,1/2+y,z
1/2-x,1/2+y,1/2-z
1/2-x,1/2-y,-z
1/2+x,1/2-y,1/2+z
loop_
_atom_site_type_symbol
_atom_site_label
_atom_site_fract_x
_atom_site_fract_y
_atom_site_fract_z
Si Si1 0.372565 0.280319 0.859685
Si Si2 0.500000 0.942803 0.750000
Si Si3 0.542595 0.287911 0.006233
Si Si4 0.965686 0.981416 0.626184
Si Si5 0.159882 0.916105 0.015823
Si Si6 0.855675 0.400912 0.611799
O O1 0.500000 0.271595 0.750000
O O2 0.237596 0.338897 0.886757
O O3 0.191799 0.230494 0.908378
O O4 0.544313 0.281958 0.907061
O O5 0.482677 0.900449 0.676900
O O6 0.722315 0.982986 0.713715
O O7 0.750000 0.250000 0.000000
O O8 0.569433 0.352431 0.030011
O O9 0.154120 0.946512 0.643838
O O10 0.925892 0.949052 0.548796
O O11 0.048776 0.046651 0.607547
O O12 0.434329 0.916233 0.985365
#
# Coordination Sequence:
#
# PCOD8138078 Si02
#       6
#     8   4   8   8   8   8
#     4  11  24  39  66  94 124 163 206 267 312 364
#     4  10  22  34  58  94 118 160 200 262 306 370
#     4  11  23  43  63  93 127 161 212 254 313 376
#     4  10  20  37  58  88 122 152 200 248 315 365
#     4  10  21  37  61  87 116 163 199 251 308 374
#     4  11  20  36  62  91 121 153 210 261 307 358
#
# _framework density 19.521682999999999
#
# number of rings (size 3 to 8) (size 9 to 14) (size 15 to 20)
#    0.000    1.455    3.636    2.182    2.545    0.727 
#    1.636    0.000    4.000    0.000    0.000    0.000 
#    0.000    0.000    0.000    0.000    0.000    0.000 
#
# Total GULP energy -272642.550990 kJ/mol
# GULP energy per Si atom -12392.843227 kJ/mol
# Density = 1.947725 g / cm^3
# Si number density = 19.521683 Si / 1000 Ang^3
#
#
#
# Elastic Constant Matrix: (Units=GPa)
#
#
# Indices 1 2 3 4 5 6 
#
# 1 124.2409 53.8632 49.0294 0.0000 -17.8142 0.0000
# 2 53.8632 147.7578 45.9361 0.0000 -18.0246 0.0000
# 3 49.0294 45.9361 79.8956 0.0000 -7.8479 0.0000
# 4 0.0000 0.0000 0.0000 13.6942 0.0000 -11.0658
# 5 -17.8142 -18.0246 -7.8479 0.0000 28.7555 0.0000
# 6 0.0000 0.0000 0.0000 -11.0658 0.0000 24.7655
#
#
#
# Elastic Compliance Matrix: (Units=1/GPa)
#
#
# Indices 1 2 3 4 5 6 
#
# 1 0.011787 -0.001991 -0.005645 0.000000 0.004513 0.000000
# 2 -0.001991 0.009046 -0.003641 0.000000 0.003443 0.000000
# 3 -0.005645 -0.003641 0.017988 0.000000 -0.000870 0.000000
# 4 0.000000 0.000000 0.000000 0.114289 0.000000 0.051067
# 5 0.004513 0.003443 -0.000870 0.000000 0.039493 0.000000
# 6 0.000000 0.000000 0.000000 0.051067 0.000000 0.063197
#
#
# Mechanical properties :
#
#
# Convention : Reuss Voigt Hill
#
# Bulk Modulus (GPa) = 61.47453 72.17240 66.82347
# Shear Modulus (GPa) = 17.61955 26.98075 22.30015
#
# Velocity S-wave (km/s) = 3.00753 3.72168 3.38350
# Velocity P-wave (km/s) = 6.60447 7.45108 7.04051
#
# Compressibility (1/GPa) = 0.01626690
#
# Stress axis : x y z
#
# Youngs Moduli (GPa) = 84.83883 110.55217 55.59164
#
# Poissons Ratio (x) = 0.22014 0.31382
# Poissons Ratio (y) = 0.16893 0.20239
# Poissons Ratio (z) = 0.47893 0.40248
#
# Static dielectric constant tensor:
#      x y z
#    x 3.893800 0.000000 -0.147470 
#    y 0.000000 3.714130 0.000000 
#    z -0.147470 0.000000 3.717060 
# 
# 
# High freq. dielectric constant tensor:
#      x y z
#    x 1.781280 0.000000 -0.009860 
#    y 0.000000 1.754920 0.000000 
#    z -0.009860 0.000000 1.745530 
# 
# From -- ./inp_files/129336.got.cif
#   From: 2010.06.25/outbox.cif.g09.slc.cpg/sg15_65_cif.got.tgz:129336.got - 2010.06.28 07:06:18.
