data_PCOD8138956
_publ_section_title
;
Structure prediction by ZEFSAII (Michael W. Deem and Ramdas Pophale) SiO2 
 PCOD8138956
Probable space group: C 2/C
;
_chemical_formula_sum "Si O2"
_cell_formula_units_Z 44
_cell_length_a 15.929161
_cell_length_b 11.273593
_cell_length_c 15.061183
_cell_angle_alpha 90.000000
_cell_angle_beta 48.682801
_cell_angle_gamma 90.000000
_cell_volume 2031.385885
_symmetry_space_group_name_H-M "C 2/C"
_symmetry_group_IT_number 15
_symmetry_cell_setting 'monoclinic'
loop_
_space_group_symop_operation_xyz
x,y,z
-x,y,1/2-z
-x,-y,-z
x,-y,1/2+z
1/2+x,1/2+y,z
1/2-x,1/2+y,1/2-z
1/2-x,1/2-y,-z
1/2+x,1/2-y,1/2+z
loop_
_atom_site_type_symbol
_atom_site_label
_atom_site_fract_x
_atom_site_fract_y
_atom_site_fract_z
Si Si1 0.827757 0.095515 0.423718
Si Si2 0.281872 0.197303 0.837804
Si Si3 0.857102 0.555300 0.524473
Si Si4 0.104563 0.526146 0.306161
Si Si5 0.808607 0.231949 0.791929
Si Si6 0.000000 0.085164 0.750000
O O1 0.815584 0.166761 0.523598
O O2 0.846720 0.185197 0.326802
O O3 0.711958 0.026615 0.492680
O O4 0.927359 0.001483 0.363085
O O5 0.212181 0.212916 0.797222
O O6 0.376390 0.096036 0.759723
O O7 0.859090 0.488671 0.617369
O O8 0.797790 0.684513 0.577275
O O9 0.976678 0.570253 0.394866
O O10 0.176653 0.627080 0.205028
O O11 0.921013 0.163272 0.742055
#
# Coordination Sequence:
#
# PCOD8138956 Si02
#       6
#     8   8   8   8   8   4
#     4  10  21  41  58  92 122 163 206 264 304 380
#     4  10  22  37  64  87 126 160 212 258 314 365
#     4   9  20  38  61  86 125 159 211 253 310 368
#     4  10  20  38  63  90 118 170 205 254 311 375
#     4  10  21  41  60  91 124 165 204 266 304 377
#     4  10  24  40  62  86 130 162 208 252 322 366
#
# _framework density 21.66009
#
# number of rings (size 3 to 8) (size 9 to 14) (size 15 to 20)
#    0.000    2.182    1.818    0.000    0.000    7.273 
#    3.273    3.636    0.000    0.000    0.000    0.000 
#    0.000    0.000    0.000    0.000    0.000    0.000 
#
# Total GULP energy -272750.806166 kJ/mol
# GULP energy per Si atom -12397.763917 kJ/mol
# Density = 2.161079 g / cm^3
# Si number density = 21.660090 Si / 1000 Ang^3
#
#
#
# Elastic Constant Matrix: (Units=GPa)
#
#
# Indices 1 2 3 4 5 6 
#
# 1 76.9073 25.0051 24.7168 0.0000 -7.1560 0.0000
# 2 25.0051 114.3395 28.9815 0.0000 -10.5728 0.0000
# 3 24.7168 28.9815 65.5400 0.0000 -11.3717 0.0000
# 4 0.0000 0.0000 0.0000 30.7376 0.0000 -2.9606
# 5 -7.1560 -10.5728 -11.3717 0.0000 32.9121 0.0000
# 6 0.0000 0.0000 0.0000 -2.9606 0.0000 18.3518
#
#
#
# Elastic Compliance Matrix: (Units=1/GPa)
#
#
# Indices 1 2 3 4 5 6 
#
# 1 0.015269 -0.002060 -0.004666 0.000000 0.001046 0.000000
# 2 -0.002060 0.010225 -0.003460 0.000000 0.001641 0.000000
# 3 -0.004666 -0.003460 0.019338 0.000000 0.004556 0.000000
# 4 0.000000 0.000000 0.000000 0.033047 0.000000 0.005331
# 5 0.001046 0.001641 0.004556 0.000000 0.032713 0.000000
# 6 0.000000 0.000000 0.000000 0.005331 0.000000 0.055351
#
#
# Mechanical properties :
#
#
# Convention : Reuss Voigt Hill
#
# Bulk Modulus (GPa) = 40.88185 46.02152 43.45169
# Shear Modulus (GPa) = 25.71118 28.27253 26.99185
#
# Velocity S-wave (km/s) = 3.44907 3.61679 3.53392
# Velocity P-wave (km/s) = 5.89718 6.22373 6.06265
#
# Compressibility (1/GPa) = 0.02446073
#
# Stress axis : x y z
#
# Youngs Moduli (GPa) = 65.49076 97.79852 51.71184
#
# Poissons Ratio (x) = 0.20145 0.24129
# Poissons Ratio (y) = 0.13490 0.17892
# Poissons Ratio (z) = 0.30559 0.33837
#
# Static dielectric constant tensor:
#      x y z
#    x 3.883460 0.000000 -0.031340 
#    y 0.000000 4.119020 0.000000 
#    z -0.031340 0.000000 3.674310 
# 
# 
# High freq. dielectric constant tensor:
#      x y z
#    x 1.849490 0.000000 0.003150 
#    y 0.000000 1.861530 0.000000 
#    z 0.003150 0.000000 1.836510 
# 
# From -- ./inp_files/210515.got.cif
#   From: 2010.06.25/outbox.cif.g09.slc.cpg/sg15_106_cif.got.tgz:210515.got - 2010.06.28 07:06:18.
