data_PCOD8138014
_publ_section_title
;
Structure prediction by ZEFSAII (Michael W. Deem and Ramdas Pophale) SiO2 
 PCOD8138014
Probable space group: C 2/C
;
_chemical_formula_sum "Si O2"
_cell_formula_units_Z 52
_cell_length_a 14.147205
_cell_length_b 29.437782
_cell_length_c 5.457475
_cell_angle_alpha 90.000000
_cell_angle_beta 73.358060
_cell_angle_gamma 90.000000
_cell_volume 2177.631090
_symmetry_space_group_name_H-M "C 2/C"
_symmetry_group_IT_number 15
_symmetry_cell_setting 'monoclinic'
loop_
_space_group_symop_operation_xyz
x,y,z
-x,y,1/2-z
-x,-y,-z
x,-y,1/2+z
1/2+x,1/2+y,z
1/2-x,1/2+y,1/2-z
1/2-x,1/2-y,-z
1/2+x,1/2-y,1/2+z
loop_
_atom_site_type_symbol
_atom_site_label
_atom_site_fract_x
_atom_site_fract_y
_atom_site_fract_z
Si Si1 0.650575 0.281906 0.310823
Si Si2 0.500000 0.588991 0.250000
Si Si3 0.500000 0.757843 0.250000
Si Si4 0.789841 0.601520 0.515277
Si Si5 0.383624 0.990731 0.956565
Si Si6 0.644253 0.801869 0.475832
Si Si7 0.786591 0.932986 0.933775
Si Si8 0.000000 0.147813 0.750000
O O1 0.587906 0.275895 0.604754
O O2 0.762563 0.297121 0.281193
O O3 0.597147 0.319426 0.178115
O O4 0.656968 0.231975 0.190429
O O5 0.596189 0.556080 0.161925
O O6 0.505642 0.619114 0.494849
O O7 0.539592 0.791188 0.430317
O O8 0.866720 0.561823 0.498681
O O9 0.854886 0.646540 0.434850
O O10 0.731654 0.594768 0.304049
O O11 0.725240 0.599387 0.815416
O O12 0.443385 0.004804 0.157060
O O13 0.281595 0.021267 0.006322
#
# Coordination Sequence:
#
# PCOD8138014 Si02
#       8
#     8   4   4   8   8   8   8   4
#     4  11  24  42  61  89 125 174 212 269 326 386
#     4  12  23  34  58  87 122 170 210 257 308 381
#     4  12  23  44  62  92 125 165 216 276 324 381
#     4  10  21  38  59  87 117 157 208 257 307 378
#     4   8  16  33  56  79 117 153 195 251 309 373
#     4  11  24  40  64  90 124 168 221 265 328 381
#     4  10  20  37  56  90 123 161 207 258 315 380
#     4  12  24  42  60  89 133 169 216 263 316 378
#
# _framework density 23.879161
#
# number of rings (size 3 to 8) (size 9 to 14) (size 15 to 20)
#    0.000    1.538    1.538    3.692    2.154    0.000 
#    0.000    6.923    0.000    0.000    0.000    9.692 
#    0.000    0.000    0.000    0.000    0.000    0.000 
#
# Total GULP energy -322096.689245 kJ/mol
# GULP energy per Si atom -12388.334202 kJ/mol
# Density = 2.382481 g / cm^3
# Si number density = 23.879161 Si / 1000 Ang^3
#
#
#
# Elastic Constant Matrix: (Units=GPa)
#
#
# Indices 1 2 3 4 5 6 
#
# 1 77.2474 19.3773 22.4278 0.0000 -6.7841 0.0000
# 2 19.3773 111.4175 21.9831 0.0000 -4.3628 0.0000
# 3 22.4278 21.9831 148.0480 0.0000 10.8938 0.0000
# 4 0.0000 0.0000 0.0000 16.9862 0.0000 -3.0371
# 5 -6.7841 -4.3628 10.8938 0.0000 40.7548 0.0000
# 6 0.0000 0.0000 0.0000 -3.0371 0.0000 21.0675
#
#
#
# Elastic Compliance Matrix: (Units=1/GPa)
#
#
# Indices 1 2 3 4 5 6 
#
# 1 0.014279 -0.001968 -0.002071 0.000000 0.002720 0.000000
# 2 -0.001968 0.009595 -0.001202 0.000000 0.001021 0.000000
# 3 -0.002071 -0.001202 0.007428 0.000000 -0.002459 0.000000
# 4 0.000000 0.000000 0.000000 0.060429 0.000000 0.008712
# 5 0.002720 0.001021 -0.002459 0.000000 0.025756 0.000000
# 6 0.000000 0.000000 0.000000 0.008712 0.000000 0.048722
#
#
# Mechanical properties :
#
#
# Convention : Reuss Voigt Hill
#
# Bulk Modulus (GPa) = 48.03130 51.58767 49.80949
# Shear Modulus (GPa) = 27.22855 33.95669 30.59262
#
# Velocity S-wave (km/s) = 3.38044 3.77506 3.58319
# Velocity P-wave (km/s) = 5.94933 6.37589 6.16630
#
# Compressibility (1/GPa) = 0.02081976
#
# Stress axis : x y z
#
# Youngs Moduli (GPa) = 70.03136 104.22522 134.63200
#
# Poissons Ratio (x) = 0.20514 0.27883
# Poissons Ratio (y) = 0.13784 0.16177
# Poissons Ratio (z) = 0.14504 0.12524
#
# Static dielectric constant tensor:
#      x y z
#    x 4.437820 0.000000 -0.069720 
#    y 0.000000 4.155190 0.000000 
#    z -0.069720 0.000000 5.091230 
# 
# 
# High freq. dielectric constant tensor:
#      x y z
#    x 1.956750 0.000000 -0.003860 
#    y 0.000000 1.932860 0.000000 
#    z -0.003860 0.000000 1.969790 
# 
# From -- ./inp_files/9028.got.cif
#   From: 2010.06.25/outbox.cif.g09.slc.cpg/sg15_5_cif.got.tgz:9028.got - 2010.06.28 07:06:18.
