data_PCOD8138128
_publ_section_title
;
Structure prediction by ZEFSAII (Michael W. Deem and Ramdas Pophale) SiO2 
 PCOD8138128
Probable space group: C 2/C
;
_chemical_formula_sum "Si O2"
_cell_formula_units_Z 56
_cell_length_a 16.267155
_cell_length_b 8.345450
_cell_length_c 21.555058
_cell_angle_alpha 90.000000
_cell_angle_beta 58.506581
_cell_angle_gamma 90.000000
_cell_volume 2495.208902
_symmetry_space_group_name_H-M "C 2/C"
_symmetry_group_IT_number 15
_symmetry_cell_setting 'monoclinic'
loop_
_space_group_symop_operation_xyz
x,y,z
-x,y,1/2-z
-x,-y,-z
x,-y,1/2+z
1/2+x,1/2+y,z
1/2-x,1/2+y,1/2-z
1/2-x,1/2-y,-z
1/2+x,1/2-y,1/2+z
loop_
_atom_site_type_symbol
_atom_site_label
_atom_site_fract_x
_atom_site_fract_y
_atom_site_fract_z
Si Si1 0.631269 0.128732 0.104535
Si Si2 0.273187 0.579178 0.376541
Si Si3 0.048464 0.291039 0.164850
Si Si4 0.405197 0.340679 0.267195
Si Si5 0.316260 0.138498 0.205650
Si Si6 0.827437 0.710259 0.538648
Si Si7 0.132368 0.720668 0.838206
O O1 0.583420 0.209753 0.182646
O O2 0.747539 0.149489 0.065471
O O3 0.595324 0.948077 0.116760
O O4 0.603134 0.214251 0.049361
O O5 0.361914 0.670057 0.370738
O O6 0.309775 0.447009 0.310757
O O7 0.204202 0.686935 0.358866
O O8 0.218853 0.471446 0.448560
O O9 0.000000 0.324515 0.250000
O O10 0.966921 0.214617 0.152432
O O11 0.500000 0.446913 0.250000
O O12 0.399916 0.252534 0.202178
O O13 0.219632 0.161893 0.284996
O O14 0.353162 0.956772 0.196005
O O15 0.883975 0.723647 0.581152
#
# Coordination Sequence:
#
# PCOD8138128 Si02
#       7
#     8   8   8   8   8   8   8
#     4  10  20  37  60  80 113 152 203 229 276 349
#     4  10  22  37  57  84 119 148 186 238 294 337
#     4  12  23  34  57  92 116 143 189 252 286 323
#     4  11  21  36  58  87 114 150 188 240 291 338
#     4  11  19  37  54  84 115 152 184 231 289 346
#     4   9  21  41  59  78 110 165 192 228 281 350
#     4  11  22  35  59  84 117 149 190 236 284 341
#
# _framework density 22.443012
#
# number of rings (size 3 to 8) (size 9 to 14) (size 15 to 20)
#    0.000    1.429    5.714    2.571    0.000    1.143 
#    0.000    0.000    0.000    9.429    0.000    0.000 
#    0.000    0.000    0.000    0.000    0.000    0.000 
#
# Total GULP energy -346873.773884 kJ/mol
# GULP energy per Si atom -12388.349067 kJ/mol
# Density = 2.239193 g / cm^3
# Si number density = 22.443012 Si / 1000 Ang^3
#
#
#
# Elastic Constant Matrix: (Units=GPa)
#
#
# Indices 1 2 3 4 5 6 
#
# 1 133.0145 6.6254 24.7692 0.0001 29.1625 0.0004
# 2 6.6254 18.3472 0.7251 0.0002 7.8311 0.0011
# 3 24.7692 0.7251 65.7534 0.0000 22.5826 0.0002
# 4 0.0001 0.0002 0.0000 14.4833 0.0000 3.2176
# 5 29.1625 7.8311 22.5826 0.0000 32.0863 0.0002
# 6 0.0004 0.0011 0.0002 3.2176 0.0002 35.6728
#
#
#
# Elastic Compliance Matrix: (Units=1/GPa)
#
#
# Indices 1 2 3 4 5 6 
#
# 1 0.009421 0.000050 -0.000797 0.000000 -0.008013 0.000000
# 2 0.000050 0.062593 0.006005 0.000000 -0.019548 -0.000002
# 3 -0.000797 0.006005 0.020701 0.000000 -0.015310 0.000000
# 4 0.000000 0.000000 0.000000 0.070457 0.000000 -0.006355
# 5 -0.008013 -0.019548 -0.015310 0.000000 0.053996 0.000001
# 6 0.000000 -0.000002 0.000000 -0.006355 0.000001 0.028606
#
#
# Mechanical properties :
#
#
# Convention : Reuss Voigt Hill
#
# Bulk Modulus (GPa) = 9.68720 31.26160 20.47440
# Shear Modulus (GPa) = 18.54137 28.78151 23.66144
#
# Velocity S-wave (km/s) = 2.87741 3.58498 3.25051
# Velocity P-wave (km/s) = 3.91982 5.57635 4.81979
#
# Compressibility (1/GPa) = 0.10322899
#
# Stress axis : x y z
#
# Youngs Moduli (GPa) = 106.14772 15.97629 48.30772
#
# Poissons Ratio (x) = -0.00080 0.03851
# Poissons Ratio (y) = -0.00530 -0.29007
# Poissons Ratio (z) = 0.08462 -0.09593
#
# Static dielectric constant tensor:
#      x y z
#    x 4.355190 0.000000 0.120770 
#    y 0.000000 3.966890 0.000000 
#    z 0.120770 0.000000 3.936980 
# 
# 
# High freq. dielectric constant tensor:
#      x y z
#    x 1.898710 0.000000 0.019250 
#    y 0.000000 1.863170 0.000000 
#    z 0.019250 0.000000 1.861960 
# 
# From -- ./inp_files/247342.got.cif
#   From: 2010.06.25/outbox.cif.g09.slc.cpg/sg15_124_cif.got.tgz:247342.got - 2010.06.28 07:06:18.
