data_PCOD8138769
_publ_section_title
;
Structure prediction by ZEFSAII (Michael W. Deem and Ramdas Pophale) SiO2 
 PCOD8138769
Probable space group: C 2/C
;
_chemical_formula_sum "Si O2"
_cell_formula_units_Z 48
_cell_length_a 7.546202
_cell_length_b 29.120329
_cell_length_c 11.031740
_cell_angle_alpha 90.000000
_cell_angle_beta 86.887626
_cell_angle_gamma 90.000000
_cell_volume 2420.625757
_symmetry_space_group_name_H-M "C 2/C"
_symmetry_group_IT_number 15
_symmetry_cell_setting 'monoclinic'
loop_
_space_group_symop_operation_xyz
x,y,z
-x,y,1/2-z
-x,-y,-z
x,-y,1/2+z
1/2+x,1/2+y,z
1/2-x,1/2+y,1/2-z
1/2-x,1/2-y,-z
1/2+x,1/2-y,1/2+z
loop_
_atom_site_type_symbol
_atom_site_label
_atom_site_fract_x
_atom_site_fract_y
_atom_site_fract_z
Si Si1 0.183281 0.248072 0.805199
Si Si2 0.476079 0.965296 0.389640
Si Si3 0.239176 0.686527 0.493472
Si Si4 0.838545 0.709248 0.572352
Si Si5 0.163428 0.097558 0.898745
Si Si6 0.773253 0.110878 0.875177
O O1 0.133373 0.212359 0.915037
O O2 0.323369 0.224028 0.712249
O O3 0.000000 0.262381 0.750000
O O4 0.274496 0.294356 0.856679
O O5 0.500000 0.985420 0.250000
O O6 0.272105 0.949330 0.409686
O O7 0.608099 0.922580 0.406728
O O8 0.500000 0.000000 0.500000
O O9 0.275308 0.632392 0.497406
O O10 0.040984 0.702103 0.532758
O O11 0.750000 0.750000 0.500000
O O12 0.745152 0.659520 0.555629
O O13 0.213464 0.120943 0.768679
O O14 0.954048 0.086561 0.915460
#
# Coordination Sequence:
#
# PCOD8138769 Si02
#       6
#     8   8   8   8   8   8
#     4  11  22  35  49  80 115 158 204 252 298 342
#     4  10  22  42  68  97 117 154 202 256 320 381
#     4  11  22  35  56  80 116 162 204 255 299 342
#     4  12  22  35  56  84 121 164 208 252 295 355
#     4  10  20  38  61  88 120 155 203 251 298 364
#     4  10  21  37  61  88 121 157 204 252 295 358
#
# _framework density 19.829581999999998
#
# number of rings (size 3 to 8) (size 9 to 14) (size 15 to 20)
#    0.000    1.333    5.000    1.500    2.333    0.667 
#    0.000    2.500    0.000    2.000    0.000    0.000 
#    0.000    0.000    0.000    0.000    0.000    0.000 
#
# Total GULP energy -297451.354443 kJ/mol
# GULP energy per Si atom -12393.806435 kJ/mol
# Density = 1.978445 g / cm^3
# Si number density = 19.829582 Si / 1000 Ang^3
#
#
#
# Elastic Constant Matrix: (Units=GPa)
#
#
# Indices 1 2 3 4 5 6 
#
# 1 90.9459 33.7586 28.1979 0.0000 9.2538 0.0000
# 2 33.7586 86.8913 48.6423 0.0000 7.6427 0.0000
# 3 28.1979 48.6423 87.6602 0.0000 13.5762 0.0000
# 4 0.0000 0.0000 0.0000 40.6115 0.0000 7.9300
# 5 9.2538 7.6427 13.5762 0.0000 26.2719 0.0000
# 6 0.0000 0.0000 0.0000 7.9300 0.0000 24.4880
#
#
#
# Elastic Compliance Matrix: (Units=1/GPa)
#
#
# Indices 1 2 3 4 5 6 
#
# 1 0.013258 -0.004004 -0.001631 0.000000 -0.002663 0.000000
# 2 -0.004004 0.017904 -0.008760 0.000000 0.000729 0.000000
# 3 -0.001631 -0.008760 0.017728 0.000000 -0.006039 0.000000
# 4 0.000000 0.000000 0.000000 0.026286 0.000000 -0.008512
# 5 -0.002663 0.000729 -0.006039 0.000000 0.041910 0.000000
# 6 0.000000 0.000000 0.000000 -0.008512 0.000000 0.043593
#
#
# Mechanical properties :
#
#
# Convention : Reuss Voigt Hill
#
# Bulk Modulus (GPa) = 49.74715 54.07725 51.91220
# Shear Modulus (GPa) = 25.48836 28.60085 27.04461
#
# Velocity S-wave (km/s) = 3.58910 3.80193 3.69704
# Velocity P-wave (km/s) = 6.50517 6.82664 6.66785
#
# Compressibility (1/GPa) = 0.02010165
#
# Stress axis : x y z
#
# Youngs Moduli (GPa) = 75.42436 55.85379 56.40756
#
# Poissons Ratio (x) = 0.22364 0.09198
# Poissons Ratio (y) = 0.30200 0.49411
# Poissons Ratio (z) = 0.12299 0.48926
#
# Static dielectric constant tensor:
#      x y z
#    x 3.803020 0.000000 0.053160 
#    y 0.000000 3.396530 0.000000 
#    z 0.053160 0.000000 3.809930 
# 
# 
# High freq. dielectric constant tensor:
#      x y z
#    x 1.790240 0.000000 0.009790 
#    y 0.000000 1.743960 0.000000 
#    z 0.009790 0.000000 1.753840 
# 
# From -- ./inp_files/79299.got.cif
#   From: 2010.06.25/outbox.cif.g09.slc.cpg/sg15_40_cif.got.tgz:79299.got - 2010.06.28 07:06:18.
