data_PCOD8138344
_publ_section_title
;
Structure prediction by ZEFSAII (Michael W. Deem and Ramdas Pophale) SiO2 
 PCOD8138344
Probable space group: C 2/C
;
_chemical_formula_sum "Si O2"
_cell_formula_units_Z 56
_cell_length_a 18.168857
_cell_length_b 11.964907
_cell_length_c 15.153240
_cell_angle_alpha 90.000000
_cell_angle_beta 125.518387
_cell_angle_gamma 90.000000
_cell_volume 2681.198840
_symmetry_space_group_name_H-M "C 2/C"
_symmetry_group_IT_number 15
_symmetry_cell_setting 'monoclinic'
loop_
_space_group_symop_operation_xyz
x,y,z
-x,y,1/2-z
-x,-y,-z
x,-y,1/2+z
1/2+x,1/2+y,z
1/2-x,1/2+y,1/2-z
1/2-x,1/2-y,-z
1/2+x,1/2-y,1/2+z
loop_
_atom_site_type_symbol
_atom_site_label
_atom_site_fract_x
_atom_site_fract_y
_atom_site_fract_z
Si Si1 0.238274 0.376165 0.560177
Si Si2 0.000000 0.593931 0.750000
Si Si3 0.684574 0.992752 0.339690
Si Si4 0.476534 0.485576 0.882941
Si Si5 0.099492 0.784458 0.910817
Si Si6 0.500000 0.659831 0.750000
Si Si7 0.772925 0.046271 0.723569
Si Si8 0.693576 0.755802 0.871467
O O1 0.222061 0.440082 0.455903
O O2 0.177737 0.263417 0.531451
O O3 0.344910 0.339583 0.632512
O O4 0.215353 0.460234 0.623474
O O5 0.076016 0.517014 0.758025
O O6 0.045504 0.672419 0.853644
O O7 0.711304 0.121528 0.346042
O O8 0.728865 0.930178 0.287353
O O9 0.525258 0.369721 0.893389
O O10 0.513843 0.583662 0.846522
O O11 0.369213 0.485483 0.798892
O O12 0.500000 0.500000 0.000000
O O13 0.586928 0.738851 0.811362
O O14 0.772990 0.165470 0.675761
O O15 0.750000 0.750000 0.000000
#
# Coordination Sequence:
#
# PCOD8138344 Si02
#       8
#     8   4   8   8   8   4   8   8
#     4  10  21  39  62  93 130 171 220 271 318 400
#     4  10  22  42  62  92 126 172 202 276 328 390
#     4  11  24  42  66  93 131 165 228 268 328 409
#     4  11  23  38  64  95 130 168 224 280 321 393
#     4  10  20  37  63  87 130 170 207 265 338 371
#     4  10  24  42  64  96 130 178 232 272 340 398
#     4  11  24  40  67  99 125 175 224 272 333 399
#     4  11  23  43  71  93 137 185 218 274 345 393
#
# _framework density 20.886178999999998
#
# number of rings (size 3 to 8) (size 9 to 14) (size 15 to 20)
#    0.000    1.429    1.429    4.286    2.000    6.857 
#    0.000    2.857    0.000    0.000    0.000    0.000 
#    0.000    0.000    0.000    0.000    0.000    0.000 
#
# Total GULP energy -347005.843336 kJ/mol
# GULP energy per Si atom -12393.065833 kJ/mol
# Density = 2.083864 g / cm^3
# Si number density = 20.886179 Si / 1000 Ang^3
#
#
#
# Elastic Constant Matrix: (Units=GPa)
#
#
# Indices 1 2 3 4 5 6 
#
# 1 88.1593 32.5198 32.2857 0.0000 6.1686 0.0000
# 2 32.5198 109.8830 35.8953 0.0000 7.6659 0.0000
# 3 32.2857 35.8953 99.2748 0.0000 -8.2935 0.0000
# 4 0.0000 0.0000 0.0000 30.0440 0.0000 9.2580
# 5 6.1686 7.6659 -8.2935 0.0000 29.3069 0.0000
# 6 0.0000 0.0000 0.0000 9.2580 0.0000 34.6209
#
#
#
# Elastic Compliance Matrix: (Units=1/GPa)
#
#
# Indices 1 2 3 4 5 6 
#
# 1 0.013966 -0.002636 -0.003868 0.000000 -0.003345 0.000000
# 2 -0.002636 0.011259 -0.003496 0.000000 -0.003379 0.000000
# 3 -0.003868 -0.003496 0.013048 0.000000 0.005421 0.000000
# 4 0.000000 0.000000 0.000000 0.036274 0.000000 -0.009700
# 5 -0.003345 -0.003379 0.005421 0.000000 0.037244 0.000000
# 6 0.000000 0.000000 0.000000 -0.009700 0.000000 0.031478
#
#
# Mechanical properties :
#
#
# Convention : Reuss Voigt Hill
#
# Bulk Modulus (GPa) = 54.72832 55.41318 55.07075
# Shear Modulus (GPa) = 29.52304 31.90210 30.71257
#
# Velocity S-wave (km/s) = 3.76376 3.91247 3.83884
# Velocity P-wave (km/s) = 6.71922 6.85555 6.78772
#
# Compressibility (1/GPa) = 0.01827208
#
# Stress axis : x y z
#
# Youngs Moduli (GPa) = 71.60123 88.82175 76.64074
#
# Poissons Ratio (x) = 0.23416 0.29646
# Poissons Ratio (y) = 0.18876 0.26791
# Poissons Ratio (z) = 0.27697 0.31050
#
# Static dielectric constant tensor:
#      x y z
#    x 3.676810 0.000000 -0.080910 
#    y 0.000000 3.645210 0.000000 
#    z -0.080910 0.000000 3.492420 
# 
# 
# High freq. dielectric constant tensor:
#      x y z
#    x 1.813250 0.000000 0.015790 
#    y 0.000000 1.831620 0.000000 
#    z 0.015790 0.000000 1.816290 
# 
# From -- ./inp_files/161454.got.cif
#   From: 2010.06.25/outbox.cif.g09.slc.cpg/sg15_81_cif.got.tgz:161454.got - 2010.06.28 07:06:18.
