data_PCOD8138576
_publ_section_title
;
Structure prediction by ZEFSAII (Michael W. Deem and Ramdas Pophale) SiO2 
 PCOD8138576
Probable space group: C 2/C
;
_chemical_formula_sum "Si O2"
_cell_formula_units_Z 64
_cell_length_a 20.430711
_cell_length_b 14.941268
_cell_length_c 11.910217
_cell_angle_alpha 90.000000
_cell_angle_beta 70.808469
_cell_angle_gamma 90.000000
_cell_volume 3433.666187
_symmetry_space_group_name_H-M "C 2/C"
_symmetry_group_IT_number 15
_symmetry_cell_setting 'monoclinic'
loop_
_space_group_symop_operation_xyz
x,y,z
-x,y,1/2-z
-x,-y,-z
x,-y,1/2+z
1/2+x,1/2+y,z
1/2-x,1/2+y,1/2-z
1/2-x,1/2-y,-z
1/2+x,1/2-y,1/2+z
loop_
_atom_site_type_symbol
_atom_site_label
_atom_site_fract_x
_atom_site_fract_y
_atom_site_fract_z
Si Si1 0.891605 0.436777 0.772515
Si Si2 0.785184 0.255733 0.359485
Si Si3 0.738913 0.590240 0.283881
Si Si4 0.187658 0.180505 0.525949
Si Si5 0.255714 0.391670 0.295517
Si Si6 0.420705 0.134844 0.820630
Si Si7 0.886495 0.657930 0.503668
Si Si8 0.975374 0.400155 0.519113
O O1 0.818590 0.401651 0.770348
O O2 0.899406 0.544735 0.764798
O O3 0.944950 0.386286 0.660766
O O4 0.904065 0.408410 0.892397
O O5 0.750000 0.250000 0.500000
O O6 0.783231 0.159526 0.300554
O O7 0.739812 0.326020 0.313240
O O8 0.865304 0.288156 0.321058
O O9 0.696201 0.609147 0.421391
O O10 0.724076 0.490826 0.251310
O O11 0.250000 0.250000 0.500000
O O12 0.184293 0.131612 0.647757
O O13 0.120985 0.240640 0.536438
O O14 0.179293 0.381790 0.392918
O O15 0.500000 0.162855 0.750000
O O16 0.417439 0.119928 0.957350
O O17 0.955569 0.660215 0.541502
O O18 0.000000 0.500000 0.500000
#
# Coordination Sequence:
#
# PCOD8138576 Si02
#       8
#     8   8   8   8   8   8   8   8
#     4  12  21  35  58  88 121 158 203 243 314 387
#     4  12  26  39  58  95 130 162 210 262 313 376
#     4  12  23  37  62  86 123 163 200 255 315 364
#     4  10  20  38  58  83 113 161 208 248 300 365
#     4  11  22  39  60  86 122 159 205 262 310 368
#     4  12  24  39  57  88 130 169 196 244 320 391
#     4  11  20  38  58  82 122 161 207 245 300 381
#     4  12  22  33  53  87 123 164 195 238 310 389
#
# _framework density 18.638971000000002
#
# number of rings (size 3 to 8) (size 9 to 14) (size 15 to 20)
#    0.000    0.500    8.750    2.625    3.500    0.000 
#    0.000    0.000    0.000    0.000    0.000    7.000 
#    0.000    0.000    0.000    0.000    0.000    0.000 
#
# Total GULP energy -396671.185430 kJ/mol
# GULP energy per Si atom -12395.974545 kJ/mol
# Density = 1.859655 g / cm^3
# Si number density = 18.638971 Si / 1000 Ang^3
#
#
#
# Elastic Constant Matrix: (Units=GPa)
#
#
# Indices 1 2 3 4 5 6 
#
# 1 86.3669 38.1443 21.9563 0.0000 9.3713 0.0000
# 2 38.1443 116.6486 41.7081 0.0000 13.3972 0.0000
# 3 21.9563 41.7081 109.9479 0.0000 16.5412 0.0000
# 4 0.0000 0.0000 0.0000 33.5374 0.0000 10.4681
# 5 9.3713 13.3972 16.5412 0.0000 31.1232 0.0000
# 6 0.0000 0.0000 0.0000 10.4681 0.0000 38.8031
#
#
#
# Elastic Compliance Matrix: (Units=1/GPa)
#
#
# Indices 1 2 3 4 5 6 
#
# 1 0.013773 -0.003936 -0.000966 0.000000 -0.001940 0.000000
# 2 -0.003936 0.011220 -0.003176 0.000000 -0.001957 0.000000
# 3 -0.000966 -0.003176 0.011134 0.000000 -0.004259 0.000000
# 4 0.000000 0.000000 0.000000 0.032559 0.000000 -0.008784
# 5 -0.001940 -0.001957 -0.004259 0.000000 0.035821 0.000000
# 6 0.000000 0.000000 0.000000 -0.008784 0.000000 0.028141
#
#
# Mechanical properties :
#
#
# Convention : Reuss Voigt Hill
#
# Bulk Modulus (GPa) = 50.07017 57.39787 53.73402
# Shear Modulus (GPa) = 32.16296 34.76971 33.46634
#
# Velocity S-wave (km/s) = 4.15851 4.32375 4.24194
# Velocity P-wave (km/s) = 7.06959 7.46912 7.27210
#
# Compressibility (1/GPa) = 0.01997197
#
# Stress axis : x y z
#
# Youngs Moduli (GPa) = 72.60774 89.12633 89.81805
#
# Poissons Ratio (x) = 0.35077 0.08673
# Poissons Ratio (y) = 0.28576 0.28526
# Poissons Ratio (z) = 0.07011 0.28306
#
# Static dielectric constant tensor:
#      x y z
#    x 4.178160 0.000000 0.044640 
#    y 0.000000 3.917100 0.000000 
#    z 0.044640 0.000000 4.546020 
# 
# 
# High freq. dielectric constant tensor:
#      x y z
#    x 1.709770 0.000000 0.028890 
#    y 0.000000 1.700740 0.000000 
#    z 0.028890 0.000000 1.740940 
# 
# From -- ./inp_files/112724.got.cif
#   From: 2010.06.25/outbox.cif.g09.slc.cpg/sg15_57_cif.got.tgz:112724.got - 2010.06.28 07:06:18.
