data_PCOD8138723
_publ_section_title
;
Structure prediction by ZEFSAII (Michael W. Deem and Ramdas Pophale) SiO2 
 PCOD8138723
Probable space group: C 2/C
;
_chemical_formula_sum "Si O2"
_cell_formula_units_Z 60
_cell_length_a 25.442836
_cell_length_b 9.024176
_cell_length_c 12.549053
_cell_angle_alpha 90.000000
_cell_angle_beta 99.428315
_cell_angle_gamma 90.000000
_cell_volume 2842.348334
_symmetry_space_group_name_H-M "C 2/C"
_symmetry_group_IT_number 15
_symmetry_cell_setting 'monoclinic'
loop_
_space_group_symop_operation_xyz
x,y,z
-x,y,1/2-z
-x,-y,-z
x,-y,1/2+z
1/2+x,1/2+y,z
1/2-x,1/2+y,1/2-z
1/2-x,1/2-y,-z
1/2+x,1/2-y,1/2+z
loop_
_atom_site_type_symbol
_atom_site_label
_atom_site_fract_x
_atom_site_fract_y
_atom_site_fract_z
Si Si1 0.636515 0.863532 0.957137
Si Si2 0.193587 0.219247 0.786901
Si Si3 0.058188 0.249506 0.096725
Si Si4 0.592719 0.571885 0.653573
Si Si5 0.389833 0.113910 0.704227
Si Si6 0.200088 0.533990 0.679722
Si Si7 0.556209 0.342736 0.919842
Si Si8 0.000000 0.071596 0.750000
O O1 0.676439 0.761368 0.901625
O O2 0.604835 0.966825 0.863947
O O3 0.590653 0.766248 0.997818
O O4 0.669530 0.957080 0.056044
O O5 0.149245 0.117790 0.717189
O O6 0.205653 0.362543 0.717327
O O7 0.243881 0.113371 0.814071
O O8 0.068537 0.385321 0.182767
O O9 0.994988 0.249978 0.054592
O O10 0.079860 0.102681 0.165253
O O11 0.591353 0.602494 0.528816
O O12 0.545340 0.662738 0.700520
O O13 0.331236 0.122843 0.737937
O O14 0.401135 0.251636 0.632655
O O15 0.533199 0.478837 0.847359
#
# Coordination Sequence:
#
# PCOD8138723 Si02
#       8
#     8   8   8   8   8   8   8   4
#     4  10  23  41  66  91 132 169 218 271 322 393
#     4  11  25  44  68  96 130 171 218 280 329 386
#     4  10  21  39  65  93 129 174 214 262 326 389
#     4  11  24  37  65  97 132 165 221 269 325 385
#     4  10  20  40  62  87 131 166 207 269 319 381
#     4  10  24  45  66  94 130 170 223 273 329 387
#     4  11  20  38  64  94 130 173 218 257 325 388
#     4  10  20  38  60  94 132 174 214 266 310 392
#
# _framework density 21.109304999999999
#
# number of rings (size 3 to 8) (size 9 to 14) (size 15 to 20)
#    0.000    1.600    2.667    2.800    7.467    0.533 
#    0.000    6.000    0.000    0.000    0.000    0.000 
#    0.000    0.000    0.000    0.000    0.000    0.000 
#
# Total GULP energy -371782.124876 kJ/mol
# GULP energy per Si atom -12392.737496 kJ/mol
# Density = 2.106126 g / cm^3
# Si number density = 21.109305 Si / 1000 Ang^3
#
#
#
# Elastic Constant Matrix: (Units=GPa)
#
#
# Indices 1 2 3 4 5 6 
#
# 1 81.9153 37.5381 34.4532 0.0000 -6.1738 0.0000
# 2 37.5381 58.7844 29.9306 0.0000 1.2309 0.0000
# 3 34.4532 29.9306 106.8513 0.0000 -11.8523 0.0000
# 4 0.0000 0.0000 0.0000 97.8402 0.0000 -0.2723
# 5 -6.1738 1.2309 -11.8523 0.0000 32.9886 0.0000
# 6 0.0000 0.0000 0.0000 -0.2723 0.0000 37.7886
#
#
#
# Elastic Compliance Matrix: (Units=1/GPa)
#
#
# Indices 1 2 3 4 5 6 
#
# 1 0.018309 -0.010388 -0.002677 0.000000 0.002852 0.000000
# 2 -0.010388 0.025996 -0.004432 0.000000 -0.004507 0.000000
# 3 -0.002677 -0.004432 0.011901 0.000000 0.003940 0.000000
# 4 0.000000 0.000000 0.000000 0.010221 0.000000 0.000074
# 5 0.002852 -0.004507 0.003940 0.000000 0.032431 0.000000
# 6 0.000000 0.000000 0.000000 0.000074 0.000000 0.026464
#
#
# Mechanical properties :
#
#
# Convention : Reuss Voigt Hill
#
# Bulk Modulus (GPa) = 47.14685 50.15498 48.65091
# Shear Modulus (GPa) = 29.87089 43.43209 36.65149
#
# Velocity S-wave (km/s) = 3.76581 4.54087 4.17138
# Velocity P-wave (km/s) = 6.42585 7.16268 6.80424
#
# Compressibility (1/GPa) = 0.02121033
#
# Stress axis : x y z
#
# Youngs Moduli (GPa) = 54.61716 38.46746 84.02906
#
# Poissons Ratio (x) = 0.39961 0.22498
# Poissons Ratio (y) = 0.56738 0.37243
# Poissons Ratio (z) = 0.14623 0.17049
#
# Static dielectric constant tensor:
#      x y z
#    x 3.988830 0.000000 -0.281750 
#    y 0.000000 3.675550 0.000000 
#    z -0.281750 0.000000 4.041950 
# 
# 
# High freq. dielectric constant tensor:
#      x y z
#    x 1.830610 0.000000 -0.017190 
#    y 0.000000 1.800940 0.000000 
#    z -0.017190 0.000000 1.846280 
# 
# From -- ./inp_files/125549.got.cif
#   From: 2010.06.25/outbox.cif.g09.slc.cpg/sg15_63_cif.got.tgz:125549.got - 2010.06.28 07:06:18.
