data_PCOD8138185
_publ_section_title
;
Structure prediction by ZEFSAII (Michael W. Deem and Ramdas Pophale) SiO2 
 PCOD8138185
Probable space group: C 2/C
;
_chemical_formula_sum "Si O2"
_cell_formula_units_Z 48
_cell_length_a 25.869102
_cell_length_b 12.655095
_cell_length_c 21.176636
_cell_angle_alpha 90.000000
_cell_angle_beta 158.968249
_cell_angle_gamma 90.000000
_cell_volume 2488.051356
_symmetry_space_group_name_H-M "C 2/C"
_symmetry_group_IT_number 15
_symmetry_cell_setting 'monoclinic'
loop_
_space_group_symop_operation_xyz
x,y,z
-x,y,1/2-z
-x,-y,-z
x,-y,1/2+z
1/2+x,1/2+y,z
1/2-x,1/2+y,1/2-z
1/2-x,1/2-y,-z
1/2+x,1/2-y,1/2+z
loop_
_atom_site_type_symbol
_atom_site_label
_atom_site_fract_x
_atom_site_fract_y
_atom_site_fract_z
Si Si1 0.396299 0.560321 0.301422
Si Si2 0.859380 0.428854 0.516492
Si Si3 0.644784 0.651865 0.381612
Si Si4 0.945945 0.147414 0.489193
Si Si5 0.814577 0.547727 0.108968
Si Si6 0.773140 0.719201 0.167515
O O1 0.399614 0.620366 0.239377
O O2 0.431880 0.642672 0.397525
O O3 0.509991 0.464860 0.430947
O O4 0.239081 0.510293 0.134515
O O5 0.801808 0.416384 0.522260
O O6 0.845272 0.310772 0.475493
O O7 0.017794 0.475642 0.687193
O O8 0.500000 0.689234 0.250000
O O9 0.750000 0.750000 0.500000
O O10 0.718829 0.557832 0.506656
O O11 0.787074 0.167421 0.336823
O O12 0.064767 0.237416 0.640665
O O13 0.758984 0.637768 0.093080
#
# Coordination Sequence:
#
# PCOD8138185 Si02
#       6
#     8   8   8   8   8   8
#     4   9  21  41  59  81 119 158 198 234 298 347
#     4   9  19  35  61  89 119 157 184 251 298 355
#     4  11  25  41  64  86 115 158 204 249 289 343
#     4  10  21  37  61  83 121 156 188 239 294 364
#     4  10  20  37  60  90 124 148 197 246 302 351
#     4  11  19  36  59  94 119 149 194 239 306 357
#
# _framework density 19.292206
#
# number of rings (size 3 to 8) (size 9 to 14) (size 15 to 20)
#    0.000    2.000    1.667    1.500    4.667    1.333 
#    3.000    2.500    0.000    0.000    0.000    0.000 
#    0.000    0.000    0.000    0.000    0.000    0.000 
#
# Total GULP energy -297501.532436 kJ/mol
# GULP energy per Si atom -12395.897185 kJ/mol
# Density = 1.924830 g / cm^3
# Si number density = 19.292206 Si / 1000 Ang^3
#
#
#
# Elastic Constant Matrix: (Units=GPa)
#
#
# Indices 1 2 3 4 5 6 
#
# 1 98.1812 48.6538 51.7135 0.0000 9.2368 0.0000
# 2 48.6538 80.8961 49.4468 -0.0001 -4.6815 0.0000
# 3 51.7135 49.4468 94.0344 0.0000 -0.3610 0.0001
# 4 0.0000 -0.0001 0.0000 23.7343 0.0000 -6.0516
# 5 9.2368 -4.6815 -0.3610 0.0000 35.4598 0.0001
# 6 0.0000 0.0000 0.0001 -6.0516 0.0001 21.9237
#
#
#
# Elastic Compliance Matrix: (Units=1/GPa)
#
#
# Indices 1 2 3 4 5 6 
#
# 1 0.017306 -0.007217 -0.005743 0.000000 -0.005519 0.000000
# 2 -0.007217 0.021417 -0.007275 0.000000 0.004634 0.000000
# 3 -0.005743 -0.007275 0.017621 0.000000 0.000715 0.000000
# 4 0.000000 0.000000 0.000000 0.045323 0.000000 0.012511
# 5 -0.005519 0.004634 0.000715 0.000000 0.030258 0.000000
# 6 0.000000 0.000000 0.000000 0.012511 0.000000 0.049066
#
#
# Mechanical properties :
#
#
# Convention : Reuss Voigt Hill
#
# Bulk Modulus (GPa) = 63.00038 63.63779 63.31909
# Shear Modulus (GPa) = 22.05028 24.44338 23.24683
#
# Velocity S-wave (km/s) = 3.38444 3.56337 3.47506
# Velocity P-wave (km/s) = 6.92816 7.07022 6.99955
#
# Compressibility (1/GPa) = 0.01587292
#
# Stress axis : x y z
#
# Youngs Moduli (GPa) = 57.78248 46.69122 56.74970
#
# Poissons Ratio (x) = 0.33699 0.32594
# Poissons Ratio (y) = 0.41704 0.41286
# Poissons Ratio (z) = 0.33187 0.33968
#
# Static dielectric constant tensor:
#      x y z
#    x 3.372480 0.000000 -0.034850 
#    y 0.000000 3.567520 0.000000 
#    z -0.034850 0.000000 3.642400 
# 
# 
# High freq. dielectric constant tensor:
#      x y z
#    x 1.745680 0.000000 0.004110 
#    y 0.000000 1.745180 0.000000 
#    z 0.004110 0.000000 1.756000 
# 
# From -- ./inp_files/65257.got.cif
#   From: 2010.06.25/outbox.cif.g09.slc.cpg/sg15_33_cif.got.tgz:65257.got - 2010.06.28 07:06:18.
