data_PCOD8138039
_publ_section_title
;
Structure prediction by ZEFSAII (Michael W. Deem and Ramdas Pophale) SiO2 
 PCOD8138039
Probable space group: C 2/C
;
_chemical_formula_sum "Si O2"
_cell_formula_units_Z 64
_cell_length_a 17.806660
_cell_length_b 17.020743
_cell_length_c 14.671099
_cell_angle_alpha 90.000000
_cell_angle_beta 134.401545
_cell_angle_gamma 90.000000
_cell_volume 3176.857879
_symmetry_space_group_name_H-M "C 2/C"
_symmetry_group_IT_number 15
_symmetry_cell_setting 'monoclinic'
loop_
_space_group_symop_operation_xyz
x,y,z
-x,y,1/2-z
-x,-y,-z
x,-y,1/2+z
1/2+x,1/2+y,z
1/2-x,1/2+y,1/2-z
1/2-x,1/2-y,-z
1/2+x,1/2-y,1/2+z
loop_
_atom_site_type_symbol
_atom_site_label
_atom_site_fract_x
_atom_site_fract_y
_atom_site_fract_z
Si Si1 0.767844 0.378500 0.528725
Si Si2 0.893884 0.219221 0.205702
Si Si3 0.936550 0.703860 0.930939
Si Si4 0.531925 0.943368 0.436204
Si Si5 0.584034 0.257118 0.394542
Si Si6 0.190986 0.565817 0.623353
Si Si7 0.706120 0.130651 0.969237
Si Si8 0.200086 0.517649 0.816154
O O1 0.671890 0.323142 0.469659
O O2 0.872366 0.328037 0.598529
O O3 0.748239 0.433137 0.421545
O O4 0.784736 0.430868 0.632131
O O5 0.913817 0.236763 0.328987
O O6 0.862152 0.296208 0.122575
O O7 0.000000 0.185605 0.250000
O O8 0.800423 0.155723 0.116841
O O9 0.829497 0.655866 0.863291
O O10 0.027677 0.640643 0.985381
O O11 0.967673 0.752326 0.048495
O O12 0.629497 0.932577 0.450365
O O13 0.424193 0.960889 0.291850
O O14 0.574975 0.021256 0.527246
O O15 0.500000 0.285382 0.250000
O O16 0.252814 0.523086 0.759204
O O17 0.756015 0.083885 0.925711
#
# Coordination Sequence:
#
# PCOD8138039 Si02
#       8
#     8   8   8   8   8   8   8   8
#     4  10  23  40  61  89 118 158 205 249 304 362
#     4  11  21  39  55  85 127 155 192 242 299 369
#     4  10  20  37  57  88 122 155 196 244 300 365
#     4  11  20  35  59  96 121 146 193 263 316 352
#     4  10  24  43  58  84 121 170 205 241 296 363
#     4  10  21  33  58  91 121 148 196 251 308 351
#     4  11  21  34  61  87 116 161 186 245 315 355
#     4  11  20  36  61  89 119 146 197 260 309 354
#
# _framework density 20.145690999999999
#
# number of rings (size 3 to 8) (size 9 to 14) (size 15 to 20)
#    0.000    1.500    5.000    1.875    5.250    1.000 
#    6.750    0.625    0.000    0.750    0.000    0.000 
#    0.000    0.000    0.000    0.000    0.000    0.000 
#
# Total GULP energy -396632.665962 kJ/mol
# GULP energy per Si atom -12394.770811 kJ/mol
# Density = 2.009984 g / cm^3
# Si number density = 20.145691 Si / 1000 Ang^3
#
#
#
# Elastic Constant Matrix: (Units=GPa)
#
#
# Indices 1 2 3 4 5 6 
#
# 1 67.3958 23.4154 40.0631 0.0000 -24.6994 0.0000
# 2 23.4154 72.5440 39.7715 0.0000 -11.4498 0.0000
# 3 40.0631 39.7715 94.9299 0.0000 -24.3478 0.0000
# 4 0.0000 0.0000 0.0000 32.8898 0.0000 -8.0039
# 5 -24.6994 -11.4498 -24.3478 0.0000 32.2700 0.0000
# 6 0.0000 0.0000 0.0000 -8.0039 0.0000 24.3419
#
#
#
# Elastic Compliance Matrix: (Units=1/GPa)
#
#
# Indices 1 2 3 4 5 6 
#
# 1 0.023888 -0.002541 -0.005652 0.000000 0.013117 0.000000
# 2 -0.002541 0.018185 -0.006683 0.000000 -0.000536 0.000000
# 3 -0.005652 -0.006683 0.017362 0.000000 0.006402 0.000000
# 4 0.000000 0.000000 0.000000 0.033049 0.000000 0.010867
# 5 0.013117 -0.000536 0.006402 0.000000 0.045669 0.000000
# 6 0.000000 0.000000 0.000000 0.010867 0.000000 0.044655
#
#
# Mechanical properties :
#
#
# Convention : Reuss Voigt Hill
#
# Bulk Modulus (GPa) = 33.69275 49.04106 41.36690
# Shear Modulus (GPa) = 22.47660 26.67501 24.57581
#
# Velocity S-wave (km/s) = 3.34384 3.64277 3.49650
# Velocity P-wave (km/s) = 5.62754 6.48761 6.07282
#
# Compressibility (1/GPa) = 0.02967998
#
# Stress axis : x y z
#
# Youngs Moduli (GPa) = 41.86212 54.99169 57.59868
#
# Poissons Ratio (x) = 0.13975 0.32557
# Poissons Ratio (y) = 0.10638 0.38496
# Poissons Ratio (z) = 0.23662 0.36753
#
# Static dielectric constant tensor:
#      x y z
#    x 3.666090 0.000000 -0.402900 
#    y 0.000000 3.594450 0.000000 
#    z -0.402900 0.000000 3.589700 
# 
# 
# High freq. dielectric constant tensor:
#      x y z
#    x 1.777490 0.000000 -0.038880 
#    y 0.000000 1.778780 0.000000 
#    z -0.038880 0.000000 1.764800 
# 
# From -- ./inp_files/163297.got.cif
#   From: 2010.06.25/outbox.cif.g09.slc.cpg/sg15_82_cif.got.tgz:163297.got - 2010.06.28 07:06:18.
