data_PCOD8138274
_publ_section_title
;
Structure prediction by ZEFSAII (Michael W. Deem and Ramdas Pophale) SiO2 
 PCOD8138274
Probable space group: C 2/C
;
_chemical_formula_sum "Si O2"
_cell_formula_units_Z 52
_cell_length_a 8.800850
_cell_length_b 30.383752
_cell_length_c 11.850325
_cell_angle_alpha 90.000000
_cell_angle_beta 58.094313
_cell_angle_gamma 90.000000
_cell_volume 2690.064266
_symmetry_space_group_name_H-M "C 2/C"
_symmetry_group_IT_number 15
_symmetry_cell_setting 'monoclinic'
loop_
_space_group_symop_operation_xyz
x,y,z
-x,y,1/2-z
-x,-y,-z
x,-y,1/2+z
1/2+x,1/2+y,z
1/2-x,1/2+y,1/2-z
1/2-x,1/2-y,-z
1/2+x,1/2-y,1/2+z
loop_
_atom_site_type_symbol
_atom_site_label
_atom_site_fract_x
_atom_site_fract_y
_atom_site_fract_z
Si Si1 0.884350 0.042021 0.074340
Si Si2 0.448548 0.301196 0.895188
Si Si3 0.965177 0.702615 0.891960
Si Si4 0.500000 0.489177 0.750000
Si Si5 0.790975 0.628738 0.635729
Si Si6 0.991382 0.869416 0.069169
Si Si7 0.848121 0.464625 0.027905
O O1 0.882827 0.041672 0.211528
O O2 0.997478 0.083785 0.993467
O O3 0.683180 0.041223 0.096365
O O4 0.000000 0.000000 0.000000
O O5 0.500000 0.318416 0.750000
O O6 0.534111 0.252714 0.881417
O O7 0.237047 0.299980 0.989447
O O8 0.524207 0.332674 0.961833
O O9 0.000000 0.688190 0.750000
O O10 0.067865 0.668148 0.931253
O O11 0.353177 0.521346 0.861181
O O12 0.702308 0.631557 0.794813
O O13 0.644777 0.637769 0.599328
O O14 0.889131 0.581542 0.574830
O O15 0.000000 0.500000 0.000000
#
# Coordination Sequence:
#
# PCOD8138274 Si02
#       7
#     8   8   8   4   8   8   8
#     4   9  19  35  55  82 115 150 192 235 295 349
#     4  10  22  38  60  88 122 154 195 252 308 359
#     4  10  20  39  61  88 118 153 202 251 296 365
#     4  10  20  38  56  78 120 156 186 244 302 356
#     4  10  20  38  62  86 118 150 206 249 291 359
#     4  10  20  37  62  89 114 158 197 247 300 359
#     4  10  21  38  58  86 117 152 201 252 297 352
#
# _framework density 19.330392
#
# number of rings (size 3 to 8) (size 9 to 14) (size 15 to 20)
#    0.000    2.154    1.538    2.769    1.077    3.692 
#    2.769    0.769    0.000    0.000    0.000    0.000 
#    0.000    0.000    0.000    0.000    0.000    0.000 
#
# Total GULP energy -322178.272365 kJ/mol
# GULP energy per Si atom -12391.472014 kJ/mol
# Density = 1.928640 g / cm^3
# Si number density = 19.330392 Si / 1000 Ang^3
#
#
#
# Elastic Constant Matrix: (Units=GPa)
#
#
# Indices 1 2 3 4 5 6 
#
# 1 73.0552 62.0346 28.1369 0.0000 9.7182 0.0000
# 2 62.0346 146.2658 42.2314 0.0000 10.7414 0.0000
# 3 28.1369 42.2314 83.9711 0.0000 16.3175 0.0000
# 4 0.0000 0.0000 0.0000 34.4138 0.0000 0.4766
# 5 9.7182 10.7414 16.3175 0.0000 32.1338 0.0000
# 6 0.0000 0.0000 0.0000 0.4766 0.0000 38.2616
#
#
#
# Elastic Compliance Matrix: (Units=1/GPa)
#
#
# Indices 1 2 3 4 5 6 
#
# 1 0.022264 -0.008476 -0.002707 0.000000 -0.002526 0.000000
# 2 -0.008476 0.011239 -0.002863 0.000000 0.000260 0.000000
# 3 -0.002707 -0.002863 0.015434 0.000000 -0.006062 0.000000
# 4 0.000000 0.000000 0.000000 0.029063 0.000000 -0.000362
# 5 -0.002526 0.000260 -0.006062 0.000000 0.034875 0.000000
# 6 0.000000 0.000000 0.000000 -0.000362 0.000000 0.026140
#
#
# Mechanical properties :
#
#
# Convention : Reuss Voigt Hill
#
# Bulk Modulus (GPa) = 47.97132 63.12199 55.54666
# Shear Modulus (GPa) = 28.72673 32.35444 30.54058
#
# Velocity S-wave (km/s) = 3.85917 4.09560 3.97914
# Velocity P-wave (km/s) = 6.68790 7.42229 7.06464
#
# Compressibility (1/GPa) = 0.02084579
#
# Stress axis : x y z
#
# Youngs Moduli (GPa) = 44.91612 88.97530 64.79363
#
# Poissons Ratio (x) = 0.75411 0.17538
# Poissons Ratio (y) = 0.38069 0.18551
# Poissons Ratio (z) = 0.12158 0.25474
#
# Static dielectric constant tensor:
#      x y z
#    x 3.588190 0.000000 0.461940 
#    y 0.000000 3.557460 0.000000 
#    z 0.461940 0.000000 3.956520 
# 
# 
# High freq. dielectric constant tensor:
#      x y z
#    x 1.742350 0.000000 0.014550 
#    y 0.000000 1.758980 0.000000 
#    z 0.014550 0.000000 1.748350 
# 
# From -- ./inp_files/81171.got.cif
#   From: 2010.06.25/outbox.cif.g09.slc.cpg/sg15_41_cif.got.tgz:81171.got - 2010.06.28 07:06:18.
