data_PCOD8138371
_publ_section_title
;
Structure prediction by ZEFSAII (Michael W. Deem and Ramdas Pophale) SiO2 
 PCOD8138371
Probable space group: C 2/C
;
_chemical_formula_sum "Si O2"
_cell_formula_units_Z 56
_cell_length_a 28.740324
_cell_length_b 13.064434
_cell_length_c 15.040667
_cell_angle_alpha 90.000000
_cell_angle_beta 27.603137
_cell_angle_gamma 90.000000
_cell_volume 2616.696893
_symmetry_space_group_name_H-M "C 2/C"
_symmetry_group_IT_number 15
_symmetry_cell_setting 'monoclinic'
loop_
_space_group_symop_operation_xyz
x,y,z
-x,y,1/2-z
-x,-y,-z
x,-y,1/2+z
1/2+x,1/2+y,z
1/2-x,1/2+y,1/2-z
1/2-x,1/2-y,-z
1/2+x,1/2-y,1/2+z
loop_
_atom_site_type_symbol
_atom_site_label
_atom_site_fract_x
_atom_site_fract_y
_atom_site_fract_z
Si Si1 0.184945 0.950485 0.363136
Si Si2 0.000000 0.933002 0.250000
Si Si3 0.085111 0.239262 0.939597
Si Si4 0.500000 0.098020 0.250000
Si Si5 0.483294 0.741263 0.641816
Si Si6 0.620721 0.197645 0.655434
Si Si7 0.137188 0.429325 0.968591
Si Si8 0.809376 0.679669 0.774481
O O1 0.091138 0.992430 0.574794
O O2 0.153447 0.856509 0.352779
O O3 0.271836 0.918789 0.285624
O O4 0.244878 0.042320 0.211792
O O5 0.028128 0.867348 0.289519
O O6 0.128444 0.347275 0.902889
O O7 0.081818 0.241793 0.838104
O O8 0.971881 0.224582 0.169718
O O9 0.559329 0.171078 0.219886
O O10 0.424333 0.034427 0.441231
O O11 0.602158 0.758880 0.424298
O O12 0.585471 0.110447 0.647575
O O13 0.711295 0.250004 0.449731
O O14 0.654292 0.144468 0.689857
#
# Coordination Sequence:
#
# PCOD8138371 Si02
#       8
#     8   4   8   4   8   8   8   8
#     4  12  25  40  68  99 131 170 221 272 329 388
#     4  11  26  43  68  96 136 175 214 273 332 386
#     4  11  24  42  68  95 132 174 221 274 322 390
#     4  11  22  41  66  94 130 171 212 275 322 380
#     4  10  24  45  64  94 137 177 213 268 336 389
#     4  10  20  37  63  92 124 169 215 262 317 378
#     4  12  23  39  68  98 129 168 222 271 322 384
#     4  10  20  37  63  92 128 167 212 262 319 387
#
# _framework density 21.401026999999999
#
# number of rings (size 3 to 8) (size 9 to 14) (size 15 to 20)
#    0.000    1.143    4.286    1.714    0.000    3.429 
#    0.000    1.429    0.000    0.000    0.000    0.000 
#    0.000    0.000    0.000    0.000    0.000    0.000 
#
# Total GULP energy -347065.036790 kJ/mol
# GULP energy per Si atom -12395.179885 kJ/mol
# Density = 2.135232 g / cm^3
# Si number density = 21.401027 Si / 1000 Ang^3
#
#
#
# Elastic Constant Matrix: (Units=GPa)
#
#
# Indices 1 2 3 4 5 6 
#
# 1 133.3453 61.0405 34.4110 0.0000 10.7687 0.0000
# 2 61.0405 103.2052 37.9073 0.0000 3.7379 0.0000
# 3 34.4110 37.9073 78.7940 0.0000 0.2757 0.0000
# 4 0.0000 0.0000 0.0000 35.0981 0.0000 -7.8496
# 5 10.7687 3.7379 0.2757 0.0000 32.8467 0.0000
# 6 0.0000 0.0000 0.0000 -7.8496 0.0000 20.1300
#
#
#
# Elastic Compliance Matrix: (Units=1/GPa)
#
#
# Indices 1 2 3 4 5 6 
#
# 1 0.010790 -0.005526 -0.002043 0.000000 -0.002891 0.000000
# 2 -0.005526 0.014655 -0.004637 0.000000 0.000183 0.000000
# 3 -0.002043 -0.004637 0.015811 0.000000 0.001065 0.000000
# 4 0.000000 0.000000 0.000000 0.031214 0.000000 0.012172
# 5 -0.002891 0.000183 0.001065 0.000000 0.031363 0.000000
# 6 0.000000 0.000000 0.000000 0.012172 0.000000 0.054423
#
#
# Mechanical properties :
#
#
# Convention : Reuss Voigt Hill
#
# Bulk Modulus (GPa) = 59.37801 64.67358 62.02580
# Shear Modulus (GPa) = 26.55572 29.74735 28.15153
#
# Velocity S-wave (km/s) = 3.52641 3.73231 3.63082
# Velocity P-wave (km/s) = 6.66231 6.98992 6.82808
#
# Compressibility (1/GPa) = 0.01684125
#
# Stress axis : x y z
#
# Youngs Moduli (GPa) = 92.67896 68.23732 63.24712
#
# Poissons Ratio (x) = 0.37711 0.12923
# Poissons Ratio (y) = 0.51219 0.29330
# Poissons Ratio (z) = 0.18937 0.31645
#
# Static dielectric constant tensor:
#      x y z
#    x 3.879490 0.000000 0.002880 
#    y 0.000000 3.856200 0.000000 
#    z 0.002880 0.000000 3.989970 
# 
# 
# High freq. dielectric constant tensor:
#      x y z
#    x 1.835520 0.000000 0.000920 
#    y 0.000000 1.834790 0.000000 
#    z 0.000920 0.000000 1.851470 
# 
# From -- ./inp_files/181943.got.cif
#   From: 2010.06.25/outbox.cif.g09.slc.cpg/sg15_91_cif.got.tgz:181943.got - 2010.06.28 07:06:18.
