data_PCOD8138207
_publ_section_title
;
Structure prediction by ZEFSAII (Michael W. Deem and Ramdas Pophale) SiO2 
 PCOD8138207
Probable space group: C 2/C
;
_chemical_formula_sum "Si O2"
_cell_formula_units_Z 56
_cell_length_a 11.387397
_cell_length_b 15.047621
_cell_length_c 27.916651
_cell_angle_alpha 90.000000
_cell_angle_beta 36.915682
_cell_angle_gamma 90.000000
_cell_volume 2873.222164
_symmetry_space_group_name_H-M "C 2/C"
_symmetry_group_IT_number 15
_symmetry_cell_setting 'monoclinic'
loop_
_space_group_symop_operation_xyz
x,y,z
-x,y,1/2-z
-x,-y,-z
x,-y,1/2+z
1/2+x,1/2+y,z
1/2-x,1/2+y,1/2-z
1/2-x,1/2-y,-z
1/2+x,1/2-y,1/2+z
loop_
_atom_site_type_symbol
_atom_site_label
_atom_site_fract_x
_atom_site_fract_y
_atom_site_fract_z
Si Si1 0.284305 0.024449 0.322138
Si Si2 0.323672 0.334338 0.366728
Si Si3 0.293659 0.902407 0.720869
Si Si4 0.246680 0.605063 0.794496
Si Si5 0.720670 0.139817 0.087186
Si Si6 0.977431 0.126542 0.911239
Si Si7 0.156082 0.279055 0.239094
O O1 0.500000 0.977841 0.250000
O O2 0.293018 0.100988 0.278971
O O3 0.230467 0.061990 0.391463
O O4 0.113103 0.959135 0.362662
O O5 0.547349 0.346859 0.278939
O O6 0.185520 0.379049 0.370547
O O7 0.268709 0.231386 0.387486
O O8 0.307078 0.377444 0.425737
O O9 0.510517 0.877855 0.631802
O O10 0.139519 0.826483 0.755632
O O11 0.238011 0.999708 0.719288
O O12 0.109276 0.656875 0.800694
O O13 0.884031 0.138446 0.993230
O O14 0.123152 0.208467 0.853039
O O15 0.000000 0.304806 0.250000
#
# Coordination Sequence:
#
# PCOD8138207 Si02
#       7
#     8   8   8   8   8   8   8
#     4  10  21  36  61  90 119 153 201 248 288 352
#     4  10  20  37  61  83 116 159 195 245 281 357
#     4  11  21  37  60  90 112 158 202 240 295 350
#     4  10  21  38  58  88 118 152 202 248 289 339
#     4  11  22  36  64  86 119 157 202 239 299 353
#     4  11  21  39  58  92 121 152 193 251 300 348
#     4  11  23  37  61  87 120 152 199 250 297 351
#
# _framework density 19.490313
#
# number of rings (size 3 to 8) (size 9 to 14) (size 15 to 20)
#    0.000    1.429    5.714    2.143    8.000    0.000 
#    0.000    0.714    3.143    1.714    0.000    0.000 
#    0.000    0.000    0.000    0.000    0.000    0.000 
#
# Total GULP energy -346921.189354 kJ/mol
# GULP energy per Si atom -12390.042477 kJ/mol
# Density = 1.944595 g / cm^3
# Si number density = 19.490313 Si / 1000 Ang^3
#
#
#
# Elastic Constant Matrix: (Units=GPa)
#
#
# Indices 1 2 3 4 5 6 
#
# 1 125.8791 48.8987 27.7751 0.0001 27.4909 -0.0003
# 2 48.8987 123.2592 28.7110 0.0000 17.2644 0.0003
# 3 27.7751 28.7110 81.5753 0.0014 18.3032 0.0022
# 4 0.0001 0.0000 0.0014 15.7369 0.0009 3.9568
# 5 27.4909 17.2644 18.3032 0.0009 23.0542 0.0005
# 6 -0.0003 0.0003 0.0022 3.9568 0.0005 27.4699
#
#
#
# Elastic Compliance Matrix: (Units=1/GPa)
#
#
# Indices 1 2 3 4 5 6 
#
# 1 0.011660 -0.002941 -0.000377 0.000001 -0.011402 0.000000
# 2 -0.002941 0.010090 -0.001997 0.000000 -0.002464 0.000000
# 3 -0.000377 -0.001997 0.015396 -0.000001 -0.010279 -0.000001
# 4 0.000001 0.000000 -0.000001 0.065933 -0.000003 -0.009497
# 5 -0.011402 -0.002464 -0.010279 -0.000003 0.066978 0.000000
# 6 0.000000 0.000000 -0.000001 -0.009497 0.000000 0.037772
#
#
# Mechanical properties :
#
#
# Convention : Reuss Voigt Hill
#
# Bulk Modulus (GPa) = 37.71212 60.16479 48.93846
# Shear Modulus (GPa) = 21.99775 28.27411 25.13593
#
# Velocity S-wave (km/s) = 3.36318 3.81290 3.59508
# Velocity P-wave (km/s) = 5.87133 7.09369 6.51126
#
# Compressibility (1/GPa) = 0.02651667
#
# Stress axis : x y z
#
# Youngs Moduli (GPa) = 85.76489 99.10893 64.95205
#
# Poissons Ratio (x) = 0.29146 0.02446
# Poissons Ratio (y) = 0.25222 0.12972
# Poissons Ratio (z) = 0.03229 0.19794
#
# Static dielectric constant tensor:
#      x y z
#    x 4.176980 0.000000 0.581620 
#    y 0.000000 3.542440 0.000000 
#    z 0.581620 0.000000 3.529060 
# 
# 
# High freq. dielectric constant tensor:
#      x y z
#    x 1.763710 0.000000 0.031530 
#    y 0.000000 1.766040 0.000000 
#    z 0.031530 0.000000 1.723120 
# 
# From -- ./inp_files/292826.got.cif
#   From: 2010.06.25/outbox.cif.g09.slc.cpg/sg15_147_cif.got.tgz:292826.got - 2010.06.28 07:06:18.
