data_PCOD8138819
_publ_section_title
;
Structure prediction by ZEFSAII (Michael W. Deem and Ramdas Pophale) SiO2 
 PCOD8138819
Probable space group: C 2/C
;
_chemical_formula_sum "Si O2"
_cell_formula_units_Z 56
_cell_length_a 19.526147
_cell_length_b 14.426142
_cell_length_c 8.706840
_cell_angle_alpha 90.000000
_cell_angle_beta 92.174053
_cell_angle_gamma 90.000000
_cell_volume 2450.837984
_symmetry_space_group_name_H-M "C 2/C"
_symmetry_group_IT_number 15
_symmetry_cell_setting 'monoclinic'
loop_
_space_group_symop_operation_xyz
x,y,z
-x,y,1/2-z
-x,-y,-z
x,-y,1/2+z
1/2+x,1/2+y,z
1/2-x,1/2+y,1/2-z
1/2-x,1/2-y,-z
1/2+x,1/2-y,1/2+z
loop_
_atom_site_type_symbol
_atom_site_label
_atom_site_fract_x
_atom_site_fract_y
_atom_site_fract_z
Si Si1 0.531391 0.232163 0.101652
Si Si2 0.557613 0.434098 0.065186
Si Si3 0.623735 0.417093 0.761488
Si Si4 0.407319 0.761018 0.416532
Si Si5 0.279665 0.871480 0.294017
Si Si6 0.236223 0.448435 0.879643
Si Si7 0.661790 0.222928 0.273918
O O1 0.500000 0.182966 0.250000
O O2 0.614237 0.218003 0.114968
O O3 0.519764 0.342000 0.113937
O O4 0.485632 0.197727 0.950603
O O5 0.616540 0.411808 0.944073
O O6 0.500000 0.500000 0.000000
O O7 0.594296 0.482853 0.211107
O O8 0.582814 0.331072 0.683684
O O9 0.701100 0.410264 0.714043
O O10 0.356777 0.833495 0.327416
O O11 0.377816 0.733343 0.582592
O O12 0.252344 0.930084 0.438313
O O13 0.229446 0.785311 0.252032
O O14 0.280527 0.943217 0.151475
O O15 0.175016 0.383725 0.815987
#
# Coordination Sequence:
#
# PCOD8138819 Si02
#       7
#     8   8   8   8   8   8   8
#     4  10  21  37  59  86 119 161 207 251 312 372
#     4  12  24  34  55  88 126 156 202 246 306 383
#     4  12  22  37  57  88 122 165 198 250 313 370
#     4  10  20  38  62  84 120 169 203 252 313 383
#     4  11  21  41  64  91 124 161 214 261 320 366
#     4  11  22  39  65  89 120 167 209 261 310 375
#     4  10  20  40  62  92 121 161 208 261 318 373
#
# _framework density 22.849329000000001
#
# number of rings (size 3 to 8) (size 9 to 14) (size 15 to 20)
#    0.000    1.143    4.286    3.857    2.000    0.000 
#    2.571    2.143    0.000    0.000    0.000    0.000 
#    0.000    0.000    0.000    0.000    0.000    0.000 
#
# Total GULP energy -346953.273756 kJ/mol
# GULP energy per Si atom -12391.188348 kJ/mol
# Density = 2.279732 g / cm^3
# Si number density = 22.849329 Si / 1000 Ang^3
#
#
#
# Elastic Constant Matrix: (Units=GPa)
#
#
# Indices 1 2 3 4 5 6 
#
# 1 96.5542 14.2239 21.2381 0.0000 34.9731 0.0000
# 2 14.2239 63.8689 6.3459 0.0000 7.6098 0.0000
# 3 21.2381 6.3459 47.7711 0.0000 7.0018 0.0000
# 4 0.0000 0.0000 0.0000 31.0905 0.0000 6.8420
# 5 34.9731 7.6098 7.0018 0.0000 37.3738 0.0000
# 6 0.0000 0.0000 0.0000 6.8420 0.0000 33.6351
#
#
#
# Elastic Compliance Matrix: (Units=1/GPa)
#
#
# Indices 1 2 3 4 5 6 
#
# 1 0.017039 -0.001530 -0.005224 0.000000 -0.014655 0.000000
# 2 -0.001530 0.016319 -0.001245 0.000000 -0.001658 0.000000
# 3 -0.005224 -0.001245 0.023307 0.000000 0.000776 0.000000
# 4 0.000000 0.000000 0.000000 0.033671 0.000000 -0.006849
# 5 -0.014655 -0.001658 0.000776 0.000000 0.040662 0.000000
# 6 0.000000 0.000000 0.000000 -0.006849 0.000000 0.031124
#
#
# Mechanical properties :
#
#
# Convention : Reuss Voigt Hill
#
# Bulk Modulus (GPa) = 24.58896 32.42330 28.50613
# Shear Modulus (GPa) = 26.08551 31.51230 28.79891
#
# Velocity S-wave (km/s) = 3.38247 3.71770 3.55404
# Velocity P-wave (km/s) = 5.10289 5.71395 5.41704
#
# Compressibility (1/GPa) = 0.04066866
#
# Stress axis : x y z
#
# Youngs Moduli (GPa) = 58.68730 61.27836 42.90482
#
# Poissons Ratio (x) = 0.09373 0.22415
# Poissons Ratio (y) = 0.08977 0.05340
# Poissons Ratio (z) = 0.30660 0.07627
#
# Static dielectric constant tensor:
#      x y z
#    x 4.716190 0.000000 0.108470 
#    y 0.000000 3.696420 0.000000 
#    z 0.108470 0.000000 4.236960 
# 
# 
# High freq. dielectric constant tensor:
#      x y z
#    x 1.906470 0.000000 0.018320 
#    y 0.000000 1.874400 0.000000 
#    z 0.018320 0.000000 1.889870 
# 
# From -- ./inp_files/55635.got.cif
#   From: 2010.06.25/outbox.cif.g09.slc.cpg/sg15_28_cif.got.tgz:55635.got - 2010.06.28 07:06:18.
