data_PCOD8138857
_publ_section_title
;
Structure prediction by ZEFSAII (Michael W. Deem and Ramdas Pophale) SiO2 
 PCOD8138857
Probable space group: C 2/C
;
_chemical_formula_sum "Si O2"
_cell_formula_units_Z 40
_cell_length_a 11.448405
_cell_length_b 12.430471
_cell_length_c 14.424502
_cell_angle_alpha 90.000000
_cell_angle_beta 124.691129
_cell_angle_gamma 90.000000
_cell_volume 1687.826740
_symmetry_space_group_name_H-M "C 2/C"
_symmetry_group_IT_number 15
_symmetry_cell_setting 'monoclinic'
loop_
_space_group_symop_operation_xyz
x,y,z
-x,y,1/2-z
-x,-y,-z
x,-y,1/2+z
1/2+x,1/2+y,z
1/2-x,1/2+y,1/2-z
1/2-x,1/2-y,-z
1/2+x,1/2-y,1/2+z
loop_
_atom_site_type_symbol
_atom_site_label
_atom_site_fract_x
_atom_site_fract_y
_atom_site_fract_z
Si Si1 0.010479 0.625908 0.152542
Si Si2 0.765978 0.550504 0.749666
Si Si3 0.691237 0.926715 0.438092
Si Si4 0.037425 0.707879 0.561831
Si Si5 0.502987 0.417572 0.648078
O O1 0.160107 0.565903 0.206344
O O2 0.000000 0.681114 0.250000
O O3 0.888917 0.537900 0.087021
O O4 0.989392 0.712195 0.061125
O O5 0.798461 0.605249 0.665288
O O6 0.826540 0.632908 0.853778
O O7 0.598750 0.526173 0.686597
O O8 0.606130 0.832717 0.452263
O O9 0.844424 0.948349 0.549304
O O10 0.067677 0.828936 0.607525
O O11 0.500000 0.370012 0.750000
#
# Coordination Sequence:
#
# PCOD8138857 Si02
#       5
#     8   8   8   8   8
#     4   9  19  38  62  83 116 165 202 240 303 364
#     4  10  21  38  59  90 127 158 192 248 309 361
#     4  10  20  38  62  88 120 158 198 250 304 359
#     4  11  21  38  64  91 120 161 204 250 301 357
#     4  12  23  36  61  96 123 156 205 254 298 355
#
# _framework density 23.699114000000002
#
# number of rings (size 3 to 8) (size 9 to 14) (size 15 to 20)
#    0.000    1.600    0.000    9.000    0.000    1.600 
#    0.000    4.000    0.000   22.800    0.000    0.000 
#    0.000    0.000    0.000    0.000    0.000    0.000 
#
# Total GULP energy -248033.733040 kJ/mol
# GULP energy per Si atom -12401.686652 kJ/mol
# Density = 2.364517 g / cm^3
# Si number density = 23.699114 Si / 1000 Ang^3
#
#
#
# Elastic Constant Matrix: (Units=GPa)
#
#
# Indices 1 2 3 4 5 6 
#
# 1 81.0046 32.3308 51.5171 0.0000 6.4367 0.0000
# 2 32.3308 36.4742 19.4365 0.0000 -0.2419 0.0000
# 3 51.5171 19.4365 145.0951 0.0000 -10.0593 0.0000
# 4 0.0000 0.0000 0.0000 16.8796 0.0000 -6.2144
# 5 6.4367 -0.2419 -10.0593 0.0000 70.7148 0.0000
# 6 0.0000 0.0000 0.0000 -6.2144 0.0000 13.4378
#
#
#
# Elastic Compliance Matrix: (Units=1/GPa)
#
#
# Indices 1 2 3 4 5 6 
#
# 1 0.023575 -0.017599 -0.006227 0.000000 -0.003092 0.000000
# 2 -0.017599 0.042677 0.000660 0.000000 0.001842 0.000000
# 3 -0.006227 0.000660 0.009144 0.000000 0.001870 0.000000
# 4 0.000000 0.000000 0.000000 0.071400 0.000000 0.033019
# 5 -0.003092 0.001842 0.001870 0.000000 0.014695 0.000000
# 6 0.000000 0.000000 0.000000 0.033019 0.000000 0.089687
#
#
# Mechanical properties :
#
#
# Convention : Reuss Voigt Hill
#
# Bulk Modulus (GPa) = 34.40820 52.12697 43.26758
# Shear Modulus (GPa) = 16.27598 30.82574 23.55086
#
# Velocity S-wave (km/s) = 2.62348 3.61045 3.15579
# Velocity P-wave (km/s) = 4.87106 6.27882 5.61920
#
# Compressibility (1/GPa) = 0.02906284
#
# Stress axis : x y z
#
# Youngs Moduli (GPa) = 42.41692 23.43156 109.35611
#
# Poissons Ratio (x) = 0.41238 0.68101
# Poissons Ratio (y) = 0.74651 -0.07212
# Poissons Ratio (z) = 0.26415 -0.01545
#
# Static dielectric constant tensor:
#      x y z
#    x 4.388710 0.000000 -0.065250 
#    y 0.000000 3.647290 0.000000 
#    z -0.065250 0.000000 4.676890 
# 
# 
# High freq. dielectric constant tensor:
#      x y z
#    x 1.936050 0.000000 0.000500 
#    y 0.000000 1.895800 0.000000 
#    z 0.000500 0.000000 1.963890 
# 
# From -- ./inp_files/85698.got.cif
#   From: 2010.06.25/outbox.cif.g09.slc.cpg/sg15_43_cif.got.tgz:85698.got - 2010.06.28 07:06:18.
