data_PCOD8138201
_publ_section_title
;
Structure prediction by ZEFSAII (Michael W. Deem and Ramdas Pophale) SiO2 
 PCOD8138201
Probable space group: C 2/C
;
_chemical_formula_sum "Si O2"
_cell_formula_units_Z 56
_cell_length_a 11.832066
_cell_length_b 14.147539
_cell_length_c 17.543994
_cell_angle_alpha 90.000000
_cell_angle_beta 118.709535
_cell_angle_gamma 90.000000
_cell_volume 2575.741914
_symmetry_space_group_name_H-M "C 2/C"
_symmetry_group_IT_number 15
_symmetry_cell_setting 'monoclinic'
loop_
_space_group_symop_operation_xyz
x,y,z
-x,y,1/2-z
-x,-y,-z
x,-y,1/2+z
1/2+x,1/2+y,z
1/2-x,1/2+y,1/2-z
1/2-x,1/2-y,-z
1/2+x,1/2-y,1/2+z
loop_
_atom_site_type_symbol
_atom_site_label
_atom_site_fract_x
_atom_site_fract_y
_atom_site_fract_z
Si Si1 0.403760 0.035701 0.159469
Si Si2 0.714825 0.786080 0.088349
Si Si3 0.952786 0.813748 0.081628
Si Si4 0.399043 0.861640 0.871078
Si Si5 0.465578 0.506215 0.151788
Si Si6 0.670271 0.997334 0.029231
Si Si7 0.309505 0.635300 0.311009
O O1 0.500000 0.978582 0.250000
O O2 0.495474 0.120983 0.160641
O O3 0.275188 0.073554 0.157582
O O4 0.362465 0.978909 0.069661
O O5 0.870144 0.792370 0.132027
O O6 0.649514 0.886571 0.045523
O O7 0.685296 0.746748 0.163680
O O8 0.657688 0.699738 0.018459
O O9 0.073087 0.747159 0.097920
O O10 0.005333 0.919798 0.108210
O O11 0.254276 0.871250 0.793163
O O12 0.420410 0.936533 0.946889
O O13 0.500000 0.480604 0.250000
O O14 0.315795 0.529283 0.093103
O O15 0.546392 0.595884 0.148749
#
# Coordination Sequence:
#
# PCOD8138201 Si02
#       7
#     8   8   8   8   8   8   8
#     4  10  21  36  61  95 122 158 211 260 314 366
#     4  10  20  37  60  95 121 159 209 259 312 371
#     4  10  21  36  62  94 120 161 211 265 312 363
#     4  11  21  36  64  95 129 162 207 262 318 370
#     4  11  24  40  61  94 127 166 215 255 317 377
#     4  11  22  40  65  93 131 168 206 258 320 375
#     4  11  22  38  61  93 128 169 211 259 307 379
#
# _framework density 21.741308
#
# number of rings (size 3 to 8) (size 9 to 14) (size 15 to 20)
#    0.000    1.429    4.286    2.143    4.000    2.286 
#    0.000    0.000    3.143    2.571    0.000    0.000 
#    0.000    0.000    0.000    0.000    0.000    0.000 
#
# Total GULP energy -346887.291269 kJ/mol
# GULP energy per Si atom -12388.831831 kJ/mol
# Density = 2.169182 g / cm^3
# Si number density = 21.741308 Si / 1000 Ang^3
#
#
#
# Elastic Constant Matrix: (Units=GPa)
#
#
# Indices 1 2 3 4 5 6 
#
# 1 59.2450 32.4910 23.7909 0.0000 4.7471 0.0000
# 2 32.4910 87.1423 29.3028 0.0000 -4.1321 0.0000
# 3 23.7909 29.3028 125.1172 0.0000 0.3153 0.0000
# 4 0.0000 0.0000 0.0000 23.9160 0.0000 -1.3465
# 5 4.7471 -4.1321 0.3153 0.0000 29.1244 0.0000
# 6 0.0000 0.0000 0.0000 -1.3465 0.0000 37.6138
#
#
#
# Elastic Compliance Matrix: (Units=1/GPa)
#
#
# Indices 1 2 3 4 5 6 
#
# 1 0.022518 -0.007800 -0.002443 0.000000 -0.004750 0.000000
# 2 -0.007800 0.015253 -0.002098 0.000000 0.003458 0.000000
# 3 -0.002443 -0.002098 0.008948 0.000000 0.000004 0.000000
# 4 0.000000 0.000000 0.000000 0.041897 0.000000 0.001500
# 5 -0.004750 0.003458 0.000004 0.000000 0.035600 0.000000
# 6 0.000000 0.000000 0.000000 0.001500 0.000000 0.026640
#
#
# Mechanical properties :
#
#
# Convention : Reuss Voigt Hill
#
# Bulk Modulus (GPa) = 45.37568 49.18597 47.28082
# Shear Modulus (GPa) = 27.33966 30.52550 28.93258
#
# Velocity S-wave (km/s) = 3.54997 3.75111 3.65192
# Velocity P-wave (km/s) = 6.14159 6.43688 6.29097
#
# Compressibility (1/GPa) = 0.02203824
#
# Stress axis : x y z
#
# Youngs Moduli (GPa) = 44.40850 65.56095 111.75192
#
# Poissons Ratio (x) = 0.51135 0.27303
# Poissons Ratio (y) = 0.34637 0.23445
# Poissons Ratio (z) = 0.10850 0.13754
#
# Static dielectric constant tensor:
#      x y z
#    x 3.658930 0.000000 0.099380 
#    y 0.000000 3.528110 0.000000 
#    z 0.099380 0.000000 4.206550 
# 
# 
# High freq. dielectric constant tensor:
#      x y z
#    x 1.836630 0.000000 0.018990 
#    y 0.000000 1.812360 0.000000 
#    z 0.018990 0.000000 1.871450 
# 
# From -- ./inp_files/198410.got.cif
#   From: 2010.06.25/outbox.cif.g09.slc.cpg/sg15_100_cif.got.tgz:198410.got - 2010.06.28 07:06:18.
