data_PCOD8138083
_publ_section_title
;
Structure prediction by ZEFSAII (Michael W. Deem and Ramdas Pophale) SiO2 
 PCOD8138083
Probable space group: C 2/C
;
_chemical_formula_sum "Si O2"
_cell_formula_units_Z 60
_cell_length_a 15.141289
_cell_length_b 14.598932
_cell_length_c 19.354838
_cell_angle_alpha 90.000000
_cell_angle_beta 44.609972
_cell_angle_gamma 90.000000
_cell_volume 3004.567046
_symmetry_space_group_name_H-M "C 2/C"
_symmetry_group_IT_number 15
_symmetry_cell_setting 'monoclinic'
loop_
_space_group_symop_operation_xyz
x,y,z
-x,y,1/2-z
-x,-y,-z
x,-y,1/2+z
1/2+x,1/2+y,z
1/2-x,1/2+y,1/2-z
1/2-x,1/2-y,-z
1/2+x,1/2-y,1/2+z
loop_
_atom_site_type_symbol
_atom_site_label
_atom_site_fract_x
_atom_site_fract_y
_atom_site_fract_z
Si Si1 0.997098 0.488171 0.832401
Si Si2 0.500000 0.710760 0.250000
Si Si3 0.879785 0.685682 0.189817
Si Si4 0.741996 0.876140 0.881182
Si Si5 0.648898 0.756788 0.400538
Si Si6 0.451900 0.179008 0.908485
Si Si7 0.722905 0.928583 0.449344
Si Si8 0.125298 0.193640 0.552304
O O1 0.025389 0.582640 0.857087
O O2 0.000000 0.509925 0.750000
O O3 0.105851 0.414008 0.784268
O O4 0.865809 0.449166 0.935196
O O5 0.614268 0.649829 0.214985
O O6 0.562508 0.771998 0.156342
O O7 0.849117 0.665837 0.126816
O O8 0.770011 0.741134 0.287108
O O9 0.000148 0.749152 0.138176
O O10 0.740149 0.986222 0.888082
O O11 0.688283 0.836626 0.983355
O O12 0.529960 0.758094 0.416922
O O13 0.657729 0.850879 0.439035
O O14 0.627623 0.674507 0.468129
O O15 0.857823 0.896980 0.408678
O O16 0.250000 0.250000 0.500000
#
# Coordination Sequence:
#
# PCOD8138083 Si02
#       8
#     8   4   8   8   8   8   8   8
#     4  11  21  36  62  92 128 163 219 261 315 380
#     4  12  24  44  62  90 114 162 228 256 324 372
#     4  12  22  35  63  94 125 172 207 258 324 388
#     4  11  24  42  67  86 126 171 216 264 323 387
#     4  11  21  37  64  91 131 158 210 259 314 386
#     4  11  22  42  64  89 119 167 217 271 307 381
#     4  10  22  40  61  95 130 168 206 265 328 383
#     4  10  20  37  58  94 129 158 205 256 322 382
#
# _framework density 19.969598999999999
#
# number of rings (size 3 to 8) (size 9 to 14) (size 15 to 20)
#    0.000    1.067    6.000    2.000    1.867    3.200 
#    0.000    0.000    0.000    0.800    0.000    0.000 
#    0.000    0.000    0.000    0.000    0.000    0.000 
#
# Total GULP energy -371783.957611 kJ/mol
# GULP energy per Si atom -12392.798587 kJ/mol
# Density = 1.992415 g / cm^3
# Si number density = 19.969599 Si / 1000 Ang^3
#
#
#
# Elastic Constant Matrix: (Units=GPa)
#
#
# Indices 1 2 3 4 5 6 
#
# 1 78.6508 11.1143 9.6424 0.0000 2.7068 0.0000
# 2 11.1143 45.8798 15.2727 0.0000 -2.6084 0.0000
# 3 9.6424 15.2727 74.2169 0.0000 4.7044 0.0000
# 4 0.0000 0.0000 0.0000 24.8528 0.0000 5.6098
# 5 2.7068 -2.6084 4.7044 0.0000 37.2284 0.0000
# 6 0.0000 0.0000 0.0000 5.6098 0.0000 32.5880
#
#
#
# Elastic Compliance Matrix: (Units=1/GPa)
#
#
# Indices 1 2 3 4 5 6 
#
# 1 0.013294 -0.002927 -0.001059 0.000000 -0.001038 0.000000
# 2 -0.002927 0.024235 -0.004766 0.000000 0.002513 0.000000
# 3 -0.001059 -0.004766 0.014727 0.000000 -0.002118 0.000000
# 4 0.000000 0.000000 0.000000 0.041864 0.000000 -0.007207
# 5 -0.001038 0.002513 -0.002118 0.000000 0.027380 0.000000
# 6 0.000000 0.000000 0.000000 -0.007207 0.000000 0.031927
#
#
# Mechanical properties :
#
#
# Convention : Reuss Voigt Hill
#
# Bulk Modulus (GPa) = 28.77635 30.08961 29.43298
# Shear Modulus (GPa) = 27.39532 29.78173 28.58852
#
# Velocity S-wave (km/s) = 3.70787 3.86599 3.78776
# Velocity P-wave (km/s) = 5.72472 5.91847 5.82240
#
# Compressibility (1/GPa) = 0.03475076
#
# Stress axis : x y z
#
# Youngs Moduli (GPa) = 75.22426 41.26343 67.90407
#
# Poissons Ratio (x) = 0.12077 0.07191
# Poissons Ratio (y) = 0.22017 0.32364
# Poissons Ratio (z) = 0.07967 0.19667
#
# Static dielectric constant tensor:
#      x y z
#    x 3.813990 0.000000 0.215610 
#    y 0.000000 3.834930 0.000000 
#    z 0.215610 0.000000 3.670520 
# 
# 
# High freq. dielectric constant tensor:
#      x y z
#    x 1.777930 0.000000 0.014520 
#    y 0.000000 1.765050 0.000000 
#    z 0.014520 0.000000 1.783360 
# 
# From -- ./inp_files/244674.got.cif
#   From: 2010.06.25/outbox.cif.g09.slc.cpg/sg15_123_cif.got.tgz:244674.got - 2010.06.28 07:06:18.
