data_PCOD8138846
_publ_section_title
;
Structure prediction by ZEFSAII (Michael W. Deem and Ramdas Pophale) SiO2 
 PCOD8138846
Probable space group: C 2/C
;
_chemical_formula_sum "Si O2"
_cell_formula_units_Z 60
_cell_length_a 13.541807
_cell_length_b 16.147649
_cell_length_c 18.854407
_cell_angle_alpha 90.000000
_cell_angle_beta 47.035250
_cell_angle_gamma 90.000000
_cell_volume 3016.999704
_symmetry_space_group_name_H-M "C 2/C"
_symmetry_group_IT_number 15
_symmetry_cell_setting 'monoclinic'
loop_
_space_group_symop_operation_xyz
x,y,z
-x,y,1/2-z
-x,-y,-z
x,-y,1/2+z
1/2+x,1/2+y,z
1/2-x,1/2+y,1/2-z
1/2-x,1/2-y,-z
1/2+x,1/2-y,1/2+z
loop_
_atom_site_type_symbol
_atom_site_label
_atom_site_fract_x
_atom_site_fract_y
_atom_site_fract_z
Si Si1 0.633944 0.723013 0.352758
Si Si2 0.798434 0.370597 0.530151
Si Si3 0.212544 0.952418 0.059526
Si Si4 0.500000 0.362024 0.250000
Si Si5 0.595455 0.721836 0.841896
Si Si6 0.409620 0.234345 0.859781
Si Si7 0.947777 0.089661 0.000030
Si Si8 0.452155 0.854071 0.997346
O O1 0.754391 0.739379 0.237669
O O2 0.496391 0.716864 0.375790
O O3 0.633803 0.636726 0.397037
O O4 0.637117 0.801398 0.403828
O O5 0.703211 0.448901 0.566095
O O6 0.712015 0.294478 0.605132
O O7 0.851744 0.347732 0.425470
O O8 0.919111 0.392369 0.525110
O O9 0.161094 0.919422 0.009325
O O10 0.365457 0.924831 0.001445
O O11 0.120782 0.920953 0.168006
O O12 0.450463 0.302829 0.212957
O O13 0.575314 0.645205 0.908165
O O14 0.497369 0.794927 0.912174
O O15 0.500000 0.205163 0.750000
O O16 0.000000 0.000000 0.000000
#
# Coordination Sequence:
#
# PCOD8138846 Si02
#       8
#     8   8   8   4   8   8   8   8
#     4  10  20  38  62  87 120 156 207 249 296 369
#     4  10  22  39  60  88 127 154 206 251 302 365
#     4  11  22  39  61  89 123 160 197 258 310 355
#     4  10  22  36  62  88 116 154 206 250 298 362
#     4  10  21  38  62  88 120 160 204 249 301 368
#     4  10  21  38  62  88 115 167 205 246 300 366
#     4  10  23  40  60  89 123 160 201 257 312 361
#     4  10  21  38  61  87 120 164 197 248 306 364
#
# _framework density 19.887305999999999
#
# number of rings (size 3 to 8) (size 9 to 14) (size 15 to 20)
#    0.000    1.867    1.333    2.000    2.800    4.800 
#    4.800    1.333    0.000    0.000    0.000    0.000 
#    0.000    0.000    0.000    0.000    0.000    0.000 
#
# Total GULP energy -371929.869947 kJ/mol
# GULP energy per Si atom -12397.662332 kJ/mol
# Density = 1.984204 g / cm^3
# Si number density = 19.887306 Si / 1000 Ang^3
#
#
#
# Elastic Constant Matrix: (Units=GPa)
#
#
# Indices 1 2 3 4 5 6 
#
# 1 74.2260 29.0701 26.4209 0.0001 -3.5402 0.0000
# 2 29.0701 89.0987 34.4308 0.0001 2.4155 0.0000
# 3 26.4209 34.4308 114.1172 0.0003 2.3451 -0.0001
# 4 0.0001 0.0001 0.0003 16.1741 -0.0002 3.0380
# 5 -3.5402 2.4155 2.3451 -0.0002 30.1887 0.0001
# 6 0.0000 0.0000 -0.0001 3.0380 0.0001 28.2342
#
#
#
# Elastic Compliance Matrix: (Units=1/GPa)
#
#
# Indices 1 2 3 4 5 6 
#
# 1 0.016189 -0.004393 -0.002473 0.000000 0.002442 0.000000
# 2 -0.004393 0.013912 -0.003152 0.000000 -0.001383 0.000000
# 3 -0.002473 -0.003152 0.010304 0.000000 -0.000838 0.000000
# 4 0.000000 0.000000 0.000000 0.063103 0.000000 -0.006790
# 5 0.002442 -0.001383 -0.000838 0.000000 0.033587 0.000000
# 6 0.000000 0.000000 0.000000 -0.006790 0.000000 0.036149
#
#
# Mechanical properties :
#
#
# Convention : Reuss Voigt Hill
#
# Bulk Modulus (GPa) = 49.09225 50.80952 49.95089
# Shear Modulus (GPa) = 24.99130 27.42074 26.20602
#
# Velocity S-wave (km/s) = 3.54877 3.71726 3.63399
# Velocity P-wave (km/s) = 6.44441 6.63537 6.54059
#
# Compressibility (1/GPa) = 0.02036981
#
# Stress axis : x y z
#
# Youngs Moduli (GPa) = 61.76845 71.87904 97.05184
#
# Poissons Ratio (x) = 0.31574 0.24002
# Poissons Ratio (y) = 0.27133 0.30592
# Poissons Ratio (z) = 0.15276 0.22657
#
# Static dielectric constant tensor:
#      x y z
#    x 3.603240 0.000000 0.040260 
#    y 0.000000 3.476250 0.000000 
#    z 0.040260 0.000000 3.845380 
# 
# 
# High freq. dielectric constant tensor:
#      x y z
#    x 1.784240 0.000000 0.003950 
#    y 0.000000 1.763750 0.000000 
#    z 0.003950 0.000000 1.777830 
# 
# From -- ./inp_files/244680.got.cif
#   From: 2010.06.25/outbox.cif.g09.slc.cpg/sg15_123_cif.got.tgz:244680.got - 2010.06.28 07:06:18.
