data_PCOD8138874
_publ_section_title
;
Structure prediction by ZEFSAII (Michael W. Deem and Ramdas Pophale) SiO2 
 PCOD8138874
Probable space group: C 2/C
;
_chemical_formula_sum "Si O2"
_cell_formula_units_Z 64
_cell_length_a 11.742287
_cell_length_b 15.801316
_cell_length_c 19.455931
_cell_angle_alpha 90.000000
_cell_angle_beta 70.966626
_cell_angle_gamma 90.000000
_cell_volume 3412.564314
_symmetry_space_group_name_H-M "C 2/C"
_symmetry_group_IT_number 15
_symmetry_cell_setting 'monoclinic'
loop_
_space_group_symop_operation_xyz
x,y,z
-x,y,1/2-z
-x,-y,-z
x,-y,1/2+z
1/2+x,1/2+y,z
1/2-x,1/2+y,1/2-z
1/2-x,1/2-y,-z
1/2+x,1/2-y,1/2+z
loop_
_atom_site_type_symbol
_atom_site_label
_atom_site_fract_x
_atom_site_fract_y
_atom_site_fract_z
Si Si1 0.214002 0.708053 0.687459
Si Si2 0.841124 0.953584 0.399431
Si Si3 0.930694 0.879556 0.079373
Si Si4 0.585254 0.627991 0.170055
Si Si5 0.046957 0.438084 0.168466
Si Si6 0.264082 0.470217 0.564194
Si Si7 0.668254 0.155069 0.849027
Si Si8 0.421722 0.678568 0.076224
O O1 0.348877 0.685405 0.637954
O O2 0.184797 0.803714 0.672784
O O3 0.119311 0.647916 0.668033
O O4 0.202626 0.699064 0.770984
O O5 0.760027 0.950767 0.484070
O O6 0.785413 0.891268 0.354484
O O7 0.977775 0.925041 0.386750
O O8 0.840250 0.047064 0.368538
O O9 0.853464 0.951401 0.057255
O O10 0.001158 0.826766 0.008310
O O11 0.500000 0.603389 0.250000
O O12 0.505486 0.664785 0.124907
O O13 0.130087 0.508885 0.116634
O O14 0.000000 0.476155 0.250000
O O15 0.937243 0.414455 0.139722
O O16 0.313484 0.389685 0.596600
O O17 0.631281 0.227202 0.910431
#
# Coordination Sequence:
#
# PCOD8138874 Si02
#       8
#     8   8   8   8   8   8   8   8
#     4  10  21  38  60  88 118 149 201 250 293 347
#     4  11  24  38  61  91 121 155 199 247 296 353
#     4  10  21  38  61  90 120 157 198 246 302 345
#     4  12  21  36  63  93 111 149 208 249 283 349
#     4   9  19  37  61  83 118 160 192 242 305 346
#     4  10  20  38  62  89 121 155 202 247 293 352
#     4  11  23  39  58  88 124 159 194 242 300 356
#     4  11  20  39  63  84 120 157 198 242 291 354
#
# _framework density 18.754225999999999
#
# number of rings (size 3 to 8) (size 9 to 14) (size 15 to 20)
#    0.000    1.500    5.000    1.125    1.750    5.000 
#    0.000    1.250    0.000    0.000    0.000    0.000 
#    0.000    0.000    0.000    0.000    0.000    0.000 
#
# Total GULP energy -396952.132535 kJ/mol
# GULP energy per Si atom -12404.754142 kJ/mol
# Density = 1.871154 g / cm^3
# Si number density = 18.754226 Si / 1000 Ang^3
#
#
#
# Elastic Constant Matrix: (Units=GPa)
#
#
# Indices 1 2 3 4 5 6 
#
# 1 73.7532 48.8745 48.0078 0.0000 -0.4300 0.0000
# 2 48.8745 85.0275 42.4847 0.0000 3.0333 0.0000
# 3 48.0078 42.4847 84.1842 0.0000 -12.8353 0.0000
# 4 0.0000 0.0000 0.0000 -9.9101 0.0000 20.6840
# 5 -0.4300 3.0333 -12.8353 0.0000 27.2111 0.0000
# 6 0.0000 0.0000 0.0000 20.6840 0.0000 10.1685
#
#
#
# Elastic Compliance Matrix: (Units=1/GPa)
#
#
# Indices 1 2 3 4 5 6 
#
# 1 0.027479 -0.010098 -0.011137 0.000000 -0.003693 0.000000
# 2 -0.010098 0.020376 -0.005274 0.000000 -0.004919 0.000000
# 3 -0.011137 -0.005274 0.022578 0.000000 0.011062 0.000000
# 4 0.000000 0.000000 0.000000 -0.019237 0.000000 0.039130
# 5 -0.003693 -0.004919 0.011062 0.000000 0.042458 0.000000
# 6 0.000000 0.000000 0.000000 0.039130 0.000000 0.018748
#
#
# Mechanical properties :
#
#
# Convention : Reuss Voigt Hill
#
# Bulk Modulus (GPa) = 57.42661 57.96656 57.69658
# Shear Modulus (GPa) = 29.20118 12.40043 20.80080
#
# Velocity S-wave (km/s) = 3.95022 2.57418 3.33397
# Velocity P-wave (km/s) = 7.17585 6.30959 6.75661
#
# Compressibility (1/GPa) = 0.01741353
#
# Stress axis : x y z
#
# Youngs Moduli (GPa) = 36.39198 49.07632 44.29057
#
# Poissons Ratio (x) = 0.49560 0.49327
# Poissons Ratio (y) = 0.36750 0.23360
# Poissons Ratio (z) = 0.40530 0.25884
#
# Static dielectric constant tensor:
#      x y z
#    x 3.422910 0.000000 -0.064960 
#    y 0.000000 3.413340 0.000000 
#    z -0.064960 0.000000 3.611370 
# 
# 
# High freq. dielectric constant tensor:
#      x y z
#    x 1.722080 0.000000 0.001430 
#    y 0.000000 1.721370 0.000000 
#    z 0.001430 0.000000 1.735500 
# 
# From -- ./inp_files/238736.got.cif
#   From: 2010.06.25/outbox.cif.g09.slc.cpg/sg15_120_cif.got.tgz:238736.got - 2010.06.28 07:06:18.
