data_PCOD8138435
_publ_section_title
;
Structure prediction by ZEFSAII (Michael W. Deem and Ramdas Pophale) SiO2 
 PCOD8138435
Probable space group: C 2/C
;
_chemical_formula_sum "Si O2"
_cell_formula_units_Z 56
_cell_length_a 8.390447
_cell_length_b 19.181678
_cell_length_c 17.967209
_cell_angle_alpha 90.000000
_cell_angle_beta 115.276981
_cell_angle_gamma 90.000000
_cell_volume 2614.826243
_symmetry_space_group_name_H-M "C 2/C"
_symmetry_group_IT_number 15
_symmetry_cell_setting 'monoclinic'
loop_
_space_group_symop_operation_xyz
x,y,z
-x,y,1/2-z
-x,-y,-z
x,-y,1/2+z
1/2+x,1/2+y,z
1/2-x,1/2+y,1/2-z
1/2-x,1/2-y,-z
1/2+x,1/2-y,1/2+z
loop_
_atom_site_type_symbol
_atom_site_label
_atom_site_fract_x
_atom_site_fract_y
_atom_site_fract_z
Si Si1 0.500000 0.861909 0.250000
Si Si2 0.922567 0.086703 0.654781
Si Si3 0.000000 0.318639 0.750000
Si Si4 0.804560 0.508663 0.988614
Si Si5 0.209601 0.108668 0.584524
Si Si6 0.995507 0.763388 0.991024
Si Si7 0.867146 0.346488 0.572674
Si Si8 0.798736 0.710577 0.827870
O O1 0.598391 0.900920 0.337823
O O2 0.658748 0.819962 0.244326
O O3 0.808435 0.019332 0.609086
O O4 0.806439 0.157324 0.638226
O O5 0.000000 0.067983 0.750000
O O6 0.065737 0.094787 0.618679
O O7 0.973445 0.364007 0.670159
O O8 0.825468 0.272990 0.720559
O O9 0.717023 0.447124 0.019277
O O10 0.794840 0.580700 0.030428
O O11 0.000000 0.500000 0.000000
O O12 0.159855 0.184093 0.537179
O O13 0.805547 0.800067 0.953679
O O14 0.985294 0.731718 0.904767
O O15 0.003883 0.697392 0.048703
#
# Coordination Sequence:
#
# PCOD8138435 Si02
#       8
#     4   8   4   8   8   8   8   8
#     4  12  24  39  62 104 133 180 224 290 340 412
#     4  12  22  44  72  96 130 181 235 282 337 425
#     4  10  20  37  64  96 121 174 220 282 334 404
#     4  12  27  46  64  99 141 185 228 285 351 426
#     4  12  25  42  71  98 137 183 238 282 352 420
#     4  10  20  39  69  97 125 176 227 282 340 404
#     4  10  20  39  66  94 130 170 224 274 341 410
#     4  11  20  39  66 100 137 166 227 286 348 411
#
# _framework density 21.416338
#
# number of rings (size 3 to 8) (size 9 to 14) (size 15 to 20)
#    0.000    0.857    5.000    3.857    0.000    1.143 
#    2.571    0.000    0.000    0.000    0.000    0.000 
#    0.000    0.000    0.000    0.000    0.000    0.000 
#
# Total GULP energy -346873.453287 kJ/mol
# GULP energy per Si atom -12388.337617 kJ/mol
# Density = 2.136759 g / cm^3
# Si number density = 21.416338 Si / 1000 Ang^3
#
#
#
# Elastic Constant Matrix: (Units=GPa)
#
#
# Indices 1 2 3 4 5 6 
#
# 1 73.6462 11.4687 19.3027 0.0000 -2.3229 0.0000
# 2 11.4687 78.7301 43.5527 0.0000 0.2448 0.0000
# 3 19.3027 43.5527 156.5127 0.0000 17.7343 0.0000
# 4 0.0000 0.0000 0.0000 20.5636 0.0000 5.3278
# 5 -2.3229 0.2448 17.7343 0.0000 37.0152 0.0000
# 6 0.0000 0.0000 0.0000 5.3278 0.0000 22.9785
#
#
#
# Elastic Compliance Matrix: (Units=1/GPa)
#
#
# Indices 1 2 3 4 5 6 
#
# 1 0.014239 -0.001185 -0.001616 0.000000 0.001676 0.000000
# 2 -0.001185 0.015254 -0.004313 0.000000 0.001891 0.000000
# 3 -0.001616 -0.004313 0.008245 0.000000 -0.004023 0.000000
# 4 0.000000 0.000000 0.000000 0.051738 0.000000 -0.011996
# 5 0.001676 0.001891 -0.004023 0.000000 0.029036 0.000000
# 6 0.000000 0.000000 0.000000 -0.011996 0.000000 0.046300
#
#
# Mechanical properties :
#
#
# Convention : Reuss Voigt Hill
#
# Bulk Modulus (GPa) = 42.53625 50.83745 46.68685
# Shear Modulus (GPa) = 26.75549 31.74914 29.25232
#
# Velocity S-wave (km/s) = 3.53838 3.85447 3.69980
# Velocity P-wave (km/s) = 6.04965 6.60291 6.33233
#
# Compressibility (1/GPa) = 0.02350936
#
# Stress axis : x y z
#
# Youngs Moduli (GPa) = 70.22725 65.55549 121.29223
#
# Poissons Ratio (x) = 0.07771 0.19603
# Poissons Ratio (y) = 0.08325 0.52312
# Poissons Ratio (z) = 0.11350 0.28273
#
# Static dielectric constant tensor:
#      x y z
#    x 3.722730 0.000000 0.040750 
#    y 0.000000 3.262880 0.000000 
#    z 0.040750 0.000000 4.622140 
# 
# 
# High freq. dielectric constant tensor:
#      x y z
#    x 1.836250 0.000000 0.002530 
#    y 0.000000 1.812330 0.000000 
#    z 0.002530 0.000000 1.869660 
# 
# From -- ./inp_files/192288.got.cif
#   From: 2010.06.25/outbox.cif.g09.slc.cpg/sg15_97_cif.got.tgz:192288.got - 2010.06.28 07:06:18.
