data_PCOD8138829
_publ_section_title
;
Structure prediction by ZEFSAII (Michael W. Deem and Ramdas Pophale) SiO2 
 PCOD8138829
Probable space group: C 2/C
;
_chemical_formula_sum "Si O2"
_cell_formula_units_Z 48
_cell_length_a 12.089767
_cell_length_b 12.061116
_cell_length_c 16.764333
_cell_angle_alpha 90.000000
_cell_angle_beta 73.320985
_cell_angle_gamma 90.000000
_cell_volume 2341.663175
_symmetry_space_group_name_H-M "C 2/C"
_symmetry_group_IT_number 15
_symmetry_cell_setting 'monoclinic'
loop_
_space_group_symop_operation_xyz
x,y,z
-x,y,1/2-z
-x,-y,-z
x,-y,1/2+z
1/2+x,1/2+y,z
1/2-x,1/2+y,1/2-z
1/2-x,1/2-y,-z
1/2+x,1/2-y,1/2+z
loop_
_atom_site_type_symbol
_atom_site_label
_atom_site_fract_x
_atom_site_fract_y
_atom_site_fract_z
Si Si1 0.802465 0.369140 0.492247
Si Si2 0.875028 0.950955 0.530513
Si Si3 0.775265 0.185980 0.169461
Si Si4 0.434495 0.878973 0.100292
Si Si5 0.372216 0.883592 0.650207
Si Si6 0.100196 0.281096 0.560161
O O1 0.750000 0.250000 0.500000
O O2 0.723755 0.460020 0.466129
O O3 0.800387 0.399402 0.585148
O O4 0.928746 0.357208 0.426616
O O5 0.859495 0.914083 0.626066
O O6 0.870817 0.842498 0.474696
O O7 0.000000 0.000000 0.500000
O O8 0.855758 0.293326 0.166648
O O9 0.710250 0.156383 0.262913
O O10 0.689235 0.193177 0.111575
O O11 0.423215 0.993672 0.150944
O O12 0.393173 0.870984 0.015053
O O13 0.471741 0.790412 0.622948
#
# Coordination Sequence:
#
# PCOD8138829 Si02
#       6
#     8   8   8   8   8   8
#     4  11  22  40  61  84 118 159 198 239 300 374
#     4  11  22  40  63  86 115 158 202 245 299 367
#     4  11  22  38  59  89 119 151 200 250 295 352
#     4  10  21  39  60  84 116 158 198 239 298 364
#     4  11  22  37  60  89 118 152 195 249 301 348
#     4  10  20  38  62  86 115 156 201 240 293 365
#
# _framework density 20.498252000000001
#
# number of rings (size 3 to 8) (size 9 to 14) (size 15 to 20)
#    0.000    1.333    0.000   10.500    0.000    2.667 
#    0.000    6.667    0.000    0.000    0.000    0.000 
#    0.000    0.000    0.000    0.000    0.000    0.000 
#
# Total GULP energy -297367.982311 kJ/mol
# GULP energy per Si atom -12390.332596 kJ/mol
# Density = 2.045160 g / cm^3
# Si number density = 20.498252 Si / 1000 Ang^3
#
#
#
# Elastic Constant Matrix: (Units=GPa)
#
#
# Indices 1 2 3 4 5 6 
#
# 1 78.6453 20.3005 30.9377 0.0000 -23.6548 0.0000
# 2 20.3005 97.8935 44.2811 0.0000 -19.0987 0.0000
# 3 30.9377 44.2811 125.3128 0.0000 -48.4321 0.0000
# 4 0.0000 0.0000 0.0000 28.7972 0.0000 -13.9151
# 5 -23.6548 -19.0987 -48.4321 0.0000 30.8694 0.0000
# 6 0.0000 0.0000 0.0000 -13.9151 0.0000 44.7516
#
#
#
# Elastic Compliance Matrix: (Units=1/GPa)
#
#
# Indices 1 2 3 4 5 6 
#
# 1 0.016930 -0.001541 0.002567 0.000000 0.016047 0.000000
# 2 -0.001541 0.012347 -0.003777 0.000000 0.000533 0.000000
# 3 0.002567 -0.003777 0.021691 0.000000 0.033662 0.000000
# 4 0.000000 0.000000 0.000000 0.040866 0.000000 0.012707
# 5 0.016047 0.000533 0.033662 0.000000 0.097834 0.000000
# 6 0.000000 0.000000 0.000000 0.012707 0.000000 0.026297
#
#
# Mechanical properties :
#
#
# Convention : Reuss Voigt Hill
#
# Bulk Modulus (GPa) = 21.99456 54.76557 38.38006
# Shear Modulus (GPa) = 21.13084 34.63914 27.88499
#
# Velocity S-wave (km/s) = 3.21418 4.11525 3.69231
# Velocity P-wave (km/s) = 4.95257 7.02535 6.07797
#
# Compressibility (1/GPa) = 0.04546578
#
# Stress axis : x y z
#
# Youngs Moduli (GPa) = 59.06698 80.99110 46.10260
#
# Poissons Ratio (x) = 0.12482 -0.11834
# Poissons Ratio (y) = 0.09103 0.17411
# Poissons Ratio (z) = -0.15161 0.30587
#
# Static dielectric constant tensor:
#      x y z
#    x 3.920460 0.000000 -0.268090 
#    y 0.000000 4.118120 0.000000 
#    z -0.268090 0.000000 3.587580 
# 
# 
# High freq. dielectric constant tensor:
#      x y z
#    x 1.811500 0.000000 -0.023160 
#    y 0.000000 1.813560 0.000000 
#    z -0.023160 0.000000 1.786680 
# 
# From -- ./inp_files/196485.got.cif
#   From: 2010.06.25/outbox.cif.g09.slc.cpg/sg15_99_cif.got.tgz:196485.got - 2010.06.28 07:06:18.
