data_PCOD8138885
_publ_section_title
;
Structure prediction by ZEFSAII (Michael W. Deem and Ramdas Pophale) SiO2 
 PCOD8138885
Probable space group: C 2/C
;
_chemical_formula_sum "Si O2"
_cell_formula_units_Z 40
_cell_length_a 17.533063
_cell_length_b 13.920201
_cell_length_c 14.655105
_cell_angle_alpha 90.000000
_cell_angle_beta 31.164501
_cell_angle_gamma 90.000000
_cell_volume 1850.972758
_symmetry_space_group_name_H-M "C 2/C"
_symmetry_group_IT_number 15
_symmetry_cell_setting 'monoclinic'
loop_
_space_group_symop_operation_xyz
x,y,z
-x,y,1/2-z
-x,-y,-z
x,-y,1/2+z
1/2+x,1/2+y,z
1/2-x,1/2+y,1/2-z
1/2-x,1/2-y,-z
1/2+x,1/2-y,1/2+z
loop_
_atom_site_type_symbol
_atom_site_label
_atom_site_fract_x
_atom_site_fract_y
_atom_site_fract_z
Si Si1 0.101932 0.388253 0.557564
Si Si2 0.290636 0.536221 0.138654
Si Si3 0.537611 0.921055 0.315209
Si Si4 0.934490 0.700287 0.080518
Si Si5 0.895391 0.903422 0.187681
O O1 0.279670 0.383549 0.390453
O O2 0.000000 0.374079 0.750000
O O3 0.067477 0.491444 0.546825
O O4 0.063463 0.307093 0.523826
O O5 0.204832 0.461573 0.159208
O O6 0.199615 0.632926 0.250945
O O7 0.329097 0.489683 0.196149
O O8 0.445650 0.568757 0.933532
O O9 0.500000 0.891957 0.250000
O O10 0.501246 0.828991 0.414055
O O11 0.895087 0.812170 0.119253
#
# Coordination Sequence:
#
# PCOD8138885 Si02
#       5
#     8   8   8   8   8
#     4  10  20  38  62  90 125 169 215 259 327 382
#     4  10  21  38  63  93 126 166 212 271 312 376
#     4  10  20  40  65  89 123 180 215 249 325 393
#     4  11  20  39  64  89 128 176 213 255 322 395
#     4  11  21  36  65  96 128 162 216 268 324 362
#
# _framework density 21.610258999999999
#
# number of rings (size 3 to 8) (size 9 to 14) (size 15 to 20)
#    0.000    1.600    4.000    2.400    0.000    0.800 
#    0.000   12.000    0.000    3.600    0.000    0.000 
#    0.000    0.000    0.000    0.000    0.000    0.000 
#
# Total GULP energy -247795.227596 kJ/mol
# GULP energy per Si atom -12389.761380 kJ/mol
# Density = 2.156107 g / cm^3
# Si number density = 21.610259 Si / 1000 Ang^3
#
#
#
# Elastic Constant Matrix: (Units=GPa)
#
#
# Indices 1 2 3 4 5 6 
#
# 1 89.2028 5.8335 64.5401 0.0004 -14.3038 -0.0003
# 2 5.8335 61.7833 27.0002 0.0004 -4.7253 -0.0003
# 3 64.5401 27.0002 186.8268 0.0006 -26.6055 -0.0007
# 4 0.0004 0.0004 0.0006 21.2008 -0.0005 -1.2850
# 5 -14.3038 -4.7253 -26.6055 -0.0005 28.0213 0.0004
# 6 -0.0003 -0.0003 -0.0007 -1.2850 0.0004 11.8104
#
#
#
# Elastic Compliance Matrix: (Units=1/GPa)
#
#
# Indices 1 2 3 4 5 6 
#
# 1 0.015245 0.000970 -0.004944 0.000000 0.003252 0.000000
# 2 0.000970 0.017348 -0.002723 0.000000 0.000835 0.000000
# 3 -0.004944 -0.002723 0.008128 0.000000 0.004735 0.000000
# 4 0.000000 0.000000 0.000000 0.047481 0.000001 0.005166
# 5 0.003252 0.000835 0.004735 0.000001 0.041983 -0.000001
# 6 0.000000 0.000000 0.000000 0.005166 -0.000001 0.085233
#
#
# Mechanical properties :
#
#
# Convention : Reuss Voigt Hill
#
# Bulk Modulus (GPa) = 36.59368 59.17336 47.88352
# Shear Modulus (GPa) = 21.01527 28.23577 24.62552
#
# Velocity S-wave (km/s) = 3.12182 3.61860 3.37935
# Velocity P-wave (km/s) = 5.47399 6.70079 6.11822
#
# Compressibility (1/GPa) = 0.02732713
#
# Stress axis : x y z
#
# Youngs Moduli (GPa) = 65.59432 57.64354 123.02917
#
# Poissons Ratio (x) = -0.05590 0.60821
# Poissons Ratio (y) = -0.06361 0.33504
# Poissons Ratio (z) = 0.32427 0.15698
#
# Static dielectric constant tensor:
#      x y z
#    x 3.737800 0.000000 -0.427140 
#    y 0.000000 3.793160 0.000000 
#    z -0.427140 0.000000 4.089310 
# 
# 
# High freq. dielectric constant tensor:
#      x y z
#    x 1.828070 0.000000 -0.024220 
#    y 0.000000 1.835990 0.000000 
#    z -0.024220 0.000000 1.854310 
# 
# From -- ./inp_files/38032.got.cif
#   From: 2010.06.25/outbox.cif.g09.slc.cpg/sg15_20_cif.got.tgz:38032.got - 2010.06.28 07:06:18.
