data_PCOD8138627
_publ_section_title
;
Structure prediction by ZEFSAII (Michael W. Deem and Ramdas Pophale) SiO2 
 PCOD8138627
Probable space group: C 2/C
;
_chemical_formula_sum "Si O2"
_cell_formula_units_Z 60
_cell_length_a 27.746456
_cell_length_b 17.062884
_cell_length_c 9.149576
_cell_angle_alpha 90.000000
_cell_angle_beta 131.274217
_cell_angle_gamma 90.000000
_cell_volume 3255.556187
_symmetry_space_group_name_H-M "C 2/C"
_symmetry_group_IT_number 15
_symmetry_cell_setting 'monoclinic'
loop_
_space_group_symop_operation_xyz
x,y,z
-x,y,1/2-z
-x,-y,-z
x,-y,1/2+z
1/2+x,1/2+y,z
1/2-x,1/2+y,1/2-z
1/2-x,1/2-y,-z
1/2+x,1/2-y,1/2+z
loop_
_atom_site_type_symbol
_atom_site_label
_atom_site_fract_x
_atom_site_fract_y
_atom_site_fract_z
Si Si1 0.307484 0.909443 0.565807
Si Si2 0.133437 0.963529 0.965618
Si Si3 0.000000 0.809106 0.250000
Si Si4 0.553048 0.447188 0.530659
Si Si5 0.257176 0.716875 0.175543
Si Si6 0.318557 0.680535 0.764803
Si Si7 0.626395 0.764798 0.897478
Si Si8 0.265154 0.046458 0.281262
O O1 0.245469 0.854030 0.433802
O O2 0.367314 0.856895 0.631762
O O3 0.313858 0.934826 0.746730
O O4 0.302420 0.985851 0.456799
O O5 0.113013 0.939894 0.761070
O O6 0.140253 0.885265 0.072837
O O7 0.078161 0.015972 0.929084
O O8 0.199860 0.010376 0.084671
O O9 0.945240 0.750861 0.195103
O O10 0.024732 0.862311 0.434419
O O11 0.500000 0.500000 0.500000
O O12 0.199695 0.750656 0.159731
O O13 0.325824 0.742151 0.375839
O O14 0.251511 0.623075 0.157709
O O15 0.250000 0.750000 0.000000
O O16 0.361412 0.712345 0.720233
#
# Coordination Sequence:
#
# PCOD8138627 Si02
#       8
#     8   8   4   8   8   8   8   8
#     4  10  21  36  58  88 118 152 190 247 304 368
#     4  11  23  34  59  85 125 151 197 241 294 367
#     4  12  26  38  68  80 118 174 210 250 292 358
#     4  12  23  39  52  85 120 166 203 235 280 358
#     4  11  23  35  61  93 123 152 198 252 304 365
#     4  10  20  38  59  85 121 163 186 247 308 354
#     4  11  22  43  58  84 124 160 206 241 308 360
#     4  11  21  36  59  90 119 153 190 245 323 349
#
# _framework density 18.430031
#
# number of rings (size 3 to 8) (size 9 to 14) (size 15 to 20)
#    0.000    1.067    4.000    4.000    9.333    0.000 
#    0.000    0.000    0.000    0.800    0.000    0.000 
#    0.000    0.000    0.000    0.000    0.000    0.000 
#
# Total GULP energy -372157.250746 kJ/mol
# GULP energy per Si atom -12405.241692 kJ/mol
# Density = 1.838808 g / cm^3
# Si number density = 18.430031 Si / 1000 Ang^3
#
#
#
# Elastic Constant Matrix: (Units=GPa)
#
#
# Indices 1 2 3 4 5 6 
#
# 1 112.8593 53.1103 46.6108 0.0000 -3.8643 0.0000
# 2 53.1103 126.9713 50.5354 0.0000 -4.1352 0.0000
# 3 46.6108 50.5354 91.7136 0.0000 -17.0545 0.0000
# 4 0.0000 0.0000 0.0000 25.4855 0.0000 -1.6918
# 5 -3.8643 -4.1352 -17.0545 0.0000 28.5707 0.0000
# 6 0.0000 0.0000 0.0000 -1.6918 0.0000 33.7274
#
#
#
# Elastic Compliance Matrix: (Units=1/GPa)
#
#
# Indices 1 2 3 4 5 6 
#
# 1 0.012325 -0.003323 -0.004738 0.000000 -0.001642 0.000000
# 2 -0.003323 0.011096 -0.004736 0.000000 -0.001670 0.000000
# 3 -0.004738 -0.004736 0.017632 0.000000 0.009198 0.000000
# 4 0.000000 0.000000 0.000000 0.039369 0.000000 0.001975
# 5 -0.001642 -0.001670 0.009198 0.000000 0.040028 0.000000
# 6 0.000000 0.000000 0.000000 0.001975 0.000000 0.029748
#
#
# Mechanical properties :
#
#
# Convention : Reuss Voigt Hill
#
# Bulk Modulus (GPa) = 64.68927 70.22858 67.45893
# Shear Modulus (GPa) = 27.63261 29.64257 28.63759
#
# Velocity S-wave (km/s) = 3.87631 4.01482 3.94617
# Velocity P-wave (km/s) = 7.43038 7.72528 7.57926
#
# Compressibility (1/GPa) = 0.01545851
#
# Stress axis : x y z
#
# Youngs Moduli (GPa) = 81.13590 90.11985 56.71618
#
# Poissons Ratio (x) = 0.29947 0.26873
# Poissons Ratio (y) = 0.26962 0.26861
# Poissons Ratio (z) = 0.38444 0.42681
#
# Static dielectric constant tensor:
#      x y z
#    x 3.363210 0.000000 -0.241080 
#    y 0.000000 3.597280 0.000000 
#    z -0.241080 0.000000 3.472230 
# 
# 
# High freq. dielectric constant tensor:
#      x y z
#    x 1.707520 0.000000 -0.026910 
#    y 0.000000 1.719230 0.000000 
#    z -0.026910 0.000000 1.702650 
# 
# From -- ./inp_files/49097.got.cif
#   From: 2010.06.25/outbox.cif.g09.slc.cpg/sg15_25_cif.got.tgz:49097.got - 2010.06.28 07:06:18.
