data_PCOD8138349
_publ_section_title
;
Structure prediction by ZEFSAII (Michael W. Deem and Ramdas Pophale) SiO2 
 PCOD8138349
Probable space group: C 2/C
;
_chemical_formula_sum "Si O2"
_cell_formula_units_Z 48
_cell_length_a 25.353598
_cell_length_b 15.156928
_cell_length_c 11.621176
_cell_angle_alpha 90.000000
_cell_angle_beta 29.308314
_cell_angle_gamma 90.000000
_cell_volume 2186.057283
_symmetry_space_group_name_H-M "C 2/C"
_symmetry_group_IT_number 15
_symmetry_cell_setting 'monoclinic'
loop_
_space_group_symop_operation_xyz
x,y,z
-x,y,1/2-z
-x,-y,-z
x,-y,1/2+z
1/2+x,1/2+y,z
1/2-x,1/2+y,1/2-z
1/2-x,1/2-y,-z
1/2+x,1/2-y,1/2+z
loop_
_atom_site_type_symbol
_atom_site_label
_atom_site_fract_x
_atom_site_fract_y
_atom_site_fract_z
Si Si1 0.000000 0.017388 0.250000
Si Si2 0.264232 0.186322 0.841482
Si Si3 0.882950 0.118850 0.811146
Si Si4 0.797651 0.066192 0.739317
Si Si5 0.566560 0.270463 0.841644
Si Si6 0.000000 0.669636 0.750000
Si Si7 0.769046 0.627096 0.197792
O O1 0.941221 0.962721 0.261378
O O2 0.919207 0.083627 0.466473
O O3 0.277362 0.125809 0.702112
O O4 0.377822 0.188495 0.693218
O O5 0.239906 0.289942 0.868333
O O6 0.159983 0.159793 0.119226
O O7 0.798718 0.093206 0.870124
O O8 0.978273 0.184486 0.592681
O O9 0.798471 0.159108 0.062660
O O10 0.776646 0.962146 0.769760
O O11 0.504123 0.231409 0.853068
O O12 0.103836 0.608464 0.527124
#
# Coordination Sequence:
#
# PCOD8138349 Si02
#       7
#     4   8   8   8   8   4   8
#     4  10  22  35  58  95 126 150 192 259 310 343
#     4  10  22  39  59  88 125 159 196 246 302 357
#     4  11  21  38  64  91 120 154 202 256 302 351
#     4  11  22  38  62  90 120 161 202 241 301 361
#     4  10  20  37  63  89 119 158 199 245 303 361
#     4  10  22  41  60  83 122 166 200 241 302 363
#     4  10  24  42  59  88 123 154 200 255 300 352
#
# _framework density 21.957338
#
# number of rings (size 3 to 8) (size 9 to 14) (size 15 to 20)
#    0.000    1.667    0.000    5.500    0.000   12.667 
#    0.000    5.000    0.000    0.000    0.000    0.000 
#    0.000    0.000    0.000    0.000    0.000    0.000 
#
# Total GULP energy -297316.749149 kJ/mol
# GULP energy per Si atom -12388.197881 kJ/mol
# Density = 2.190736 g / cm^3
# Si number density = 21.957338 Si / 1000 Ang^3
#
#
#
# Elastic Constant Matrix: (Units=GPa)
#
#
# Indices 1 2 3 4 5 6 
#
# 1 115.7703 10.4830 17.1510 0.0000 5.4716 0.0000
# 2 10.4830 58.0374 9.3239 0.0000 -0.6603 0.0000
# 3 17.1510 9.3239 131.5558 0.0000 -4.6879 0.0000
# 4 0.0000 0.0000 0.0000 21.9509 0.0000 -1.4876
# 5 5.4716 -0.6603 -4.6879 0.0000 21.5652 0.0000
# 6 0.0000 0.0000 0.0000 -1.4876 0.0000 19.6758
#
#
#
# Elastic Compliance Matrix: (Units=1/GPa)
#
#
# Indices 1 2 3 4 5 6 
#
# 1 0.009068 -0.001480 -0.001170 0.000000 -0.002600 0.000000
# 2 -0.001480 0.017672 -0.001035 0.000000 0.000691 0.000000
# 3 -0.001170 -0.001035 0.007898 0.000000 0.001982 0.000000
# 4 0.000000 0.000000 0.000000 0.045791 0.000000 0.003462
# 5 -0.002600 0.000691 0.001982 0.000000 0.047483 0.000000
# 6 0.000000 0.000000 0.000000 0.003462 0.000000 0.051086
#
#
# Mechanical properties :
#
#
# Convention : Reuss Voigt Hill
#
# Bulk Modulus (GPa) = 36.67227 42.14215 39.40721
# Shear Modulus (GPa) = 25.58128 30.53206 28.05667
#
# Velocity S-wave (km/s) = 3.41698 3.73301 3.57848
# Velocity P-wave (km/s) = 5.68379 6.14938 5.92117
#
# Compressibility (1/GPa) = 0.02726856
#
# Stress axis : x y z
#
# Youngs Moduli (GPa) = 110.27794 56.58780 126.61672
#
# Poissons Ratio (x) = 0.08372 0.14814
# Poissons Ratio (y) = 0.16316 0.13104
# Poissons Ratio (z) = 0.12903 0.05856
#
# Static dielectric constant tensor:
#      x y z
#    x 4.260610 0.000000 -0.083860 
#    y 0.000000 3.530860 0.000000 
#    z -0.083860 0.000000 4.344730 
# 
# 
# High freq. dielectric constant tensor:
#      x y z
#    x 1.884860 0.000000 0.005860 
#    y 0.000000 1.829700 0.000000 
#    z 0.005860 0.000000 1.864750 
# 
# From -- ./inp_files/123458.got.cif
#   From: 2010.06.25/outbox.cif.g09.slc.cpg/sg15_62_cif.got.tgz:123458.got - 2010.06.28 07:06:18.
