data_PCOD8138779
_publ_section_title
;
Structure prediction by ZEFSAII (Michael W. Deem and Ramdas Pophale) SiO2 
 PCOD8138779
Probable space group: C 2/C
;
_chemical_formula_sum "Si O2"
_cell_formula_units_Z 48
_cell_length_a 15.547475
_cell_length_b 8.439762
_cell_length_c 20.461684
_cell_angle_alpha 90.000000
_cell_angle_beta 117.894001
_cell_angle_gamma 90.000000
_cell_volume 2372.972039
_symmetry_space_group_name_H-M "C 2/C"
_symmetry_group_IT_number 15
_symmetry_cell_setting 'monoclinic'
loop_
_space_group_symop_operation_xyz
x,y,z
-x,y,1/2-z
-x,-y,-z
x,-y,1/2+z
1/2+x,1/2+y,z
1/2-x,1/2+y,1/2-z
1/2-x,1/2-y,-z
1/2+x,1/2-y,1/2+z
loop_
_atom_site_type_symbol
_atom_site_label
_atom_site_fract_x
_atom_site_fract_y
_atom_site_fract_z
Si Si1 0.353687 0.157504 0.843815
Si Si2 0.985664 0.879669 0.588023
Si Si3 0.748193 0.779737 0.922744
Si Si4 0.902048 0.947644 0.178906
Si Si5 0.647847 0.583612 0.579294
Si Si6 0.244809 0.350019 0.698789
O O1 0.464731 0.213852 0.871484
O O2 0.330333 0.177198 0.913176
O O3 0.276580 0.266369 0.776772
O O4 0.342036 0.975462 0.817033
O O5 0.919788 0.947349 0.621568
O O6 0.915886 0.846311 0.502254
O O7 0.074369 0.999299 0.603515
O O8 0.644675 0.720367 0.858246
O O9 0.768957 0.964345 0.917159
O O10 0.750000 0.750000 0.000000
O O11 0.834928 0.051036 0.202503
O O12 0.000000 0.902074 0.250000
O O13 0.705306 0.724657 0.633249
#
# Coordination Sequence:
#
# PCOD8138779 Si02
#       6
#     8   8   8   8   8   8
#     4  10  21  38  61  87 122 165 207 260 316 378
#     4  10  20  40  63  88 125 163 207 257 313 372
#     4  10  20  38  61  89 122 164 205 245 316 378
#     4  11  22  39  63  91 125 166 207 263 314 368
#     4  10  22  39  64  89 124 165 206 257 314 386
#     4  11  23  40  64  89 124 165 211 260 323 376
#
# _framework density 20.227799000000001
#
# number of rings (size 3 to 8) (size 9 to 14) (size 15 to 20)
#    0.000    1.667    3.333    2.000    2.333    1.333 
#    0.000    2.500    0.000    0.000    0.000    0.000 
#    0.000    0.000    0.000    0.000    0.000    0.000 
#
# Total GULP energy -297556.690322 kJ/mol
# GULP energy per Si atom -12398.195430 kJ/mol
# Density = 2.018176 g / cm^3
# Si number density = 20.227799 Si / 1000 Ang^3
#
#
#
# Elastic Constant Matrix: (Units=GPa)
#
#
# Indices 1 2 3 4 5 6 
#
# 1 72.3398 36.1261 30.4076 0.0000 9.2486 0.0000
# 2 36.1261 122.4455 50.5296 0.0000 11.1757 0.0000
# 3 30.4076 50.5296 106.9894 0.0000 9.5000 0.0000
# 4 0.0000 0.0000 0.0000 31.8429 0.0000 5.1606
# 5 9.2486 11.1757 9.5000 0.0000 35.5301 0.0000
# 6 0.0000 0.0000 0.0000 5.1606 0.0000 36.0166
#
#
#
# Elastic Compliance Matrix: (Units=1/GPa)
#
#
# Indices 1 2 3 4 5 6 
#
# 1 0.017200 -0.003624 -0.002950 0.000000 -0.002548 0.000000
# 2 -0.003624 0.011042 -0.004057 0.000000 -0.001445 0.000000
# 3 -0.002950 -0.004057 0.012210 0.000000 -0.001221 0.000000
# 4 0.000000 0.000000 0.000000 0.032151 0.000000 -0.004607
# 5 -0.002548 -0.001445 -0.001221 0.000000 0.029589 0.000000
# 6 0.000000 0.000000 0.000000 -0.004607 0.000000 0.028425
#
#
# Mechanical properties :
#
#
# Convention : Reuss Voigt Hill
#
# Bulk Modulus (GPa) = 52.11448 59.54462 55.82955
# Shear Modulus (GPa) = 31.59049 32.99201 32.29125
#
# Velocity S-wave (km/s) = 3.95617 4.04297 3.99981
# Velocity P-wave (km/s) = 6.83287 7.16206 6.99940
#
# Compressibility (1/GPa) = 0.01918852
#
# Stress axis : x y z
#
# Youngs Moduli (GPa) = 58.14087 90.56154 81.90343
#
# Poissons Ratio (x) = 0.32824 0.24164
# Poissons Ratio (y) = 0.21073 0.33225
# Poissons Ratio (z) = 0.17153 0.36738
#
# Static dielectric constant tensor:
#      x y z
#    x 3.710330 0.000000 0.041120 
#    y 0.000000 3.722090 0.000000 
#    z 0.041120 0.000000 3.858290 
# 
# 
# High freq. dielectric constant tensor:
#      x y z
#    x 1.778070 0.000000 -0.001980 
#    y 0.000000 1.778870 0.000000 
#    z -0.001980 0.000000 1.807060 
# 
# From -- ./inp_files/242596.got.cif
#   From: 2010.06.25/outbox.cif.g09.slc.cpg/sg15_122_cif.got.tgz:242596.got - 2010.06.28 07:06:18.
