data_PCOD8138805
_publ_section_title
;
Structure prediction by ZEFSAII (Michael W. Deem and Ramdas Pophale) SiO2 
 PCOD8138805
Probable space group: C 2/C
;
_chemical_formula_sum "Si O2"
_cell_formula_units_Z 64
_cell_length_a 15.224202
_cell_length_b 14.593080
_cell_length_c 16.600208
_cell_angle_alpha 90.000000
_cell_angle_beta 53.306319
_cell_angle_gamma 90.000000
_cell_volume 2957.219679
_symmetry_space_group_name_H-M "C 2/C"
_symmetry_group_IT_number 15
_symmetry_cell_setting 'monoclinic'
loop_
_space_group_symop_operation_xyz
x,y,z
-x,y,1/2-z
-x,-y,-z
x,-y,1/2+z
1/2+x,1/2+y,z
1/2-x,1/2+y,1/2-z
1/2-x,1/2-y,-z
1/2+x,1/2-y,1/2+z
loop_
_atom_site_type_symbol
_atom_site_label
_atom_site_fract_x
_atom_site_fract_y
_atom_site_fract_z
Si Si1 0.281695 0.853973 0.962795
Si Si2 0.024701 0.093604 0.828868
Si Si3 0.364981 0.717200 0.402795
Si Si4 0.731265 0.142664 0.219156
Si Si5 0.498398 0.204706 0.155766
Si Si6 0.240097 0.939062 0.292422
Si Si7 0.397023 0.225783 0.705089
Si Si8 0.646917 0.475964 0.519942
O O1 0.279955 0.867765 0.868941
O O2 0.406028 0.862309 0.930228
O O3 0.250000 0.750000 0.000000
O O4 0.213267 0.942017 0.031601
O O5 0.968096 0.190470 0.880774
O O6 0.153157 0.105035 0.778270
O O7 0.000000 0.065727 0.750000
O O8 0.975256 0.019161 0.918986
O O9 0.250000 0.750000 0.500000
O O10 0.471660 0.768508 0.384203
O O11 0.367857 0.734340 0.307348
O O12 0.367186 0.608892 0.413123
O O13 0.619411 0.183175 0.318614
O O14 0.834816 0.207797 0.177502
O O15 0.741560 0.041272 0.250476
O O16 0.500000 0.191222 0.250000
O O17 0.351567 0.878686 0.225330
O O18 0.196006 0.941518 0.408691
#
# Coordination Sequence:
#
# PCOD8138805 Si02
#       8
#     8   8   8   8   8   8   8   8
#     4  10  20  38  61  95 131 165 205 265 333 383
#     4  11  22  36  64  93 131 171 214 268 329 380
#     4  11  25  46  67  93 125 173 224 263 328 384
#     4  10  22  40  62  95 126 167 220 259 325 392
#     4   9  18  36  59  88 127 167 203 258 324 387
#     4  11  23  41  66  96 128 171 218 268 325 388
#     4  11  24  45  68  91 134 173 212 280 326 385
#     4  11  23  39  66  96 128 170 222 271 312 401
#
# _framework density 21.641950999999999
#
# number of rings (size 3 to 8) (size 9 to 14) (size 15 to 20)
#    0.000    1.500    3.750    1.125    3.500    2.000 
#    6.750    0.000    0.000    1.500    0.000    0.000 
#    0.000    0.000    0.000    0.000    0.000    0.000 
#
# Total GULP energy -396441.361957 kJ/mol
# GULP energy per Si atom -12388.792561 kJ/mol
# Density = 2.159269 g / cm^3
# Si number density = 21.641951 Si / 1000 Ang^3
#
#
#
# Elastic Constant Matrix: (Units=GPa)
#
#
# Indices 1 2 3 4 5 6 
#
# 1 94.2814 25.2788 33.1733 0.0000 -29.5589 0.0000
# 2 25.2788 119.1463 33.2087 0.0000 -18.3127 0.0000
# 3 33.1733 33.2087 62.2590 0.0000 -28.8720 0.0000
# 4 0.0000 0.0000 0.0000 37.3006 0.0000 -11.1545
# 5 -29.5589 -18.3127 -28.8720 0.0000 35.1672 0.0000
# 6 0.0000 0.0000 0.0000 -11.1545 0.0000 33.4177
#
#
#
# Elastic Compliance Matrix: (Units=1/GPa)
#
#
# Indices 1 2 3 4 5 6 
#
# 1 0.014912 -0.000840 -0.003049 0.000000 0.009594 0.000000
# 2 -0.000840 0.009944 -0.004493 0.000000 0.000783 0.000000
# 3 -0.003049 -0.004493 0.028759 0.000000 0.018709 0.000000
# 4 0.000000 0.000000 0.000000 0.029782 0.000000 0.009941
# 5 0.009594 0.000783 0.018709 0.000000 0.052267 0.000000
# 6 0.000000 0.000000 0.000000 0.009941 0.000000 0.033242
#
#
# Mechanical properties :
#
#
# Convention : Reuss Voigt Hill
#
# Bulk Modulus (GPa) = 27.13569 51.00093 39.06831
# Shear Modulus (GPa) = 25.25837 33.44549 29.35193
#
# Velocity S-wave (km/s) = 3.41999 3.93542 3.68673
# Velocity P-wave (km/s) = 5.30668 6.65335 6.01780
#
# Compressibility (1/GPa) = 0.03685184
#
# Stress axis : x y z
#
# Youngs Moduli (GPa) = 67.05906 100.56315 34.77163
#
# Poissons Ratio (x) = 0.08443 0.10601
# Poissons Ratio (y) = 0.05630 0.15624
# Poissons Ratio (z) = 0.20445 0.45188
#
# Static dielectric constant tensor:
#      x y z
#    x 4.224750 0.000000 -0.496370 
#    y 0.000000 4.385280 0.000000 
#    z -0.496370 0.000000 3.828460 
# 
# 
# High freq. dielectric constant tensor:
#      x y z
#    x 1.846590 0.000000 -0.024220 
#    y 0.000000 1.857790 0.000000 
#    z -0.024220 0.000000 1.834510 
# 
# From -- ./inp_files/205708.got.cif
#   From: 2010.06.25/outbox.cif.g09.slc.cpg/sg15_103_cif.got.tgz:205708.got - 2010.06.28 07:06:18.
