data_PCOD8138402
_publ_section_title
;
Structure prediction by ZEFSAII (Michael W. Deem and Ramdas Pophale) SiO2 
 PCOD8138402
Probable space group: C 2/C
;
_chemical_formula_sum "Si O2"
_cell_formula_units_Z 56
_cell_length_a 9.423307
_cell_length_b 15.732850
_cell_length_c 21.347954
_cell_angle_alpha 90.000000
_cell_angle_beta 116.416807
_cell_angle_gamma 90.000000
_cell_volume 2834.470975
_symmetry_space_group_name_H-M "C 2/C"
_symmetry_group_IT_number 15
_symmetry_cell_setting 'monoclinic'
loop_
_space_group_symop_operation_xyz
x,y,z
-x,y,1/2-z
-x,-y,-z
x,-y,1/2+z
1/2+x,1/2+y,z
1/2-x,1/2+y,1/2-z
1/2-x,1/2-y,-z
1/2+x,1/2-y,1/2+z
loop_
_atom_site_type_symbol
_atom_site_label
_atom_site_fract_x
_atom_site_fract_y
_atom_site_fract_z
Si Si1 0.117050 0.539562 0.410611
Si Si2 0.825768 0.350478 0.824353
Si Si3 0.220177 0.337654 0.030677
Si Si4 0.270623 0.626466 0.331662
Si Si5 0.057333 0.784476 0.326340
Si Si6 0.878693 0.180006 0.100754
Si Si7 0.902342 0.353820 0.044639
O O1 0.230068 0.582748 0.485381
O O2 0.200884 0.549327 0.359469
O O3 0.081486 0.441958 0.416163
O O4 0.948109 0.585877 0.380864
O O5 0.769109 0.391884 0.748242
O O6 0.675195 0.337564 0.839032
O O7 0.906819 0.258519 0.830214
O O8 0.357902 0.351177 0.110289
O O9 0.048158 0.334826 0.027813
O O10 0.250000 0.250000 0.000000
O O11 0.187087 0.712734 0.337118
O O12 0.457008 0.632494 0.379055
O O13 0.000000 0.828829 0.250000
O O14 0.895362 0.281175 0.095832
O O15 0.756975 0.142523 0.026846
#
# Coordination Sequence:
#
# PCOD8138402 Si02
#       7
#     8   8   8   8   8   8   8
#     4  11  22  39  64  87 122 163 208 251 307 375
#     4  10  20  37  64  88 117 162 204 248 310 368
#     4  12  18  36  63  92 115 161 211 253 299 370
#     4  10  20  38  60  89 120 161 202 250 307 369
#     4   9  18  34  59  86 116 155 206 248 294 368
#     4  11  21  39  61  90 122 158 208 254 306 364
#     4  11  24  37  61  92 125 158 204 260 313 364
#
# _framework density 19.756772999999999
#
# number of rings (size 3 to 8) (size 9 to 14) (size 15 to 20)
#    0.000    1.429    5.714    2.143    0.000    1.714 
#    0.000    2.857    3.143    0.000    0.000    0.000 
#    0.000    0.000    0.000    0.000    0.000    0.000 
#
# Total GULP energy -347238.354893 kJ/mol
# GULP energy per Si atom -12401.369818 kJ/mol
# Density = 1.971181 g / cm^3
# Si number density = 19.756773 Si / 1000 Ang^3
#
#
#
# Elastic Constant Matrix: (Units=GPa)
#
#
# Indices 1 2 3 4 5 6 
#
# 1 132.1467 31.1155 34.4622 0.0000 -12.0493 0.0000
# 2 31.1155 81.4578 38.1920 0.0000 -14.2245 0.0000
# 3 34.4622 38.1920 117.0865 0.0000 -4.1967 0.0000
# 4 0.0000 0.0000 0.0000 14.1950 0.0000 -4.6025
# 5 -12.0493 -14.2245 -4.1967 0.0000 37.5051 0.0000
# 6 0.0000 0.0000 0.0000 -4.6025 0.0000 18.6375
#
#
#
# Elastic Compliance Matrix: (Units=1/GPa)
#
#
# Indices 1 2 3 4 5 6 
#
# 1 0.008708 -0.002178 -0.001789 0.000000 0.001771 0.000000
# 2 -0.002178 0.016031 -0.004413 0.000000 0.004886 0.000000
# 3 -0.001789 -0.004413 0.010468 0.000000 -0.001077 0.000000
# 4 0.000000 0.000000 0.000000 0.076579 0.000000 0.018911
# 5 0.001771 0.004886 -0.001077 0.000000 0.028965 0.000000
# 6 0.000000 0.000000 0.000000 0.018911 0.000000 0.058326
#
#
# Mechanical properties :
#
#
# Convention : Reuss Voigt Hill
#
# Bulk Modulus (GPa) = 54.20998 59.80339 57.00668
# Shear Modulus (GPa) = 22.52399 29.19560 25.85979
#
# Velocity S-wave (km/s) = 3.38015 3.84832 3.62181
# Velocity P-wave (km/s) = 6.53698 7.07684 6.81226
#
# Compressibility (1/GPa) = 0.01844679
#
# Stress axis : x y z
#
# Youngs Moduli (GPa) = 114.83240 62.38090 95.52895
#
# Poissons Ratio (x) = 0.13588 0.17091
# Poissons Ratio (y) = 0.25014 0.42154
# Poissons Ratio (z) = 0.20545 0.27527
#
# Static dielectric constant tensor:
#      x y z
#    x 3.695560 0.000000 -0.054060 
#    y 0.000000 3.208530 0.000000 
#    z -0.054060 0.000000 3.941070 
# 
# 
# High freq. dielectric constant tensor:
#      x y z
#    x 1.778960 0.000000 -0.003410 
#    y 0.000000 1.726750 0.000000 
#    z -0.003410 0.000000 1.785480 
# 
# From -- ./inp_files/264805.got.cif
#   From: 2010.06.25/outbox.cif.g09.slc.cpg/sg15_133_cif.got.tgz:264805.got - 2010.06.28 07:06:18.
