data_PCOD8138032
_publ_section_title
;
Structure prediction by ZEFSAII (Michael W. Deem and Ramdas Pophale) SiO2 
 PCOD8138032
Probable space group: C 2/C
;
_chemical_formula_sum "Si O2"
_cell_formula_units_Z 64
_cell_length_a 16.344980
_cell_length_b 12.699701
_cell_length_c 26.776915
_cell_angle_alpha 90.000000
_cell_angle_beta 145.939869
_cell_angle_gamma 90.000000
_cell_volume 3112.970793
_symmetry_space_group_name_H-M "C 2/C"
_symmetry_group_IT_number 15
_symmetry_cell_setting 'monoclinic'
loop_
_space_group_symop_operation_xyz
x,y,z
-x,y,1/2-z
-x,-y,-z
x,-y,1/2+z
1/2+x,1/2+y,z
1/2-x,1/2+y,1/2-z
1/2-x,1/2-y,-z
1/2+x,1/2-y,1/2+z
loop_
_atom_site_type_symbol
_atom_site_label
_atom_site_fract_x
_atom_site_fract_y
_atom_site_fract_z
Si Si1 0.783034 0.208140 0.444456
Si Si2 0.144591 0.899154 0.419089
Si Si3 0.821774 0.152750 0.767925
Si Si4 0.618895 0.023737 0.176754
Si Si5 0.285608 0.350226 0.839175
Si Si6 0.379572 0.286413 0.499585
Si Si7 0.110223 0.275134 0.605040
Si Si8 0.321238 0.916406 0.033723
O O1 0.774749 0.135412 0.488786
O O2 0.675533 0.309183 0.393580
O O3 0.749233 0.135341 0.379387
O O4 0.939684 0.258367 0.517188
O O5 0.971671 0.910551 0.336054
O O6 0.211424 0.015267 0.442472
O O7 0.811469 0.251058 0.726154
O O8 0.809399 0.191533 0.818860
O O9 0.686835 0.079291 0.686011
O O10 0.722314 0.051667 0.276290
O O11 0.628431 0.108729 0.137233
O O12 0.457010 0.994670 0.114581
O O13 0.459057 0.337740 0.917900
O O14 0.327786 0.243641 0.419202
O O15 0.380686 0.185769 0.535801
O O16 0.265567 0.375921 0.460838
#
# Coordination Sequence:
#
# PCOD8138032 Si02
#       8
#     8   8   8   8   8   8   8   8
#     4   9  19  36  60  85 115 151 199 250 297 361
#     4  10  20  37  57  85 119 155 197 250 307 360
#     4  10  21  37  59  84 121 153 198 257 307 357
#     4  11  21  38  62  89 119 161 206 249 311 372
#     4  10  21  38  61  88 118 156 200 252 307 361
#     4  10  22  41  63  87 122 162 207 249 300 370
#     4   9  20  39  62  86 116 163 202 248 305 366
#     4  11  22  38  63  89 120 162 204 250 303 367
#
# _framework density 20.559139999999999
#
# number of rings (size 3 to 8) (size 9 to 14) (size 15 to 20)
#    0.000    2.000    2.500    0.750    1.750    3.000 
#    0.000    5.625    0.000    0.000    0.000    0.000 
#    0.000    0.000    0.000    0.000    0.000    0.000 
#
# Total GULP energy -396621.410469 kJ/mol
# GULP energy per Si atom -12394.419077 kJ/mol
# Density = 2.051235 g / cm^3
# Si number density = 20.559140 Si / 1000 Ang^3
#
#
#
# Elastic Constant Matrix: (Units=GPa)
#
#
# Indices 1 2 3 4 5 6 
#
# 1 85.3280 24.2550 28.6003 0.0000 2.2887 0.0000
# 2 24.2550 54.8750 22.5884 0.0000 23.6605 0.0000
# 3 28.6003 22.5884 73.5840 0.0001 7.0410 0.0000
# 4 0.0000 0.0000 0.0001 31.3484 0.0000 9.5320
# 5 2.2887 23.6605 7.0410 0.0000 27.2658 0.0000
# 6 0.0000 0.0000 0.0000 9.5320 0.0000 18.6977
#
#
#
# Elastic Compliance Matrix: (Units=1/GPa)
#
#
# Indices 1 2 3 4 5 6 
#
# 1 0.015152 -0.007853 -0.004111 0.000000 0.006604 0.000000
# 2 -0.007853 0.036793 -0.005383 0.000000 -0.029879 0.000000
# 3 -0.004111 -0.005383 0.016775 0.000000 0.000685 0.000000
# 4 0.000000 0.000000 0.000000 0.037751 0.000000 -0.019245
# 5 0.006604 -0.029879 0.000685 0.000000 0.061873 0.000000
# 6 0.000000 0.000000 0.000000 -0.019245 0.000000 0.063294
#
#
# Mechanical properties :
#
#
# Convention : Reuss Voigt Hill
#
# Bulk Modulus (GPa) = 29.38894 40.51937 34.95415
# Shear Modulus (GPa) = 18.00676 24.68527 21.34601
#
# Velocity S-wave (km/s) = 2.96269 3.46886 3.22572
# Velocity P-wave (km/s) = 5.10189 5.98293 5.55989
#
# Compressibility (1/GPa) = 0.03402641
#
# Stress axis : x y z
#
# Youngs Moduli (GPa) = 65.99627 27.17913 59.61379
#
# Poissons Ratio (x) = 0.21343 0.24505
# Poissons Ratio (y) = 0.51826 0.32092
# Poissons Ratio (z) = 0.27129 0.14631
#
# Static dielectric constant tensor:
#      x y z
#    x 4.024090 0.000000 -0.204190 
#    y 0.000000 3.731630 0.000000 
#    z -0.204190 0.000000 3.852280 
# 
# 
# High freq. dielectric constant tensor:
#      x y z
#    x 1.794910 0.000000 0.010490 
#    y 0.000000 1.807430 0.000000 
#    z 0.010490 0.000000 1.797790 
# 
# From -- ./inp_files/316219.got.cif
#   From: 2010.06.25/outbox.cif.g09.slc.cpg/sg15_159_cif.got.tgz:316219.got - 2010.06.28 07:06:18.
