data_PCOD8138711
_publ_section_title
;
Structure prediction by ZEFSAII (Michael W. Deem and Ramdas Pophale) SiO2 
 PCOD8138711
Probable space group: C 2/C
;
_chemical_formula_sum "Si O2"
_cell_formula_units_Z 60
_cell_length_a 8.510634
_cell_length_b 12.794078
_cell_length_c 24.391518
_cell_angle_alpha 90.000000
_cell_angle_beta 73.261777
_cell_angle_gamma 90.000000
_cell_volume 2543.359450
_symmetry_space_group_name_H-M "C 2/C"
_symmetry_group_IT_number 15
_symmetry_cell_setting 'monoclinic'
loop_
_space_group_symop_operation_xyz
x,y,z
-x,y,1/2-z
-x,-y,-z
x,-y,1/2+z
1/2+x,1/2+y,z
1/2-x,1/2+y,1/2-z
1/2-x,1/2-y,-z
1/2+x,1/2-y,1/2+z
loop_
_atom_site_type_symbol
_atom_site_label
_atom_site_fract_x
_atom_site_fract_y
_atom_site_fract_z
Si Si1 0.745826 0.703432 0.746390
Si Si2 0.329838 0.579182 0.845566
Si Si3 0.456221 0.619725 0.946591
Si Si4 0.978272 0.860045 0.666365
Si Si5 0.178561 0.264326 0.868199
Si Si6 0.500000 0.969308 0.250000
Si Si7 0.001190 0.532543 0.367086
Si Si8 0.846679 0.078701 0.068946
O O1 0.636510 0.664972 0.705621
O O2 0.634501 0.726507 0.810815
O O3 0.858152 0.808118 0.724304
O O4 0.844003 0.602049 0.756030
O O5 0.351088 0.635898 0.901920
O O6 0.449665 0.476342 0.825487
O O7 0.133981 0.558102 0.863340
O O8 0.623359 0.684895 0.921343
O O9 0.498212 0.497998 0.947109
O O10 0.358672 0.650110 0.012342
O O11 0.127928 0.779938 0.644121
O O12 0.870047 0.854561 0.621853
O O13 0.074795 0.367146 0.889117
O O14 0.470057 0.044980 0.304915
O O15 0.824843 0.514784 0.413284
#
# Coordination Sequence:
#
# PCOD8138711 Si02
#       8
#     8   8   8   8   8   4   8   8
#     4  11  21  41  66  93 128 176 209 265 329 402
#     4   9  23  43  62  97 128 169 217 267 339 390
#     4  10  23  44  65  91 126 170 220 269 322 402
#     4  10  22  43  64  95 132 170 215 272 327 397
#     4  11  23  40  61  94 130 162 220 264 329 397
#     4  10  20  38  60  90 122 164 210 252 326 398
#     4  10  23  39  62  93 126 163 210 275 323 396
#     4  10  23  43  67  90 126 173 215 269 333 382
#
# _framework density 23.590845000000002
#
# number of rings (size 3 to 8) (size 9 to 14) (size 15 to 20)
#    0.000    1.867    1.333    0.800    5.600    2.133 
#   16.800    0.000    0.000    0.000    0.000    0.000 
#    0.000    0.000    0.000    0.000    0.000    0.000 
#
# Total GULP energy -371753.455072 kJ/mol
# GULP energy per Si atom -12391.781836 kJ/mol
# Density = 2.353715 g / cm^3
# Si number density = 23.590845 Si / 1000 Ang^3
#
#
#
# Elastic Constant Matrix: (Units=GPa)
#
#
# Indices 1 2 3 4 5 6 
#
# 1 66.1748 -4.8725 20.1919 0.0000 3.0590 0.0000
# 2 -4.8725 35.2782 -5.2927 0.0000 1.8045 0.0000
# 3 20.1919 -5.2927 78.5970 0.0000 -11.1659 0.0000
# 4 0.0000 0.0000 0.0000 26.1945 0.0000 3.8710
# 5 3.0590 1.8045 -11.1659 0.0000 31.2115 0.0000
# 6 0.0000 0.0000 0.0000 3.8710 0.0000 21.1056
#
#
#
# Elastic Compliance Matrix: (Units=1/GPa)
#
#
# Indices 1 2 3 4 5 6 
#
# 1 0.016834 0.001797 -0.004691 0.000000 -0.003432 0.000000
# 2 0.001797 0.028858 0.001285 0.000000 -0.001385 0.000000
# 3 -0.004691 0.001285 0.014823 0.000000 0.005688 0.000000
# 4 0.000000 0.000000 0.000000 0.039240 0.000000 -0.007197
# 5 -0.003432 -0.001385 0.005688 0.000000 0.034491 0.000000
# 6 0.000000 0.000000 0.000000 -0.007197 0.000000 0.048701
#
#
# Mechanical properties :
#
#
# Convention : Reuss Voigt Hill
#
# Bulk Modulus (GPa) = 17.45331 22.23370 19.84350
# Shear Modulus (GPa) = 24.35890 27.03719 25.69805
#
# Velocity S-wave (km/s) = 3.21683 3.38907 3.30407
# Velocity P-wave (km/s) = 4.60562 4.97589 4.79433
#
# Compressibility (1/GPa) = 0.05729573
#
# Stress axis : x y z
#
# Youngs Moduli (GPa) = 59.40391 34.65251 67.46272
#
# Poissons Ratio (x) = -0.06226 0.31649
# Poissons Ratio (y) = -0.10674 -0.08669
# Poissons Ratio (z) = 0.27868 -0.04453
#
# Static dielectric constant tensor:
#      x y z
#    x 4.285030 0.000000 0.194670 
#    y 0.000000 4.080910 0.000000 
#    z 0.194670 0.000000 4.454940 
# 
# 
# High freq. dielectric constant tensor:
#      x y z
#    x 1.939790 0.000000 0.003860 
#    y 0.000000 1.917160 0.000000 
#    z 0.003860 0.000000 1.926460 
# 
# From -- ./inp_files/264684.got.cif
#   From: 2010.06.25/outbox.cif.g09.slc.cpg/sg15_133_cif.got.tgz:264684.got - 2010.06.28 07:06:18.
