data_PCOD8138288
_publ_section_title
;
Structure prediction by ZEFSAII (Michael W. Deem and Ramdas Pophale) SiO2 
 PCOD8138288
Probable space group: C 2/C
;
_chemical_formula_sum "Si O2"
_cell_formula_units_Z 48
_cell_length_a 28.841047
_cell_length_b 15.616376
_cell_length_c 13.994071
_cell_angle_alpha 90.000000
_cell_angle_beta 22.951406
_cell_angle_gamma 90.000000
_cell_volume 2457.788988
_symmetry_space_group_name_H-M "C 2/C"
_symmetry_group_IT_number 15
_symmetry_cell_setting 'monoclinic'
loop_
_space_group_symop_operation_xyz
x,y,z
-x,y,1/2-z
-x,-y,-z
x,-y,1/2+z
1/2+x,1/2+y,z
1/2-x,1/2+y,1/2-z
1/2-x,1/2-y,-z
1/2+x,1/2-y,1/2+z
loop_
_atom_site_type_symbol
_atom_site_label
_atom_site_fract_x
_atom_site_fract_y
_atom_site_fract_z
Si Si1 0.141838 0.195793 0.746259
Si Si2 0.520379 0.602603 0.820429
Si Si3 0.447768 0.835414 0.454027
Si Si4 0.607721 0.059053 0.766897
Si Si5 0.200608 0.983081 0.226916
Si Si6 0.242452 0.510722 0.173256
O O1 0.250000 0.250000 0.500000
O O2 0.043845 0.183158 0.847183
O O3 0.178269 0.102328 0.711083
O O4 0.098239 0.243837 0.923877
O O5 0.500000 0.635433 0.750000
O O6 0.636230 0.542741 0.604741
O O7 0.409113 0.548976 0.071272
O O8 0.500000 0.825050 0.250000
O O9 0.551734 0.853158 0.334720
O O10 0.346422 0.908547 0.646572
O O11 0.680080 0.023017 0.540504
O O12 0.691231 0.064390 0.701952
O O13 0.500000 0.000000 0.000000
O O14 0.229610 0.962788 0.281684
#
# Coordination Sequence:
#
# PCOD8138288 Si02
#       6
#     8   8   8   8   8   8
#     4  12  23  42  64  95 128 167 206 262 325 372
#     4  10  22  41  69  91 124 168 214 259 310 381
#     4  11  22  39  62  90 133 159 203 266 324 367
#     4  10  20  37  62  90 119 166 207 252 306 379
#     4  11  22  40  70  89 122 165 217 254 301 394
#     4  10  20  40  66  92 118 167 212 256 310 374
#
# _framework density 19.529748000000001
#
# number of rings (size 3 to 8) (size 9 to 14) (size 15 to 20)
#    0.000    1.333    5.000    1.500    0.000    2.000 
#    3.000    0.833    0.000    0.000    0.000    0.000 
#    0.000    0.000    0.000    0.000    0.000    0.000 
#
# Total GULP energy -297433.652120 kJ/mol
# GULP energy per Si atom -12393.068838 kJ/mol
# Density = 1.948530 g / cm^3
# Si number density = 19.529748 Si / 1000 Ang^3
#
#
#
# Elastic Constant Matrix: (Units=GPa)
#
#
# Indices 1 2 3 4 5 6 
#
# 1 126.0769 27.3558 34.7763 0.0000 -6.3371 0.0000
# 2 27.3558 53.6338 20.5737 0.0000 1.5100 0.0000
# 3 34.7763 20.5737 121.8764 0.0000 12.2682 0.0000
# 4 0.0000 0.0000 0.0000 21.9591 0.0000 0.3098
# 5 -6.3371 1.5100 12.2682 0.0000 33.7463 0.0000
# 6 0.0000 0.0000 0.0000 0.3098 0.0000 25.1531
#
#
#
# Elastic Compliance Matrix: (Units=1/GPa)
#
#
# Indices 1 2 3 4 5 6 
#
# 1 0.009605 -0.004082 -0.002337 0.000000 0.002836 0.000000
# 2 -0.004082 0.021675 -0.002407 0.000000 -0.000861 0.000000
# 3 -0.002337 -0.002407 0.009665 0.000000 -0.003845 0.000000
# 4 0.000000 0.000000 0.000000 0.045547 0.000000 -0.000561
# 5 0.002836 -0.000861 -0.003845 0.000000 0.031602 0.000000
# 6 0.000000 0.000000 0.000000 -0.000561 0.000000 0.039763
#
#
# Mechanical properties :
#
#
# Convention : Reuss Voigt Hill
#
# Bulk Modulus (GPa) = 42.93384 51.88873 47.41129
# Shear Modulus (GPa) = 27.28161 30.76379 29.02270
#
# Velocity S-wave (km/s) = 3.74160 3.97322 3.85915
# Velocity P-wave (km/s) = 6.37947 6.90474 6.64729
#
# Compressibility (1/GPa) = 0.02329165
#
# Stress axis : x y z
#
# Youngs Moduli (GPa) = 104.11732 46.13656 103.46336
#
# Poissons Ratio (x) = 0.18834 0.24179
# Poissons Ratio (y) = 0.42503 0.24907
# Poissons Ratio (z) = 0.24331 0.11107
#
# Static dielectric constant tensor:
#      x y z
#    x 4.390990 0.000000 -0.201270 
#    y 0.000000 3.403700 0.000000 
#    z -0.201270 0.000000 3.842350 
# 
# 
# High freq. dielectric constant tensor:
#      x y z
#    x 1.785880 0.000000 0.005140 
#    y 0.000000 1.721580 0.000000 
#    z 0.005140 0.000000 1.778370 
# 
# From -- ./inp_files/143758.got.cif
#   From: 2010.06.25/outbox.cif.g09.slc.cpg/sg15_72_cif.got.tgz:143758.got - 2010.06.28 07:06:18.
