data_PCOD8138514
_publ_section_title
;
Structure prediction by ZEFSAII (Michael W. Deem and Ramdas Pophale) SiO2 
 PCOD8138514
Probable space group: C 2/C
;
_chemical_formula_sum "Si O2"
_cell_formula_units_Z 40
_cell_length_a 30.911108
_cell_length_b 10.718840
_cell_length_c 9.542544
_cell_angle_alpha 90.000000
_cell_angle_beta 148.110380
_cell_angle_gamma 90.000000
_cell_volume 1670.299759
_symmetry_space_group_name_H-M "C 2/C"
_symmetry_group_IT_number 15
_symmetry_cell_setting 'monoclinic'
loop_
_space_group_symop_operation_xyz
x,y,z
-x,y,1/2-z
-x,-y,-z
x,-y,1/2+z
1/2+x,1/2+y,z
1/2-x,1/2+y,1/2-z
1/2-x,1/2-y,-z
1/2+x,1/2-y,1/2+z
loop_
_atom_site_type_symbol
_atom_site_label
_atom_site_fract_x
_atom_site_fract_y
_atom_site_fract_z
Si Si1 0.739433 0.274968 0.200283
Si Si2 0.196250 0.585088 0.867118
Si Si3 0.861947 0.027713 0.912075
Si Si4 0.107450 0.844965 0.272286
Si Si5 0.452683 0.087353 0.476087
O O1 0.806821 0.357894 0.298675
O O2 0.674812 0.356927 0.104444
O O3 0.794427 0.186835 0.453134
O O4 0.680442 0.192896 0.938094
O O5 0.134988 0.470720 0.721814
O O6 0.289933 0.547201 0.140721
O O7 0.916545 0.082031 0.936122
O O8 0.914426 0.934250 0.155621
O O9 0.056122 0.717609 0.130446
O O10 0.500000 0.000000 0.500000
O O11 0.500000 0.108186 0.750000
#
# Coordination Sequence:
#
# PCOD8138514 Si02
#       5
#     8   8   8   8   8
#     4  10  20  37  68 102 136 166 215 299 351 389
#     4  10  22  39  65 104 135 170 223 283 347 390
#     4  11  21  39  70 105 135 166 218 304 348 388
#     4  11  24  41  67 103 137 174 227 275 351 395
#     4  12  28  46  67  96 139 191 230 264 321 419
#
# _framework density 23.947797000000001
#
# number of rings (size 3 to 8) (size 9 to 14) (size 15 to 20)
#    0.000    1.200    4.000    1.800    2.800    0.000 
#    0.000    1.000    0.000    0.000    0.000    0.000 
#    0.000    0.000    0.000    0.000    0.000    0.000 
#
# Total GULP energy -247982.922585 kJ/mol
# GULP energy per Si atom -12399.146129 kJ/mol
# Density = 2.389329 g / cm^3
# Si number density = 23.947797 Si / 1000 Ang^3
#
#
#
# Elastic Constant Matrix: (Units=GPa)
#
#
# Indices 1 2 3 4 5 6 
#
# 1 71.7418 48.4324 36.3996 0.0000 -26.9677 0.0000
# 2 48.4324 141.6139 41.6070 0.0000 -25.0584 0.0000
# 3 36.3996 41.6070 79.2604 0.0000 -28.6787 0.0000
# 4 0.0000 0.0000 0.0000 46.0738 0.0000 -11.1268
# 5 -26.9677 -25.0584 -28.6787 0.0000 30.9133 0.0000
# 6 0.0000 0.0000 0.0000 -11.1268 0.0000 41.7153
#
#
#
# Elastic Compliance Matrix: (Units=1/GPa)
#
#
# Indices 1 2 3 4 5 6 
#
# 1 0.024208 -0.004762 -0.003572 0.000000 0.013944 0.000000
# 2 -0.004762 0.009640 -0.002332 0.000000 0.001496 0.000000
# 3 -0.003572 -0.002332 0.020577 0.000000 0.014083 0.000000
# 4 0.000000 0.000000 0.000000 0.023199 0.000000 0.006188
# 5 0.013944 0.001496 0.014083 0.000000 0.058791 0.000000
# 6 0.000000 0.000000 0.000000 0.006188 0.000000 0.025623
#
#
# Mechanical properties :
#
#
# Convention : Reuss Voigt Hill
#
# Bulk Modulus (GPa) = 30.21863 60.61045 45.41454
# Shear Modulus (GPa) = 25.72020 34.81894 30.26957
#
# Velocity S-wave (km/s) = 3.28077 3.81721 3.55911
# Velocity P-wave (km/s) = 5.19588 6.69272 5.99123
#
# Compressibility (1/GPa) = 0.03309217
#
# Stress axis : x y z
#
# Youngs Moduli (GPa) = 41.30929 103.73317 48.59833
#
# Poissons Ratio (x) = 0.49401 0.17359
# Poissons Ratio (y) = 0.19673 0.11333
# Poissons Ratio (z) = 0.14755 0.24191
#
# Static dielectric constant tensor:
#      x y z
#    x 4.029510 0.000000 -0.488140 
#    y 0.000000 4.713800 0.000000 
#    z -0.488140 0.000000 4.315260 
# 
# 
# High freq. dielectric constant tensor:
#      x y z
#    x 1.924070 0.000000 -0.036270 
#    y 0.000000 1.972310 0.000000 
#    z -0.036270 0.000000 1.942070 
# 
# From -- ./inp_files/69231.got.cif
#   From: 2010.06.25/outbox.cif.g09.slc.cpg/sg15_35_cif.got.tgz:69231.got - 2010.06.28 07:06:18.
