data_PCOD8138960
_publ_section_title
;
Structure prediction by ZEFSAII (Michael W. Deem and Ramdas Pophale) SiO2 
 PCOD8138960
Probable space group: C 2/C
;
_chemical_formula_sum "Si O2"
_cell_formula_units_Z 56
_cell_length_a 32.122812
_cell_length_b 12.260209
_cell_length_c 12.975367
_cell_angle_alpha 90.000000
_cell_angle_beta 28.100562
_cell_angle_gamma 90.000000
_cell_volume 2406.971347
_symmetry_space_group_name_H-M "C 2/C"
_symmetry_group_IT_number 15
_symmetry_cell_setting 'monoclinic'
loop_
_space_group_symop_operation_xyz
x,y,z
-x,y,1/2-z
-x,-y,-z
x,-y,1/2+z
1/2+x,1/2+y,z
1/2-x,1/2+y,1/2-z
1/2-x,1/2-y,-z
1/2+x,1/2-y,1/2+z
loop_
_atom_site_type_symbol
_atom_site_label
_atom_site_fract_x
_atom_site_fract_y
_atom_site_fract_z
Si Si1 0.650278 0.720891 0.754910
Si Si2 0.088594 0.645490 0.008489
Si Si3 0.352085 0.266865 0.004993
Si Si4 0.817665 0.152378 0.126433
Si Si5 0.024102 0.230096 0.453072
Si Si6 0.379996 0.467670 0.678963
Si Si7 0.265529 0.466067 0.111411
O O1 0.750000 0.750000 0.500000
O O2 0.614826 0.596874 0.829203
O O3 0.633635 0.765455 0.906664
O O4 0.577970 0.771583 0.833575
O O5 0.118903 0.742054 0.021563
O O6 0.074922 0.694281 0.924195
O O7 0.159678 0.547940 0.849170
O O8 0.000000 0.594482 0.250000
O O9 0.437157 0.254191 0.747162
O O10 0.275997 0.190134 0.122173
O O11 0.313944 0.389982 0.089405
O O12 0.863317 0.064179 0.098509
O O13 0.797403 0.091355 0.061948
O O14 0.035027 0.101933 0.464363
O O15 0.296275 0.430244 0.930913
#
# Coordination Sequence:
#
# PCOD8138960 Si02
#       7
#     8   8   8   8   8   8   8
#     4  12  24  38  63  94 131 164 209 267 328 372
#     4  10  23  39  64  96 127 168 213 266 318 371
#     4  10  21  40  63  89 126 169 207 259 320 380
#     4  10  20  39  63  91 123 164 210 256 315 379
#     4  10  23  41  62  90 128 166 215 261 315 381
#     4  10  21  39  61  93 120 168 210 258 317 379
#     4  10  20  38  63  90 126 166 210 258 313 384
#
# _framework density 23.265753
#
# number of rings (size 3 to 8) (size 9 to 14) (size 15 to 20)
#    0.000    1.714    1.429    2.571    6.000    3.429 
#    2.571    2.857    0.000    6.000    0.000    0.000 
#    0.000    0.000    0.000    0.000    0.000    0.000 
#
# Total GULP energy -346873.999789 kJ/mol
# GULP energy per Si atom -12388.357135 kJ/mol
# Density = 2.321280 g / cm^3
# Si number density = 23.265753 Si / 1000 Ang^3
#
#
#
# Elastic Constant Matrix: (Units=GPa)
#
#
# Indices 1 2 3 4 5 6 
#
# 1 104.2897 16.2323 47.5068 0.0000 -7.9978 0.0000
# 2 16.2323 22.5933 -1.4877 0.0000 -6.1847 0.0000
# 3 47.5068 -1.4877 104.8273 0.0000 -19.6478 0.0000
# 4 0.0000 0.0000 0.0000 22.3769 0.0000 1.0902
# 5 -7.9978 -6.1847 -19.6478 0.0000 42.2329 0.0000
# 6 0.0000 0.0000 0.0000 1.0902 0.0000 18.9437
#
#
#
# Elastic Compliance Matrix: (Units=1/GPa)
#
#
# Indices 1 2 3 4 5 6 
#
# 1 0.014452 -0.011472 -0.007136 0.000000 -0.002263 0.000000
# 2 -0.011472 0.055644 0.007788 0.000000 0.009599 0.000000
# 3 -0.007136 0.007788 0.014072 0.000000 0.006336 0.000000
# 4 0.000000 0.000000 0.000000 0.044815 0.000000 -0.002579
# 5 -0.002263 0.009599 0.006336 0.000000 0.027603 0.000000
# 6 0.000000 0.000000 0.000000 -0.002579 0.000000 0.052936
#
#
# Mechanical properties :
#
#
# Convention : Reuss Voigt Hill
#
# Bulk Modulus (GPa) = 15.99341 39.57924 27.78632
# Shear Modulus (GPa) = 19.84096 28.00794 23.92445
#
# Velocity S-wave (km/s) = 2.92344 3.47338 3.21021
# Velocity P-wave (km/s) = 4.27603 5.75627 5.07046
#
# Compressibility (1/GPa) = 0.06252576
#
# Stress axis : x y z
#
# Youngs Moduli (GPa) = 69.19691 17.97147 71.06503
#
# Poissons Ratio (x) = 0.20617 0.50714
# Poissons Ratio (y) = 0.79384 -0.55345
# Poissons Ratio (z) = 0.49381 -0.13996
#
# Static dielectric constant tensor:
#      x y z
#    x 4.213700 0.000000 -0.122040 
#    y 0.000000 3.962410 0.000000 
#    z -0.122040 0.000000 3.965350 
# 
# 
# High freq. dielectric constant tensor:
#      x y z
#    x 1.929570 0.000000 -0.002570 
#    y 0.000000 1.892480 0.000000 
#    z -0.002570 0.000000 1.912560 
# 
# From -- ./inp_files/126995.got.cif
#   From: 2010.06.25/outbox.cif.g09.slc.cpg/sg15_64_cif.got.tgz:126995.got - 2010.06.28 07:06:18.
