data_PCOD8138557
_publ_section_title
;
Structure prediction by ZEFSAII (Michael W. Deem and Ramdas Pophale) SiO2 
 PCOD8138557
Probable space group: C 2/C
;
_chemical_formula_sum "Si O2"
_cell_formula_units_Z 40
_cell_length_a 4.934645
_cell_length_b 21.857560
_cell_length_c 18.519905
_cell_angle_alpha 90.000000
_cell_angle_beta 99.167591
_cell_angle_gamma 90.000000
_cell_volume 1972.028432
_symmetry_space_group_name_H-M "C 2/C"
_symmetry_group_IT_number 15
_symmetry_cell_setting 'monoclinic'
loop_
_space_group_symop_operation_xyz
x,y,z
-x,y,1/2-z
-x,-y,-z
x,-y,1/2+z
1/2+x,1/2+y,z
1/2-x,1/2+y,1/2-z
1/2-x,1/2-y,-z
1/2+x,1/2-y,1/2+z
loop_
_atom_site_type_symbol
_atom_site_label
_atom_site_fract_x
_atom_site_fract_y
_atom_site_fract_z
Si Si1 0.660542 0.714459 0.923721
Si Si2 0.099200 0.748465 0.831218
Si Si3 0.747526 0.919243 0.021967
Si Si4 0.263077 0.884211 0.798210
Si Si5 0.688535 0.450022 0.936817
O O1 0.340939 0.715607 0.886672
O O2 0.728007 0.643031 0.932665
O O3 0.827849 0.747186 0.867722
O O4 0.750000 0.750000 0.000000
O O5 0.201468 0.816785 0.823737
O O6 0.000000 0.719184 0.750000
O O7 0.878610 0.977362 0.070081
O O8 0.426062 0.933792 0.003751
O O9 0.912640 0.914572 0.952068
O O10 0.500000 0.883949 0.750000
O O11 0.319885 0.927507 0.867873
O O12 0.000000 0.913730 0.750000
#
# Coordination Sequence:
#
# PCOD8138557 Si02
#       5
#     8   8   8   8   8
#     4  12  22  37  61  89 115 150 200 240 282 349
#     4  11  23  39  57  83 120 155 186 235 298 348
#     4  10  21  36  59  83 112 147 184 236 291 331
#     4  11  21  36  58  81 108 146 190 229 275 337
#     4  10  20  38  57  82 113 144 186 239 287 331
#
# _framework density 20.283681000000001
#
# number of rings (size 3 to 8) (size 9 to 14) (size 15 to 20)
#    0.000    1.200    0.000    8.400    0.000    0.000 
#    0.000    3.000    0.000    0.000    0.000    0.000 
#    0.000    0.000    0.000    0.000    0.000    0.000 
#
# Total GULP energy -247862.041228 kJ/mol
# GULP energy per Si atom -12393.102061 kJ/mol
# Density = 2.023751 g / cm^3
# Si number density = 20.283681 Si / 1000 Ang^3
#
#
#
# Elastic Constant Matrix: (Units=GPa)
#
#
# Indices 1 2 3 4 5 6 
#
# 1 98.6684 20.1704 25.5362 0.0000 -10.5799 0.0000
# 2 20.1704 94.7852 38.1985 0.0000 -6.8826 0.0000
# 3 25.5362 38.1985 105.1663 0.0000 -8.2570 0.0000
# 4 0.0000 0.0000 0.0000 24.3768 0.0000 -4.1719
# 5 -10.5799 -6.8826 -8.2570 0.0000 55.6463 0.0000
# 6 0.0000 0.0000 0.0000 -4.1719 0.0000 28.2603
#
#
#
# Elastic Compliance Matrix: (Units=1/GPa)
#
#
# Indices 1 2 3 4 5 6 
#
# 1 0.011134 -0.001421 -0.002059 0.000000 0.001636 0.000000
# 2 -0.001421 0.012583 -0.004173 0.000000 0.000667 0.000000
# 3 -0.002059 -0.004173 0.011588 0.000000 0.000812 0.000000
# 4 0.000000 0.000000 0.000000 0.042086 0.000000 0.006213
# 5 0.001636 0.000667 0.000812 0.000000 0.018485 0.000000
# 6 0.000000 0.000000 0.000000 0.006213 0.000000 0.036302
#
#
# Mechanical properties :
#
#
# Convention : Reuss Voigt Hill
#
# Bulk Modulus (GPa) = 50.00211 51.82556 50.91384
# Shear Modulus (GPa) = 32.43617 35.97102 34.20359
#
# Velocity S-wave (km/s) = 4.00325 4.21574 4.11087
# Velocity P-wave (km/s) = 6.78770 7.02157 6.90563
#
# Compressibility (1/GPa) = 0.01999916
#
# Stress axis : x y z
#
# Youngs Moduli (GPa) = 89.81772 79.47476 86.29513
#
# Poissons Ratio (x) = 0.11291 0.17768
# Poissons Ratio (y) = 0.12761 0.36010
# Poissons Ratio (z) = 0.18493 0.33164
#
# Static dielectric constant tensor:
#      x y z
#    x 4.048740 0.000000 0.132420 
#    y 0.000000 3.597640 0.000000 
#    z 0.132420 0.000000 3.793640 
# 
# 
# High freq. dielectric constant tensor:
#      x y z
#    x 1.817810 0.000000 -0.003090 
#    y 0.000000 1.782060 0.000000 
#    z -0.003090 0.000000 1.782940 
# 
# From -- ./inp_files/129127.got.cif
#   From: 2010.06.25/outbox.cif.g09.slc.cpg/sg15_65_cif.got.tgz:129127.got - 2010.06.28 07:06:18.
