data_PCOD8138708
_publ_section_title
;
Structure prediction by ZEFSAII (Michael W. Deem and Ramdas Pophale) SiO2 
 PCOD8138708
Probable space group: C 2/C
;
_chemical_formula_sum "Si O2"
_cell_formula_units_Z 44
_cell_length_a 15.232950
_cell_length_b 8.379710
_cell_length_c 17.379897
_cell_angle_alpha 90.000000
_cell_angle_beta 81.496094
_cell_angle_gamma 90.000000
_cell_volume 2194.113228
_symmetry_space_group_name_H-M "C 2/C"
_symmetry_group_IT_number 15
_symmetry_cell_setting 'monoclinic'
loop_
_space_group_symop_operation_xyz
x,y,z
-x,y,1/2-z
-x,-y,-z
x,-y,1/2+z
1/2+x,1/2+y,z
1/2-x,1/2+y,1/2-z
1/2-x,1/2-y,-z
1/2+x,1/2-y,1/2+z
loop_
_atom_site_type_symbol
_atom_site_label
_atom_site_fract_x
_atom_site_fract_y
_atom_site_fract_z
Si Si1 0.172358 0.338466 0.231847
Si Si2 0.940458 0.096037 0.332925
Si Si3 0.500000 0.955156 0.750000
Si Si4 0.913379 0.741859 0.390730
Si Si5 0.267492 0.617024 0.141879
Si Si6 0.448739 0.354374 0.542000
O O1 0.146815 0.199715 0.174515
O O2 0.249320 0.451316 0.188509
O O3 0.211958 0.261425 0.303099
O O4 0.083851 0.438132 0.262140
O O5 0.000000 0.067928 0.250000
O O6 0.999140 0.197397 0.387263
O O7 0.908234 0.928307 0.370409
O O8 0.517466 0.845375 0.673783
O O9 0.817154 0.663257 0.397528
O O10 0.944455 0.719322 0.475808
O O11 0.349713 0.587901 0.075195
O O12 0.500000 0.500000 0.500000
#
# Coordination Sequence:
#
# PCOD8138708 Si02
#       6
#     8   8   4   8   8   8
#     4  11  22  37  63  90 118 159 201 249 287 357
#     4  11  19  39  63  84 119 156 197 234 299 354
#     4  10  20  38  60  90 114 160 208 234 298 366
#     4  10  22  37  61  90 118 157 193 251 298 349
#     4  11  22  38  59  90 123 151 205 244 299 346
#     4  10  22  38  60  85 121 158 197 245 294 355
#
# _framework density 20.053660000000001
#
# number of rings (size 3 to 8) (size 9 to 14) (size 15 to 20)
#    0.000    1.455    3.636    1.636    0.000    1.455 
#    0.000   13.636    0.000    0.000    0.000    0.000 
#    0.000    0.000    0.000    0.000    0.000    0.000 
#
# Total GULP energy -272783.104575 kJ/mol
# GULP energy per Si atom -12399.232026 kJ/mol
# Density = 2.000802 g / cm^3
# Si number density = 20.053660 Si / 1000 Ang^3
#
#
#
# Elastic Constant Matrix: (Units=GPa)
#
#
# Indices 1 2 3 4 5 6 
#
# 1 53.8632 6.6999 29.3360 0.0000 -5.8393 0.0000
# 2 6.6999 77.2253 15.7983 0.0000 -7.1940 0.0000
# 3 29.3360 15.7983 106.1068 0.0000 0.6530 0.0000
# 4 0.0000 0.0000 0.0000 10.8126 0.0000 8.8340
# 5 -5.8393 -7.1940 0.6530 0.0000 41.7699 0.0000
# 6 0.0000 0.0000 0.0000 8.8340 0.0000 27.4201
#
#
#
# Elastic Compliance Matrix: (Units=1/GPa)
#
#
# Indices 1 2 3 4 5 6 
#
# 1 0.022290 -0.000388 -0.006124 0.000000 0.003145 0.000000
# 2 -0.000388 0.013594 -0.001931 0.000000 0.002317 0.000000
# 3 -0.006124 -0.001931 0.011414 0.000000 -0.001367 0.000000
# 4 0.000000 0.000000 0.000000 0.125525 0.000000 -0.040441
# 5 0.003145 0.002317 -0.001367 0.000000 0.024801 0.000000
# 6 0.000000 0.000000 0.000000 -0.040441 0.000000 0.049499
#
#
# Mechanical properties :
#
#
# Convention : Reuss Voigt Hill
#
# Bulk Modulus (GPa) = 32.88280 37.87373 35.37827
# Shear Modulus (GPa) = 18.23847 28.35793 23.29820
#
# Velocity S-wave (km/s) = 3.01904 3.76453 3.41221
# Velocity P-wave (km/s) = 5.34657 6.15003 5.76232
#
# Compressibility (1/GPa) = 0.03041104
#
# Stress axis : x y z
#
# Youngs Moduli (GPa) = 44.86256 73.56367 87.61471
#
# Poissons Ratio (x) = 0.02854 0.53658
# Poissons Ratio (y) = 0.01741 0.16918
# Poissons Ratio (z) = 0.27475 0.14205
#
# Static dielectric constant tensor:
#      x y z
#    x 3.930020 0.000000 0.238880 
#    y 0.000000 3.663690 0.000000 
#    z 0.238880 0.000000 4.137200 
# 
# 
# High freq. dielectric constant tensor:
#      x y z
#    x 1.789060 0.000000 0.006350 
#    y 0.000000 1.774790 0.000000 
#    z 0.006350 0.000000 1.787810 
# 
# From -- ./inp_files/202534.got.cif
#   From: 2010.06.25/outbox.cif.g09.slc.cpg/sg15_102_cif.got.tgz:202534.got - 2010.06.28 07:06:18.
