data_PCOD8138060
_publ_section_title
;
Structure prediction by ZEFSAII (Michael W. Deem and Ramdas Pophale) SiO2 
 PCOD8138060
Probable space group: C 2/C
;
_chemical_formula_sum "Si O2"
_cell_formula_units_Z 64
_cell_length_a 16.661783
_cell_length_b 19.760539
_cell_length_c 9.758785
_cell_angle_alpha 90.000000
_cell_angle_beta 77.761371
_cell_angle_gamma 90.000000
_cell_volume 3140.016990
_symmetry_space_group_name_H-M "C 2/C"
_symmetry_group_IT_number 15
_symmetry_cell_setting 'monoclinic'
loop_
_space_group_symop_operation_xyz
x,y,z
-x,y,1/2-z
-x,-y,-z
x,-y,1/2+z
1/2+x,1/2+y,z
1/2-x,1/2+y,1/2-z
1/2-x,1/2-y,-z
1/2+x,1/2-y,1/2+z
loop_
_atom_site_type_symbol
_atom_site_label
_atom_site_fract_x
_atom_site_fract_y
_atom_site_fract_z
Si Si1 0.580992 0.184242 0.794632
Si Si2 0.292932 0.394557 0.430410
Si Si3 0.309333 0.292685 0.654322
Si Si4 0.324208 0.014180 0.992918
Si Si5 0.058088 0.992834 0.105903
Si Si6 0.179001 0.887596 0.603805
Si Si7 0.077308 0.466033 0.304759
Si Si8 0.742143 0.321673 0.326155
O O1 0.500000 0.213981 0.750000
O O2 0.613250 0.240071 0.893664
O O3 0.558097 0.110561 0.864670
O O4 0.660665 0.172133 0.666328
O O5 0.285504 0.324002 0.516732
O O6 0.215747 0.440112 0.499385
O O7 0.377043 0.432365 0.436776
O O8 0.285630 0.379429 0.271657
O O9 0.335628 0.353169 0.745321
O O10 0.232912 0.251904 0.754032
O O11 0.401696 0.011513 0.070018
O O12 0.261285 0.068374 0.076072
O O13 0.347604 0.034328 0.830426
O O14 0.101393 0.064789 0.109376
O O15 0.000000 0.972355 0.250000
O O16 0.000000 0.000000 0.000000
O O17 0.186131 0.830371 0.481375
O O18 0.000000 0.496827 0.250000
#
# Coordination Sequence:
#
# PCOD8138060 Si02
#       8
#     8   8   8   8   8   8   8   8
#     4   9  20  36  55  79 115 147 182 226 280 333
#     4  11  21  37  59  83 113 148 189 235 283 341
#     4  10  21  34  59  83 108 143 195 231 279 329
#     4  11  19  36  55  82 108 144 183 227 277 332
#     4  11  24  39  58  86 122 153 188 241 296 346
#     4  11  21  37  60  84 111 145 192 238 278 338
#     4  11  21  34  53  80 113 145 179 223 276 332
#     4  10  20  37  58  83 112 148 189 232 276 332
#
# _framework density 20.382054
#
# number of rings (size 3 to 8) (size 9 to 14) (size 15 to 20)
#    0.750    0.750    2.500    3.375    0.000    5.500 
#    0.000    0.000    0.000    0.000    0.000    0.875 
#    0.000    0.000    0.000    0.000    0.000    0.000 
#
# Total GULP energy -396544.384539 kJ/mol
# GULP energy per Si atom -12392.012017 kJ/mol
# Density = 2.033566 g / cm^3
# Si number density = 20.382054 Si / 1000 Ang^3
#
#
#
# Elastic Constant Matrix: (Units=GPa)
#
#
# Indices 1 2 3 4 5 6 
#
# 1 72.1672 16.9509 9.0494 0.0000 17.1988 0.0000
# 2 16.9509 72.4921 13.3840 0.0000 9.4294 0.0000
# 3 9.0494 13.3840 71.5883 0.0000 10.7774 0.0000
# 4 0.0000 0.0000 0.0000 34.3257 0.0000 3.0745
# 5 17.1988 9.4294 10.7774 0.0000 25.9246 0.0000
# 6 0.0000 0.0000 0.0000 3.0745 0.0000 23.4276
#
#
#
# Elastic Compliance Matrix: (Units=1/GPa)
#
#
# Indices 1 2 3 4 5 6 
#
# 1 0.016921 -0.002605 -0.000112 0.000000 -0.010232 0.000000
# 2 -0.002605 0.015166 -0.002065 0.000000 -0.002929 0.000000
# 3 -0.000112 -0.002065 0.015196 0.000000 -0.005492 0.000000
# 4 0.000000 0.000000 0.000000 0.029479 0.000000 -0.003869
# 5 -0.010232 -0.002929 -0.005492 0.000000 0.048710 0.000000
# 6 0.000000 0.000000 0.000000 -0.003869 0.000000 0.043192
#
#
# Mechanical properties :
#
#
# Convention : Reuss Voigt Hill
#
# Bulk Modulus (GPa) = 26.51161 32.77958 29.64560
# Shear Modulus (GPa) = 26.20527 28.52646 27.36587
#
# Velocity S-wave (km/s) = 3.58956 3.74516 3.66819
# Velocity P-wave (km/s) = 5.49686 5.90078 5.70240
#
# Compressibility (1/GPa) = 0.03771932
#
# Stress axis : x y z
#
# Youngs Moduli (GPa) = 59.09801 65.93654 65.80775
#
# Poissons Ratio (x) = 0.17178 0.00734
# Poissons Ratio (y) = 0.15396 0.13590
# Poissons Ratio (z) = 0.00659 0.13616
#
# Static dielectric constant tensor:
#      x y z
#    x 3.651800 0.000000 0.119700 
#    y 0.000000 3.869730 0.000000 
#    z 0.119700 0.000000 3.531100 
# 
# 
# High freq. dielectric constant tensor:
#      x y z
#    x 1.785580 0.000000 0.014500 
#    y 0.000000 1.802390 0.000000 
#    z 0.014500 0.000000 1.778520 
# 
# From -- ./inp_files/50233.got.cif
#   From: 2010.06.25/outbox.cif.g09.slc.cpg/sg15_26_cif.got.tgz:50233.got - 2010.06.28 07:06:18.
