data_PCOD8138348
_publ_section_title
;
Structure prediction by ZEFSAII (Michael W. Deem and Ramdas Pophale) SiO2 
 PCOD8138348
Probable space group: C 2/C
;
_chemical_formula_sum "Si O2"
_cell_formula_units_Z 60
_cell_length_a 11.865410
_cell_length_b 17.534294
_cell_length_c 16.446329
_cell_angle_alpha 90.000000
_cell_angle_beta 63.771100
_cell_angle_gamma 90.000000
_cell_volume 3069.372990
_symmetry_space_group_name_H-M "C 2/C"
_symmetry_group_IT_number 15
_symmetry_cell_setting 'monoclinic'
loop_
_space_group_symop_operation_xyz
x,y,z
-x,y,1/2-z
-x,-y,-z
x,-y,1/2+z
1/2+x,1/2+y,z
1/2-x,1/2+y,1/2-z
1/2-x,1/2-y,-z
1/2+x,1/2-y,1/2+z
loop_
_atom_site_type_symbol
_atom_site_label
_atom_site_fract_x
_atom_site_fract_y
_atom_site_fract_z
Si Si1 0.660407 0.599806 0.576415
Si Si2 0.517722 0.953493 0.077418
Si Si3 0.171873 0.056113 0.322237
Si Si4 0.423630 0.829054 0.009879
Si Si5 0.561615 0.095705 0.314135
Si Si6 0.486151 0.341760 0.513686
Si Si7 0.286405 0.451058 0.044923
Si Si8 0.000000 0.975819 0.250000
O O1 0.776749 0.659615 0.533892
O O2 0.543246 0.640500 0.570840
O O3 0.683665 0.520125 0.524679
O O4 0.612858 0.578258 0.681500
O O5 0.434446 0.879266 0.088572
O O6 0.654048 0.920567 0.055725
O O7 0.475961 0.006978 0.164552
O O8 0.500000 0.000000 0.000000
O O9 0.287155 0.095645 0.237400
O O10 0.120885 0.122260 0.396182
O O11 0.060797 0.030217 0.298282
O O12 0.215541 0.983669 0.362545
O O13 0.474197 0.748590 0.025184
O O14 0.510901 0.854614 0.905952
O O15 0.500000 0.126643 0.250000
O O16 0.620022 0.379082 0.493473
#
# Coordination Sequence:
#
# PCOD8138348 Si02
#       8
#     8   8   8   8   8   8   8   4
#     4  11  20  40  63  88 121 163 217 257 301 374
#     4  10  20  37  63  89 116 159 213 253 297 381
#     4  11  22  37  64  90 122 158 211 266 310 365
#     4  11  24  40  62  91 128 173 202 250 330 395
#     4  11  20  38  64  94 115 158 221 269 299 360
#     4  11  23  42  59  90 133 171 193 252 342 389
#     4  11  19  41  64  86 122 165 207 255 310 378
#     4  12  22  36  66  98 112 156 226 274 296 356
#
# _framework density 19.547965999999999
#
# number of rings (size 3 to 8) (size 9 to 14) (size 15 to 20)
#    0.000    1.067    6.667    2.800    1.867    0.533 
#    3.600    0.000    1.467    0.000    0.000    0.000 
#    0.000    0.000    0.000    0.000    0.000    0.000 
#
# Total GULP energy -371704.722707 kJ/mol
# GULP energy per Si atom -12390.157424 kJ/mol
# Density = 1.950347 g / cm^3
# Si number density = 19.547966 Si / 1000 Ang^3
#
#
#
# Elastic Constant Matrix: (Units=GPa)
#
#
# Indices 1 2 3 4 5 6 
#
# 1 113.2758 19.9261 23.0041 0.0000 -7.6031 0.0000
# 2 19.9261 94.7942 21.6980 0.0000 -1.3672 0.0000
# 3 23.0041 21.6980 77.9930 0.0000 -13.8306 0.0000
# 4 0.0000 0.0000 0.0000 17.5449 0.0000 -4.8576
# 5 -7.6031 -1.3672 -13.8306 0.0000 32.0524 0.0000
# 6 0.0000 0.0000 0.0000 -4.8576 0.0000 27.9871
#
#
#
# Elastic Compliance Matrix: (Units=1/GPa)
#
#
# Indices 1 2 3 4 5 6 
#
# 1 0.009623 -0.001502 -0.002195 0.000000 0.001272 0.000000
# 2 -0.001502 0.011528 -0.002967 0.000000 -0.001145 0.000000
# 3 -0.002195 -0.002967 0.015355 0.000000 0.005978 0.000000
# 4 0.000000 0.000000 0.000000 0.059874 0.000000 0.010392
# 5 0.001272 -0.001145 0.005978 0.000000 0.034031 0.000000
# 6 0.000000 0.000000 0.000000 0.010392 0.000000 0.037534
#
#
# Mechanical properties :
#
#
# Convention : Reuss Voigt Hill
#
# Bulk Modulus (GPa) = 43.14566 46.14659 44.64612
# Shear Modulus (GPa) = 26.45517 30.27921 28.36719
#
# Velocity S-wave (km/s) = 3.68278 3.93997 3.81354
# Velocity P-wave (km/s) = 6.34061 6.66002 6.50228
#
# Compressibility (1/GPa) = 0.02317730
#
# Stress axis : x y z
#
# Youngs Moduli (GPa) = 103.91386 86.74888 65.12680
#
# Poissons Ratio (x) = 0.13030 0.14296
# Poissons Ratio (y) = 0.15609 0.19323
# Poissons Ratio (z) = 0.22810 0.25738
#
# Static dielectric constant tensor:
#      x y z
#    x 3.519860 0.000000 0.222620 
#    y 0.000000 3.732060 0.000000 
#    z 0.222620 0.000000 3.625770 
# 
# 
# High freq. dielectric constant tensor:
#      x y z
#    x 1.774420 0.000000 0.000210 
#    y 0.000000 1.734240 0.000000 
#    z 0.000210 0.000000 1.757020 
# 
# From -- ./inp_files/199521.got.cif
#   From: 2010.06.25/outbox.cif.g09.slc.cpg/sg15_100_cif.got.tgz:199521.got - 2010.06.28 07:06:18.
