data_PCOD8138350
_publ_section_title
;
Structure prediction by ZEFSAII (Michael W. Deem and Ramdas Pophale) SiO2 
 PCOD8138350
Probable space group: C 2/C
;
_chemical_formula_sum "Si O2"
_cell_formula_units_Z 60
_cell_length_a 21.123109
_cell_length_b 17.761491
_cell_length_c 9.192065
_cell_angle_alpha 90.000000
_cell_angle_beta 118.631709
_cell_angle_gamma 90.000000
_cell_volume 3026.950454
_symmetry_space_group_name_H-M "C 2/C"
_symmetry_group_IT_number 15
_symmetry_cell_setting 'monoclinic'
loop_
_space_group_symop_operation_xyz
x,y,z
-x,y,1/2-z
-x,-y,-z
x,-y,1/2+z
1/2+x,1/2+y,z
1/2-x,1/2+y,1/2-z
1/2-x,1/2-y,-z
1/2+x,1/2-y,1/2+z
loop_
_atom_site_type_symbol
_atom_site_label
_atom_site_fract_x
_atom_site_fract_y
_atom_site_fract_z
Si Si1 0.374360 0.467364 0.568264
Si Si2 0.327384 0.342424 0.716972
Si Si3 0.500000 0.584852 0.750000
Si Si4 0.417146 0.232089 0.619413
Si Si5 0.786543 0.828573 0.002956
Si Si6 0.409204 0.653532 0.870908
Si Si7 0.280817 0.028870 0.153277
Si Si8 0.177189 0.595400 0.003995
O O1 0.363428 0.422619 0.709715
O O2 0.429225 0.534956 0.652169
O O3 0.406629 0.410376 0.488632
O O4 0.301131 0.500270 0.421428
O O5 0.368411 0.273362 0.686843
O O6 0.245069 0.347290 0.566967
O O7 0.326379 0.329171 0.889370
O O8 0.484903 0.639757 0.870466
O O9 0.500000 0.238737 0.750000
O O10 0.407055 0.266266 0.447494
O O11 0.394832 0.144969 0.582689
O O12 0.843334 0.850639 0.187668
O O13 0.750000 0.750000 0.000000
O O14 0.723501 0.891763 0.938523
O O15 0.317295 0.044237 0.347268
O O16 0.328538 0.964702 0.131950
#
# Coordination Sequence:
#
# PCOD8138350 Si02
#       8
#     8   8   4   8   8   8   8   8
#     4  10  22  37  59  88 126 169 201 241 303 393
#     4   9  22  39  64  88 128 164 206 249 310 382
#     4  12  24  34  60  90 134 166 204 240 316 378
#     4  11  25  43  62  87 126 171 214 256 314 380
#     4  11  22  38  63  94 124 154 210 264 316 365
#     4  11  24  37  58  87 127 167 205 249 309 373
#     4  10  20  37  63  89 120 153 205 258 305 361
#     4  10  21  40  66  91 119 158 210 258 314 367
#
# _framework density 19.821930999999999
#
# number of rings (size 3 to 8) (size 9 to 14) (size 15 to 20)
#    0.000    1.600    1.333    3.200    9.333    3.200 
#    0.000    0.667    0.000    0.000    0.000    0.000 
#    0.000    0.000    0.000    0.000    0.000    0.000 
#
# Total GULP energy -371937.694264 kJ/mol
# GULP energy per Si atom -12397.923142 kJ/mol
# Density = 1.977682 g / cm^3
# Si number density = 19.821931 Si / 1000 Ang^3
#
#
#
# Elastic Constant Matrix: (Units=GPa)
#
#
# Indices 1 2 3 4 5 6 
#
# 1 72.6861 53.1545 38.0669 0.0000 -27.3862 0.0000
# 2 53.1545 110.4368 29.6188 0.0000 -20.7726 0.0000
# 3 38.0669 29.6188 83.9326 0.0000 -22.7392 0.0000
# 4 0.0000 0.0000 0.0000 25.6369 0.0000 1.3047
# 5 -27.3862 -20.7726 -22.7392 0.0000 26.3150 0.0000
# 6 0.0000 0.0000 0.0000 1.3047 0.0000 36.1665
#
#
#
# Elastic Compliance Matrix: (Units=1/GPa)
#
#
# Indices 1 2 3 4 5 6 
#
# 1 0.031389 -0.009876 -0.005240 0.000000 0.020343 0.000000
# 2 -0.009876 0.013986 -0.000326 0.000000 0.000481 0.000000
# 3 -0.005240 -0.000326 0.016789 0.000000 0.008797 0.000000
# 4 0.000000 0.000000 0.000000 0.039078 0.000000 -0.001410
# 5 0.020343 0.000481 0.008797 0.000000 0.067153 0.000000
# 6 0.000000 0.000000 0.000000 -0.001410 0.000000 0.027701
#
#
# Mechanical properties :
#
#
# Convention : Reuss Voigt Hill
#
# Bulk Modulus (GPa) = 31.96882 56.52619 44.24751
# Shear Modulus (GPa) = 21.06088 27.37140 24.21614
#
# Velocity S-wave (km/s) = 3.26314 3.72003 3.49905
# Velocity P-wave (km/s) = 5.51004 6.85787 6.22057
#
# Compressibility (1/GPa) = 0.03128048
#
# Stress axis : x y z
#
# Youngs Moduli (GPa) = 31.85854 71.49852 59.56197
#
# Poissons Ratio (x) = 0.70613 0.31208
# Poissons Ratio (y) = 0.31464 0.01943
# Poissons Ratio (z) = 0.16693 0.02332
#
# Static dielectric constant tensor:
#      x y z
#    x 3.861730 0.000000 -0.235450 
#    y 0.000000 3.792750 0.000000 
#    z -0.235450 0.000000 3.579420 
# 
# 
# High freq. dielectric constant tensor:
#      x y z
#    x 1.754230 0.000000 -0.017740 
#    y 0.000000 1.776220 0.000000 
#    z -0.017740 0.000000 1.773330 
# 
# From -- ./inp_files/56995.got.cif
#   From: 2010.06.25/outbox.cif.g09.slc.cpg/sg15_29_cif.got.tgz:56995.got - 2010.06.28 07:06:18.
