data_PCOD8138095
_publ_section_title
;
Structure prediction by ZEFSAII (Michael W. Deem and Ramdas Pophale) SiO2 
 PCOD8138095
Probable space group: C 2/C
;
_chemical_formula_sum "Si O2"
_cell_formula_units_Z 64
_cell_length_a 30.397340
_cell_length_b 18.402237
_cell_length_c 9.683833
_cell_angle_alpha 90.000000
_cell_angle_beta 141.059807
_cell_angle_gamma 90.000000
_cell_volume 3404.590501
_symmetry_space_group_name_H-M "C 2/C"
_symmetry_group_IT_number 15
_symmetry_cell_setting 'monoclinic'
loop_
_space_group_symop_operation_xyz
x,y,z
-x,y,1/2-z
-x,-y,-z
x,-y,1/2+z
1/2+x,1/2+y,z
1/2-x,1/2+y,1/2-z
1/2-x,1/2-y,-z
1/2+x,1/2-y,1/2+z
loop_
_atom_site_type_symbol
_atom_site_label
_atom_site_fract_x
_atom_site_fract_y
_atom_site_fract_z
Si Si1 0.329479 0.931428 0.728947
Si Si2 0.418778 0.790333 0.574133
Si Si3 0.665530 0.561338 0.816008
Si Si4 0.077054 0.306283 0.427758
Si Si5 0.835244 0.431855 0.425068
Si Si6 0.428909 0.305397 0.354813
Si Si7 0.328197 0.425882 0.484867
Si Si8 0.413217 0.291409 0.793236
O O1 0.246545 0.919342 0.537309
O O2 0.353639 0.945490 0.630682
O O3 0.356039 0.997475 0.888044
O O4 0.363884 0.859051 0.872222
O O5 0.500000 0.808335 0.750000
O O6 0.377649 0.865431 0.464489
O O7 0.402731 0.754365 0.681954
O O8 0.392299 0.732603 0.396032
O O9 0.618760 0.623630 0.770560
O O10 0.647953 0.552247 0.611256
O O11 0.645754 0.487114 0.845312
O O12 0.078177 0.230148 0.512518
O O13 0.091484 0.283355 0.305715
O O14 0.000000 0.343137 0.250000
O O15 0.754218 0.414810 0.209007
O O16 0.509293 0.326668 0.521011
O O17 0.359063 0.349519 0.605463
#
# Coordination Sequence:
#
# PCOD8138095 Si02
#       8
#     8   8   8   8   8   8   8   8
#     4  10  22  39  58  83 113 149 188 229 279 332
#     4  10  22  39  58  84 114 146 185 233 281 330
#     4  10  22  38  59  82 114 149 188 231 276 333
#     4  10  20  37  59  83 110 143 186 232 278 332
#     4  10  22  40  58  81 115 148 188 231 276 334
#     4  10  20  39  59  82 113 148 186 231 279 330
#     4  10  22  39  57  84 113 149 188 230 279 329
#     4  10  22  37  58  85 116 144 186 235 278 330
#
# _framework density 18.79815
#
# number of rings (size 3 to 8) (size 9 to 14) (size 15 to 20)
#    0.000    2.000    2.500    0.000    3.500    3.000 
#    0.000    1.250    0.000    0.000    0.000    0.000 
#    0.000    0.000    0.000    0.000    0.000    0.000 
#
# Total GULP energy -396906.540737 kJ/mol
# GULP energy per Si atom -12403.329398 kJ/mol
# Density = 1.875536 g / cm^3
# Si number density = 18.798150 Si / 1000 Ang^3
#
#
#
# Elastic Constant Matrix: (Units=GPa)
#
#
# Indices 1 2 3 4 5 6 
#
# 1 71.9155 42.3473 25.1995 0.0000 -7.0548 0.0000
# 2 42.3473 95.1106 43.9291 0.0000 3.4412 0.0000
# 3 25.1995 43.9291 76.8799 0.0000 -11.5481 0.0000
# 4 0.0000 0.0000 0.0000 25.4379 0.0000 0.4496
# 5 -7.0548 3.4412 -11.5481 0.0000 17.7459 0.0000
# 6 0.0000 0.0000 0.0000 0.4496 0.0000 23.7063
#
#
#
# Elastic Compliance Matrix: (Units=1/GPa)
#
#
# Indices 1 2 3 4 5 6 
#
# 1 0.020465 -0.009636 0.000333 0.000000 0.010221 0.000000
# 2 -0.009636 0.020232 -0.010603 0.000000 -0.014654 0.000000
# 3 0.000333 -0.010603 0.021375 0.000000 0.016098 0.000000
# 4 0.000000 0.000000 0.000000 0.039325 0.000000 -0.000746
# 5 0.010221 -0.014654 0.016098 0.000000 0.073732 0.000000
# 6 0.000000 0.000000 0.000000 -0.000746 0.000000 0.042197
#
#
# Mechanical properties :
#
#
# Convention : Reuss Voigt Hill
#
# Bulk Modulus (GPa) = 44.92309 51.87310 48.39810
# Shear Modulus (GPa) = 18.89952 22.20670 20.55311
#
# Velocity S-wave (km/s) = 3.17423 3.44077 3.31018
# Velocity P-wave (km/s) = 6.11423 6.59089 6.35703
#
# Compressibility (1/GPa) = 0.02226027
#
# Stress axis : x y z
#
# Youngs Moduli (GPa) = 48.86381 49.42714 46.78376
#
# Poissons Ratio (x) = 0.47626 -0.01558
# Poissons Ratio (y) = 0.47083 0.49606
# Poissons Ratio (z) = -0.01627 0.52409
#
# Static dielectric constant tensor:
#      x y z
#    x 3.499870 0.000000 -0.169260 
#    y 0.000000 3.241750 0.000000 
#    z -0.169260 0.000000 3.562500 
# 
# 
# High freq. dielectric constant tensor:
#      x y z
#    x 1.732930 0.000000 -0.012560 
#    y 0.000000 1.722480 0.000000 
#    z -0.012560 0.000000 1.739270 
# 
# From -- ./inp_files/70606.got.cif
#   From: 2010.06.25/outbox.cif.g09.slc.cpg/sg15_36_cif.got.tgz:70606.got - 2010.06.28 07:06:18.
