data_PCOD8138179
_publ_section_title
;
Structure prediction by ZEFSAII (Michael W. Deem and Ramdas Pophale) SiO2 
 PCOD8138179
Probable space group: C 2/C
;
_chemical_formula_sum "Si O2"
_cell_formula_units_Z 52
_cell_length_a 19.112312
_cell_length_b 20.128659
_cell_length_c 8.252213
_cell_angle_alpha 90.000000
_cell_angle_beta 55.886063
_cell_angle_gamma 90.000000
_cell_volume 2628.384740
_symmetry_space_group_name_H-M "C 2/C"
_symmetry_group_IT_number 15
_symmetry_cell_setting 'monoclinic'
loop_
_space_group_symop_operation_xyz
x,y,z
-x,y,1/2-z
-x,-y,-z
x,-y,1/2+z
1/2+x,1/2+y,z
1/2-x,1/2+y,1/2-z
1/2-x,1/2-y,-z
1/2+x,1/2-y,1/2+z
loop_
_atom_site_type_symbol
_atom_site_label
_atom_site_fract_x
_atom_site_fract_y
_atom_site_fract_z
Si Si1 0.454822 0.688566 0.481620
Si Si2 0.969894 0.341817 0.468309
Si Si3 0.121716 0.417246 0.413227
Si Si4 0.192790 0.904506 0.375388
Si Si5 0.665424 0.530871 0.573691
Si Si6 0.500000 0.387608 0.250000
Si Si7 0.651786 0.057569 0.243866
O O1 0.500000 0.674671 0.250000
O O2 0.450538 0.765527 0.531409
O O3 0.359574 0.662704 0.579124
O O4 0.495552 0.654240 0.588077
O O5 0.044545 0.367510 0.486294
O O6 0.000000 0.352731 0.250000
O O7 0.883744 0.383287 0.599015
O O8 0.208954 0.384541 0.232849
O O9 0.107440 0.488210 0.347476
O O10 0.125325 0.426711 0.597999
O O11 0.180839 0.953979 0.240039
O O12 0.158758 0.950374 0.567544
O O13 0.581523 0.566389 0.618399
O O14 0.747092 0.555187 0.363935
#
# Coordination Sequence:
#
# PCOD8138179 Si02
#       7
#     8   8   8   8   8   4   8
#     4  10  24  41  57  87 122 161 202 243 294 357
#     4  11  23  40  56  83 120 159 199 241 291 358
#     4  10  20  37  62  88 115 156 191 248 300 345
#     4   9  20  38  58  90 120 146 198 247 293 356
#     4   9  20  35  60  90 115 151 194 243 301 346
#     4  10  22  40  60  90 120 158 202 244 296 354
#     4  10  20  37  60  90 117 149 197 246 299 350
#
# _framework density 19.784013000000002
#
# number of rings (size 3 to 8) (size 9 to 14) (size 15 to 20)
#    0.000    2.154    0.000    1.846    5.385    2.462 
#    2.769    3.846    0.000    0.000    0.000    0.000 
#    0.000    0.000    0.000    0.000    0.000    0.000 
#
# Total GULP energy -322307.755006 kJ/mol
# GULP energy per Si atom -12396.452116 kJ/mol
# Density = 1.973898 g / cm^3
# Si number density = 19.784013 Si / 1000 Ang^3
#
#
#
# Elastic Constant Matrix: (Units=GPa)
#
#
# Indices 1 2 3 4 5 6 
#
# 1 88.8057 52.0966 29.2641 0.0000 -21.3508 0.0000
# 2 52.0966 121.4982 54.7191 0.0000 -20.5883 0.0000
# 3 29.2641 54.7191 71.2271 0.0000 -10.2286 0.0000
# 4 0.0000 0.0000 0.0000 32.4244 0.0000 -1.8687
# 5 -21.3508 -20.5883 -10.2286 0.0000 30.3927 0.0000
# 6 0.0000 0.0000 0.0000 -1.8687 0.0000 28.0022
#
#
#
# Elastic Compliance Matrix: (Units=1/GPa)
#
#
# Indices 1 2 3 4 5 6 
#
# 1 0.016661 -0.004978 -0.001917 0.000000 0.007687 0.000000
# 2 -0.004978 0.015027 -0.008973 0.000000 0.003663 0.000000
# 3 -0.001917 -0.008973 0.021703 0.000000 -0.000121 0.000000
# 4 0.000000 0.000000 0.000000 0.030960 0.000000 0.002066
# 5 0.007687 0.003663 -0.000121 0.000000 0.040743 0.000000
# 6 0.000000 0.000000 0.000000 0.002066 0.000000 0.035849
#
#
# Mechanical properties :
#
#
# Convention : Reuss Voigt Hill
#
# Bulk Modulus (GPa) = 46.17923 61.52117 53.85020
# Shear Modulus (GPa) = 25.01293 27.86062 26.43677
#
# Velocity S-wave (km/s) = 3.55956 3.75672 3.65947
# Velocity P-wave (km/s) = 6.34715 7.06974 6.71817
#
# Compressibility (1/GPa) = 0.02165476
#
# Stress axis : x y z
#
# Youngs Moduli (GPa) = 60.02216 66.54797 46.07615
#
# Poissons Ratio (x) = 0.33126 0.08833
# Poissons Ratio (y) = 0.29878 0.41344
# Poissons Ratio (z) = 0.11507 0.59713
#
# Static dielectric constant tensor:
#      x y z
#    x 3.820200 0.000000 -0.088050 
#    y 0.000000 3.464720 0.000000 
#    z -0.088050 0.000000 3.809440 
# 
# 
# High freq. dielectric constant tensor:
#      x y z
#    x 1.778450 0.000000 0.001180 
#    y 0.000000 1.756570 0.000000 
#    z 0.001180 0.000000 1.783780 
# 
# From -- ./inp_files/56961.got.cif
#   From: 2010.06.25/outbox.cif.g09.slc.cpg/sg15_29_cif.got.tgz:56961.got - 2010.06.28 07:06:18.
