data_PCOD8138073
_publ_section_title
;
Structure prediction by ZEFSAII (Michael W. Deem and Ramdas Pophale) SiO2 
 PCOD8138073
Probable space group: C 2/C
;
_chemical_formula_sum "Si O2"
_cell_formula_units_Z 56
_cell_length_a 14.047714
_cell_length_b 21.648216
_cell_length_c 8.720760
_cell_angle_alpha 90.000000
_cell_angle_beta 93.015072
_cell_angle_gamma 90.000000
_cell_volume 2648.381271
_symmetry_space_group_name_H-M "C 2/C"
_symmetry_group_IT_number 15
_symmetry_cell_setting 'monoclinic'
loop_
_space_group_symop_operation_xyz
x,y,z
-x,y,1/2-z
-x,-y,-z
x,-y,1/2+z
1/2+x,1/2+y,z
1/2-x,1/2+y,1/2-z
1/2-x,1/2-y,-z
1/2+x,1/2-y,1/2+z
loop_
_atom_site_type_symbol
_atom_site_label
_atom_site_fract_x
_atom_site_fract_y
_atom_site_fract_z
Si Si1 0.660673 0.550469 0.182717
Si Si2 0.843424 0.419668 0.866500
Si Si3 0.101577 0.187320 0.824417
Si Si4 0.602060 0.973318 0.307517
Si Si5 0.090996 0.821141 0.668976
Si Si6 0.793414 0.061976 0.658379
Si Si7 0.215407 0.285603 0.647246
O O1 0.732053 0.569101 0.326384
O O2 0.580214 0.603501 0.165697
O O3 0.631070 0.481913 0.239299
O O4 0.710186 0.544652 0.021275
O O5 0.897906 0.451785 0.725511
O O6 0.851070 0.345838 0.891234
O O7 0.881598 0.457511 0.014818
O O8 0.174797 0.131531 0.812290
O O9 0.144694 0.244592 0.739530
O O10 0.000000 0.167521 0.750000
O O11 0.088198 0.206603 0.999444
O O12 0.500000 0.945071 0.250000
O O13 0.686448 0.943452 0.213540
O O14 0.190565 0.801934 0.750243
O O15 0.000000 0.793566 0.750000
O O16 0.250000 0.250000 0.500000
#
# Coordination Sequence:
#
# PCOD8138073 Si02
#       7
#     8   8   8   8   8   8   8
#     4   9  19  35  60  87 118 157 197 250 310 360
#     4  10  21  37  58  86 119 158 199 249 302 358
#     4  11  24  42  64  89 121 164 208 251 302 369
#     4  11  21  36  59  89 122 157 200 251 309 369
#     4  10  22  41  64  90 121 157 203 255 308 365
#     4  10  20  37  58  87 122 158 199 250 306 361
#     4  11  23  42  64  90 126 167 208 254 304 364
#
# _framework density 21.144991000000001
#
# number of rings (size 3 to 8) (size 9 to 14) (size 15 to 20)
#    0.000    1.714    0.000    6.000    0.000    4.571 
#    0.000   12.857    0.000    0.000    0.000    0.000 
#    0.000    0.000    0.000    0.000    0.000    0.000 
#
# Total GULP energy -346897.116329 kJ/mol
# GULP energy per Si atom -12389.182726 kJ/mol
# Density = 2.109686 g / cm^3
# Si number density = 21.144991 Si / 1000 Ang^3
#
#
#
# Elastic Constant Matrix: (Units=GPa)
#
#
# Indices 1 2 3 4 5 6 
#
# 1 85.9462 28.4847 37.4145 0.0000 -3.0981 0.0000
# 2 28.4847 134.1832 68.1858 0.0000 -9.8997 0.0000
# 3 37.4145 68.1858 147.2517 0.0000 3.9343 0.0000
# 4 0.0000 0.0000 0.0000 32.3533 0.0000 -2.6906
# 5 -3.0981 -9.8997 3.9343 0.0000 29.3426 0.0000
# 6 0.0000 0.0000 0.0000 -2.6906 0.0000 20.5504
#
#
#
# Elastic Compliance Matrix: (Units=1/GPa)
#
#
# Indices 1 2 3 4 5 6 
#
# 1 0.013344 -0.001297 -0.002826 0.000000 0.001350 0.000000
# 2 -0.001297 0.010340 -0.004564 0.000000 0.003963 0.000000
# 3 -0.002826 -0.004564 0.009706 0.000000 -0.003140 0.000000
# 4 0.000000 0.000000 0.000000 0.031249 0.000000 0.004091
# 5 0.001350 0.003963 -0.003140 0.000000 0.035981 0.000000
# 6 0.000000 0.000000 0.000000 0.004091 0.000000 0.049196
#
#
# Mechanical properties :
#
#
# Convention : Reuss Voigt Hill
#
# Bulk Modulus (GPa) = 62.43883 70.61678 66.52781
# Shear Modulus (GPa) = 28.98061 32.00232 30.49147
#
# Velocity S-wave (km/s) = 3.70613 3.89456 3.80151
# Velocity P-wave (km/s) = 6.92148 7.32751 7.12739
#
# Compressibility (1/GPa) = 0.01601567
#
# Stress axis : x y z
#
# Youngs Moduli (GPa) = 74.94035 96.71626 103.02416
#
# Poissons Ratio (x) = 0.12544 0.29114
# Poissons Ratio (y) = 0.09720 0.47021
# Poissons Ratio (z) = 0.21178 0.44142
#
# Static dielectric constant tensor:
#      x y z
#    x 3.658870 0.000000 0.062320 
#    y 0.000000 4.195700 0.000000 
#    z 0.062320 0.000000 4.009980 
# 
# 
# High freq. dielectric constant tensor:
#      x y z
#    x 1.814280 0.000000 0.003700 
#    y 0.000000 1.826210 0.000000 
#    z 0.003700 0.000000 1.844010 
# 
# From -- ./inp_files/41251.got.cif
#   From: 2010.06.25/outbox.cif.g09.slc.cpg/sg15_21_cif.got.tgz:41251.got - 2010.06.28 07:06:18.
