data_PCOD8138494
_publ_section_title
;
Structure prediction by ZEFSAII (Michael W. Deem and Ramdas Pophale) SiO2 
 PCOD8138494
Probable space group: C 2/C
;
_chemical_formula_sum "Si O2"
_cell_formula_units_Z 52
_cell_length_a 13.379150
_cell_length_b 8.611131
_cell_length_c 24.135367
_cell_angle_alpha 90.000000
_cell_angle_beta 65.374569
_cell_angle_gamma 90.000000
_cell_volume 2527.731817
_symmetry_space_group_name_H-M "C 2/C"
_symmetry_group_IT_number 15
_symmetry_cell_setting 'monoclinic'
loop_
_space_group_symop_operation_xyz
x,y,z
-x,y,1/2-z
-x,-y,-z
x,-y,1/2+z
1/2+x,1/2+y,z
1/2-x,1/2+y,1/2-z
1/2-x,1/2-y,-z
1/2+x,1/2-y,1/2+z
loop_
_atom_site_type_symbol
_atom_site_label
_atom_site_fract_x
_atom_site_fract_y
_atom_site_fract_z
Si Si1 0.575029 0.293841 0.842428
Si Si2 0.777138 0.895291 0.338376
Si Si3 0.638870 0.119860 0.430699
Si Si4 0.715853 0.836088 0.563198
Si Si5 0.941870 0.567503 0.938049
Si Si6 0.596678 0.532069 0.934944
Si Si7 0.000000 0.036681 0.250000
O O1 0.686277 0.184033 0.817560
O O2 0.467594 0.201201 0.888022
O O3 0.587297 0.441249 0.879590
O O4 0.542659 0.351473 0.789116
O O5 0.791659 0.783349 0.386244
O O6 0.744384 0.064717 0.371171
O O7 0.896694 0.921965 0.284354
O O8 0.648481 0.127098 0.495725
O O9 0.601220 0.287130 0.417481
O O10 0.556012 0.975710 0.440841
O O11 0.750000 0.750000 0.500000
O O12 0.794854 0.980017 0.558057
O O13 0.596981 0.912364 0.583667
O O14 0.500000 0.500000 0.000000
#
# Coordination Sequence:
#
# PCOD8138494 Si02
#       7
#     8   8   8   8   8   8   4
#     4  10  25  47  66  99 134 173 236 278 335 419
#     4  10  25  47  66  99 133 178 233 282 332 409
#     4  10  20  37  66  97 137 166 204 286 344 395
#     4  11  22  37  64 101 135 166 215 276 345 417
#     4  10  20  38  63  99 133 166 210 274 349 411
#     4  11  22  36  65 101 135 168 213 279 348 408
#     4  12  28  48  76  86 140 198 236 276 340 404
#
# _framework density 20.571802999999999
#
# number of rings (size 3 to 8) (size 9 to 14) (size 15 to 20)
#    0.000    1.538    3.077    0.923    6.462    1.846 
#    5.538    0.000    0.000    0.000    0.000    0.000 
#    0.000    0.000    0.000    0.000    0.000    0.000 
#
# Total GULP energy -322207.406854 kJ/mol
# GULP energy per Si atom -12392.592571 kJ/mol
# Density = 2.052498 g / cm^3
# Si number density = 20.571803 Si / 1000 Ang^3
#
#
#
# Elastic Constant Matrix: (Units=GPa)
#
#
# Indices 1 2 3 4 5 6 
#
# 1 85.6824 34.3538 59.0868 0.0000 6.5957 0.0000
# 2 34.3538 122.5412 47.0901 0.0000 -0.1059 0.0000
# 3 59.0868 47.0901 107.1499 0.0000 1.0396 0.0000
# 4 0.0000 0.0000 0.0000 31.5639 0.0000 -6.8923
# 5 6.5957 -0.1059 1.0396 0.0000 37.4765 0.0000
# 6 0.0000 0.0000 0.0000 -6.8923 0.0000 38.1440
#
#
#
# Elastic Compliance Matrix: (Units=1/GPa)
#
#
# Indices 1 2 3 4 5 6 
#
# 1 0.019445 -0.001619 -0.009981 0.000000 -0.003150 0.000000
# 2 -0.001619 0.009954 -0.003486 0.000000 0.000410 0.000000
# 3 -0.009981 -0.003486 0.016356 0.000000 0.001293 0.000000
# 4 0.000000 0.000000 0.000000 0.032983 0.000000 0.005960
# 5 -0.003150 0.000410 0.001293 0.000000 0.027203 0.000000
# 6 0.000000 0.000000 0.000000 0.005960 0.000000 0.027293
#
#
# Mechanical properties :
#
#
# Convention : Reuss Voigt Hill
#
# Bulk Modulus (GPa) = 64.16704 66.27054 65.21879
# Shear Modulus (GPa) = 29.65564 33.09306 31.37435
#
# Velocity S-wave (km/s) = 3.80092 4.01516 3.90951
# Velocity P-wave (km/s) = 7.10789 7.33346 7.22155
#
# Compressibility (1/GPa) = 0.01558433
#
# Stress axis : x y z
#
# Youngs Moduli (GPa) = 51.42582 100.45928 61.13877
#
# Poissons Ratio (x) = 0.16261 0.61023
# Poissons Ratio (y) = 0.08324 0.21314
# Poissons Ratio (z) = 0.51329 0.35021
#
# Static dielectric constant tensor:
#      x y z
#    x 3.862300 0.000000 -0.058720 
#    y 0.000000 3.733890 0.000000 
#    z -0.058720 0.000000 3.613720 
# 
# 
# High freq. dielectric constant tensor:
#      x y z
#    x 1.805570 0.000000 -0.000980 
#    y 0.000000 1.816740 0.000000 
#    z -0.000980 0.000000 1.789360 
# 
# From -- ./inp_files/272580.got.cif
#   From: 2010.06.25/outbox.cif.g09.slc.cpg/sg15_137_cif.got.tgz:272580.got - 2010.06.28 07:06:18.
