data_PCOD8138406
_publ_section_title
;
Structure prediction by ZEFSAII (Michael W. Deem and Ramdas Pophale) SiO2 
 PCOD8138406
Probable space group: C 2/C
;
_chemical_formula_sum "Si O2"
_cell_formula_units_Z 60
_cell_length_a 10.656062
_cell_length_b 20.906960
_cell_length_c 12.846064
_cell_angle_alpha 90.000000
_cell_angle_beta 94.745908
_cell_angle_gamma 90.000000
_cell_volume 2852.109098
_symmetry_space_group_name_H-M "C 2/C"
_symmetry_group_IT_number 15
_symmetry_cell_setting 'monoclinic'
loop_
_space_group_symop_operation_xyz
x,y,z
-x,y,1/2-z
-x,-y,-z
x,-y,1/2+z
1/2+x,1/2+y,z
1/2-x,1/2+y,1/2-z
1/2-x,1/2-y,-z
1/2+x,1/2-y,1/2+z
loop_
_atom_site_type_symbol
_atom_site_label
_atom_site_fract_x
_atom_site_fract_y
_atom_site_fract_z
Si Si1 0.000000 0.556190 0.250000
Si Si2 0.823929 0.385448 0.349846
Si Si3 0.854810 0.737278 0.723823
Si Si4 0.097270 0.647226 0.949069
Si Si5 0.702926 0.142866 0.166338
Si Si6 0.817816 0.470397 0.147109
Si Si7 0.940364 0.062699 0.132070
Si Si8 0.853595 0.055095 0.500979
O O1 0.123576 0.597938 0.236393
O O2 0.049420 0.510086 0.346568
O O3 0.798971 0.316164 0.297520
O O4 0.801373 0.442696 0.264522
O O5 0.737879 0.395487 0.445926
O O6 0.966526 0.380639 0.398123
O O7 0.853166 0.709531 0.607177
O O8 0.760024 0.796519 0.730689
O O9 0.000000 0.758699 0.750000
O O10 0.188515 0.587242 0.934752
O O11 0.103283 0.664782 0.070800
O O12 0.816198 0.105018 0.121701
O O13 0.708736 0.517371 0.100713
O O14 0.000000 0.061041 0.250000
O O15 0.035574 0.093301 0.051958
O O16 0.909436 0.990804 0.093648
#
# Coordination Sequence:
#
# PCOD8138406 Si02
#       8
#     4   8   8   8   8   8   8   8
#     4  12  24  34  62  96 126 156 194 270 324 370
#     4  10  20  39  64  94 130 163 209 273 309 373
#     4   9  21  41  63  85 120 170 218 258 306 365
#     4  10  20  37  64  90 122 165 208 257 319 370
#     4  12  23  40  61  87 123 166 212 258 310 379
#     4  11  20  36  61  96 129 159 204 259 327 377
#     4  11  24  39  57  87 129 170 203 257 314 388
#     4  11  22  37  61  92 126 167 211 250 326 385
#
# _framework density 21.037063
#
# number of rings (size 3 to 8) (size 9 to 14) (size 15 to 20)
#    0.000    1.333    2.667    4.800    0.000    1.067 
#    0.000    2.667    0.000    6.400    0.000    0.000 
#    0.000    0.000    0.000    0.000    0.000    0.000 
#
# Total GULP energy -371719.919284 kJ/mol
# GULP energy per Si atom -12390.663976 kJ/mol
# Density = 2.098918 g / cm^3
# Si number density = 21.037063 Si / 1000 Ang^3
#
#
#
# Elastic Constant Matrix: (Units=GPa)
#
#
# Indices 1 2 3 4 5 6 
#
# 1 85.2916 43.0588 33.8563 0.0000 -10.3997 0.0000
# 2 43.0588 87.1593 36.2643 0.0000 -4.5644 0.0000
# 3 33.8563 36.2643 92.7881 0.0000 9.1452 0.0000
# 4 0.0000 0.0000 0.0000 16.2443 0.0000 3.2661
# 5 -10.3997 -4.5644 9.1452 0.0000 39.2191 0.0000
# 6 0.0000 0.0000 0.0000 3.2661 0.0000 26.5146
#
#
#
# Elastic Compliance Matrix: (Units=1/GPa)
#
#
# Indices 1 2 3 4 5 6 
#
# 1 0.017285 -0.006528 -0.004230 0.000000 0.004810 0.000000
# 2 -0.006528 0.016499 -0.004181 0.000000 0.001164 0.000000
# 3 -0.004230 -0.004181 0.014445 0.000000 -0.004977 0.000000
# 4 0.000000 0.000000 0.000000 0.063123 0.000000 -0.007776
# 5 0.004810 0.001164 -0.004977 0.000000 0.028069 0.000000
# 6 0.000000 0.000000 0.000000 -0.007776 0.000000 0.038673
#
#
# Mechanical properties :
#
#
# Convention : Reuss Voigt Hill
#
# Bulk Modulus (GPa) = 54.49004 54.62198 54.55601
# Shear Modulus (GPa) = 23.35469 26.53291 24.94380
#
# Velocity S-wave (km/s) = 3.33553 3.55526 3.44715
# Velocity P-wave (km/s) = 6.38690 6.54783 6.46787
#
# Compressibility (1/GPa) = 0.01835198
#
# Stress axis : x y z
#
# Youngs Moduli (GPa) = 57.85198 60.61112 69.22670
#
# Poissons Ratio (x) = 0.39564 0.29283
# Poissons Ratio (y) = 0.37763 0.28945
# Poissons Ratio (z) = 0.24471 0.25342
#
# Static dielectric constant tensor:
#      x y z
#    x 3.869390 0.000000 0.123240 
#    y 0.000000 3.679580 0.000000 
#    z 0.123240 0.000000 3.769660 
# 
# 
# High freq. dielectric constant tensor:
#      x y z
#    x 1.823540 0.000000 0.018400 
#    y 0.000000 1.808120 0.000000 
#    z 0.018400 0.000000 1.825240 
# 
# From -- ./inp_files/89623.got.cif
#   From: 2010.06.25/outbox.cif.g09.slc.cpg/sg15_45_cif.got.tgz:89623.got - 2010.06.28 07:06:18.
