data_PCOD8138445
_publ_section_title
;
Structure prediction by ZEFSAII (Michael W. Deem and Ramdas Pophale) SiO2 
 PCOD8138445
Probable space group: C 2/C
;
_chemical_formula_sum "Si O2"
_cell_formula_units_Z 56
_cell_length_a 14.986572
_cell_length_b 17.649368
_cell_length_c 10.307344
_cell_angle_alpha 90.000000
_cell_angle_beta 114.099993
_cell_angle_gamma 90.000000
_cell_volume 2488.686256
_symmetry_space_group_name_H-M "C 2/C"
_symmetry_group_IT_number 15
_symmetry_cell_setting 'monoclinic'
loop_
_space_group_symop_operation_xyz
x,y,z
-x,y,1/2-z
-x,-y,-z
x,-y,1/2+z
1/2+x,1/2+y,z
1/2-x,1/2+y,1/2-z
1/2-x,1/2-y,-z
1/2+x,1/2-y,1/2+z
loop_
_atom_site_type_symbol
_atom_site_label
_atom_site_fract_x
_atom_site_fract_y
_atom_site_fract_z
Si Si1 0.539175 0.393171 0.554120
Si Si2 0.500000 0.881291 0.250000
Si Si3 0.116215 0.260039 0.176214
Si Si4 0.816182 0.175930 0.757210
Si Si5 0.646392 0.333870 0.949372
Si Si6 0.000000 0.134084 0.750000
Si Si7 0.811227 0.450124 0.025346
Si Si8 0.718481 0.499873 0.715942
O O1 0.568619 0.304483 0.559815
O O2 0.443058 0.395667 0.590432
O O3 0.513717 0.417396 0.389686
O O4 0.624469 0.443904 0.668263
O O5 0.548321 0.832392 0.162554
O O6 0.422750 0.934383 0.129812
O O7 0.213444 0.287025 0.156787
O O8 0.132335 0.225078 0.327615
O O9 0.903057 0.187491 0.704771
O O10 0.811760 0.085783 0.778844
O O11 0.849615 0.213391 0.913578
O O12 0.750960 0.372641 0.995950
O O13 0.767254 0.510302 0.103374
O O14 0.799553 0.481060 0.872907
#
# Coordination Sequence:
#
# PCOD8138445 Si02
#       8
#     8   4   8   8   8   4   8   8
#     4  11  23  38  69  95 136 170 220 273 340 401
#     4  12  24  42  69 101 128 174 230 288 326 382
#     4  12  21  40  69 102 126 168 226 288 325 380
#     4  10  23  39  64  92 139 172 217 272 328 401
#     4  10  20  37  65 102 123 165 217 283 335 377
#     4  10  24  42  55  97 138 182 210 262 336 416
#     4  11  25  41  67  96 137 178 224 277 334 399
#     4  11  23  43  65 101 131 181 219 273 338 401
#
# _framework density 22.501832
#
# number of rings (size 3 to 8) (size 9 to 14) (size 15 to 20)
#    0.000    1.143    5.714    1.286    0.000    7.429 
#    0.000    0.000    0.000    0.857    0.000    0.000 
#    0.000    0.000    0.000    0.000    0.000    0.000 
#
# Total GULP energy -346918.012006 kJ/mol
# GULP energy per Si atom -12389.929000 kJ/mol
# Density = 2.245062 g / cm^3
# Si number density = 22.501832 Si / 1000 Ang^3
#
#
#
# Elastic Constant Matrix: (Units=GPa)
#
#
# Indices 1 2 3 4 5 6 
#
# 1 129.0563 27.6608 26.6498 0.0000 20.7480 0.0000
# 2 27.6608 51.7751 18.2483 0.0000 10.6253 0.0000
# 3 26.6498 18.2483 99.0958 0.0000 16.9489 0.0000
# 4 0.0000 0.0000 0.0000 19.7750 0.0000 4.5687
# 5 20.7480 10.6253 16.9489 0.0000 39.1189 0.0000
# 6 0.0000 0.0000 0.0000 4.5687 0.0000 23.0805
#
#
#
# Elastic Compliance Matrix: (Units=1/GPa)
#
#
# Indices 1 2 3 4 5 6 
#
# 1 0.009379 -0.003883 -0.001228 0.000000 -0.003388 0.000000
# 2 -0.003883 0.022948 -0.002665 0.000000 -0.003019 0.000000
# 3 -0.001228 -0.002665 0.011532 0.000000 -0.003621 0.000000
# 4 0.000000 0.000000 0.000000 0.052992 0.000000 -0.010490
# 5 -0.003388 -0.003019 -0.003621 0.000000 0.029749 0.000000
# 6 0.000000 0.000000 0.000000 -0.010490 0.000000 0.045403
#
#
# Mechanical properties :
#
#
# Convention : Reuss Voigt Hill
#
# Bulk Modulus (GPa) = 35.32755 47.22723 41.27739
# Shear Modulus (GPa) = 25.38207 30.21942 27.80074
#
# Velocity S-wave (km/s) = 3.36221 3.66864 3.51876
# Velocity P-wave (km/s) = 5.55037 6.24331 5.90701
#
# Compressibility (1/GPa) = 0.02830652
#
# Stress axis : x y z
#
# Youngs Moduli (GPa) = 106.62187 43.57768 86.71837
#
# Poissons Ratio (x) = 0.16920 0.10648
# Poissons Ratio (y) = 0.41398 0.23113
# Poissons Ratio (z) = 0.13092 0.11615
#
# Static dielectric constant tensor:
#      x y z
#    x 4.393330 0.000000 -0.008170 
#    y 0.000000 3.762710 0.000000 
#    z -0.008170 0.000000 4.388610 
# 
# 
# High freq. dielectric constant tensor:
#      x y z
#    x 1.895490 0.000000 0.010240 
#    y 0.000000 1.846950 0.000000 
#    z 0.010240 0.000000 1.890810 
# 
# From -- ./inp_files/98416.got.cif
#   From: 2010.06.25/outbox.cif.g09.slc.cpg/sg15_50_cif.got.tgz:98416.got - 2010.06.28 07:06:18.
