data_PCOD8138153
_publ_section_title
;
Structure prediction by ZEFSAII (Michael W. Deem and Ramdas Pophale) SiO2 
 PCOD8138153
Probable space group: C 2/C
;
_chemical_formula_sum "Si O2"
_cell_formula_units_Z 44
_cell_length_a 14.735449
_cell_length_b 7.746637
_cell_length_c 19.312851
_cell_angle_alpha 90.000000
_cell_angle_beta 67.547146
_cell_angle_gamma 90.000000
_cell_volume 2037.446279
_symmetry_space_group_name_H-M "C 2/C"
_symmetry_group_IT_number 15
_symmetry_cell_setting 'monoclinic'
loop_
_space_group_symop_operation_xyz
x,y,z
-x,y,1/2-z
-x,-y,-z
x,-y,1/2+z
1/2+x,1/2+y,z
1/2-x,1/2+y,1/2-z
1/2-x,1/2-y,-z
1/2+x,1/2-y,1/2+z
loop_
_atom_site_type_symbol
_atom_site_label
_atom_site_fract_x
_atom_site_fract_y
_atom_site_fract_z
Si Si1 0.359039 0.874386 0.206474
Si Si2 0.040690 0.384885 0.926385
Si Si3 0.978780 0.042550 0.892695
Si Si4 0.000000 0.872869 0.750000
Si Si5 0.825635 0.157399 0.527216
Si Si6 0.202329 0.941121 0.845808
O O1 0.415721 0.746667 0.241830
O O2 0.280468 0.985331 0.269812
O O3 0.301345 0.765006 0.164019
O O4 0.436533 0.998466 0.146730
O O5 0.139704 0.296228 0.925994
O O6 0.961492 0.241127 0.922131
O O7 0.000000 0.500000 0.000000
O O8 0.094357 0.014213 0.863701
O O9 0.948888 0.997862 0.822261
O O10 0.920782 0.912271 0.959319
O O11 0.750000 0.250000 0.500000
O O12 0.770863 0.999046 0.583366
#
# Coordination Sequence:
#
# PCOD8138153 Si02
#       6
#     8   8   8   4   8   8
#     4  11  22  39  62  91 123 162 206 258 310 370
#     4  11  22  40  63  89 122 163 205 254 315 374
#     4  10  21  39  62  87 121 164 204 251 310 369
#     4  10  22  40  60  88 122 158 206 262 308 364
#     4  11  22  40  62  88 121 162 207 258 306 365
#     4  10  20  37  60  86 120 161 202 248 309 369
#
# _framework density 21.595661
#
# number of rings (size 3 to 8) (size 9 to 14) (size 15 to 20)
#    0.000    1.455    0.000    8.727    0.000    2.182 
#    0.000    9.091    0.000    0.000    0.000    0.000 
#    0.000    0.000    0.000    0.000    0.000    0.000 
#
# Total GULP energy -272686.039185 kJ/mol
# GULP energy per Si atom -12394.819963 kJ/mol
# Density = 2.154651 g / cm^3
# Si number density = 21.595661 Si / 1000 Ang^3
#
#
#
# Elastic Constant Matrix: (Units=GPa)
#
#
# Indices 1 2 3 4 5 6 
#
# 1 66.3780 40.0176 29.5282 -0.0001 3.3606 -0.0001
# 2 40.0176 121.3044 51.3446 -0.0002 7.5215 -0.0004
# 3 29.5282 51.3446 133.6116 -0.0001 -4.7245 -0.0001
# 4 -0.0001 -0.0002 -0.0001 37.7786 -0.0001 2.1676
# 5 3.3606 7.5215 -4.7245 -0.0001 38.8028 -0.0001
# 6 -0.0001 -0.0004 -0.0001 2.1676 -0.0001 34.0541
#
#
#
# Elastic Compliance Matrix: (Units=1/GPa)
#
#
# Indices 1 2 3 4 5 6 
#
# 1 0.019351 -0.005379 -0.002242 0.000000 -0.000906 0.000000
# 2 -0.005379 0.011564 -0.003332 0.000000 -0.002181 0.000000
# 3 -0.002242 -0.003332 0.009330 0.000000 0.001976 0.000000
# 4 0.000000 0.000000 0.000000 0.026567 0.000000 -0.001691
# 5 -0.000906 -0.002181 0.001976 0.000000 0.026513 0.000000
# 6 0.000000 0.000000 0.000000 -0.001691 0.000000 0.029473
#
#
# Mechanical properties :
#
#
# Convention : Reuss Voigt Hill
#
# Bulk Modulus (GPa) = 54.52632 62.56387 58.54509
# Shear Modulus (GPa) = 33.15288 35.48736 34.32012
#
# Velocity S-wave (km/s) = 3.92237 4.05812 3.99082
# Velocity P-wave (km/s) = 6.76881 7.14081 6.95730
#
# Compressibility (1/GPa) = 0.01833977
#
# Stress axis : x y z
#
# Youngs Moduli (GPa) = 51.67682 86.47656 107.17919
#
# Poissons Ratio (x) = 0.46514 0.24026
# Poissons Ratio (y) = 0.27796 0.35714
# Poissons Ratio (z) = 0.11584 0.28816
#
# Static dielectric constant tensor:
#      x y z
#    x 3.692520 0.000000 0.173620 
#    y 0.000000 5.002080 0.000000 
#    z 0.173620 0.000000 4.557520 
# 
# 
# High freq. dielectric constant tensor:
#      x y z
#    x 1.816700 0.000000 -0.001560 
#    y 0.000000 1.859890 0.000000 
#    z -0.001560 0.000000 1.869540 
# 
# From -- ./inp_files/202551.got.cif
#   From: 2010.06.25/outbox.cif.g09.slc.cpg/sg15_102_cif.got.tgz:202551.got - 2010.06.28 07:06:18.
