data_PCOD8138558
_publ_section_title
;
Structure prediction by ZEFSAII (Michael W. Deem and Ramdas Pophale) SiO2 
 PCOD8138558
Probable space group: C 2/C
;
_chemical_formula_sum "Si O2"
_cell_formula_units_Z 64
_cell_length_a 22.190873
_cell_length_b 21.673549
_cell_length_c 9.748496
_cell_angle_alpha 90.000000
_cell_angle_beta 132.546663
_cell_angle_gamma 90.000000
_cell_volume 3454.208521
_symmetry_space_group_name_H-M "C 2/C"
_symmetry_group_IT_number 15
_symmetry_cell_setting 'monoclinic'
loop_
_space_group_symop_operation_xyz
x,y,z
-x,y,1/2-z
-x,-y,-z
x,-y,1/2+z
1/2+x,1/2+y,z
1/2-x,1/2+y,1/2-z
1/2-x,1/2-y,-z
1/2+x,1/2-y,1/2+z
loop_
_atom_site_type_symbol
_atom_site_label
_atom_site_fract_x
_atom_site_fract_y
_atom_site_fract_z
Si Si1 0.885814 0.123731 0.303655
Si Si2 0.673756 0.554228 0.543478
Si Si3 0.010291 0.350758 0.923087
Si Si4 0.066528 0.879442 0.099005
Si Si5 0.645371 0.049453 0.594481
Si Si6 0.483002 0.265545 0.878007
Si Si7 0.180182 0.910170 0.521708
Si Si8 0.640330 0.067029 0.273957
O O1 0.836592 0.079953 0.125052
O O2 0.900948 0.191679 0.260951
O O3 0.831768 0.128719 0.357677
O O4 0.974523 0.093760 0.477751
O O5 0.605857 0.582372 0.536833
O O6 0.763185 0.572558 0.734931
O O7 0.661837 0.481330 0.522761
O O8 0.000000 0.329626 0.750000
O O9 0.927283 0.380790 0.851918
O O10 0.083994 0.398645 0.053271
O O11 0.031125 0.292130 0.046269
O O12 0.117448 0.883710 0.315292
O O13 0.060204 0.806998 0.047482
O O14 0.633792 0.037266 0.414983
O O15 0.625347 0.985960 0.639828
O O16 0.500000 0.242776 0.750000
O O17 0.272100 0.900482 0.610262
#
# Coordination Sequence:
#
# PCOD8138558 Si02
#       8
#     8   8   8   8   8   8   8   8
#     4  10  22  36  57  84 121 160 197 238 283 338
#     4  11  20  37  57  87 126 152 189 243 292 346
#     4  10  23  43  66  86 111 155 199 239 302 350
#     4  10  20  38  57  82 122 157 195 241 283 339
#     4  10  22  39  64  92 121 149 185 243 297 354
#     4  10  22  42  59  84 117 159 201 248 280 338
#     4  11  22  33  59  91 120 154 193 237 293 349
#     4  10  22  40  62  93 122 147 187 243 296 354
#
# _framework density 18.528123000000001
#
# number of rings (size 3 to 8) (size 9 to 14) (size 15 to 20)
#    0.750    1.000    2.500    1.875    7.000    4.000 
#    0.000    2.500    0.000    0.000    0.000    0.000 
#    0.000    0.000    0.000    0.000    0.000    0.000 
#
# Total GULP energy -396805.368975 kJ/mol
# GULP energy per Si atom -12400.167780 kJ/mol
# Density = 1.848595 g / cm^3
# Si number density = 18.528123 Si / 1000 Ang^3
#
#
#
# Elastic Constant Matrix: (Units=GPa)
#
#
# Indices 1 2 3 4 5 6 
#
# 1 93.7690 30.2155 15.7622 0.0000 -8.1757 0.0000
# 2 30.2155 52.5524 11.2253 0.0000 -1.0930 0.0000
# 3 15.7622 11.2253 58.4357 0.0000 -9.8262 0.0000
# 4 0.0000 0.0000 0.0000 17.3734 0.0000 -9.8157
# 5 -8.1757 -1.0930 -9.8262 0.0000 33.1734 0.0000
# 6 0.0000 0.0000 0.0000 -9.8157 0.0000 13.5260
#
#
#
# Elastic Compliance Matrix: (Units=1/GPa)
#
#
# Indices 1 2 3 4 5 6 
#
# 1 0.013564 -0.007358 -0.001814 0.000000 0.002563 0.000000
# 2 -0.007358 0.023842 -0.002913 0.000000 -0.001891 0.000000
# 3 -0.001814 -0.002913 0.019018 0.000000 0.005090 0.000000
# 4 0.000000 0.000000 0.000000 0.097558 0.000000 0.070797
# 5 0.002563 -0.001891 0.005090 0.000000 0.032222 0.000000
# 6 0.000000 0.000000 0.000000 0.070797 0.000000 0.125308
#
#
# Mechanical properties :
#
#
# Convention : Reuss Voigt Hill
#
# Bulk Modulus (GPa) = 31.00490 35.46258 33.23374
# Shear Modulus (GPa) = 14.43281 22.65150 18.54216
#
# Velocity S-wave (km/s) = 2.79403 3.50029 3.16691
# Velocity P-wave (km/s) = 5.21336 5.95965 5.59895
#
# Compressibility (1/GPa) = 0.03225296
#
# Stress axis : x y z
#
# Youngs Moduli (GPa) = 73.72510 41.94269 52.58254
#
# Poissons Ratio (x) = 0.30861 0.09540
# Poissons Ratio (y) = 0.54246 0.15318
# Poissons Ratio (z) = 0.13376 0.12219
#
# Static dielectric constant tensor:
#      x y z
#    x 3.516080 0.000000 -0.019030 
#    y 0.000000 3.150850 0.000000 
#    z -0.019030 0.000000 3.461020 
# 
# 
# High freq. dielectric constant tensor:
#      x y z
#    x 1.730900 0.000000 -0.008330 
#    y 0.000000 1.697690 0.000000 
#    z -0.008330 0.000000 1.723240 
# 
# From -- ./inp_files/59043.got.cif
#   From: 2010.06.25/outbox.cif.g09.slc.cpg/sg15_30_cif.got.tgz:59043.got - 2010.06.28 07:06:18.
