data_PCOD8138544
_publ_section_title
;
Structure prediction by ZEFSAII (Michael W. Deem and Ramdas Pophale) SiO2 
 PCOD8138544
Probable space group: C 2/C
;
_chemical_formula_sum "Si O2"
_cell_formula_units_Z 60
_cell_length_a 12.023196
_cell_length_b 14.300375
_cell_length_c 22.456380
_cell_angle_alpha 90.000000
_cell_angle_beta 55.249477
_cell_angle_gamma 90.000000
_cell_volume 3172.412064
_symmetry_space_group_name_H-M "C 2/C"
_symmetry_group_IT_number 15
_symmetry_cell_setting 'monoclinic'
loop_
_space_group_symop_operation_xyz
x,y,z
-x,y,1/2-z
-x,-y,-z
x,-y,1/2+z
1/2+x,1/2+y,z
1/2-x,1/2+y,1/2-z
1/2-x,1/2-y,-z
1/2+x,1/2-y,1/2+z
loop_
_atom_site_type_symbol
_atom_site_label
_atom_site_fract_x
_atom_site_fract_y
_atom_site_fract_z
Si Si1 0.699748 0.911603 0.666140
Si Si2 0.500000 0.061930 0.750000
Si Si3 0.154067 0.948785 0.211585
Si Si4 0.448128 0.527457 0.580710
Si Si5 0.237787 0.840144 0.299697
Si Si6 0.672487 0.377588 0.078116
Si Si7 0.391387 0.173504 0.420702
Si Si8 0.819971 0.368325 0.695924
O O1 0.699268 0.842650 0.610656
O O2 0.650910 0.864682 0.742197
O O3 0.596516 0.996100 0.679653
O O4 0.854218 0.942638 0.632106
O O5 0.606280 0.124908 0.754219
O O6 0.161596 0.875247 0.263416
O O7 0.207536 0.896270 0.136210
O O8 0.000000 0.979026 0.250000
O O9 0.235502 0.042995 0.200461
O O10 0.500000 0.500000 0.500000
O O11 0.347521 0.618393 0.617619
O O12 0.581724 0.536869 0.580758
O O13 0.249432 0.728733 0.301795
O O14 0.585240 0.285031 0.088760
O O15 0.815189 0.366209 0.001425
O O16 0.534603 0.122672 0.379237
#
# Coordination Sequence:
#
# PCOD8138544 Si02
#       8
#     8   4   8   8   8   8   8   8
#     4  11  19  35  62  87 111 156 201 247 292 352
#     4  10  20  38  56  84 114 148 198 232 296 344
#     4  12  22  40  61  89 125 156 196 247 308 360
#     4  11  20  38  61  85 117 158 201 242 294 356
#     4  11  23  40  61  89 120 157 197 251 295 359
#     4  11  23  37  58  87 118 158 197 250 304 353
#     4  11  21  37  59  86 117 151 206 252 295 352
#     4  12  22  36  61  89 121 153 199 249 305 358
#
# _framework density 18.913053000000001
#
# number of rings (size 3 to 8) (size 9 to 14) (size 15 to 20)
#    0.000    0.800    8.000    0.800    0.933    0.533 
#    0.000    0.000    0.000    0.800    0.000    0.000 
#    0.000    0.000    0.000    0.000    0.000    0.000 
#
# Total GULP energy -371781.857570 kJ/mol
# GULP energy per Si atom -12392.728586 kJ/mol
# Density = 1.887001 g / cm^3
# Si number density = 18.913053 Si / 1000 Ang^3
#
#
#
# Elastic Constant Matrix: (Units=GPa)
#
#
# Indices 1 2 3 4 5 6 
#
# 1 78.7477 31.9477 37.4928 0.0000 -3.8167 0.0000
# 2 31.9477 66.5590 48.2179 0.0000 -10.0127 0.0000
# 3 37.4928 48.2179 129.0900 0.0000 5.4760 0.0000
# 4 0.0000 0.0000 0.0000 23.8004 0.0000 -3.4307
# 5 -3.8167 -10.0127 5.4760 0.0000 22.2655 0.0000
# 6 0.0000 0.0000 0.0000 -3.4307 0.0000 25.7095
#
#
#
# Elastic Compliance Matrix: (Units=1/GPa)
#
#
# Indices 1 2 3 4 5 6 
#
# 1 0.016345 -0.005839 -0.002601 0.000000 0.000816 0.000000
# 2 -0.005839 0.025924 -0.008528 0.000000 0.012754 0.000000
# 3 -0.002601 -0.008528 0.011994 0.000000 -0.007231 0.000000
# 4 0.000000 0.000000 0.000000 0.042840 0.000000 0.005717
# 5 0.000816 0.012754 -0.007231 0.000000 0.052566 0.000000
# 6 0.000000 0.000000 0.000000 0.005717 0.000000 0.039659
#
#
# Mechanical properties :
#
#
# Convention : Reuss Voigt Hill
#
# Bulk Modulus (GPa) = 49.19488 56.63482 52.91485
# Shear Modulus (GPa) = 21.73526 24.80428 23.26977
#
# Velocity S-wave (km/s) = 3.39369 3.62538 3.51145
# Velocity P-wave (km/s) = 6.43613 6.89451 6.66926
#
# Compressibility (1/GPa) = 0.02032732
#
# Stress axis : x y z
#
# Youngs Moduli (GPa) = 61.17903 38.57475 83.37311
#
# Poissons Ratio (x) = 0.22522 0.21687
# Poissons Ratio (y) = 0.35720 0.71104
# Poissons Ratio (z) = 0.15914 0.32898
#
# Static dielectric constant tensor:
#      x y z
#    x 3.419700 0.000000 -0.116480 
#    y 0.000000 3.456270 0.000000 
#    z -0.116480 0.000000 3.636740 
# 
# 
# High freq. dielectric constant tensor:
#      x y z
#    x 1.725460 0.000000 -0.016550 
#    y 0.000000 1.727110 0.000000 
#    z -0.016550 0.000000 1.741950 
# 
# From -- ./inp_files/269938.got.cif
#   From: 2010.06.25/outbox.cif.g09.slc.cpg/sg15_135_cif.got.tgz:269938.got - 2010.06.28 07:06:18.
