data_PCOD8138318
_publ_section_title
;
Structure prediction by ZEFSAII (Michael W. Deem and Ramdas Pophale) SiO2 
 PCOD8138318
Probable space group: C 2/C
;
_chemical_formula_sum "Si O2"
_cell_formula_units_Z 48
_cell_length_a 16.390340
_cell_length_b 9.184840
_cell_length_c 13.889960
_cell_angle_alpha 90.000000
_cell_angle_beta 124.610037
_cell_angle_gamma 90.000000
_cell_volume 1720.995957
_symmetry_space_group_name_H-M "C 2/C"
_symmetry_group_IT_number 15
_symmetry_cell_setting 'monoclinic'
loop_
_space_group_symop_operation_xyz
x,y,z
-x,y,1/2-z
-x,-y,-z
x,-y,1/2+z
1/2+x,1/2+y,z
1/2-x,1/2+y,1/2-z
1/2-x,1/2-y,-z
1/2+x,1/2-y,1/2+z
loop_
_atom_site_type_symbol
_atom_site_label
_atom_site_fract_x
_atom_site_fract_y
_atom_site_fract_z
Si Si1 0.497508 0.835654 0.885790
Si Si2 0.215508 0.033284 0.549931
Si Si3 0.662249 0.243873 0.360246
Si Si4 0.961171 0.356392 0.382833
Si Si5 0.349144 0.294871 0.659576
Si Si6 0.246146 0.980336 0.284321
O O1 0.388176 0.835339 0.765462
O O2 0.577194 0.735457 0.883991
O O3 0.531409 0.006407 0.902342
O O4 0.492531 0.777720 0.992372
O O5 0.309633 0.139445 0.594898
O O6 0.131703 0.097713 0.420121
O O7 0.247642 0.864753 0.542787
O O8 0.185157 0.033079 0.642290
O O9 0.802390 0.104433 0.658684
O O10 0.950382 0.240821 0.288233
O O11 0.857302 0.428456 0.345708
O O12 0.268892 0.355789 0.684413
#
# Coordination Sequence:
#
# PCOD8138318 Si02
#       6
#     8   8   8   8   8   8
#     4  10  22  40  65  94 134 179 226 272 347 420
#     4  10  20  37  62  94 128 171 229 279 329 399
#     4  11  22  41  66  98 134 183 225 281 340 424
#     4  10  21  40  64  97 131 179 228 284 338 414
#     4  10  21  36  60  95 129 165 221 290 333 389
#     4  11  22  38  66 100 133 171 236 286 340 401
#
# _framework density 27.890825
#
# number of rings (size 3 to 8) (size 9 to 14) (size 15 to 20)
#    0.000    1.667    3.333    3.000    0.000    4.000 
#    3.000    0.833    7.333    0.000    0.000    0.000 
#    0.000    0.000    0.000    0.000    0.000    0.000 
#
# Total GULP energy -297372.867120 kJ/mol
# GULP energy per Si atom -12390.536130 kJ/mol
# Density = 2.782734 g / cm^3
# Si number density = 27.890825 Si / 1000 Ang^3
#
#
#
# Elastic Constant Matrix: (Units=GPa)
#
#
# Indices 1 2 3 4 5 6 
#
# 1 60.0326 12.4565 5.9145 0.0000 -21.7694 0.0000
# 2 12.4565 95.8690 15.8406 0.0000 -18.4276 0.0000
# 3 5.9145 15.8406 178.2112 0.0000 -23.0551 0.0000
# 4 0.0000 0.0000 0.0000 46.2981 0.0000 -10.0479
# 5 -21.7694 -18.4276 -23.0551 0.0000 35.7533 0.0000
# 6 0.0000 0.0000 0.0000 -10.0479 0.0000 37.2072
#
#
#
# Elastic Compliance Matrix: (Units=1/GPa)
#
#
# Indices 1 2 3 4 5 6 
#
# 1 0.021575 -0.000358 0.001082 0.000000 0.013649 0.000000
# 2 -0.000358 0.011597 -0.000299 0.000000 0.005566 0.000000
# 3 0.001082 -0.000299 0.006183 0.000000 0.004492 0.000000
# 4 0.000000 0.000000 0.000000 0.022944 0.000000 0.006196
# 5 0.013649 0.005566 0.004492 0.000000 0.042045 0.000000
# 6 0.000000 0.000000 0.000000 0.006196 0.000000 0.028550
#
#
# Mechanical properties :
#
#
# Convention : Reuss Voigt Hill
#
# Bulk Modulus (GPa) = 24.87332 44.72620 34.79976
# Shear Modulus (GPa) = 34.37694 43.84513 39.11103
#
# Velocity S-wave (km/s) = 3.51458 3.96918 3.74878
# Velocity P-wave (km/s) = 5.04055 6.08908 5.58946
#
# Compressibility (1/GPa) = 0.04020372
#
# Stress axis : x y z
#
# Youngs Moduli (GPa) = 46.34992 86.23104 161.73199
#
# Poissons Ratio (x) = 0.03090 -0.17493
# Poissons Ratio (y) = 0.01661 0.04833
# Poissons Ratio (z) = -0.05013 0.02577
#
# Static dielectric constant tensor:
#      x y z
#    x 4.329730 0.000000 -0.198690 
#    y 0.000000 5.085630 0.000000 
#    z -0.198690 0.000000 5.984190 
# 
# 
# High freq. dielectric constant tensor:
#      x y z
#    x 2.079920 0.000000 -0.028340 
#    y 0.000000 2.121140 0.000000 
#    z -0.028340 0.000000 2.169670 
# 
# From -- ./inp_files/172794.got.cif
#   From: 2010.06.25/outbox.cif.g09.slc.cpg/sg15_87_cif.got.tgz:172794.got - 2010.06.28 07:06:18.
