data_PCOD8138685
_publ_section_title
;
Structure prediction by ZEFSAII (Michael W. Deem and Ramdas Pophale) SiO2 
 PCOD8138685
Probable space group: C 2/C
;
_chemical_formula_sum "Si O2"
_cell_formula_units_Z 52
_cell_length_a 5.417478
_cell_length_b 28.982336
_cell_length_c 17.287904
_cell_angle_alpha 90.000000
_cell_angle_beta 124.885003
_cell_angle_gamma 90.000000
_cell_volume 2226.621750
_symmetry_space_group_name_H-M "C 2/C"
_symmetry_group_IT_number 15
_symmetry_cell_setting 'monoclinic'
loop_
_space_group_symop_operation_xyz
x,y,z
-x,y,1/2-z
-x,-y,-z
x,-y,1/2+z
1/2+x,1/2+y,z
1/2-x,1/2+y,1/2-z
1/2-x,1/2-y,-z
1/2+x,1/2-y,1/2+z
loop_
_atom_site_type_symbol
_atom_site_label
_atom_site_fract_x
_atom_site_fract_y
_atom_site_fract_z
Si Si1 0.500000 0.829564 0.250000
Si Si2 0.658624 0.905697 0.501901
Si Si3 0.608487 0.349691 0.420451
Si Si4 0.900492 0.724015 0.875395
Si Si5 0.682429 0.044134 0.857788
Si Si6 0.523144 0.682531 0.450374
Si Si7 0.179996 0.013109 0.357016
O O1 0.675140 0.796235 0.221977
O O2 0.757773 0.861500 0.336427
O O3 0.307560 0.892282 0.423677
O O4 0.798942 0.917409 0.441029
O O5 0.816006 0.859649 0.566139
O O6 0.685584 0.944997 0.570307
O O7 0.683160 0.299961 0.397519
O O8 0.689593 0.342952 0.525551
O O9 0.854027 0.780051 0.866209
O O10 0.245575 0.711522 0.955208
O O11 0.500000 0.062934 0.750000
O O12 0.460759 0.015978 0.875876
O O13 0.963520 0.014782 0.876927
O O14 0.000000 0.031809 0.250000
#
# Coordination Sequence:
#
# PCOD8138685 Si02
#       7
#     4   8   8   8   8   8   8
#     4  10  20  38  60  86 132 176 222 272 334 402
#     4  11  23  39  66  99 134 170 223 282 345 398
#     4  10  21  37  60  92 127 173 217 280 330 397
#     4   9  18  38  58  82 122 173 211 258 327 396
#     4  10  23  44  68  99 136 180 226 275 341 421
#     4   9  20  36  59  88 120 162 217 269 322 396
#     4  10  23  44  71  97 136 182 228 277 340 418
#
# _framework density 23.353764999999999
#
# number of rings (size 3 to 8) (size 9 to 14) (size 15 to 20)
#    0.000    2.154    0.000    1.846    4.308    1.231 
#   16.615    0.000    0.000    0.000    0.000    0.000 
#    0.000    0.000    0.000    0.000    0.000    0.000 
#
# Total GULP energy -322128.779179 kJ/mol
# GULP energy per Si atom -12389.568430 kJ/mol
# Density = 2.330061 g / cm^3
# Si number density = 23.353765 Si / 1000 Ang^3
#
#
#
# Elastic Constant Matrix: (Units=GPa)
#
#
# Indices 1 2 3 4 5 6 
#
# 1 117.1412 34.0150 25.4480 0.0000 -10.4240 0.0000
# 2 34.0150 104.4803 41.2797 0.0000 4.4101 0.0000
# 3 25.4480 41.2797 82.5646 0.0000 -6.0082 0.0000
# 4 0.0000 0.0000 0.0000 34.7795 0.0000 -3.3016
# 5 -10.4240 4.4101 -6.0082 0.0000 31.9518 0.0000
# 6 0.0000 0.0000 0.0000 -3.3016 0.0000 20.3539
#
#
#
# Elastic Compliance Matrix: (Units=1/GPa)
#
#
# Indices 1 2 3 4 5 6 
#
# 1 0.009965 -0.002829 -0.001411 0.000000 0.003376 0.000000
# 2 -0.002829 0.012984 -0.005898 0.000000 -0.003824 0.000000
# 3 -0.001411 -0.005898 0.015736 0.000000 0.003313 0.000000
# 4 0.000000 0.000000 0.000000 0.029202 0.000000 0.004737
# 5 0.003376 -0.003824 0.003313 0.000000 0.033549 0.000000
# 6 0.000000 0.000000 0.000000 0.004737 0.000000 0.049899
#
#
# Mechanical properties :
#
#
# Convention : Reuss Voigt Hill
#
# Bulk Modulus (GPa) = 54.32117 56.18572 55.25344
# Shear Modulus (GPa) = 28.12955 30.97995 29.55475
#
# Velocity S-wave (km/s) = 3.47435 3.64614 3.56128
# Velocity P-wave (km/s) = 6.27738 6.46811 6.37346
#
# Compressibility (1/GPa) = 0.01840903
#
# Stress axis : x y z
#
# Youngs Moduli (GPa) = 100.34842 77.01862 63.54661
#
# Poissons Ratio (x) = 0.21790 0.08968
# Poissons Ratio (y) = 0.28391 0.37478
# Poissons Ratio (z) = 0.14162 0.45424
#
# Static dielectric constant tensor:
#      x y z
#    x 4.347900 0.000000 -0.231020 
#    y 0.000000 4.321280 0.000000 
#    z -0.231020 0.000000 4.195270 
# 
# 
# High freq. dielectric constant tensor:
#      x y z
#    x 1.935130 0.000000 -0.016900 
#    y 0.000000 1.927330 0.000000 
#    z -0.016900 0.000000 1.896240 
# 
# From -- ./inp_files/185948.got.cif
#   From: 2010.06.25/outbox.cif.g09.slc.cpg/sg15_93_cif.got.tgz:185948.got - 2010.06.28 07:06:18.
