data_PCOD8138705
_publ_section_title
;
Structure prediction by ZEFSAII (Michael W. Deem and Ramdas Pophale) SiO2 
 PCOD8138705
Probable space group: C 2/C
;
_chemical_formula_sum "Si O2"
_cell_formula_units_Z 48
_cell_length_a 29.476113
_cell_length_b 9.833537
_cell_length_c 13.970078
_cell_angle_alpha 90.000000
_cell_angle_beta 37.650420
_cell_angle_gamma 90.000000
_cell_volume 2473.476501
_symmetry_space_group_name_H-M "C 2/C"
_symmetry_group_IT_number 15
_symmetry_cell_setting 'monoclinic'
loop_
_space_group_symop_operation_xyz
x,y,z
-x,y,1/2-z
-x,-y,-z
x,-y,1/2+z
1/2+x,1/2+y,z
1/2-x,1/2+y,1/2-z
1/2-x,1/2-y,-z
1/2+x,1/2-y,1/2+z
loop_
_atom_site_type_symbol
_atom_site_label
_atom_site_fract_x
_atom_site_fract_y
_atom_site_fract_z
Si Si1 0.584516 0.020763 0.841653
Si Si2 0.170790 0.881364 0.418272
Si Si3 0.169880 0.167898 0.517644
Si Si4 0.655096 0.886971 0.399464
Si Si5 0.662019 0.738116 0.738122
Si Si6 0.411865 0.872467 0.374736
O O1 0.614090 0.134754 0.866510
O O2 0.603349 0.066272 0.703758
O O3 0.619484 0.877949 0.809575
O O4 0.500000 0.000000 0.000000
O O5 0.258928 0.862665 0.267585
O O6 0.138197 0.862087 0.364875
O O7 0.127654 0.774173 0.557390
O O8 0.154977 0.028034 0.488450
O O9 0.126107 0.279446 0.526961
O O10 0.253402 0.219579 0.387408
O O11 0.141653 0.158513 0.674129
O O12 0.633713 0.036784 0.473294
O O13 0.500000 0.865031 0.250000
#
# Coordination Sequence:
#
# PCOD8138705 Si02
#       6
#     8   8   8   8   8   8
#     4  12  22  39  66  92 126 170 225 266 316 388
#     4  11  22  39  63  96 132 164 213 277 328 380
#     4  10  21  37  62  90 128 164 208 268 325 384
#     4  11  21  39  63  95 123 174 222 264 315 394
#     4  10  20  38  60  89 129 166 206 266 330 370
#     4  12  24  42  67  95 132 176 219 271 329 390
#
# _framework density 19.405885000000001
#
# number of rings (size 3 to 8) (size 9 to 14) (size 15 to 20)
#    0.000    1.000    6.667    1.000    0.000    2.000 
#    0.000    2.500    0.000    4.000    0.000    0.000 
#    0.000    0.000    0.000    0.000    0.000    0.000 
#
# Total GULP energy -297434.113188 kJ/mol
# GULP energy per Si atom -12393.088050 kJ/mol
# Density = 1.936172 g / cm^3
# Si number density = 19.405885 Si / 1000 Ang^3
#
#
#
# Elastic Constant Matrix: (Units=GPa)
#
#
# Indices 1 2 3 4 5 6 
#
# 1 145.3699 56.8872 50.4538 0.0000 28.1139 0.0000
# 2 56.8872 99.0890 15.2477 -0.0010 27.6642 0.0006
# 3 50.4538 15.2477 68.4725 -0.0003 21.3021 0.0002
# 4 0.0000 -0.0010 -0.0003 107.8385 0.0001 -40.3628
# 5 28.1139 27.6642 21.3021 0.0001 31.5048 0.0000
# 6 0.0000 0.0006 0.0002 -40.3628 0.0000 71.9708
#
#
#
# Elastic Compliance Matrix: (Units=1/GPa)
#
#
# Indices 1 2 3 4 5 6 
#
# 1 0.011587 -0.005316 -0.007079 0.000000 -0.000886 0.000000
# 2 -0.005316 0.015848 0.004105 0.000000 -0.011948 0.000000
# 3 -0.007079 0.004105 0.022874 0.000000 -0.012754 0.000000
# 4 0.000000 0.000000 0.000000 0.011737 0.000000 0.006582
# 5 -0.000886 -0.011948 -0.012754 0.000000 0.051647 0.000000
# 6 0.000000 0.000000 0.000000 0.006582 0.000000 0.017586
#
#
# Mechanical properties :
#
#
# Convention : Reuss Voigt Hill
#
# Bulk Modulus (GPa) = 29.64724 62.01210 45.82967
# Shear Modulus (GPa) = 31.42653 54.95232 43.18943
#
# Velocity S-wave (km/s) = 4.02858 5.32718 4.72273
# Velocity P-wave (km/s) = 6.07865 8.35842 7.30798
#
# Compressibility (1/GPa) = 0.03372996
#
# Stress axis : x y z
#
# Youngs Moduli (GPa) = 86.30073 63.10093 43.71761
#
# Poissons Ratio (x) = 0.33542 0.30946
# Poissons Ratio (y) = 0.45874 -0.17945
# Poissons Ratio (z) = 0.61090 -0.25901
#
# Static dielectric constant tensor:
#      x y z
#    x 4.069170 0.000000 0.489040 
#    y 0.000000 3.392950 0.000000 
#    z 0.489040 0.000000 3.675470 
# 
# 
# High freq. dielectric constant tensor:
#      x y z
#    x 1.768950 0.000000 0.023070 
#    y 0.000000 1.743670 0.000000 
#    z 0.023070 0.000000 1.752790 
# 
# From -- ./inp_files/176857.got.cif
#   From: 2010.06.25/outbox.cif.g09.slc.cpg/sg15_89_cif.got.tgz:176857.got - 2010.06.28 07:06:18.
