data_PCOD8138170
_publ_section_title
;
Structure prediction by ZEFSAII (Michael W. Deem and Ramdas Pophale) SiO2 
 PCOD8138170
Probable space group: C 2/C
;
_chemical_formula_sum "Si O2"
_cell_formula_units_Z 64
_cell_length_a 11.205864
_cell_length_b 17.441559
_cell_length_c 21.739532
_cell_angle_alpha 90.000000
_cell_angle_beta 51.700915
_cell_angle_gamma 90.000000
_cell_volume 3334.511616
_symmetry_space_group_name_H-M "C 2/C"
_symmetry_group_IT_number 15
_symmetry_cell_setting 'monoclinic'
loop_
_space_group_symop_operation_xyz
x,y,z
-x,y,1/2-z
-x,-y,-z
x,-y,1/2+z
1/2+x,1/2+y,z
1/2-x,1/2+y,1/2-z
1/2-x,1/2-y,-z
1/2+x,1/2-y,1/2+z
loop_
_atom_site_type_symbol
_atom_site_label
_atom_site_fract_x
_atom_site_fract_y
_atom_site_fract_z
Si Si1 0.706088 0.713673 0.826601
Si Si2 0.311531 0.289855 0.918398
Si Si3 0.818762 0.709558 0.568996
Si Si4 0.191530 0.412526 0.536083
Si Si5 0.020705 0.690805 0.172664
Si Si6 0.273746 0.087347 0.975137
Si Si7 0.502717 0.643572 0.978743
Si Si8 0.443630 0.816238 0.155957
O O1 0.746435 0.758622 0.875791
O O2 0.636658 0.773177 0.800052
O O3 0.584373 0.649482 0.885943
O O4 0.846451 0.670154 0.749014
O O5 0.492670 0.271795 0.860249
O O6 0.250000 0.250000 0.000000
O O7 0.260315 0.377779 0.945469
O O8 0.822044 0.640207 0.519722
O O9 0.657321 0.750713 0.614358
O O10 0.837662 0.672482 0.630253
O O11 0.956806 0.769432 0.514032
O O12 0.057252 0.388180 0.625659
O O13 0.174706 0.501584 0.526507
O O14 0.352142 0.406072 0.519633
O O15 0.000000 0.670970 0.250000
O O16 0.115899 0.099899 0.988928
O O17 0.410624 0.127228 0.892971
#
# Coordination Sequence:
#
# PCOD8138170 Si02
#       8
#     8   8   8   8   8   8   8   8
#     4  12  20  37  66  89 117 154 212 256 301 350
#     4  10  20  37  60  88 116 154 210 252 291 360
#     4  11  20  38  65  89 113 155 217 250 294 361
#     4  11  24  38  62  92 124 162 205 256 321 369
#     4  11  22  40  62  89 121 157 203 262 302 363
#     4  11  23  40  60  90 130 159 202 259 315 376
#     4  11  19  39  63  87 114 164 211 250 295 370
#     4  11  22  35  62  91 118 159 202 254 304 363
#
# _framework density 19.193214999999999
#
# number of rings (size 3 to 8) (size 9 to 14) (size 15 to 20)
#    0.000    1.000    7.500    2.250    0.000    0.500 
#    2.250    0.000    0.000    3.000    0.000    0.000 
#    0.000    0.000    0.000    0.000    0.000    0.000 
#
# Total GULP energy -396544.830786 kJ/mol
# GULP energy per Si atom -12392.025962 kJ/mol
# Density = 1.914953 g / cm^3
# Si number density = 19.193215 Si / 1000 Ang^3
#
#
#
# Elastic Constant Matrix: (Units=GPa)
#
#
# Indices 1 2 3 4 5 6 
#
# 1 80.2660 11.5686 17.5343 0.0000 8.7287 0.0000
# 2 11.5686 102.3885 29.2943 0.0000 2.5817 0.0000
# 3 17.5343 29.2943 112.7364 -0.0001 5.3579 0.0000
# 4 0.0000 0.0000 -0.0001 19.5534 0.0000 1.1946
# 5 8.7287 2.5817 5.3579 0.0000 34.6691 0.0000
# 6 0.0000 0.0000 0.0000 1.1946 0.0000 18.3826
#
#
#
# Elastic Compliance Matrix: (Units=1/GPa)
#
#
# Indices 1 2 3 4 5 6 
#
# 1 0.013289 -0.000945 -0.001678 0.000000 -0.003016 0.000000
# 2 -0.000945 0.010623 -0.002606 0.000000 -0.000150 0.000000
# 3 -0.001678 -0.002606 0.009851 0.000000 -0.000906 0.000000
# 4 0.000000 0.000000 0.000000 0.051346 0.000000 -0.003337
# 5 -0.003016 -0.000150 -0.000906 0.000000 0.029755 0.000000
# 6 0.000000 0.000000 0.000000 -0.003337 0.000000 0.054616
#
#
# Mechanical properties :
#
#
# Convention : Reuss Voigt Hill
#
# Bulk Modulus (GPa) = 42.90958 45.79836 44.35397
# Shear Modulus (GPa) = 26.63714 30.32061 28.47888
#
# Velocity S-wave (km/s) = 3.72942 3.97893 3.85619
# Velocity P-wave (km/s) = 6.39921 6.70990 6.55639
#
# Compressibility (1/GPa) = 0.02330482
#
# Stress axis : x y z
#
# Youngs Moduli (GPa) = 75.24808 94.13556 101.50754
#
# Poissons Ratio (x) = 0.08900 0.17032
# Poissons Ratio (y) = 0.07114 0.26455
# Poissons Ratio (z) = 0.12626 0.24533
#
# Static dielectric constant tensor:
#      x y z
#    x 3.659830 0.000000 -0.071350 
#    y 0.000000 3.507870 0.000000 
#    z -0.071350 0.000000 3.793720 
# 
# 
# High freq. dielectric constant tensor:
#      x y z
#    x 1.763560 0.000000 -0.002810 
#    y 0.000000 1.704510 0.000000 
#    z -0.002810 0.000000 1.750140 
# 
# From -- ./inp_files/239810.got.cif
#   From: 2010.06.25/outbox.cif.g09.slc.cpg/sg15_120_cif.got.tgz:239810.got - 2010.06.28 07:06:18.
