data_PCOD8138036
_publ_section_title
;
Structure prediction by ZEFSAII (Michael W. Deem and Ramdas Pophale) SiO2 
 PCOD8138036
Probable space group: C 2/C
;
_chemical_formula_sum "Si O2"
_cell_formula_units_Z 32
_cell_length_a 25.454929
_cell_length_b 11.438333
_cell_length_c 5.127875
_cell_angle_alpha 90.000000
_cell_angle_beta 71.071017
_cell_angle_gamma 90.000000
_cell_volume 1412.300457
_symmetry_space_group_name_H-M "C 2/C"
_symmetry_group_IT_number 15
_symmetry_cell_setting 'monoclinic'
loop_
_space_group_symop_operation_xyz
x,y,z
-x,y,1/2-z
-x,-y,-z
x,-y,1/2+z
1/2+x,1/2+y,z
1/2-x,1/2+y,1/2-z
1/2-x,1/2-y,-z
1/2+x,1/2-y,1/2+z
loop_
_atom_site_type_symbol
_atom_site_label
_atom_site_fract_x
_atom_site_fract_y
_atom_site_fract_z
Si Si1 0.835301 0.064910 0.574575
Si Si2 0.475119 0.129350 0.040168
Si Si3 0.219289 0.637707 0.666165
Si Si4 0.348812 0.171325 0.198338
O O1 0.767919 0.049214 0.673258
O O2 0.854571 0.197511 0.581336
O O3 0.859735 0.015778 0.265103
O O4 0.500000 0.197295 0.750000
O O5 0.500000 0.197388 0.250000
O O6 0.409044 0.119292 0.152097
O O7 0.500000 0.000000 0.000000
O O8 0.250000 0.750000 0.500000
O O9 0.179986 0.591941 0.487684
O O10 0.184899 0.672353 0.978380
#
# Coordination Sequence:
#
# PCOD8138036 Si02
#       4
#     8   8   8   8
#     4  11  21  36  55  90 125 154 204 249 291 382
#     4  10  22  42  61  87 118 149 213 264 303 367
#     4  10  20  37  57  87 122 163 206 237 304 382
#     4  11  21  39  64  81 122 175 194 253 329 350
#
# _framework density 22.658069999999999
#
# number of rings (size 3 to 8) (size 9 to 14) (size 15 to 20)
#    0.000    1.500    0.000    9.000    0.000    0.000 
#   27.000    0.000    0.000    4.500    0.000    0.000 
#    0.000    0.000    0.000    0.000    0.000    0.000 
#
# Total GULP energy -198308.415950 kJ/mol
# GULP energy per Si atom -12394.275997 kJ/mol
# Density = 2.260650 g / cm^3
# Si number density = 22.658070 Si / 1000 Ang^3
#
#
#
# Elastic Constant Matrix: (Units=GPa)
#
#
# Indices 1 2 3 4 5 6 
#
# 1 134.0585 15.5465 46.9482 0.0000 12.3686 0.0000
# 2 15.5465 44.6162 1.3782 0.0000 0.3625 0.0000
# 3 46.9482 1.3782 178.3785 0.0000 33.3653 0.0000
# 4 0.0000 0.0000 0.0000 9.9866 0.0000 2.1695
# 5 12.3686 0.3625 33.3653 0.0000 44.2864 0.0000
# 6 0.0000 0.0000 0.0000 2.1695 0.0000 29.1642
#
#
#
# Elastic Compliance Matrix: (Units=1/GPa)
#
#
# Indices 1 2 3 4 5 6 
#
# 1 0.008606 -0.002928 -0.002092 0.000000 -0.000803 0.000000
# 2 -0.002928 0.023415 0.000550 0.000000 0.000212 0.000000
# 3 -0.002092 0.000550 0.007035 0.000000 -0.004721 0.000000
# 4 0.000000 0.000000 0.000000 0.101779 0.000000 -0.007571
# 5 -0.000803 0.000212 -0.004721 0.000000 0.026360 0.000000
# 6 0.000000 0.000000 0.000000 -0.007571 0.000000 0.034852
#
#
# Mechanical properties :
#
#
# Convention : Reuss Voigt Hill
#
# Bulk Modulus (GPa) = 33.20413 53.86655 43.53534
# Shear Modulus (GPa) = 22.62196 36.23279 29.42738
#
# Velocity S-wave (km/s) = 3.16319 4.00323 3.60774
# Velocity P-wave (km/s) = 5.29408 6.72258 6.05063
#
# Compressibility (1/GPa) = 0.03011673
#
# Stress axis : x y z
#
# Youngs Moduli (GPa) = 116.20188 42.70813 142.13763
#
# Poissons Ratio (x) = 0.12503 0.29737
# Poissons Ratio (y) = 0.34018 -0.07818
# Poissons Ratio (z) = 0.24311 -0.02349
#
# Static dielectric constant tensor:
#      x y z
#    x 4.229400 0.000000 0.233980 
#    y 0.000000 3.754020 0.000000 
#    z 0.233980 0.000000 3.519430 
# 
# 
# High freq. dielectric constant tensor:
#      x y z
#    x 1.882160 0.000000 0.033040 
#    y 0.000000 1.862900 0.000000 
#    z 0.033040 0.000000 1.921210 
# 
# From -- ./inp_files/14854.got.cif
#   From: 2010.06.25/outbox.cif.g09.slc.cpg/sg15_8_cif.got.tgz:14854.got - 2010.06.28 07:06:18.
