data_PCOD8138957
_publ_section_title
;
Structure prediction by ZEFSAII (Michael W. Deem and Ramdas Pophale) SiO2 
 PCOD8138957
Probable space group: C 2/C
;
_chemical_formula_sum "Si O2"
_cell_formula_units_Z 44
_cell_length_a 10.869225
_cell_length_b 29.212706
_cell_length_c 10.267509
_cell_angle_alpha 90.000000
_cell_angle_beta 40.702088
_cell_angle_gamma 90.000000
_cell_volume 2126.018288
_symmetry_space_group_name_H-M "C 2/C"
_symmetry_group_IT_number 15
_symmetry_cell_setting 'monoclinic'
loop_
_space_group_symop_operation_xyz
x,y,z
-x,y,1/2-z
-x,-y,-z
x,-y,1/2+z
1/2+x,1/2+y,z
1/2-x,1/2+y,1/2-z
1/2-x,1/2-y,-z
1/2+x,1/2-y,1/2+z
loop_
_atom_site_type_symbol
_atom_site_label
_atom_site_fract_x
_atom_site_fract_y
_atom_site_fract_z
Si Si1 0.901053 0.204373 0.023342
Si Si2 0.142469 0.359202 0.882053
Si Si3 0.204579 0.695669 0.909367
Si Si4 0.712242 0.541606 0.238364
Si Si5 0.500000 0.888634 0.250000
Si Si6 0.723857 0.463578 0.427555
O O1 0.813627 0.174835 0.210245
O O2 0.902853 0.258437 0.052920
O O3 0.763793 0.198136 0.011121
O O4 0.112640 0.186840 0.827268
O O5 0.188355 0.410937 0.804134
O O6 0.942691 0.345647 0.979269
O O7 0.117946 0.356601 0.057915
O O8 0.787154 0.505315 0.284105
O O9 0.489714 0.549696 0.432106
O O10 0.756070 0.524872 0.055386
O O11 0.354745 0.920539 0.285107
#
# Coordination Sequence:
#
# PCOD8138957 Si02
#       6
#     8   8   8   8   4   8
#     4  10  20  38  63  90 122 161 194 261 316 359
#     4  11  22  38  60  94 118 166 206 250 292 383
#     4  10  20  38  63  90 124 155 202 253 321 359
#     4   9  20  39  64  87 125 158 214 246 317 361
#     4  10  24  40  60  84 128 162 206 248 318 354
#     4   9  19  41  61  87 120 173 191 267 309 368
#
# _framework density 20.695965000000001
#
# number of rings (size 3 to 8) (size 9 to 14) (size 15 to 20)
#    0.000    2.182    1.818    0.545    2.545    2.909 
#    9.818    2.727    0.000    0.000    0.000    0.000 
#    0.000    0.000    0.000    0.000    0.000    0.000 
#
# Total GULP energy -272770.915850 kJ/mol
# GULP energy per Si atom -12398.677993 kJ/mol
# Density = 2.064886 g / cm^3
# Si number density = 20.695965 Si / 1000 Ang^3
#
#
#
# Elastic Constant Matrix: (Units=GPa)
#
#
# Indices 1 2 3 4 5 6 
#
# 1 63.5991 56.1898 33.8608 0.0000 -5.1760 0.0000
# 2 56.1898 113.4369 62.9422 0.0000 12.0603 0.0000
# 3 33.8608 62.9422 121.0465 0.0000 11.2431 0.0000
# 4 0.0000 0.0000 0.0000 42.8302 0.0000 -3.6744
# 5 -5.1760 12.0603 11.2431 0.0000 27.4576 0.0000
# 6 0.0000 0.0000 0.0000 -3.6744 0.0000 31.5414
#
#
#
# Elastic Compliance Matrix: (Units=1/GPa)
#
#
# Indices 1 2 3 4 5 6 
#
# 1 0.032503 -0.016628 -0.001760 0.000000 0.014152 0.000000
# 2 -0.016628 0.021125 -0.005385 0.000000 -0.010208 0.000000
# 3 -0.001760 -0.005385 0.011814 0.000000 -0.002804 0.000000
# 4 0.000000 0.000000 0.000000 0.023584 0.000000 0.002747
# 5 0.014152 -0.010208 -0.002804 0.000000 0.044720 0.000000
# 6 0.000000 0.000000 0.000000 0.002747 0.000000 0.032024
#
#
# Mechanical properties :
#
#
# Convention : Reuss Voigt Hill
#
# Bulk Modulus (GPa) = 55.87901 67.11870 61.49885
# Shear Modulus (GPa) = 22.80157 30.03850 26.42004
#
# Velocity S-wave (km/s) = 3.32285 3.81388 3.57680
# Velocity P-wave (km/s) = 6.46377 7.20385 6.84382
#
# Compressibility (1/GPa) = 0.01789581
#
# Stress axis : x y z
#
# Youngs Moduli (GPa) = 30.76618 47.33649 84.64203
#
# Poissons Ratio (x) = 0.78711 0.14901
# Poissons Ratio (y) = 0.51158 0.45582
# Poissons Ratio (z) = 0.05416 0.25492
#
# Static dielectric constant tensor:
#      x y z
#    x 3.476590 0.000000 -0.056340 
#    y 0.000000 3.714870 0.000000 
#    z -0.056340 0.000000 4.085190 
# 
# 
# High freq. dielectric constant tensor:
#      x y z
#    x 1.782350 0.000000 -0.012190 
#    y 0.000000 1.797140 0.000000 
#    z -0.012190 0.000000 1.836980 
# 
# From -- ./inp_files/91151.got.cif
#   From: 2010.06.25/outbox.cif.g09.slc.cpg/sg15_46_cif.got.tgz:91151.got - 2010.06.28 07:06:18.
