data_PCOD8138158
_publ_section_title
;
Structure prediction by ZEFSAII (Michael W. Deem and Ramdas Pophale) SiO2 
 PCOD8138158
Probable space group: C 2/C
;
_chemical_formula_sum "Si O2"
_cell_formula_units_Z 44
_cell_length_a 6.835581
_cell_length_b 24.104982
_cell_length_c 18.157895
_cell_angle_alpha 90.000000
_cell_angle_beta 45.309507
_cell_angle_gamma 90.000000
_cell_volume 2126.993403
_symmetry_space_group_name_H-M "C 2/C"
_symmetry_group_IT_number 15
_symmetry_cell_setting 'monoclinic'
loop_
_space_group_symop_operation_xyz
x,y,z
-x,y,1/2-z
-x,-y,-z
x,-y,1/2+z
1/2+x,1/2+y,z
1/2-x,1/2+y,1/2-z
1/2-x,1/2-y,-z
1/2+x,1/2-y,1/2+z
loop_
_atom_site_type_symbol
_atom_site_label
_atom_site_fract_x
_atom_site_fract_y
_atom_site_fract_z
Si Si1 0.471988 0.898146 0.842449
Si Si2 0.000000 0.838909 0.750000
Si Si3 0.868548 0.830644 0.465742
Si Si4 0.145568 0.725719 0.451128
Si Si5 0.204865 0.500600 0.513797
Si Si6 0.278211 0.436535 0.131302
O O1 0.500000 0.909140 0.750000
O O2 0.767464 0.881099 0.790528
O O3 0.383265 0.953921 0.905482
O O4 0.258284 0.849120 0.921462
O O5 0.910427 0.801184 0.842638
O O6 0.613012 0.818177 0.476224
O O7 0.047044 0.775659 0.425404
O O8 0.073734 0.879100 0.384368
O O9 0.250000 0.750000 0.500000
O O10 0.511965 0.486645 0.403041
O O11 0.211759 0.557961 0.560072
O O12 0.000000 0.500000 0.500000
O O13 0.000000 0.442990 0.250000
#
# Coordination Sequence:
#
# PCOD8138158 Si02
#       6
#     8   4   8   8   8   8
#     4  10  20  37  60  87 118 158 204 257 307 371
#     4  10  22  34  62  94 112 158 216 248 316 380
#     4   9  21  37  57  85 122 152 204 255 310 375
#     4  10  20  38  60  85 121 157 198 262 317 373
#     4  10  23  40  60  90 127 162 210 264 322 378
#     4  10  22  40  62  86 121 167 209 258 314 380
#
# _framework density 20.686477
#
# number of rings (size 3 to 8) (size 9 to 14) (size 15 to 20)
#    0.000    2.182    0.000    1.636    1.273   10.909 
#    0.000    0.000    0.000    0.000    0.000    0.000 
#    0.000    0.000    0.000    0.000    0.000    0.000 
#
# Total GULP energy -272600.360234 kJ/mol
# GULP energy per Si atom -12390.925465 kJ/mol
# Density = 2.063939 g / cm^3
# Si number density = 20.686477 Si / 1000 Ang^3
#
#
#
# Elastic Constant Matrix: (Units=GPa)
#
#
# Indices 1 2 3 4 5 6 
#
# 1 118.1730 19.6149 47.4723 0.0000 0.7880 0.0000
# 2 19.6149 73.1720 26.5326 0.0000 -8.5110 0.0000
# 3 47.4723 26.5326 119.3062 0.0000 -22.3132 0.0000
# 4 0.0000 0.0000 0.0000 30.0957 0.0000 0.0341
# 5 0.7880 -8.5110 -22.3132 0.0000 35.2078 0.0000
# 6 0.0000 0.0000 0.0000 0.0341 0.0000 36.9422
#
#
#
# Elastic Compliance Matrix: (Units=1/GPa)
#
#
# Indices 1 2 3 4 5 6 
#
# 1 0.010557 -0.001604 -0.004493 0.000000 -0.003472 0.000000
# 2 -0.001604 0.015199 -0.002323 0.000000 0.002238 0.000000
# 3 -0.004493 -0.002323 0.012025 0.000000 0.007160 0.000000
# 4 0.000000 0.000000 0.000000 0.033227 0.000000 -0.000031
# 5 -0.003472 0.002238 0.007160 0.000000 0.033559 0.000000
# 6 0.000000 0.000000 0.000000 -0.000031 0.000000 0.027069
#
#
# Mechanical properties :
#
#
# Convention : Reuss Voigt Hill
#
# Bulk Modulus (GPa) = 47.75587 55.32118 51.53853
# Shear Modulus (GPa) = 32.16301 34.91792 33.54047
#
# Velocity S-wave (km/s) = 3.94735 4.11293 4.03099
# Velocity P-wave (km/s) = 6.62655 7.02536 6.82887
#
# Compressibility (1/GPa) = 0.02093983
#
# Stress axis : x y z
#
# Youngs Moduli (GPa) = 94.72806 65.79284 83.15785
#
# Poissons Ratio (x) = 0.10556 0.37362
# Poissons Ratio (y) = 0.15199 0.19319
# Poissons Ratio (z) = 0.42561 0.15285
#
# Static dielectric constant tensor:
#      x y z
#    x 3.851270 0.000000 -0.288620 
#    y 0.000000 3.620810 0.000000 
#    z -0.288620 0.000000 3.771540 
# 
# 
# High freq. dielectric constant tensor:
#      x y z
#    x 1.808950 0.000000 -0.025720 
#    y 0.000000 1.813490 0.000000 
#    z -0.025720 0.000000 1.804510 
# 
# From -- ./inp_files/186029.got.cif
#   From: 2010.06.25/outbox.cif.g09.slc.cpg/sg15_94_cif.got.tgz:186029.got - 2010.06.28 07:06:18.
