data_PCOD8138693
_publ_section_title
;
Structure prediction by ZEFSAII (Michael W. Deem and Ramdas Pophale) SiO2 
 PCOD8138693
Probable space group: C 2/C
;
_chemical_formula_sum "Si O2"
_cell_formula_units_Z 36
_cell_length_a 16.346066
_cell_length_b 10.707443
_cell_length_c 13.288021
_cell_angle_alpha 90.000000
_cell_angle_beta 127.542782
_cell_angle_gamma 90.000000
_cell_volume 1844.068108
_symmetry_space_group_name_H-M "C 2/C"
_symmetry_group_IT_number 15
_symmetry_cell_setting 'monoclinic'
loop_
_space_group_symop_operation_xyz
x,y,z
-x,y,1/2-z
-x,-y,-z
x,-y,1/2+z
1/2+x,1/2+y,z
1/2-x,1/2+y,1/2-z
1/2-x,1/2-y,-z
1/2+x,1/2-y,1/2+z
loop_
_atom_site_type_symbol
_atom_site_label
_atom_site_fract_x
_atom_site_fract_y
_atom_site_fract_z
Si Si1 0.000000 0.747668 0.750000
Si Si2 0.887069 0.810810 0.183240
Si Si3 0.154806 0.064616 0.256898
Si Si4 0.689229 0.875978 0.467785
Si Si5 0.265762 0.599854 0.400884
O O1 0.076439 0.831133 0.740130
O O2 0.067418 0.657933 0.874563
O O3 0.821276 0.702651 0.186500
O O4 0.000000 0.754881 0.250000
O O5 0.894846 0.929248 0.262862
O O6 0.842336 0.851069 0.042789
O O7 0.268502 0.066465 0.395537
O O8 0.166970 0.081874 0.147965
O O9 0.750000 0.750000 0.500000
O O10 0.713518 0.969854 0.394298
#
# Coordination Sequence:
#
# PCOD8138693 Si02
#       5
#     4   8   8   8   8
#     4  10  20  38  60  88 118 154 200 238 280 354
#     4  10  22  41  58  88 120 152 199 240 287 354
#     4  10  21  39  60  86 117 158 194 238 293 343
#     4   9  21  39  58  85 120 149 193 243 282 346
#     4  10  23  39  61  86 120 155 192 245 293 337
#
# _framework density 19.522055000000002
#
# number of rings (size 3 to 8) (size 9 to 14) (size 15 to 20)
#    0.000    2.222    1.111    0.000    7.778    2.667 
#    0.000    1.111    0.000    0.000    0.000    0.000 
#    0.000    0.000    0.000    0.000    0.000    0.000 
#
# Total GULP energy -223160.522653 kJ/mol
# GULP energy per Si atom -12397.806814 kJ/mol
# Density = 1.947762 g / cm^3
# Si number density = 19.522055 Si / 1000 Ang^3
#
#
#
# Elastic Constant Matrix: (Units=GPa)
#
#
# Indices 1 2 3 4 5 6 
#
# 1 112.5364 37.7089 52.0948 0.0000 -2.0513 0.0000
# 2 37.7089 79.8419 18.6024 0.0000 0.5516 0.0000
# 3 52.0948 18.6024 55.7493 0.0000 2.0622 0.0000
# 4 0.0000 0.0000 0.0000 24.4950 0.0000 5.5931
# 5 -2.0513 0.5516 2.0622 0.0000 45.7650 0.0000
# 6 0.0000 0.0000 0.0000 5.5931 0.0000 16.0479
#
#
#
# Elastic Compliance Matrix: (Units=1/GPa)
#
#
# Indices 1 2 3 4 5 6 
#
# 1 0.017269 -0.004764 -0.014603 0.000000 0.001489 0.000000
# 2 -0.004764 0.014895 -0.000505 0.000000 -0.000370 0.000000
# 3 -0.014603 -0.000505 0.031828 0.000000 -0.002083 0.000000
# 4 0.000000 0.000000 0.000000 0.044354 0.000000 -0.015459
# 5 0.001489 -0.000370 -0.002083 0.000000 0.022016 0.000000
# 6 0.000000 0.000000 0.000000 -0.015459 0.000000 0.067701
#
#
# Mechanical properties :
#
#
# Convention : Reuss Voigt Hill
#
# Bulk Modulus (GPa) = 41.23761 51.65997 46.44879
# Shear Modulus (GPa) = 20.33429 26.57635 23.45532
#
# Velocity S-wave (km/s) = 3.23089 3.69365 3.46999
# Velocity P-wave (km/s) = 5.92349 6.68659 6.31657
#
# Compressibility (1/GPa) = 0.02424971
#
# Stress axis : x y z
#
# Youngs Moduli (GPa) = 57.90608 67.13671 31.41867
#
# Poissons Ratio (x) = 0.31985 0.45880
# Poissons Ratio (y) = 0.27588 0.01585
# Poissons Ratio (z) = 0.84558 0.03387
#
# Static dielectric constant tensor:
#      x y z
#    x 3.566970 0.000000 0.602420 
#    y 0.000000 3.824220 0.000000 
#    z 0.602420 0.000000 4.204300 
# 
# 
# High freq. dielectric constant tensor:
#      x y z
#    x 1.743120 0.000000 0.015400 
#    y 0.000000 1.772950 0.000000 
#    z 0.015400 0.000000 1.759450 
# 
# From -- ./inp_files/94322.got.cif
#   From: 2010.06.25/outbox.cif.g09.slc.cpg/sg15_48_cif.got.tgz:94322.got - 2010.06.28 07:06:18.
