data_PCOD8138189
_publ_section_title
;
Structure prediction by ZEFSAII (Michael W. Deem and Ramdas Pophale) SiO2 
 PCOD8138189
Probable space group: C 2/C
;
_chemical_formula_sum "Si O2"
_cell_formula_units_Z 56
_cell_length_a 17.112894
_cell_length_b 17.210556
_cell_length_c 9.893722
_cell_angle_alpha 90.000000
_cell_angle_beta 71.609730
_cell_angle_gamma 90.000000
_cell_volume 2765.107745
_symmetry_space_group_name_H-M "C 2/C"
_symmetry_group_IT_number 15
_symmetry_cell_setting 'monoclinic'
loop_
_space_group_symop_operation_xyz
x,y,z
-x,y,1/2-z
-x,-y,-z
x,-y,1/2+z
1/2+x,1/2+y,z
1/2-x,1/2+y,1/2-z
1/2-x,1/2-y,-z
1/2+x,1/2-y,1/2+z
loop_
_atom_site_type_symbol
_atom_site_label
_atom_site_fract_x
_atom_site_fract_y
_atom_site_fract_z
Si Si1 0.166120 0.679870 0.273974
Si Si2 0.217662 0.987537 0.082753
Si Si3 0.500000 0.212604 0.250000
Si Si4 0.332852 0.881991 0.435156
Si Si5 0.077771 0.239218 0.442737
Si Si6 0.237550 0.671105 0.797901
Si Si7 0.500000 0.831994 0.250000
Si Si8 0.827042 0.912656 0.650101
O O1 0.165914 0.673173 0.435604
O O2 0.186857 0.769253 0.224800
O O3 0.235348 0.622408 0.177073
O O4 0.076556 0.659204 0.259651
O O5 0.243068 0.909559 0.143349
O O6 0.165691 0.041155 0.213443
O O7 0.159690 0.969463 0.985346
O O8 0.299938 0.032438 0.989513
O O9 0.469953 0.266761 0.389419
O O10 0.275811 0.840790 0.354621
O O11 0.424669 0.889410 0.324975
O O12 0.157730 0.293551 0.415280
O O13 0.017181 0.275409 0.365791
O O14 0.103795 0.153281 0.382304
#
# Coordination Sequence:
#
# PCOD8138189 Si02
#       8
#     8   8   4   8   8   8   4   8
#     4  10  21  36  62  90 117 153 208 250 295 355
#     4  11  20  38  60  91 121 153 199 250 304 356
#     4  12  20  36  59  95 118 148 190 264 302 340
#     4  10  20  37  60  91 120 156 197 249 304 365
#     4  10  22  39  63  89 120 159 207 251 290 360
#     4  10  20  38  63  87 116 159 204 251 293 352
#     4  10  20  42  61  89 124 158 202 246 306 358
#     4  10  22  40  61  90 120 161 206 246 297 359
#
# _framework density 20.252376000000002
#
# number of rings (size 3 to 8) (size 9 to 14) (size 15 to 20)
#    0.000    1.714    2.857    2.143    0.000    3.429 
#    0.000    5.714    0.000    7.714    0.000    0.000 
#    0.000    0.000    0.000    0.000    0.000    0.000 
#
# Total GULP energy -347212.659430 kJ/mol
# GULP energy per Si atom -12400.452123 kJ/mol
# Density = 2.020628 g / cm^3
# Si number density = 20.252376 Si / 1000 Ang^3
#
#
#
# Elastic Constant Matrix: (Units=GPa)
#
#
# Indices 1 2 3 4 5 6 
#
# 1 29.5130 -8.1992 5.4549 0.0000 10.1347 0.0000
# 2 -8.1992 86.1881 29.4459 0.0000 -4.5303 0.0000
# 3 5.4549 29.4459 120.4173 0.0000 5.2579 0.0000
# 4 0.0000 0.0000 0.0000 28.3421 0.0000 4.4799
# 5 10.1347 -4.5303 5.2579 0.0000 21.5762 0.0000
# 6 0.0000 0.0000 0.0000 4.4799 0.0000 16.6356
#
#
#
# Elastic Compliance Matrix: (Units=1/GPa)
#
#
# Indices 1 2 3 4 5 6 
#
# 1 0.041539 0.003669 -0.001982 0.000000 -0.018258 0.000000
# 2 0.003669 0.013243 -0.003488 0.000000 0.001907 0.000000
# 3 -0.001982 -0.003488 0.009338 0.000000 -0.002077 0.000000
# 4 0.000000 0.000000 0.000000 0.036852 0.000000 -0.009924
# 5 -0.018258 0.001907 -0.002077 0.000000 0.055830 0.000000
# 6 0.000000 0.000000 0.000000 -0.009924 0.000000 0.062785
#
#
# Mechanical properties :
#
#
# Convention : Reuss Voigt Hill
#
# Bulk Modulus (GPa) = 16.52382 32.16906 24.34644
# Shear Modulus (GPa) = 20.54565 27.27191 23.90878
#
# Velocity S-wave (km/s) = 3.18855 3.67359 3.43963
# Velocity P-wave (km/s) = 4.66181 5.82342 5.27469
#
# Compressibility (1/GPa) = 0.06051868
#
# Stress axis : x y z
#
# Youngs Moduli (GPa) = 24.07397 75.50901 107.09129
#
# Poissons Ratio (x) = -0.27704 0.21222
# Poissons Ratio (y) = -0.08833 0.37353
# Poissons Ratio (z) = 0.04771 0.26337
#
# Static dielectric constant tensor:
#      x y z
#    x 3.556230 0.000000 0.047560 
#    y 0.000000 3.495460 0.000000 
#    z 0.047560 0.000000 3.997920 
# 
# 
# High freq. dielectric constant tensor:
#      x y z
#    x 1.770080 0.000000 0.010030 
#    y 0.000000 1.773860 0.000000 
#    z 0.010030 0.000000 1.817180 
# 
# From -- ./inp_files/49054.got.cif
#   From: 2010.06.25/outbox.cif.g09.slc.cpg/sg15_25_cif.got.tgz:49054.got - 2010.06.28 07:06:18.
