data_PCOD8138312
_publ_section_title
;
Structure prediction by ZEFSAII (Michael W. Deem and Ramdas Pophale) SiO2 
 PCOD8138312
Probable space group: C 2/C
;
_chemical_formula_sum "Si O2"
_cell_formula_units_Z 64
_cell_length_a 14.072159
_cell_length_b 22.819280
_cell_length_c 14.082040
_cell_angle_alpha 90.000000
_cell_angle_beta 41.926482
_cell_angle_gamma 90.000000
_cell_volume 3021.478053
_symmetry_space_group_name_H-M "C 2/C"
_symmetry_group_IT_number 15
_symmetry_cell_setting 'monoclinic'
loop_
_space_group_symop_operation_xyz
x,y,z
-x,y,1/2-z
-x,-y,-z
x,-y,1/2+z
1/2+x,1/2+y,z
1/2-x,1/2+y,1/2-z
1/2-x,1/2-y,-z
1/2+x,1/2-y,1/2+z
loop_
_atom_site_type_symbol
_atom_site_label
_atom_site_fract_x
_atom_site_fract_y
_atom_site_fract_z
Si Si1 0.136280 0.605819 0.212704
Si Si2 0.113255 0.974364 0.296620
Si Si3 0.693346 0.494104 0.444524
Si Si4 0.827143 0.148073 0.786213
Si Si5 0.620731 0.682589 0.548203
Si Si6 0.392385 0.766530 0.099509
Si Si7 0.186735 0.678752 0.358511
Si Si8 0.165468 0.082498 0.137193
O O1 0.175569 0.536725 0.179898
O O2 0.119003 0.634588 0.330035
O O3 0.000000 0.617659 0.250000
O O4 0.263924 0.637251 0.068700
O O5 0.188997 0.921436 0.181950
O O6 0.942717 0.973282 0.405744
O O7 0.143046 0.963365 0.385286
O O8 0.181126 0.034911 0.210082
O O9 0.735871 0.443422 0.488209
O O10 0.861622 0.187846 0.852358
O O11 0.692515 0.172250 0.828202
O O12 0.971745 0.156275 0.618629
O O13 0.632835 0.746167 0.490758
O O14 0.320314 0.717638 0.221432
O O15 0.559850 0.779404 0.993262
O O16 0.246187 0.640181 0.400905
O O17 0.000000 0.099595 0.250000
#
# Coordination Sequence:
#
# PCOD8138312 Si02
#       8
#     8   8   8   8   8   8   8   8
#     4  11  21  37  59  93 139 176 207 267 339 406
#     4  10  20  37  65  98 125 171 218 280 330 406
#     4  10  20  37  62  93 133 170 223 263 333 394
#     4  11  20  35  61  92 127 166 219 267 329 396
#     4  10  21  34  58  89 125 167 217 266 322 403
#     4  11  23  42  63  92 132 176 219 276 334 394
#     4  11  24  44  66  97 135 172 228 279 338 403
#     4  10  22  41  69  97 130 174 224 281 336 404
#
# _framework density 21.181685999999999
#
# number of rings (size 3 to 8) (size 9 to 14) (size 15 to 20)
#    0.000    1.500    3.750    1.875    3.500    1.000 
#    2.250    1.875    0.000    0.000    0.000    0.000 
#    0.000    0.000    0.000    0.000    0.000    0.000 
#
# Total GULP energy -396563.844231 kJ/mol
# GULP energy per Si atom -12392.620132 kJ/mol
# Density = 2.113348 g / cm^3
# Si number density = 21.181686 Si / 1000 Ang^3
#
#
#
# Elastic Constant Matrix: (Units=GPa)
#
#
# Indices 1 2 3 4 5 6 
#
# 1 92.0581 51.3302 39.4637 -0.0009 1.6227 0.0001
# 2 51.3302 113.2997 37.3521 -0.0010 -5.8952 0.0002
# 3 39.4637 37.3521 75.3090 -0.0042 -14.0985 0.0022
# 4 -0.0009 -0.0010 -0.0042 25.1962 0.0018 -4.7571
# 5 1.6227 -5.8952 -14.0985 0.0018 24.4097 -0.0005
# 6 0.0001 0.0002 0.0022 -4.7571 -0.0005 34.3159
#
#
#
# Elastic Compliance Matrix: (Units=1/GPa)
#
#
# Indices 1 2 3 4 5 6 
#
# 1 0.017451 -0.005767 -0.007582 0.000000 -0.006932 0.000000
# 2 -0.005767 0.012464 -0.002830 0.000000 0.001759 0.000000
# 3 -0.007582 -0.002830 0.020880 0.000002 0.011880 -0.000001
# 4 0.000000 0.000000 0.000002 0.040755 -0.000002 0.005650
# 5 -0.006932 0.001759 0.011880 -0.000002 0.048715 0.000000
# 6 0.000000 0.000000 -0.000001 0.005650 0.000000 0.029924
#
#
# Mechanical properties :
#
#
# Convention : Reuss Voigt Hill
#
# Bulk Modulus (GPa) = 54.24458 59.66210 56.95334
# Shear Modulus (GPa) = 23.95875 26.95242 25.45558
#
# Velocity S-wave (km/s) = 3.36684 3.57100 3.47042
# Velocity P-wave (km/s) = 6.38584 6.72538 6.55781
#
# Compressibility (1/GPa) = 0.01843502
#
# Stress axis : x y z
#
# Youngs Moduli (GPa) = 57.30371 80.23383 47.89356
#
# Poissons Ratio (x) = 0.46272 0.36313
# Poissons Ratio (y) = 0.33048 0.13555
# Poissons Ratio (z) = 0.43448 0.22709
#
# Static dielectric constant tensor:
#      x y z
#    x 3.879590 0.000000 0.063200 
#    y 0.000000 3.770480 0.000000 
#    z 0.063200 0.000000 3.917770 
# 
# 
# High freq. dielectric constant tensor:
#      x y z
#    x 1.807120 0.000000 -0.007300 
#    y 0.000000 1.826730 0.000000 
#    z -0.007300 0.000000 1.817660 
# 
# From -- ./inp_files/156783.got.cif
#   From: 2010.06.25/outbox.cif.g09.slc.cpg/sg15_79_cif.got.tgz:156783.got - 2010.06.28 07:06:18.
