data_PCOD8138573
_publ_section_title
;
Structure prediction by ZEFSAII (Michael W. Deem and Ramdas Pophale) SiO2 
 PCOD8138573
Probable space group: C 2/C
;
_chemical_formula_sum "Si O2"
_cell_formula_units_Z 64
_cell_length_a 18.590323
_cell_length_b 8.947587
_cell_length_c 29.201649
_cell_angle_alpha 90.000000
_cell_angle_beta 138.305959
_cell_angle_gamma 90.000000
_cell_volume 3230.885733
_symmetry_space_group_name_H-M "C 2/C"
_symmetry_group_IT_number 15
_symmetry_cell_setting 'monoclinic'
loop_
_space_group_symop_operation_xyz
x,y,z
-x,y,1/2-z
-x,-y,-z
x,-y,1/2+z
1/2+x,1/2+y,z
1/2-x,1/2+y,1/2-z
1/2-x,1/2-y,-z
1/2+x,1/2-y,1/2+z
loop_
_atom_site_type_symbol
_atom_site_label
_atom_site_fract_x
_atom_site_fract_y
_atom_site_fract_z
Si Si1 0.818765 0.900756 0.782521
Si Si2 0.533511 0.311858 0.570915
Si Si3 0.280193 0.869816 0.551208
Si Si4 0.048991 0.858951 0.478244
Si Si5 0.865370 0.677676 0.559960
Si Si6 0.610324 0.272349 0.171755
Si Si7 0.489651 0.357607 0.692784
Si Si8 0.542334 0.693506 0.819462
O O1 0.862031 0.799956 0.845982
O O2 0.697008 0.861186 0.709924
O O3 0.891885 0.872242 0.772655
O O4 0.823239 0.073242 0.799582
O O5 0.552646 0.261044 0.527310
O O6 0.514646 0.486626 0.553142
O O7 0.436377 0.218668 0.548670
O O8 0.250000 0.750000 0.500000
O O9 0.167929 0.916113 0.520874
O O10 0.351253 0.791462 0.623736
O O11 0.347051 0.001618 0.558165
O O12 0.983931 0.754594 0.411320
O O13 0.750000 0.750000 0.500000
O O14 0.919782 0.738220 0.632047
O O15 0.551846 0.254547 0.191942
O O16 0.500000 0.303266 0.750000
O O17 0.429774 0.517996 0.660818
O O18 0.500000 0.730461 0.750000
#
# Coordination Sequence:
#
# PCOD8138573 Si02
#       8
#     8   8   8   8   8   8   8   8
#     4   9  20  36  59  81 116 152 190 240 302 348
#     4   9  20  39  61  88 115 158 199 255 301 359
#     4  12  23  39  62  90 124 162 199 254 309 369
#     4  10  20  39  62  87 121 155 203 248 312 360
#     4  11  21  37  63  90 121 156 207 250 303 362
#     4  10  20  38  58  82 116 153 193 243 294 356
#     4   9  20  41  61  87 117 155 201 252 298 360
#     4  10  22  39  62  86 122 159 199 244 312 363
#
# _framework density 19.808809
#
# number of rings (size 3 to 8) (size 9 to 14) (size 15 to 20)
#    0.000    2.000    2.500    1.500    1.750    3.500 
#    2.250    1.875    0.000    0.000    0.000    0.000 
#    0.000    0.000    0.000    0.000    0.000    0.000 
#
# Total GULP energy -396600.097069 kJ/mol
# GULP energy per Si atom -12393.753033 kJ/mol
# Density = 1.976372 g / cm^3
# Si number density = 19.808809 Si / 1000 Ang^3
#
#
#
# Elastic Constant Matrix: (Units=GPa)
#
#
# Indices 1 2 3 4 5 6 
#
# 1 97.3149 19.7830 46.1199 0.0000 -23.5562 0.0000
# 2 19.7830 60.5082 37.5383 0.0000 -6.5124 0.0000
# 3 46.1199 37.5383 98.3230 0.0000 -6.4482 0.0000
# 4 0.0000 0.0000 0.0000 33.2619 0.0000 10.8687
# 5 -23.5562 -6.5124 -6.4482 0.0000 39.1138 0.0000
# 6 0.0000 0.0000 0.0000 10.8687 0.0000 23.4055
#
#
#
# Elastic Compliance Matrix: (Units=1/GPa)
#
#
# Indices 1 2 3 4 5 6 
#
# 1 0.015435 -0.000009 -0.006700 0.000000 0.008190 0.000000
# 2 -0.000009 0.021857 -0.008191 0.000000 0.002284 0.000000
# 3 -0.006700 -0.008191 0.016262 0.000000 -0.002718 0.000000
# 4 0.000000 0.000000 0.000000 0.035442 0.000000 -0.016458
# 5 0.008190 0.002284 -0.002718 0.000000 0.030431 0.000000
# 6 0.000000 0.000000 0.000000 -0.016458 0.000000 0.050368
#
#
# Mechanical properties :
#
#
# Convention : Reuss Voigt Hill
#
# Bulk Modulus (GPa) = 42.09505 51.44760 46.77133
# Shear Modulus (GPa) = 24.09499 29.33655 26.71577
#
# Velocity S-wave (km/s) = 3.49144 3.85253 3.67642
# Velocity P-wave (km/s) = 6.12784 6.76888 6.45632
#
# Compressibility (1/GPa) = 0.02375576
#
# Stress axis : x y z
#
# Youngs Moduli (GPa) = 64.78652 45.75258 61.49286
#
# Poissons Ratio (x) = 0.00040 0.41199
# Poissons Ratio (y) = 0.00056 0.50367
# Poissons Ratio (z) = 0.43405 0.37475
#
# Static dielectric constant tensor:
#      x y z
#    x 3.777770 0.000000 -0.126380 
#    y 0.000000 3.530940 0.000000 
#    z -0.126380 0.000000 4.089590 
# 
# 
# High freq. dielectric constant tensor:
#      x y z
#    x 1.770800 0.000000 -0.004650 
#    y 0.000000 1.752620 0.000000 
#    z -0.004650 0.000000 1.782060 
# 
# From -- ./inp_files/315734.got.cif
#   From: 2010.06.25/outbox.cif.g09.slc.cpg/sg15_158_cif.got.tgz:315734.got - 2010.06.28 07:06:18.
