data_PCOD8138480
_publ_section_title
;
Structure prediction by ZEFSAII (Michael W. Deem and Ramdas Pophale) SiO2 
 PCOD8138480
Probable space group: C 2/C
;
_chemical_formula_sum "Si O2"
_cell_formula_units_Z 52
_cell_length_a 12.563135
_cell_length_b 12.223605
_cell_length_c 21.876044
_cell_angle_alpha 90.000000
_cell_angle_beta 54.058993
_cell_angle_gamma 90.000000
_cell_volume 2719.870931
_symmetry_space_group_name_H-M "C 2/C"
_symmetry_group_IT_number 15
_symmetry_cell_setting 'monoclinic'
loop_
_space_group_symop_operation_xyz
x,y,z
-x,y,1/2-z
-x,-y,-z
x,-y,1/2+z
1/2+x,1/2+y,z
1/2-x,1/2+y,1/2-z
1/2-x,1/2-y,-z
1/2+x,1/2-y,1/2+z
loop_
_atom_site_type_symbol
_atom_site_label
_atom_site_fract_x
_atom_site_fract_y
_atom_site_fract_z
Si Si1 0.408468 0.718259 0.208952
Si Si2 0.639645 0.047602 0.971607
Si Si3 0.139502 0.222690 0.409419
Si Si4 0.334245 0.306338 0.025240
Si Si5 0.194734 0.471781 0.591530
Si Si6 0.000000 0.418039 0.250000
Si Si7 0.689714 0.360703 0.639573
O O1 0.326557 0.726590 0.174203
O O2 0.408069 0.838704 0.240064
O O3 0.339147 0.630749 0.278070
O O4 0.557980 0.676723 0.147484
O O5 0.669427 0.163443 0.931504
O O6 0.758948 0.972441 0.907359
O O7 0.633229 0.057588 0.046790
O O8 0.500000 0.000000 0.000000
O O9 0.228637 0.132852 0.410639
O O10 0.987810 0.194187 0.464113
O O11 0.296441 0.430747 0.048378
O O12 0.300274 0.233666 0.096001
O O13 0.250000 0.250000 0.000000
O O14 0.082509 0.504142 0.677511
#
# Coordination Sequence:
#
# PCOD8138480 Si02
#       7
#     8   8   8   8   8   4   8
#     4  10  20  40  65  89 119 154 217 258 297 368
#     4  12  23  40  65  86 121 168 210 250 310 390
#     4  12  25  37  59  97 127 162 194 257 334 375
#     4  12  18  40  66  90 112 157 220 255 293 361
#     4  12  24  40  61  91 131 156 207 268 312 371
#     4  10  20  40  64  84 116 168 208 256 298 368
#     4  10  20  37  66  89 110 152 214 258 289 347
#
# _framework density 19.118555000000001
#
# number of rings (size 3 to 8) (size 9 to 14) (size 15 to 20)
#    0.000    0.923    7.692    1.846    0.000    2.462 
#    0.000    1.538    0.000    0.000    0.000    0.000 
#    0.000    0.000    0.000    0.000    0.000    0.000 
#
# Total GULP energy -322337.353694 kJ/mol
# GULP energy per Si atom -12397.590527 kJ/mol
# Density = 1.907504 g / cm^3
# Si number density = 19.118555 Si / 1000 Ang^3
#
#
#
# Elastic Constant Matrix: (Units=GPa)
#
#
# Indices 1 2 3 4 5 6 
#
# 1 104.4317 58.5450 67.2534 0.0000 25.8257 0.0000
# 2 58.5450 142.6687 59.9674 0.0000 18.6987 0.0000
# 3 67.2534 59.9674 128.0760 0.0000 14.2449 0.0000
# 4 0.0000 0.0000 0.0000 21.7153 0.0000 5.0253
# 5 25.8257 18.6987 14.2449 0.0000 29.3888 0.0000
# 6 0.0000 0.0000 0.0000 5.0253 0.0000 23.9440
#
#
#
# Elastic Compliance Matrix: (Units=1/GPa)
#
#
# Indices 1 2 3 4 5 6 
#
# 1 0.018632 -0.003257 -0.007048 0.000000 -0.010885 0.000000
# 2 -0.003257 0.009711 -0.002609 0.000000 -0.002053 0.000000
# 3 -0.007048 -0.002609 0.012533 0.000000 0.001779 0.000000
# 4 0.000000 0.000000 0.000000 0.048401 0.000000 -0.010158
# 5 -0.010885 -0.002053 0.001779 0.000000 0.044035 0.000000
# 6 0.000000 0.000000 0.000000 -0.010158 0.000000 0.043896
#
#
# Mechanical properties :
#
#
# Convention : Reuss Voigt Hill
#
# Bulk Modulus (GPa) = 66.45110 82.96755 74.70932
# Shear Modulus (GPa) = 24.03245 27.63701 25.83473
#
# Velocity S-wave (km/s) = 3.54930 3.80618 3.67998
# Velocity P-wave (km/s) = 7.18537 7.92506 7.56426
#
# Compressibility (1/GPa) = 0.01504866
#
# Stress axis : x y z
#
# Youngs Moduli (GPa) = 53.67027 102.97538 79.79220
#
# Poissons Ratio (x) = 0.33535 0.56241
# Poissons Ratio (y) = 0.17478 0.20814
# Poissons Ratio (z) = 0.37829 0.26861
#
# Static dielectric constant tensor:
#      x y z
#    x 3.280300 0.000000 0.089140 
#    y 0.000000 3.531350 0.000000 
#    z 0.089140 0.000000 3.921380 
# 
# 
# High freq. dielectric constant tensor:
#      x y z
#    x 1.724100 0.000000 0.009280 
#    y 0.000000 1.740140 0.000000 
#    z 0.009280 0.000000 1.765410 
# 
# From -- ./inp_files/273597.got.cif
#   From: 2010.06.25/outbox.cif.g09.slc.cpg/sg15_137_cif.got.tgz:273597.got - 2010.06.28 07:06:18.
