data_PCOD8138825
_publ_section_title
;
Structure prediction by ZEFSAII (Michael W. Deem and Ramdas Pophale) SiO2 
 PCOD8138825
Probable space group: C 2/C
;
_chemical_formula_sum "Si O2"
_cell_formula_units_Z 60
_cell_length_a 11.949913
_cell_length_b 31.489470
_cell_length_c 7.860237
_cell_angle_alpha 90.000000
_cell_angle_beta 88.497748
_cell_angle_gamma 90.000000
_cell_volume 2956.762495
_symmetry_space_group_name_H-M "C 2/C"
_symmetry_group_IT_number 15
_symmetry_cell_setting 'monoclinic'
loop_
_space_group_symop_operation_xyz
x,y,z
-x,y,1/2-z
-x,-y,-z
x,-y,1/2+z
1/2+x,1/2+y,z
1/2-x,1/2+y,1/2-z
1/2-x,1/2-y,-z
1/2+x,1/2-y,1/2+z
loop_
_atom_site_type_symbol
_atom_site_label
_atom_site_fract_x
_atom_site_fract_y
_atom_site_fract_z
Si Si1 0.615663 0.360069 0.639915
Si Si2 0.544919 0.199297 0.503306
Si Si3 0.357035 0.533478 0.087893
Si Si4 0.000000 0.631569 0.250000
Si Si5 0.282821 0.112105 0.420964
Si Si6 0.403342 0.448540 0.973579
Si Si7 0.607651 0.711083 0.856708
Si Si8 0.176950 0.684896 0.829148
O O1 0.500000 0.360751 0.750000
O O2 0.712075 0.363248 0.778425
O O3 0.625140 0.398882 0.501546
O O4 0.626215 0.318761 0.520902
O O5 0.568793 0.162364 0.370183
O O6 0.598878 0.242273 0.434160
O O7 0.605833 0.179441 0.662346
O O8 0.410516 0.207627 0.536626
O O9 0.262280 0.565611 0.025578
O O10 0.468938 0.542500 0.971538
O O11 0.385655 0.544191 0.276736
O O12 0.323863 0.483274 0.072029
O O13 0.908770 0.603024 0.350190
O O14 0.284886 0.140107 0.592065
O O15 0.500000 0.697594 0.750000
O O16 0.712184 0.711462 0.721839
#
# Coordination Sequence:
#
# PCOD8138825 Si02
#       8
#     8   8   8   4   8   8   8   8
#     4  11  21  38  57  84 123 156 192 246 304 360
#     4  10  22  44  58  84 116 159 213 250 302 351
#     4   9  17  32  55  84 112 152 187 229 284 363
#     4  10  20  40  62  80 114 164 204 254 294 348
#     4  10  20  38  62  85 118 156 203 243 302 353
#     4   9  17  33  53  82 117 150 184 226 296 360
#     4  12  25  38  57  89 118 156 208 252 305 354
#     4  10  23  40  60  84 117 158 201 254 298 354
#
# _framework density 20.292466000000001
#
# number of rings (size 3 to 8) (size 9 to 14) (size 15 to 20)
#    0.000    1.867    3.333    2.000    1.867    1.600 
#    2.400    0.000    0.000    3.200    0.000    3.733 
#    0.000    0.000    0.000    0.000    0.000    0.000 
#
# Total GULP energy -371664.215783 kJ/mol
# GULP energy per Si atom -12388.807193 kJ/mol
# Density = 2.024628 g / cm^3
# Si number density = 20.292466 Si / 1000 Ang^3
#
#
#
# Elastic Constant Matrix: (Units=GPa)
#
#
# Indices 1 2 3 4 5 6 
#
# 1 104.4056 55.3404 29.9528 0.0000 -8.4347 0.0000
# 2 55.3404 118.7883 25.9799 0.0000 -9.8619 0.0000
# 3 29.9528 25.9799 47.4880 0.0000 -0.8470 0.0000
# 4 0.0000 0.0000 0.0000 -89.0994 0.0000 52.9649
# 5 -8.4347 -9.8619 -0.8470 0.0000 29.8093 0.0000
# 6 0.0000 0.0000 0.0000 52.9649 0.0000 0.5040
#
#
#
# Elastic Compliance Matrix: (Units=1/GPa)
#
#
# Indices 1 2 3 4 5 6 
#
# 1 0.014218 -0.005102 -0.006138 0.000000 0.002161 0.000000
# 2 -0.005102 0.011672 -0.003126 0.000000 0.002329 0.000000
# 3 -0.006138 -0.003126 0.026604 0.000000 -0.002015 0.000000
# 4 0.000000 0.000000 0.000000 -0.000177 0.000000 0.018583
# 5 0.002161 0.002329 -0.002015 0.000000 0.034871 0.000000
# 6 0.000000 0.000000 0.000000 0.018583 0.000000 0.031261
#
#
# Mechanical properties :
#
#
# Convention : Reuss Voigt Hill
#
# Bulk Modulus (GPa) = 42.08468 54.80311 48.44390
# Shear Modulus (GPa) = 32.23683 -1.12997 15.55343
#
# Velocity S-wave (km/s) = 3.99006 -0.74703 2.77151
# Velocity P-wave (km/s) = 6.48163 5.13042 5.84520
#
# Compressibility (1/GPa) = 0.02376162
#
# Stress axis : x y z
#
# Youngs Moduli (GPa) = 70.33431 85.67321 37.58853
#
# Poissons Ratio (x) = 0.43709 0.23072
# Poissons Ratio (y) = 0.35884 0.11751
# Poissons Ratio (z) = 0.43172 0.26783
#
# Static dielectric constant tensor:
#      x y z
#    x 4.009640 0.000000 -0.062320 
#    y 0.000000 3.953750 0.000000 
#    z -0.062320 0.000000 3.714620 
# 
# 
# High freq. dielectric constant tensor:
#      x y z
#    x 1.786250 0.000000 0.002960 
#    y 0.000000 1.780540 0.000000 
#    z 0.002960 0.000000 1.792620 
# 
# From -- ./inp_files/35247.got.cif
#   From: 2010.06.25/outbox.cif.g09.slc.cpg/sg15_18_cif.got.tgz:35247.got - 2010.06.28 07:06:18.
