data_PCOD8138586
_publ_section_title
;
Structure prediction by ZEFSAII (Michael W. Deem and Ramdas Pophale) SiO2 
 PCOD8138586
Probable space group: C 2/C
;
_chemical_formula_sum "Si O2"
_cell_formula_units_Z 64
_cell_length_a 13.203667
_cell_length_b 27.451811
_cell_length_c 18.506082
_cell_angle_alpha 90.000000
_cell_angle_beta 150.444740
_cell_angle_gamma 90.000000
_cell_volume 3308.707498
_symmetry_space_group_name_H-M "C 2/C"
_symmetry_group_IT_number 15
_symmetry_cell_setting 'monoclinic'
loop_
_space_group_symop_operation_xyz
x,y,z
-x,y,1/2-z
-x,-y,-z
x,-y,1/2+z
1/2+x,1/2+y,z
1/2-x,1/2+y,1/2-z
1/2-x,1/2-y,-z
1/2+x,1/2-y,1/2+z
loop_
_atom_site_type_symbol
_atom_site_label
_atom_site_fract_x
_atom_site_fract_y
_atom_site_fract_z
Si Si1 0.052046 0.573600 0.999758
Si Si2 0.833924 0.589773 0.087837
Si Si3 0.883369 0.352624 0.838578
Si Si4 0.533916 0.224614 0.878594
Si Si5 0.234262 0.021048 0.905407
Si Si6 0.404522 0.754732 0.924464
Si Si7 0.415112 0.119781 0.769812
Si Si8 0.456316 0.648579 0.491848
O O1 0.151787 0.617705 0.108086
O O2 0.230376 0.536155 0.086687
O O3 0.873335 0.549549 0.935137
O O4 0.944997 0.588684 0.859521
O O5 0.640427 0.617133 0.003319
O O6 0.000000 0.575302 0.250000
O O7 0.924120 0.626983 0.085504
O O8 0.781476 0.538703 0.016453
O O9 0.942478 0.296735 0.889639
O O10 0.677003 0.355616 0.663535
O O11 0.342528 0.249111 0.717366
O O12 0.546473 0.169231 0.860385
O O13 0.750000 0.250000 0.000000
O O14 0.486998 0.228113 0.934557
O O15 0.000000 0.034839 0.750000
O O16 0.512164 0.704850 0.964082
O O17 0.500000 0.093471 0.750000
O O18 0.175152 0.126849 0.608373
#
# Coordination Sequence:
#
# PCOD8138586 Si02
#       8
#     8   8   8   8   8   8   8   8
#     4  10  22  40  61  85 119 151 192 246 292 350
#     4   9  20  39  64  84 113 152 194 240 299 350
#     4  10  20  38  58  85 116 156 193 241 291 342
#     4  11  21  36  51  79 111 161 194 231 281 335
#     4  10  21  40  63  89 114 149 194 241 302 354
#     4  11  20  34  57  78 119 154 194 242 283 342
#     4  11  23  37  56  83 116 151 196 236 285 342
#     4  10  21  38  58  86 117 155 197 238 286 350
#
# _framework density 19.342901000000001
#
# number of rings (size 3 to 8) (size 9 to 14) (size 15 to 20)
#    0.000    1.750    2.500    2.625    0.000    2.000 
#    0.000    0.000    0.000    7.500    0.000    0.000 
#    0.000    0.000    0.000    0.000    0.000    0.000 
#
# Total GULP energy -396730.630878 kJ/mol
# GULP energy per Si atom -12397.832215 kJ/mol
# Density = 1.929888 g / cm^3
# Si number density = 19.342901 Si / 1000 Ang^3
#
#
#
# Elastic Constant Matrix: (Units=GPa)
#
#
# Indices 1 2 3 4 5 6 
#
# 1 97.4714 37.9396 40.3175 0.0001 -10.7845 -0.0002
# 2 37.9396 82.1246 32.3574 0.0001 -3.3238 -0.0004
# 3 40.3175 32.3574 94.7725 0.0002 -0.6814 -0.0010
# 4 0.0001 0.0001 0.0002 18.4572 -0.0002 -8.5031
# 5 -10.7845 -3.3238 -0.6814 -0.0002 33.6570 0.0002
# 6 -0.0002 -0.0004 -0.0010 -8.5031 0.0002 5.2516
#
#
#
# Elastic Compliance Matrix: (Units=1/GPa)
#
#
# Indices 1 2 3 4 5 6 
#
# 1 0.014401 -0.004722 -0.004485 -0.000001 0.004057 -0.000003
# 2 -0.004722 0.015674 -0.003343 0.000001 -0.000033 0.000001
# 3 -0.004485 -0.003343 0.013590 0.000003 -0.001492 0.000008
# 4 -0.000001 0.000001 0.000003 0.213239 -0.000001 0.345263
# 5 0.004057 -0.000033 -0.001492 -0.000001 0.030978 -0.000003
# 6 -0.000003 0.000001 0.000008 0.345263 -0.000003 0.749445
#
#
# Mechanical properties :
#
#
# Convention : Reuss Voigt Hill
#
# Bulk Modulus (GPa) = 53.86286 55.06638 54.46462
# Shear Modulus (GPa) = 4.67895 22.39011 13.53453
#
# Velocity S-wave (km/s) = 1.55698 3.40595 2.64808
# Velocity P-wave (km/s) = 5.58024 6.63307 6.12930
#
# Compressibility (1/GPa) = 0.01856567
#
# Stress axis : x y z
#
# Youngs Moduli (GPa) = 69.43723 63.80105 73.58184
#
# Poissons Ratio (x) = 0.30125 0.33004
# Poissons Ratio (y) = 0.32786 0.24598
# Poissons Ratio (z) = 0.31145 0.21328
#
# Static dielectric constant tensor:
#      x y z
#    x 3.577090 0.000000 -0.211540 
#    y 0.000000 3.611570 0.000000 
#    z -0.211540 0.000000 3.604450 
# 
# 
# High freq. dielectric constant tensor:
#      x y z
#    x 1.752160 0.000000 -0.012580 
#    y 0.000000 1.746420 0.000000 
#    z -0.012580 0.000000 1.761860 
# 
# From -- ./inp_files/43568.got.cif
#   From: 2010.06.25/outbox.cif.g09.slc.cpg/sg15_22_cif.got.tgz:43568.got - 2010.06.28 07:06:18.
