data_PCOD8138560
_publ_section_title
;
Structure prediction by ZEFSAII (Michael W. Deem and Ramdas Pophale) SiO2 
 PCOD8138560
Probable space group: C 2/C
;
_chemical_formula_sum "Si O2"
_cell_formula_units_Z 64
_cell_length_a 11.116649
_cell_length_b 18.454267
_cell_length_c 20.935029
_cell_angle_alpha 90.000000
_cell_angle_beta 135.389564
_cell_angle_gamma 90.000000
_cell_volume 3016.173012
_symmetry_space_group_name_H-M "C 2/C"
_symmetry_group_IT_number 15
_symmetry_cell_setting 'monoclinic'
loop_
_space_group_symop_operation_xyz
x,y,z
-x,y,1/2-z
-x,-y,-z
x,-y,1/2+z
1/2+x,1/2+y,z
1/2-x,1/2+y,1/2-z
1/2-x,1/2-y,-z
1/2+x,1/2-y,1/2+z
loop_
_atom_site_type_symbol
_atom_site_label
_atom_site_fract_x
_atom_site_fract_y
_atom_site_fract_z
Si Si1 0.423648 0.664168 0.904462
Si Si2 0.518643 0.931495 0.827459
Si Si3 0.525883 0.200378 0.530469
Si Si4 0.824245 0.489341 0.351670
Si Si5 0.172129 0.166670 0.774510
Si Si6 0.783765 0.335111 0.510940
Si Si7 0.827176 0.039441 0.952371
Si Si8 0.687881 0.070670 0.028590
O O1 0.465852 0.730159 0.968431
O O2 0.344706 0.688685 0.806695
O O3 0.303406 0.609620 0.897652
O O4 0.604281 0.623886 0.955526
O O5 0.500000 0.901234 0.750000
O O6 0.576104 0.859215 0.885546
O O7 0.344442 0.963000 0.794084
O O8 0.662494 0.992307 0.877108
O O9 0.662076 0.214409 0.639475
O O10 0.639655 0.144937 0.529321
O O11 0.355656 0.156608 0.485416
O O12 0.709396 0.419269 0.294203
O O13 0.742586 0.538083 0.377945
O O14 0.019420 0.471970 0.443285
O O15 0.000000 0.185455 0.750000
O O16 0.750000 0.250000 0.500000
O O17 0.833769 0.062096 0.029697
O O18 0.000000 0.000000 0.000000
#
# Coordination Sequence:
#
# PCOD8138560 Si02
#       8
#     8   8   8   8   8   8   8   8
#     4  11  23  40  58  91 132 158 210 270 309 382
#     4  11  21  39  63  92 125 162 208 257 316 380
#     4  10  21  42  61  89 122 168 220 247 317 383
#     4   9  19  35  59  93 120 158 210 257 308 385
#     4  11  22  35  64  92 122 166 206 262 322 373
#     4  10  20  38  57  84 120 158 200 259 304 366
#     4  11  23  37  62  94 126 163 206 265 328 371
#     4   9  19  36  64  85 119 166 207 255 315 380
#
# _framework density 21.218941000000001
#
# number of rings (size 3 to 8) (size 9 to 14) (size 15 to 20)
#    0.000    1.750    3.750    0.750    3.500    0.500 
#    9.000    0.000    0.000    0.000    0.000    0.000 
#    0.000    0.000    0.000    0.000    0.000    0.000 
#
# Total GULP energy -396516.537208 kJ/mol
# GULP energy per Si atom -12391.141788 kJ/mol
# Density = 2.117065 g / cm^3
# Si number density = 21.218941 Si / 1000 Ang^3
#
#
#
# Elastic Constant Matrix: (Units=GPa)
#
#
# Indices 1 2 3 4 5 6 
#
# 1 123.5455 32.9273 27.3604 0.0000 -21.3761 0.0000
# 2 32.9273 79.0495 34.5691 0.0000 -5.4607 0.0000
# 3 27.3604 34.5691 97.2858 0.0000 -25.0705 0.0000
# 4 0.0000 0.0000 0.0000 30.3378 0.0000 -5.5510
# 5 -21.3761 -5.4607 -25.0705 0.0000 35.0683 0.0000
# 6 0.0000 0.0000 0.0000 -5.5510 0.0000 24.5020
#
#
#
# Elastic Compliance Matrix: (Units=1/GPa)
#
#
# Indices 1 2 3 4 5 6 
#
# 1 0.010070 -0.003784 -0.000071 0.000000 0.005498 0.000000
# 2 -0.003784 0.016493 -0.005797 0.000000 -0.003882 0.000000
# 3 -0.000071 -0.005797 0.014851 0.000000 0.009671 0.000000
# 4 0.000000 0.000000 0.000000 0.034388 0.000000 0.007791
# 5 0.005498 -0.003882 0.009671 0.000000 0.038177 0.000000
# 6 0.000000 0.000000 0.000000 0.007791 0.000000 0.042578
#
#
# Mechanical properties :
#
#
# Convention : Reuss Voigt Hill
#
# Bulk Modulus (GPa) = 45.22567 54.39937 49.81252
# Shear Modulus (GPa) = 27.28820 31.64988 29.46904
#
# Velocity S-wave (km/s) = 3.59002 3.86630 3.73071
# Velocity P-wave (km/s) = 6.20841 6.75454 6.48723
#
# Compressibility (1/GPa) = 0.02211134
#
# Stress axis : x y z
#
# Youngs Moduli (GPa) = 99.30898 60.63077 67.33545
#
# Poissons Ratio (x) = 0.22941 0.00475
# Poissons Ratio (y) = 0.37576 0.39035
# Poissons Ratio (z) = 0.00700 0.35148
#
# Static dielectric constant tensor:
#      x y z
#    x 4.739860 0.000000 -0.270520 
#    y 0.000000 3.661150 0.000000 
#    z -0.270520 0.000000 3.797590 
# 
# 
# High freq. dielectric constant tensor:
#      x y z
#    x 1.840180 0.000000 -0.024050 
#    y 0.000000 1.817660 0.000000 
#    z -0.024050 0.000000 1.811650 
# 
# From -- ./inp_files/240433.got.cif
#   From: 2010.06.25/outbox.cif.g09.slc.cpg/sg15_121_cif.got.tgz:240433.got - 2010.06.28 07:06:18.
