data_PCOD8138053
_publ_section_title
;
Structure prediction by ZEFSAII (Michael W. Deem and Ramdas Pophale) SiO2 
 PCOD8138053
Probable space group: C 2/C
;
_chemical_formula_sum "Si O2"
_cell_formula_units_Z 48
_cell_length_a 22.982558
_cell_length_b 8.894064
_cell_length_c 17.193926
_cell_angle_alpha 90.000000
_cell_angle_beta 43.382783
_cell_angle_gamma 90.000000
_cell_volume 2414.057880
_symmetry_space_group_name_H-M "C 2/C"
_symmetry_group_IT_number 15
_symmetry_cell_setting 'monoclinic'
loop_
_space_group_symop_operation_xyz
x,y,z
-x,y,1/2-z
-x,-y,-z
x,-y,1/2+z
1/2+x,1/2+y,z
1/2-x,1/2+y,1/2-z
1/2-x,1/2-y,-z
1/2+x,1/2-y,1/2+z
loop_
_atom_site_type_symbol
_atom_site_label
_atom_site_fract_x
_atom_site_fract_y
_atom_site_fract_z
Si Si1 0.307865 0.174430 0.090888
Si Si2 0.341413 0.506348 0.502188
Si Si3 0.189270 0.056774 0.642133
Si Si4 0.006172 0.830884 0.331942
Si Si5 0.778932 0.232198 0.169235
Si Si6 0.434254 0.923606 0.006605
O O1 0.332805 0.314835 0.013366
O O2 0.292115 0.225515 0.195341
O O3 0.219865 0.104801 0.144819
O O4 0.385036 0.056750 0.009309
O O5 0.303226 0.443147 0.458536
O O6 0.439491 0.462631 0.413549
O O7 0.295024 0.436475 0.622723
O O8 0.250049 0.181925 0.619442
O O9 0.095522 0.092113 0.764227
O O10 0.989892 0.679653 0.395854
O O11 0.000000 0.775211 0.250000
O O12 0.864248 0.316565 0.117045
O O13 0.500000 0.000000 0.000000
#
# Coordination Sequence:
#
# PCOD8138053 Si02
#       6
#     8   8   8   8   8   8
#     4  11  22  36  56  87 114 140 184 236 277 317
#     4  10  20  37  58  81 113 146 181 229 276 325
#     4  10  20  37  58  82 108 145 188 226 271 328
#     4   9  20  38  58  79 109 149 185 218 273 338
#     4  10  21  37  57  80 112 152 187 220 272 337
#     4  10  21  37  56  81 111 146 186 227 273 327
#
# _framework density 19.883533
#
# number of rings (size 3 to 8) (size 9 to 14) (size 15 to 20)
#    0.000    2.000    0.000    4.000    0.000    2.667 
#    0.000    8.333    0.000    0.000    0.000    0.000 
#    0.000    0.000    0.000    0.000    0.000    0.000 
#
# Total GULP energy -297534.951465 kJ/mol
# GULP energy per Si atom -12397.289644 kJ/mol
# Density = 1.983828 g / cm^3
# Si number density = 19.883533 Si / 1000 Ang^3
#
#
#
# Elastic Constant Matrix: (Units=GPa)
#
#
# Indices 1 2 3 4 5 6 
#
# 1 114.2960 57.6030 41.7540 -0.0004 -13.9426 0.0001
# 2 57.6030 141.1917 51.1715 -0.0005 -9.4748 -0.0009
# 3 41.7540 51.1715 94.7850 -0.0002 -1.6944 0.0002
# 4 -0.0004 -0.0005 -0.0002 30.9178 0.0004 -2.6655
# 5 -13.9426 -9.4748 -1.6944 0.0004 21.5095 -0.0001
# 6 0.0001 -0.0009 0.0002 -2.6655 -0.0001 28.1278
#
#
#
# Elastic Compliance Matrix: (Units=1/GPa)
#
#
# Indices 1 2 3 4 5 6 
#
# 1 0.012542 -0.003393 -0.003579 0.000000 0.006353 0.000000
# 2 -0.003393 0.009996 -0.003868 0.000000 0.001899 0.000000
# 3 -0.003579 -0.003868 0.014163 0.000000 -0.002908 0.000000
# 4 0.000000 0.000000 0.000000 0.032610 0.000000 0.003090
# 5 0.006353 0.001899 -0.002908 0.000000 0.051217 0.000000
# 6 0.000000 0.000000 0.000000 0.003090 0.000000 0.035845
#
#
# Mechanical properties :
#
#
# Convention : Reuss Voigt Hill
#
# Bulk Modulus (GPa) = 66.57719 72.36996 69.47357
# Shear Modulus (GPa) = 27.31330 29.42731 28.37030
#
# Velocity S-wave (km/s) = 3.71032 3.85123 3.78143
# Velocity P-wave (km/s) = 7.20497 7.50013 7.35403
#
# Compressibility (1/GPa) = 0.01502016
#
# Stress axis : x y z
#
# Youngs Moduli (GPa) = 79.73253 100.03800 70.60572
#
# Poissons Ratio (x) = 0.33945 0.25273
# Poissons Ratio (y) = 0.27055 0.27310
# Poissons Ratio (z) = 0.28540 0.38694
#
# Static dielectric constant tensor:
#      x y z
#    x 3.687430 0.000000 -0.128910 
#    y 0.000000 3.650130 0.000000 
#    z -0.128910 0.000000 3.541850 
# 
# 
# High freq. dielectric constant tensor:
#      x y z
#    x 1.776720 0.000000 -0.005520 
#    y 0.000000 1.782850 0.000000 
#    z -0.005520 0.000000 1.767190 
# 
# From -- ./inp_files/218119.got.cif
#   From: 2010.06.25/outbox.cif.g09.slc.cpg/sg15_110_cif.got.tgz:218119.got - 2010.06.28 07:06:18.
