data_PCOD8138387
_publ_section_title
;
Structure prediction by ZEFSAII (Michael W. Deem and Ramdas Pophale) SiO2 
 PCOD8138387
Probable space group: C 2/C
;
_chemical_formula_sum "Si O2"
_cell_formula_units_Z 64
_cell_length_a 29.199421
_cell_length_b 19.851920
_cell_length_c 14.638755
_cell_angle_alpha 90.000000
_cell_angle_beta 159.682980
_cell_angle_gamma 90.000000
_cell_volume 2946.309919
_symmetry_space_group_name_H-M "C 2/C"
_symmetry_group_IT_number 15
_symmetry_cell_setting 'monoclinic'
loop_
_space_group_symop_operation_xyz
x,y,z
-x,y,1/2-z
-x,-y,-z
x,-y,1/2+z
1/2+x,1/2+y,z
1/2-x,1/2+y,1/2-z
1/2-x,1/2-y,-z
1/2+x,1/2-y,1/2+z
loop_
_atom_site_type_symbol
_atom_site_label
_atom_site_fract_x
_atom_site_fract_y
_atom_site_fract_z
Si Si1 0.405044 0.690719 0.769790
Si Si2 0.432606 0.064978 0.495451
Si Si3 0.409412 0.610271 0.492496
Si Si4 0.809632 0.513005 0.448330
Si Si5 0.964831 0.721604 0.554935
Si Si6 0.336651 0.900613 0.634506
Si Si7 0.018301 0.305727 0.885365
Si Si8 0.778350 0.266533 0.860125
O O1 0.262310 0.660112 0.522221
O O2 0.420097 0.739712 0.708731
O O3 0.504439 0.629453 0.935587
O O4 0.453769 0.740937 0.938995
O O5 0.362591 0.019819 0.443043
O O6 0.412086 0.145119 0.464140
O O7 0.364820 0.047175 0.270643
O O8 0.588250 0.049923 0.792108
O O9 0.336616 0.542820 0.324029
O O10 0.297649 0.664795 0.307794
O O11 0.500000 0.596109 0.750000
O O12 0.791255 0.437915 0.456346
O O13 0.867713 0.760457 0.443211
O O14 0.119828 0.721979 0.867077
O O15 0.476396 0.864126 0.877073
O O16 0.000000 0.334356 0.750000
O O17 0.171213 0.288854 0.190407
#
# Coordination Sequence:
#
# PCOD8138387 Si02
#       8
#     8   8   8   8   8   8   8   8
#     4  11  24  38  65  99 136 168 220 275 344 403
#     4  11  22  43  70  97 129 175 228 275 340 400
#     4  11  22  40  68  99 127 178 230 274 333 404
#     4  11  24  45  68  95 135 177 234 277 327 401
#     4  11  20  39  68  97 134 171 213 270 347 401
#     4  12  26  43  69  98 139 181 224 283 335 402
#     4  11  24  38  63 100 135 169 217 274 338 394
#     4  10  20  37  63  98 132 170 215 271 332 412
#
# _framework density 21.722087999999999
#
# number of rings (size 3 to 8) (size 9 to 14) (size 15 to 20)
#    0.000    1.000    3.750    4.500    3.500    3.500 
#    0.000    0.000    8.250    0.000    0.000    0.000 
#    0.000    0.000    0.000    0.000    0.000    0.000 
#
# Total GULP energy -396506.217863 kJ/mol
# GULP energy per Si atom -12390.819308 kJ/mol
# Density = 2.167265 g / cm^3
# Si number density = 21.722088 Si / 1000 Ang^3
#
#
#
# Elastic Constant Matrix: (Units=GPa)
#
#
# Indices 1 2 3 4 5 6 
#
# 1 105.7036 32.1876 40.9179 0.0000 3.0466 0.0000
# 2 32.1876 40.7628 19.9420 0.0000 2.7799 0.0000
# 3 40.9179 19.9420 111.0229 0.0000 5.9090 0.0000
# 4 0.0000 0.0000 0.0000 30.0145 0.0000 -6.3893
# 5 3.0466 2.7799 5.9090 0.0000 35.8145 0.0000
# 6 0.0000 0.0000 0.0000 -6.3893 0.0000 32.7593
#
#
#
# Elastic Compliance Matrix: (Units=1/GPa)
#
#
# Indices 1 2 3 4 5 6 
#
# 1 0.013508 -0.009029 -0.003362 0.000000 0.000107 0.000000
# 2 -0.009029 0.032991 -0.002525 0.000000 -0.001376 0.000000
# 3 -0.003362 -0.002525 0.010769 0.000000 -0.001295 0.000000
# 4 0.000000 0.000000 0.000000 0.034760 0.000000 0.006780
# 5 0.000107 -0.001376 -0.001295 0.000000 0.028233 0.000000
# 6 0.000000 0.000000 0.000000 0.006780 0.000000 0.031848
#
#
# Mechanical properties :
#
#
# Convention : Reuss Voigt Hill
#
# Bulk Modulus (GPa) = 36.44930 49.28715 42.86823
# Shear Modulus (GPa) = 26.16610 30.68045 28.42328
#
# Velocity S-wave (km/s) = 3.47448 3.76228 3.62124
# Velocity P-wave (km/s) = 5.73692 6.45075 6.10428
#
# Compressibility (1/GPa) = 0.02743537
#
# Stress axis : x y z
#
# Youngs Moduli (GPa) = 74.02850 30.31154 92.86052
#
# Poissons Ratio (x) = 0.27368 0.31224
# Poissons Ratio (y) = 0.66839 0.23447
# Poissons Ratio (z) = 0.24892 0.07654
#
# Static dielectric constant tensor:
#      x y z
#    x 4.180150 0.000000 0.052890 
#    y 0.000000 3.675740 0.000000 
#    z 0.052890 0.000000 3.961480 
# 
# 
# High freq. dielectric constant tensor:
#      x y z
#    x 1.865560 0.000000 0.007150 
#    y 0.000000 1.821060 0.000000 
#    z 0.007150 0.000000 1.852720 
# 
# From -- ./inp_files/183143.got.cif
#   From: 2010.06.25/outbox.cif.g09.slc.cpg/sg15_92_cif.got.tgz:183143.got - 2010.06.28 07:06:18.
