data_PCOD8138726
_publ_section_title
;
Structure prediction by ZEFSAII (Michael W. Deem and Ramdas Pophale) SiO2 
 PCOD8138726
Probable space group: C 2/C
;
_chemical_formula_sum "Si O2"
_cell_formula_units_Z 60
_cell_length_a 8.415768
_cell_length_b 13.920373
_cell_length_c 23.514128
_cell_angle_alpha 90.000000
_cell_angle_beta 84.376603
_cell_angle_gamma 90.000000
_cell_volume 2741.437845
_symmetry_space_group_name_H-M "C 2/C"
_symmetry_group_IT_number 15
_symmetry_cell_setting 'monoclinic'
loop_
_space_group_symop_operation_xyz
x,y,z
-x,y,1/2-z
-x,-y,-z
x,-y,1/2+z
1/2+x,1/2+y,z
1/2-x,1/2+y,1/2-z
1/2-x,1/2-y,-z
1/2+x,1/2-y,1/2+z
loop_
_atom_site_type_symbol
_atom_site_label
_atom_site_fract_x
_atom_site_fract_y
_atom_site_fract_z
Si Si1 0.584420 0.519179 0.938316
Si Si2 0.759531 0.879683 0.647810
Si Si3 0.562917 0.807910 0.354673
Si Si4 0.396118 0.593221 0.841656
Si Si5 0.076736 0.714458 0.339944
Si Si6 0.500000 0.096079 0.750000
Si Si7 0.245504 0.950879 0.731749
Si Si8 0.729825 0.792657 0.062647
O O1 0.673026 0.424396 0.912489
O O2 0.450397 0.554923 0.900166
O O3 0.719016 0.597957 0.941354
O O4 0.500000 0.500000 0.000000
O O5 0.868062 0.793800 0.665324
O O6 0.576369 0.851763 0.642594
O O7 0.780236 0.952629 0.699607
O O8 0.715356 0.874792 0.360613
O O9 0.445606 0.837505 0.305517
O O10 0.456749 0.796205 0.414671
O O11 0.512750 0.682209 0.816805
O O12 0.401003 0.500398 0.798194
O O13 0.192832 0.654238 0.292658
O O14 0.169586 0.729787 0.395655
O O15 0.376669 0.032407 0.720072
O O16 0.750000 0.750000 0.000000
#
# Coordination Sequence:
#
# PCOD8138726 Si02
#       8
#     8   8   8   8   8   4   8   8
#     4  11  25  45  67  94 132 172 230 284 337 413
#     4  11  23  42  64 100 129 179 221 279 349 415
#     4  10  23  41  65  92 132 167 223 270 341 403
#     4   9  24  44  64  99 132 177 219 282 341 414
#     4  10  23  44  66  97 139 178 224 276 352 416
#     4  10  20  38  60  96 126 168 214 272 332 414
#     4  11  21  41  69  94 141 169 229 272 349 421
#     4  11  25  44  67  96 132 177 228 284 342 411
#
# _framework density 21.886327000000001
#
# number of rings (size 3 to 8) (size 9 to 14) (size 15 to 20)
#    0.000    1.600    1.333    1.600    7.467    1.600 
#   16.800    5.333    0.000    0.000    0.000    0.000 
#    0.000    0.000    0.000    0.000    0.000    0.000 
#
# Total GULP energy -371691.935344 kJ/mol
# GULP energy per Si atom -12389.731178 kJ/mol
# Density = 2.183651 g / cm^3
# Si number density = 21.886327 Si / 1000 Ang^3
#
#
#
# Elastic Constant Matrix: (Units=GPa)
#
#
# Indices 1 2 3 4 5 6 
#
# 1 72.8469 28.2289 15.2893 0.0000 5.4339 0.0000
# 2 28.2289 83.5146 21.9008 0.0000 8.0907 0.0000
# 3 15.2893 21.9008 105.6042 0.0000 -1.5914 0.0000
# 4 0.0000 0.0000 0.0000 39.8940 0.0000 3.5924
# 5 5.4339 8.0907 -1.5914 0.0000 29.8551 0.0000
# 6 0.0000 0.0000 0.0000 3.5924 0.0000 12.4894
#
#
#
# Elastic Compliance Matrix: (Units=1/GPa)
#
#
# Indices 1 2 3 4 5 6 
#
# 1 0.016033 -0.004910 -0.001328 0.000000 -0.001658 0.000000
# 2 -0.004910 0.014559 -0.002356 0.000000 -0.003177 0.000000
# 3 -0.001328 -0.002356 0.010172 0.000000 0.001422 0.000000
# 4 0.000000 0.000000 0.000000 0.025733 0.000000 -0.007402
# 5 -0.001658 -0.003177 0.001422 0.000000 0.034734 0.000000
# 6 0.000000 0.000000 0.000000 -0.007402 0.000000 0.082197
#
#
# Mechanical properties :
#
#
# Convention : Reuss Voigt Hill
#
# Bulk Modulus (GPa) = 42.41856 43.64486 43.03171
# Shear Modulus (GPa) = 23.98372 29.55082 26.76727
#
# Velocity S-wave (km/s) = 3.31393 3.67849 3.50095
# Velocity P-wave (km/s) = 5.83662 6.16657 6.00386
#
# Compressibility (1/GPa) = 0.02357459
#
# Stress axis : x y z
#
# Youngs Moduli (GPa) = 62.37292 68.68382 98.31215
#
# Poissons Ratio (x) = 0.33726 0.13054
# Poissons Ratio (y) = 0.30627 0.23166
# Poissons Ratio (z) = 0.08282 0.16185
#
# Static dielectric constant tensor:
#      x y z
#    x 4.382250 0.000000 0.294830 
#    y 0.000000 4.255200 0.000000 
#    z 0.294830 0.000000 3.811230 
# 
# 
# High freq. dielectric constant tensor:
#      x y z
#    x 1.868000 0.000000 0.001870 
#    y 0.000000 1.876140 0.000000 
#    z 0.001870 0.000000 1.848120 
# 
# From -- ./inp_files/264651.got.cif
#   From: 2010.06.25/outbox.cif.g09.slc.cpg/sg15_133_cif.got.tgz:264651.got - 2010.06.28 07:06:18.
