data_PCOD8138656
_publ_section_title
;
Structure prediction by ZEFSAII (Michael W. Deem and Ramdas Pophale) SiO2 
 PCOD8138656
Probable space group: C 2/C
;
_chemical_formula_sum "Si O2"
_cell_formula_units_Z 64
_cell_length_a 18.705661
_cell_length_b 11.850855
_cell_length_c 30.314144
_cell_angle_alpha 90.000000
_cell_angle_beta 27.790603
_cell_angle_gamma 90.000000
_cell_volume 3133.134450
_symmetry_space_group_name_H-M "C 2/C"
_symmetry_group_IT_number 15
_symmetry_cell_setting 'monoclinic'
loop_
_space_group_symop_operation_xyz
x,y,z
-x,y,1/2-z
-x,-y,-z
x,-y,1/2+z
1/2+x,1/2+y,z
1/2-x,1/2+y,1/2-z
1/2-x,1/2-y,-z
1/2+x,1/2-y,1/2+z
loop_
_atom_site_type_symbol
_atom_site_label
_atom_site_fract_x
_atom_site_fract_y
_atom_site_fract_z
Si Si1 0.219661 0.507530 0.458494
Si Si2 0.833292 0.557596 0.916365
Si Si3 0.840958 0.769534 0.861215
Si Si4 0.642377 0.228218 0.389758
Si Si5 0.138194 0.478526 0.363029
Si Si6 0.324180 0.928985 0.837899
Si Si7 0.299135 0.810721 0.092442
Si Si8 0.692696 0.935666 0.235581
O O1 0.243885 0.507628 0.497641
O O2 0.338164 0.600282 0.375999
O O3 0.266265 0.388218 0.411598
O O4 0.045184 0.535544 0.539682
O O5 0.806075 0.690740 0.922468
O O6 0.753653 0.483498 0.920968
O O7 0.014390 0.553476 0.823546
O O8 0.701831 0.739602 0.905207
O O9 0.000000 0.738915 0.750000
O O10 0.460179 0.242357 0.488765
O O11 0.728720 0.312431 0.309018
O O12 0.687565 0.099375 0.354843
O O13 0.194348 0.381447 0.365726
O O14 0.222119 0.472725 0.269909
O O15 0.500000 0.962656 0.750000
O O16 0.313189 0.794270 0.840366
O O17 0.242192 0.982289 0.838855
#
# Coordination Sequence:
#
# PCOD8138656 Si02
#       8
#     8   8   8   8   8   8   8   8
#     4  10  21  38  59  84 114 155 191 235 289 346
#     4  10  20  38  60  82 114 154 194 236 289 336
#     4  12  19  35  60  88 117 145 192 247 290 330
#     4  11  20  39  61  85 118 151 193 238 288 340
#     4  10  21  38  60  85 115 155 192 234 291 343
#     4  10  22  40  59  84 116 155 193 233 285 344
#     4  11  22  39  61  82 120 158 187 233 290 347
#     4  10  21  38  61  85 115 153 194 239 285 337
#
# _framework density 20.426829000000001
#
# number of rings (size 3 to 8) (size 9 to 14) (size 15 to 20)
#    0.000    1.500    5.000    1.500    1.750    1.500 
#    0.000    1.250    0.000    0.000    0.000    0.000 
#    0.000    0.000    0.000    0.000    0.000    0.000 
#
# Total GULP energy -396528.650630 kJ/mol
# GULP energy per Si atom -12391.520332 kJ/mol
# Density = 2.038034 g / cm^3
# Si number density = 20.426829 Si / 1000 Ang^3
#
#
#
# Elastic Constant Matrix: (Units=GPa)
#
#
# Indices 1 2 3 4 5 6 
#
# 1 97.5075 38.4064 31.5070 -0.0001 32.2253 0.0002
# 2 38.4064 112.1560 22.5725 -0.0005 14.3133 -0.0002
# 3 31.5070 22.5725 25.0033 -0.0037 23.6438 -0.0002
# 4 -0.0001 -0.0005 -0.0037 30.8358 -0.0002 2.7520
# 5 32.2253 14.3133 23.6438 -0.0002 25.3548 0.0000
# 6 0.0002 -0.0002 -0.0002 2.7520 0.0000 20.3228
#
#
#
# Elastic Compliance Matrix: (Units=1/GPa)
#
#
# Indices 1 2 3 4 5 6 
#
# 1 0.019022 -0.003959 0.002986 0.000000 -0.024726 0.000000
# 2 -0.003959 0.014108 -0.042094 -0.000005 0.036321 0.000001
# 3 0.002986 -0.042094 0.468355 0.000053 -0.416782 -0.000004
# 4 0.000000 -0.000005 0.000053 0.032827 -0.000047 -0.004445
# 5 -0.024726 0.036321 -0.416782 -0.000047 0.439020 0.000004
# 6 0.000000 0.000001 -0.000004 -0.004445 0.000004 0.049808
#
#
# Mechanical properties :
#
#
# Convention : Reuss Voigt Hill
#
# Bulk Modulus (GPa) = 2.40760 46.62651 24.51706
# Shear Modulus (GPa) = 4.00730 24.78140 14.39435
#
# Velocity S-wave (km/s) = 1.40216 3.48685 2.65746
# Velocity P-wave (km/s) = 1.95002 6.25192 4.63083
#
# Compressibility (1/GPa) = 0.41535128
#
# Stress axis : x y z
#
# Youngs Moduli (GPa) = 52.57105 70.87942 2.13513
#
# Poissons Ratio (x) = 0.28063 -0.00638
# Poissons Ratio (y) = 0.20814 0.08988
# Poissons Ratio (z) = -0.15697 2.98358
#
# Static dielectric constant tensor:
#      x y z
#    x 3.960210 0.000000 0.360870 
#    y 0.000000 3.746280 0.000000 
#    z 0.360870 0.000000 3.560090 
# 
# 
# High freq. dielectric constant tensor:
#      x y z
#    x 1.801270 0.000000 0.019510 
#    y 0.000000 1.802800 0.000000 
#    z 0.019510 0.000000 1.770420 
# 
# From -- ./inp_files/316196.got.cif
#   From: 2010.06.25/outbox.cif.g09.slc.cpg/sg15_159_cif.got.tgz:316196.got - 2010.06.28 07:06:18.
