data_PCOD8138315
_publ_section_title
;
Structure prediction by ZEFSAII (Michael W. Deem and Ramdas Pophale) SiO2 
 PCOD8138315
Probable space group: C 2/C
;
_chemical_formula_sum "Si O2"
_cell_formula_units_Z 56
_cell_length_a 11.407238
_cell_length_b 31.902574
_cell_length_c 8.664175
_cell_angle_alpha 90.000000
_cell_angle_beta 62.508720
_cell_angle_gamma 90.000000
_cell_volume 2797.027706
_symmetry_space_group_name_H-M "C 2/C"
_symmetry_group_IT_number 15
_symmetry_cell_setting 'monoclinic'
loop_
_space_group_symop_operation_xyz
x,y,z
-x,y,1/2-z
-x,-y,-z
x,-y,1/2+z
1/2+x,1/2+y,z
1/2-x,1/2+y,1/2-z
1/2-x,1/2-y,-z
1/2+x,1/2-y,1/2+z
loop_
_atom_site_type_symbol
_atom_site_label
_atom_site_fract_x
_atom_site_fract_y
_atom_site_fract_z
Si Si1 0.500000 0.409229 0.250000
Si Si2 0.827080 0.892140 0.618965
Si Si3 0.112442 0.367928 0.293278
Si Si4 0.421364 0.838906 0.659016
Si Si5 0.500000 0.658929 0.250000
Si Si6 0.152888 0.972161 0.696275
Si Si7 0.296652 0.446437 0.172847
Si Si8 0.756699 0.700613 0.000527
O O1 0.380036 0.384732 0.409833
O O2 0.445566 0.435640 0.136903
O O3 0.678669 0.874530 0.718540
O O4 0.826160 0.940179 0.675354
O O5 0.927283 0.869438 0.671594
O O6 0.212531 0.405520 0.262260
O O7 0.176691 0.325135 0.181330
O O8 0.000000 0.385652 0.250000
O O9 0.043978 0.358826 0.495351
O O10 0.500000 0.815648 0.750000
O O11 0.337964 0.806862 0.607965
O O12 0.394862 0.687053 0.402667
O O13 0.217383 0.954840 0.500192
O O14 0.000000 0.982342 0.750000
O O15 0.236033 0.012951 0.702163
O O16 0.750000 0.750000 0.000000
#
# Coordination Sequence:
#
# PCOD8138315 Si02
#       8
#     4   8   8   8   4   8   8   8
#     4  12  20  33  58  86 124 148 206 262 314 367
#     4  11  21  37  62  90 122 164 205 261 318 363
#     4  10  22  43  64  85 124 171 209 249 311 388
#     4  10  22  41  63  91 128 169 202 253 316 385
#     4  10  20  37  62  94 122 150 210 262 306 377
#     4  12  21  37  55  88 126 156 215 266 316 366
#     4  12  23  36  58  90 120 166 209 262 319 360
#     4  10  22  39  70  94 119 163 208 257 309 387
#
# _framework density 20.021253000000002
#
# number of rings (size 3 to 8) (size 9 to 14) (size 15 to 20)
#    0.000    1.143    2.857    5.571    3.000    0.000 
#    0.000    4.286    6.286    0.000    0.000    0.000 
#    0.000    0.000    0.000    0.000    0.000    0.000 
#
# Total GULP energy -346879.876621 kJ/mol
# GULP energy per Si atom -12388.567022 kJ/mol
# Density = 1.997568 g / cm^3
# Si number density = 20.021253 Si / 1000 Ang^3
#
#
#
# Elastic Constant Matrix: (Units=GPa)
#
#
# Indices 1 2 3 4 5 6 
#
# 1 88.8275 40.4260 35.8733 0.0000 -4.2493 0.0000
# 2 40.4260 132.3932 40.7867 0.0000 -13.0484 0.0000
# 3 35.8733 40.7867 143.5581 0.0000 -11.2946 0.0000
# 4 0.0000 0.0000 0.0000 7.3083 0.0000 10.9181
# 5 -4.2493 -13.0484 -11.2946 0.0000 29.7292 0.0000
# 6 0.0000 0.0000 0.0000 10.9181 0.0000 -22.1244
#
#
#
# Elastic Compliance Matrix: (Units=1/GPa)
#
#
# Indices 1 2 3 4 5 6 
#
# 1 0.013839 -0.003505 -0.002503 0.000000 -0.000511 0.000000
# 2 -0.003505 0.009402 -0.001557 0.000000 0.003034 0.000000
# 3 -0.002503 -0.001557 0.008197 0.000000 0.002073 0.000000
# 4 0.000000 0.000000 0.000000 0.078764 0.000000 0.038869
# 5 -0.000511 0.003034 0.002073 0.000000 0.035683 0.000000
# 6 0.000000 0.000000 0.000000 0.038869 0.000000 -0.026018
#
#
# Mechanical properties :
#
#
# Convention : Reuss Voigt Hill
#
# Bulk Modulus (GPa) = 61.31545 66.55011 63.93278
# Shear Modulus (GPa) = 35.60434 19.49548 27.54991
#
# Velocity S-wave (km/s) = 4.22160 3.12386 3.71352
# Velocity P-wave (km/s) = 7.37931 6.80612 7.09850
#
# Compressibility (1/GPa) = 0.01630910
#
# Stress axis : x y z
#
# Youngs Moduli (GPa) = 72.25827 106.35839 122.00251
#
# Poissons Ratio (x) = 0.37281 0.30532
# Poissons Ratio (y) = 0.25328 0.18992
# Poissons Ratio (z) = 0.18083 0.16556
#
# Static dielectric constant tensor:
#      x y z
#    x 4.079780 0.000000 0.114430 
#    y 0.000000 3.520090 0.000000 
#    z 0.114430 0.000000 4.254030 
# 
# 
# High freq. dielectric constant tensor:
#      x y z
#    x 1.787210 0.000000 0.005100 
#    y 0.000000 1.760480 0.000000 
#    z 0.005100 0.000000 1.791900 
# 
# From -- ./inp_files/35616.got.cif
#   From: 2010.06.25/outbox.cif.g09.slc.cpg/sg15_18_cif.got.tgz:35616.got - 2010.06.28 07:06:18.
