data_PCOD8138785
_publ_section_title
;
Structure prediction by ZEFSAII (Michael W. Deem and Ramdas Pophale) SiO2 
 PCOD8138785
Probable space group: C 2/C
;
_chemical_formula_sum "Si O2"
_cell_formula_units_Z 60
_cell_length_a 17.145997
_cell_length_b 8.257984
_cell_length_c 22.822952
_cell_angle_alpha 90.000000
_cell_angle_beta 120.367583
_cell_angle_gamma 90.000000
_cell_volume 2788.166158
_symmetry_space_group_name_H-M "C 2/C"
_symmetry_group_IT_number 15
_symmetry_cell_setting 'monoclinic'
loop_
_space_group_symop_operation_xyz
x,y,z
-x,y,1/2-z
-x,-y,-z
x,-y,1/2+z
1/2+x,1/2+y,z
1/2-x,1/2+y,1/2-z
1/2-x,1/2-y,-z
1/2+x,1/2-y,1/2+z
loop_
_atom_site_type_symbol
_atom_site_label
_atom_site_fract_x
_atom_site_fract_y
_atom_site_fract_z
Si Si1 0.363626 0.504072 0.272543
Si Si2 0.950801 0.709697 0.858804
Si Si3 0.052175 0.380845 0.880507
Si Si4 0.593275 0.696756 0.603113
Si Si5 0.193530 0.474054 0.129399
Si Si6 0.717342 0.006660 0.008963
Si Si7 0.500000 0.700846 0.750000
Si Si8 0.884125 0.154758 0.017345
O O1 0.391950 0.694479 0.287281
O O2 0.360470 0.432979 0.336777
O O3 0.267271 0.470074 0.208105
O O4 0.433616 0.412014 0.259471
O O5 0.885727 0.653456 0.886848
O O6 0.000165 0.551494 0.852277
O O7 0.024654 0.839609 0.909624
O O8 0.153898 0.396792 0.943539
O O9 0.056847 0.309467 0.817047
O O10 0.001111 0.262430 0.906654
O O11 0.659959 0.843947 0.618116
O O12 0.583107 0.612318 0.535867
O O13 0.230927 0.430518 0.078891
O O14 0.666999 0.175877 0.997552
O O15 0.816112 0.018674 0.016738
#
# Coordination Sequence:
#
# PCOD8138785 Si02
#       8
#     8   8   8   8   8   8   4   8
#     4  11  23  38  59  87 125 157 199 257 305 353
#     4  10  21  37  64  89 117 159 210 245 304 366
#     4   9  19  41  61  86 112 164 204 244 305 373
#     4   9  19  38  60  81 122 158 198 249 302 363
#     4  10  20  38  61  90 118 165 201 246 296 374
#     4   9  18  35  61  89 122 152 201 252 301 359
#     4  10  24  42  58  84 124 162 196 254 310 364
#     4   9  18  35  58  94 118 154 198 256 303 355
#
# _framework density 21.519521000000001
#
# number of rings (size 3 to 8) (size 9 to 14) (size 15 to 20)
#    0.000    2.400    0.000    1.600    1.867    4.267 
#   16.800    0.667    0.000    0.000    0.000    0.000 
#    0.000    0.000    0.000    0.000    0.000    0.000 
#
# Total GULP energy -371925.395253 kJ/mol
# GULP energy per Si atom -12397.513175 kJ/mol
# Density = 2.147054 g / cm^3
# Si number density = 21.519521 Si / 1000 Ang^3
#
#
#
# Elastic Constant Matrix: (Units=GPa)
#
#
# Indices 1 2 3 4 5 6 
#
# 1 80.1416 31.4075 45.6763 0.0000 -3.7747 0.0000
# 2 31.4075 58.1868 30.8496 0.0000 -7.0688 0.0000
# 3 45.6763 30.8496 93.6596 0.0000 -9.5357 0.0000
# 4 0.0000 0.0000 0.0000 26.6124 0.0000 10.6167
# 5 -3.7747 -7.0688 -9.5357 0.0000 40.8857 0.0000
# 6 0.0000 0.0000 0.0000 10.6167 0.0000 98.2121
#
#
#
# Elastic Compliance Matrix: (Units=1/GPa)
#
#
# Indices 1 2 3 4 5 6 
#
# 1 0.019169 -0.006619 -0.007278 0.000000 -0.001072 0.000000
# 2 -0.006619 0.023277 -0.004191 0.000000 0.002436 0.000000
# 3 -0.007278 -0.004191 0.015840 0.000000 0.002298 0.000000
# 4 0.000000 0.000000 0.000000 0.039270 0.000000 -0.004245
# 5 -0.001072 0.002436 0.002298 0.000000 0.025317 0.000000
# 6 0.000000 0.000000 0.000000 -0.004245 0.000000 0.010641
#
#
# Mechanical properties :
#
#
# Convention : Reuss Voigt Hill
#
# Bulk Modulus (GPa) = 45.22504 49.76166 47.49335
# Shear Modulus (GPa) = 28.23926 41.41236 34.82581
#
# Velocity S-wave (km/s) = 3.62645 4.39157 4.02722
# Velocity P-wave (km/s) = 6.21259 6.99204 6.61381
#
# Compressibility (1/GPa) = 0.02211165
#
# Stress axis : x y z
#
# Youngs Moduli (GPa) = 52.16734 42.96178 63.12946
#
# Poissons Ratio (x) = 0.28435 0.45943
# Poissons Ratio (y) = 0.34528 0.26457
# Poissons Ratio (z) = 0.37965 0.18005
#
# Static dielectric constant tensor:
#      x y z
#    x 4.361270 0.000000 0.155790 
#    y 0.000000 3.817150 0.000000 
#    z 0.155790 0.000000 4.457150 
# 
# 
# High freq. dielectric constant tensor:
#      x y z
#    x 1.843900 0.000000 0.000750 
#    y 0.000000 1.838200 0.000000 
#    z 0.000750 0.000000 1.847150 
# 
# From -- ./inp_files/247857.got.cif
#   From: 2010.06.25/outbox.cif.g09.slc.cpg/sg15_124_cif.got.tgz:247857.got - 2010.06.28 07:06:18.
