data_PCOD8138608
_publ_section_title
;
Structure prediction by ZEFSAII (Michael W. Deem and Ramdas Pophale) SiO2 
 PCOD8138608
Probable space group: C 2/C
;
_chemical_formula_sum "Si O2"
_cell_formula_units_Z 56
_cell_length_a 25.475172
_cell_length_b 11.015006
_cell_length_c 11.955387
_cell_angle_alpha 90.000000
_cell_angle_beta 52.443169
_cell_angle_gamma 90.000000
_cell_volume 2659.507836
_symmetry_space_group_name_H-M "C 2/C"
_symmetry_group_IT_number 15
_symmetry_cell_setting 'monoclinic'
loop_
_space_group_symop_operation_xyz
x,y,z
-x,y,1/2-z
-x,-y,-z
x,-y,1/2+z
1/2+x,1/2+y,z
1/2-x,1/2+y,1/2-z
1/2-x,1/2-y,-z
1/2+x,1/2-y,1/2+z
loop_
_atom_site_type_symbol
_atom_site_label
_atom_site_fract_x
_atom_site_fract_y
_atom_site_fract_z
Si Si1 0.272095 0.539474 0.472786
Si Si2 0.140400 0.041743 0.462121
Si Si3 0.262008 0.153750 0.198056
Si Si4 0.572135 0.216450 0.036627
Si Si5 0.173003 0.147922 0.754200
Si Si6 0.847470 0.531437 0.700833
Si Si7 0.073398 0.660923 0.284133
O O1 0.343134 0.537476 0.447044
O O2 0.266495 0.651232 0.391673
O O3 0.273007 0.415119 0.397305
O O4 0.209672 0.551710 0.634393
O O5 0.206539 0.121186 0.360449
O O6 0.081312 0.138994 0.548180
O O7 0.127313 0.954244 0.373229
O O8 0.286831 0.288304 0.196412
O O9 0.321362 0.055355 0.134781
O O10 0.575455 0.143635 0.148313
O O11 0.498933 0.202170 0.079713
O O12 0.626789 0.160076 0.881364
O O13 0.128091 0.239332 0.744324
O O14 0.909470 0.466517 0.680440
#
# Coordination Sequence:
#
# PCOD8138608 Si02
#       7
#     8   8   8   8   8   8   8
#     4  10  20  38  58  92 122 152 191 250 311 349
#     4  10  22  34  59  87 122 156 193 251 291 373
#     4   9  21  34  59  87 119 156 192 243 304 364
#     4  11  22  39  60  90 114 160 212 236 308 354
#     4  10  21  40  58  88 120 156 202 239 310 355
#     4  10  21  36  60  89 118 151 198 255 300 356
#     4  10  22  39  64  81 119 163 199 257 285 364
#
# _framework density 21.056528
#
# number of rings (size 3 to 8) (size 9 to 14) (size 15 to 20)
#    0.000    2.000    1.429    1.286    8.000    2.857 
#    2.571    0.000    0.000    0.000    0.000    0.000 
#    0.000    0.000    0.000    0.000    0.000    0.000 
#
# Total GULP energy -347055.253234 kJ/mol
# GULP energy per Si atom -12394.830473 kJ/mol
# Density = 2.100860 g / cm^3
# Si number density = 21.056528 Si / 1000 Ang^3
#
#
#
# Elastic Constant Matrix: (Units=GPa)
#
#
# Indices 1 2 3 4 5 6 
#
# 1 75.1718 13.1580 23.5514 0.0000 6.0780 0.0000
# 2 13.1580 51.3987 24.4788 0.0000 8.8175 0.0000
# 3 23.5514 24.4788 85.6026 0.0000 10.2972 0.0000
# 4 0.0000 0.0000 0.0000 24.9010 0.0000 6.7510
# 5 6.0780 8.8175 10.2972 0.0000 27.3884 0.0000
# 6 0.0000 0.0000 0.0000 6.7510 0.0000 28.0013
#
#
#
# Elastic Compliance Matrix: (Units=1/GPa)
#
#
# Indices 1 2 3 4 5 6 
#
# 1 0.014807 -0.001957 -0.003346 0.000000 -0.001398 0.000000
# 2 -0.001957 0.023471 -0.005568 0.000000 -0.005029 0.000000
# 3 -0.003346 -0.005568 0.014548 0.000000 -0.002934 0.000000
# 4 0.000000 0.000000 0.000000 0.042968 0.000000 -0.010359
# 5 -0.001398 -0.005029 -0.002934 0.000000 0.039544 0.000000
# 6 0.000000 0.000000 0.000000 -0.010359 0.000000 0.038210
#
#
# Mechanical properties :
#
#
# Convention : Reuss Voigt Hill
#
# Bulk Modulus (GPa) = 32.17215 37.17216 34.67216
# Shear Modulus (GPa) = 24.31290 26.12377 25.21834
#
# Velocity S-wave (km/s) = 3.40170 3.52611 3.46446
# Velocity P-wave (km/s) = 5.54444 5.85404 5.70134
#
# Compressibility (1/GPa) = 0.03108279
#
# Stress axis : x y z
#
# Youngs Moduli (GPa) = 67.53680 42.60493 68.73922
#
# Poissons Ratio (x) = 0.08339 0.22999
# Poissons Ratio (y) = 0.13218 0.38277
# Poissons Ratio (z) = 0.22597 0.23724
#
# Static dielectric constant tensor:
#      x y z
#    x 4.013950 0.000000 0.239510 
#    y 0.000000 3.788790 0.000000 
#    z 0.239510 0.000000 3.611810 
# 
# 
# High freq. dielectric constant tensor:
#      x y z
#    x 1.820710 0.000000 0.020800 
#    y 0.000000 1.820930 0.000000 
#    z 0.020800 0.000000 1.806950 
# 
# From -- ./inp_files/117473.got.cif
#   From: 2010.06.25/outbox.cif.g09.slc.cpg/sg15_59_cif.got.tgz:117473.got - 2010.06.28 07:06:18.
