data_PCOD8138173
_publ_section_title
;
Structure prediction by ZEFSAII (Michael W. Deem and Ramdas Pophale) SiO2 
 PCOD8138173
Probable space group: C 2/C
;
_chemical_formula_sum "Si O2"
_cell_formula_units_Z 56
_cell_length_a 25.784499
_cell_length_b 11.958413
_cell_length_c 25.791584
_cell_angle_alpha 90.000000
_cell_angle_beta 160.406984
_cell_angle_gamma 90.000000
_cell_volume 2666.805820
_symmetry_space_group_name_H-M "C 2/C"
_symmetry_group_IT_number 15
_symmetry_cell_setting 'monoclinic'
loop_
_space_group_symop_operation_xyz
x,y,z
-x,y,1/2-z
-x,-y,-z
x,-y,1/2+z
1/2+x,1/2+y,z
1/2-x,1/2+y,1/2-z
1/2-x,1/2-y,-z
1/2+x,1/2-y,1/2+z
loop_
_atom_site_type_symbol
_atom_site_label
_atom_site_fract_x
_atom_site_fract_y
_atom_site_fract_z
Si Si1 0.659685 0.184869 0.602858
Si Si2 0.298203 0.868155 0.022255
Si Si3 0.170810 0.048634 0.663293
Si Si4 0.643179 0.080497 0.816573
Si Si5 0.715961 0.312830 0.840094
Si Si6 0.479565 0.265371 0.534361
Si Si7 0.642088 0.894183 0.731396
O O1 0.778766 0.085219 0.730924
O O2 0.579693 0.222374 0.580983
O O3 0.534933 0.140296 0.444700
O O4 0.751782 0.284735 0.661919
O O5 0.277785 0.950672 0.052593
O O6 0.473395 0.870919 0.167426
O O7 0.250000 0.750000 0.000000
O O8 0.194824 0.889120 0.872457
O O9 0.162394 0.159089 0.620109
O O10 0.296917 0.962759 0.760670
O O11 0.000000 0.000000 0.500000
O O12 0.729004 0.181205 0.868020
O O13 0.649830 0.966280 0.790729
O O14 0.583319 0.336340 0.672959
O O15 0.887274 0.336105 0.976030
#
# Coordination Sequence:
#
# PCOD8138173 Si02
#       7
#     8   8   8   8   8   8   8
#     4  12  24  41  60  92 137 180 217 273 313 383
#     4   9  20  37  60  90 123 154 206 275 335 382
#     4  12  24  39  58  90 133 177 220 267 310 390
#     4  10  20  37  60  88 120 162 209 267 324 392
#     4  11  20  33  59  89 128 168 198 251 332 399
#     4  12  20  35  56  89 131 170 204 252 323 379
#     4  12  23  41  65  89 130 179 224 267 330 394
#
# _framework density 20.998905000000001
#
# number of rings (size 3 to 8) (size 9 to 14) (size 15 to 20)
#    0.000    0.857    7.143    0.429    0.000    1.143 
#    0.000    0.000    0.000    3.429    0.000    0.000 
#    0.000    0.000    0.000    0.000    0.000    0.000 
#
# Total GULP energy -346883.088283 kJ/mol
# GULP energy per Si atom -12388.681724 kJ/mol
# Density = 2.095111 g / cm^3
# Si number density = 20.998905 Si / 1000 Ang^3
#
#
#
# Elastic Constant Matrix: (Units=GPa)
#
#
# Indices 1 2 3 4 5 6 
#
# 1 87.9852 28.7480 34.6630 -0.0040 -11.7938 -0.0016
# 2 28.7480 74.0770 30.9910 -0.0145 0.5564 -0.0062
# 3 34.6630 30.9910 104.5341 -0.0183 -12.4563 -0.0078
# 4 -0.0040 -0.0145 -0.0183 32.4008 -0.0106 -0.5109
# 5 -11.7938 0.5564 -12.4563 -0.0106 39.9913 -0.0033
# 6 -0.0016 -0.0062 -0.0078 -0.5109 -0.0033 28.9540
#
#
#
# Elastic Compliance Matrix: (Units=1/GPa)
#
#
# Indices 1 2 3 4 5 6 
#
# 1 0.014456 -0.004335 -0.003109 -0.000001 0.003355 -0.000001
# 2 -0.004335 0.016823 -0.003874 0.000004 -0.002719 0.000002
# 3 -0.003109 -0.003874 0.012092 0.000006 0.002903 0.000003
# 4 -0.000001 0.000004 0.000006 0.030872 0.000010 0.000545
# 5 0.003355 -0.002719 0.002903 0.000010 0.026937 0.000004
# 6 -0.000001 0.000002 0.000003 0.000545 0.000004 0.034547
#
#
# Mechanical properties :
#
#
# Convention : Reuss Voigt Hill
#
# Bulk Modulus (GPa) = 48.22615 50.60004 49.41309
# Shear Modulus (GPa) = 30.25273 31.74884 31.00078
#
# Velocity S-wave (km/s) = 3.79975 3.89257 3.84644
# Velocity P-wave (km/s) = 6.50128 6.65970 6.58097
#
# Compressibility (1/GPa) = 0.02073564
#
# Stress axis : x y z
#
# Youngs Moduli (GPa) = 69.17357 59.44259 82.70223
#
# Poissons Ratio (x) = 0.25768 0.25710
# Poissons Ratio (y) = 0.29986 0.32039
# Poissons Ratio (z) = 0.21504 0.23028
#
# Static dielectric constant tensor:
#      x y z
#    x 4.167160 0.000060 -0.251410 
#    y 0.000060 3.761400 -0.000050 
#    z -0.251410 -0.000050 4.138130 
# 
# 
# High freq. dielectric constant tensor:
#      x y z
#    x 1.821270 0.000000 -0.003670 
#    y 0.000000 1.775700 0.000000 
#    z -0.003670 0.000000 1.838400 
# 
# From -- ./inp_files/303284.got.cif
#   From: 2010.06.25/outbox.cif.g09.slc.cpg/sg15_152_cif.got.tgz:303284.got - 2010.06.28 07:06:18.
