data_PCOD8138367
_publ_section_title
;
Structure prediction by ZEFSAII (Michael W. Deem and Ramdas Pophale) SiO2 
 PCOD8138367
Probable space group: C 2/C
;
_chemical_formula_sum "Si O2"
_cell_formula_units_Z 56
_cell_length_a 15.505218
_cell_length_b 12.860387
_cell_length_c 15.558412
_cell_angle_alpha 90.000000
_cell_angle_beta 57.700576
_cell_angle_gamma 90.000000
_cell_volume 2622.353297
_symmetry_space_group_name_H-M "C 2/C"
_symmetry_group_IT_number 15
_symmetry_cell_setting 'monoclinic'
loop_
_space_group_symop_operation_xyz
x,y,z
-x,y,1/2-z
-x,-y,-z
x,-y,1/2+z
1/2+x,1/2+y,z
1/2-x,1/2+y,1/2-z
1/2-x,1/2-y,-z
1/2+x,1/2-y,1/2+z
loop_
_atom_site_type_symbol
_atom_site_label
_atom_site_fract_x
_atom_site_fract_y
_atom_site_fract_z
Si Si1 0.885020 0.232865 0.334047
Si Si2 0.889134 0.721233 0.143187
Si Si3 0.305471 0.874713 0.514002
Si Si4 0.218632 0.585364 0.040724
Si Si5 0.111420 0.767284 0.017049
Si Si6 0.600258 0.984823 0.754113
Si Si7 0.688731 0.185012 0.794920
O O1 0.815557 0.155139 0.428893
O O2 0.871796 0.342445 0.393037
O O3 0.837663 0.233499 0.265049
O O4 0.000000 0.199210 0.250000
O O5 0.916630 0.621285 0.185439
O O6 0.812468 0.805143 0.228091
O O7 0.856748 0.679752 0.067312
O O8 0.991743 0.788211 0.077498
O O9 0.302755 0.000100 0.522780
O O10 0.334812 0.625959 0.981414
O O11 0.198589 0.530152 0.141923
O O12 0.139895 0.679761 0.071699
O O13 0.150765 0.726707 0.905103
O O14 0.500000 0.012287 0.750000
O O15 0.633402 0.075714 0.802942
#
# Coordination Sequence:
#
# PCOD8138367 Si02
#       7
#     8   8   8   8   8   8   8
#     4  10  20  37  63  91 127 168 208 259 323 369
#     4  11  24  42  64  98 127 167 214 265 320 376
#     4  10  22  39  63  93 128 163 213 264 310 380
#     4  11  23  42  62  94 129 169 210 260 313 387
#     4  11  24  41  65  92 131 168 209 260 322 376
#     4  12  23  41  68  94 128 169 216 260 316 379
#     4  11  23  39  64  96 128 161 215 272 309 371
#
# _framework density 21.354865
#
# number of rings (size 3 to 8) (size 9 to 14) (size 15 to 20)
#    0.000    1.143    4.286    2.143    2.000    1.143 
#    0.000    5.000    0.000    0.000    0.000    0.000 
#    0.000    0.000    0.000    0.000    0.000    0.000 
#
# Total GULP energy -346903.782405 kJ/mol
# GULP energy per Si atom -12389.420800 kJ/mol
# Density = 2.130626 g / cm^3
# Si number density = 21.354865 Si / 1000 Ang^3
#
#
#
# Elastic Constant Matrix: (Units=GPa)
#
#
# Indices 1 2 3 4 5 6 
#
# 1 105.8058 22.9930 36.3744 0.0000 -28.5967 0.0000
# 2 22.9930 63.0512 -4.5042 0.0000 -10.0483 0.0000
# 3 36.3744 -4.5042 81.5261 0.0000 -21.0131 0.0000
# 4 0.0000 0.0000 0.0000 19.3428 0.0000 2.9880
# 5 -28.5967 -10.0483 -21.0131 0.0000 48.9313 0.0000
# 6 0.0000 0.0000 0.0000 2.9880 0.0000 24.3077
#
#
#
# Elastic Compliance Matrix: (Units=1/GPa)
#
#
# Indices 1 2 3 4 5 6 
#
# 1 0.013445 -0.004500 -0.005015 0.000000 0.004780 0.000000
# 2 -0.004500 0.018196 0.003709 0.000000 0.002700 0.000000
# 3 -0.005015 0.003709 0.015911 0.000000 0.004663 0.000000
# 4 0.000000 0.000000 0.000000 0.052700 0.000000 -0.006478
# 5 0.004780 0.002700 0.004663 0.000000 0.025787 0.000000
# 6 0.000000 0.000000 0.000000 -0.006478 0.000000 0.041935
#
#
# Mechanical properties :
#
#
# Convention : Reuss Voigt Hill
#
# Bulk Modulus (GPa) = 27.82470 40.01219 33.91844
# Shear Modulus (GPa) = 26.10057 31.55101 28.82579
#
# Velocity S-wave (km/s) = 3.49983 3.84795 3.67801
# Velocity P-wave (km/s) = 5.42123 6.20643 5.82707
#
# Compressibility (1/GPa) = 0.03593929
#
# Stress axis : x y z
#
# Youngs Moduli (GPa) = 74.37584 54.95658 62.85133
#
# Poissons Ratio (x) = 0.24728 0.31523
# Poissons Ratio (y) = 0.33466 -0.23310
# Poissons Ratio (z) = 0.37303 -0.20382
#
# Static dielectric constant tensor:
#      x y z
#    x 4.068650 0.000000 -0.093430 
#    y 0.000000 3.845730 0.000000 
#    z -0.093430 0.000000 4.034440 
# 
# 
# High freq. dielectric constant tensor:
#      x y z
#    x 1.839480 0.000000 -0.000040 
#    y 0.000000 1.816570 0.000000 
#    z -0.000040 0.000000 1.850730 
# 
# From -- ./inp_files/178349.got.cif
#   From: 2010.06.25/outbox.cif.g09.slc.cpg/sg15_90_cif.got.tgz:178349.got - 2010.06.28 07:06:18.
