data_PCOD8138205
_publ_section_title
;
Structure prediction by ZEFSAII (Michael W. Deem and Ramdas Pophale) SiO2 
 PCOD8138205
Probable space group: C 2/C
;
_chemical_formula_sum "Si O2"
_cell_formula_units_Z 40
_cell_length_a 11.412881
_cell_length_b 14.685659
_cell_length_c 13.510932
_cell_angle_alpha 90.000000
_cell_angle_beta 73.997310
_cell_angle_gamma 90.000000
_cell_volume 2176.756383
_symmetry_space_group_name_H-M "C 2/C"
_symmetry_group_IT_number 15
_symmetry_cell_setting 'monoclinic'
loop_
_space_group_symop_operation_xyz
x,y,z
-x,y,1/2-z
-x,-y,-z
x,-y,1/2+z
1/2+x,1/2+y,z
1/2-x,1/2+y,1/2-z
1/2-x,1/2-y,-z
1/2+x,1/2-y,1/2+z
loop_
_atom_site_type_symbol
_atom_site_label
_atom_site_fract_x
_atom_site_fract_y
_atom_site_fract_z
Si Si1 0.008363 0.565765 0.089733
Si Si2 0.052395 0.263873 0.013950
Si Si3 0.775356 0.320642 0.358178
Si Si4 0.390662 0.668833 0.201689
Si Si5 0.695748 0.022800 0.205001
O O1 0.136837 0.553269 0.114903
O O2 0.001182 0.670025 0.056793
O O3 0.896002 0.542403 0.185495
O O4 0.000000 0.500000 0.000000
O O5 0.146771 0.194184 0.941996
O O6 0.117346 0.322515 0.085258
O O7 0.941809 0.207306 0.086574
O O8 0.799703 0.241628 0.272641
O O9 0.772866 0.416179 0.302483
O O10 0.500000 0.643736 0.250000
O O11 0.320085 0.576618 0.193914
#
# Coordination Sequence:
#
# PCOD8138205 Si02
#       5
#     8   8   8   8   8
#     4  11  21  37  61  89 116 150 202 248 288 345
#     4  10  20  37  61  82 118 160 189 241 298 351
#     4  10  20  38  59  86 119 154 198 237 292 355
#     4  10  22  39  59  87 120 157 200 240 292 359
#     4  11  23  37  61  89 118 155 198 250 293 344
#
# _framework density 18.375965999999998
#
# number of rings (size 3 to 8) (size 9 to 14) (size 15 to 20)
#    0.000    1.600    4.000    1.200    5.600    1.600 
#    0.000    2.000    0.000    0.000    0.000    0.000 
#    0.000    0.000    0.000    0.000    0.000    0.000 
#
# Total GULP energy -248104.926996 kJ/mol
# GULP energy per Si atom -12405.246350 kJ/mol
# Density = 1.833414 g / cm^3
# Si number density = 18.375966 Si / 1000 Ang^3
#
#
#
# Elastic Constant Matrix: (Units=GPa)
#
#
# Indices 1 2 3 4 5 6 
#
# 1 68.4844 58.1455 43.9850 0.0000 2.4897 0.0000
# 2 58.1455 102.9198 24.3684 0.0000 2.1494 0.0000
# 3 43.9850 24.3684 89.0672 0.0000 -8.4955 0.0000
# 4 0.0000 0.0000 0.0000 32.7475 0.0000 4.9415
# 5 2.4897 2.1494 -8.4955 0.0000 27.1515 0.0000
# 6 0.0000 0.0000 0.0000 4.9415 0.0000 28.1491
#
#
#
# Elastic Compliance Matrix: (Units=1/GPa)
#
#
# Indices 1 2 3 4 5 6 
#
# 1 0.041871 -0.019721 -0.015976 0.000000 -0.007277 0.000000
# 2 -0.019721 0.019760 0.004490 0.000000 0.001649 0.000000
# 3 -0.015976 0.004490 0.018548 0.000000 0.006913 0.000000
# 4 0.000000 0.000000 0.000000 0.031368 0.000000 -0.005507
# 5 -0.007277 0.001649 0.006913 0.000000 0.039530 0.000000
# 6 0.000000 0.000000 0.000000 -0.005507 0.000000 0.036492
#
#
# Mechanical properties :
#
#
# Convention : Reuss Voigt Hill
#
# Bulk Modulus (GPa) = 56.28977 57.05214 56.67096
# Shear Modulus (GPa) = 19.53859 26.54113 23.03986
#
# Velocity S-wave (km/s) = 3.26432 3.80457 3.54475
# Velocity P-wave (km/s) = 6.70123 7.10030 6.90365
#
# Compressibility (1/GPa) = 0.01776522
#
# Stress axis : x y z
#
# Youngs Moduli (GPa) = 23.88306 50.60699 53.91379
#
# Poissons Ratio (x) = 0.99800 0.86133
# Poissons Ratio (y) = 0.47099 -0.24206
# Poissons Ratio (z) = 0.38156 -0.22722
#
# Static dielectric constant tensor:
#      x y z
#    x 5.457980 0.000000 2.348750 
#    y 0.000000 3.281550 0.000000 
#    z 2.348750 0.000000 6.136420 
# 
# 
# High freq. dielectric constant tensor:
#      x y z
#    x 1.698350 0.000000 -0.008570 
#    y 0.000000 1.711160 0.000000 
#    z -0.008570 0.000000 1.726580 
# 
# From -- ./inp_files/85490.got.cif
#   From: 2010.06.25/outbox.cif.g09.slc.cpg/sg15_43_cif.got.tgz:85490.got - 2010.06.28 07:06:18.
