data_PCOD8138768
_publ_section_title
;
Structure prediction by ZEFSAII (Michael W. Deem and Ramdas Pophale) SiO2 
 PCOD8138768
Probable space group: C 2/C
;
_chemical_formula_sum "Si O2"
_cell_formula_units_Z 64
_cell_length_a 17.211489
_cell_length_b 18.801797
_cell_length_c 19.243294
_cell_angle_alpha 90.000000
_cell_angle_beta 29.718811
_cell_angle_gamma 90.000000
_cell_volume 3087.127254
_symmetry_space_group_name_H-M "C 2/C"
_symmetry_group_IT_number 15
_symmetry_cell_setting 'monoclinic'
loop_
_space_group_symop_operation_xyz
x,y,z
-x,y,1/2-z
-x,-y,-z
x,-y,1/2+z
1/2+x,1/2+y,z
1/2-x,1/2+y,1/2-z
1/2-x,1/2-y,-z
1/2+x,1/2-y,1/2+z
loop_
_atom_site_type_symbol
_atom_site_label
_atom_site_fract_x
_atom_site_fract_y
_atom_site_fract_z
Si Si1 0.149384 0.038581 0.179921
Si Si2 0.146714 0.201079 0.183574
Si Si3 0.103263 0.569383 0.071348
Si Si4 0.158104 0.200346 0.431919
Si Si5 0.548081 0.292490 0.531038
Si Si6 0.003528 0.720901 0.163975
Si Si7 0.028739 0.953129 0.545283
Si Si8 0.779026 0.554290 0.371500
O O1 0.195771 0.120128 0.124210
O O2 0.000000 0.015314 0.250000
O O3 0.114496 0.038793 0.289487
O O4 0.287271 0.980798 0.061105
O O5 0.000000 0.226615 0.250000
O O6 0.090917 0.208770 0.305396
O O7 0.300918 0.250390 0.057196
O O8 0.070288 0.650250 0.072237
O O9 0.174877 0.586066 0.090689
O O10 0.933601 0.531376 0.208208
O O11 0.107412 0.215594 0.551444
O O12 0.323606 0.234810 0.282847
O O13 0.177289 0.114471 0.409307
O O14 0.027462 0.235337 0.482359
O O15 0.586588 0.374127 0.484893
O O16 0.000000 0.717365 0.250000
O O17 0.181652 0.984530 0.463682
O O18 0.000000 0.000000 0.500000
#
# Coordination Sequence:
#
# PCOD8138768 Si02
#       8
#     8   8   8   8   8   8   8   8
#     4  10  21  39  66  93 122 157 206 265 308 376
#     4  10  23  43  65  94 120 154 209 264 320 374
#     4  10  20  39  61  92 122 161 210 257 310 360
#     4  11  22  39  59  87 128 173 207 256 309 366
#     4  11  23  42  66  87 126 164 203 262 315 377
#     4  11  22  38  60  92 130 170 213 254 301 363
#     4  11  22  40  62  90 125 164 206 254 320 369
#     4  10  20  38  61  87 127 162 207 258 307 374
#
# _framework density 20.731248000000001
#
# number of rings (size 3 to 8) (size 9 to 14) (size 15 to 20)
#    0.000    1.500    5.000    1.500    0.000    2.000 
#    4.500    0.625    0.000    0.000    0.000    0.000 
#    0.000    0.000    0.000    0.000    0.000    0.000 
#
# Total GULP energy -396430.755509 kJ/mol
# GULP energy per Si atom -12388.461110 kJ/mol
# Density = 2.068406 g / cm^3
# Si number density = 20.731248 Si / 1000 Ang^3
#
#
#
# Elastic Constant Matrix: (Units=GPa)
#
#
# Indices 1 2 3 4 5 6 
#
# 1 75.7655 35.8046 33.7722 0.0042 -6.6718 -0.0012
# 2 35.8046 87.4498 69.3345 0.0287 -6.6207 -0.0137
# 3 33.7722 69.3345 121.8164 0.0307 -8.3046 -0.0163
# 4 0.0042 0.0287 0.0307 39.6496 -0.0159 -1.6604
# 5 -6.6718 -6.6207 -8.3046 -0.0159 34.1385 0.0078
# 6 -0.0012 -0.0137 -0.0163 -1.6604 0.0078 27.0948
#
#
#
# Elastic Compliance Matrix: (Units=1/GPa)
#
#
# Indices 1 2 3 4 5 6 
#
# 1 0.016595 -0.005662 -0.001253 0.000004 0.001840 -0.000003
# 2 -0.005662 0.022817 -0.011380 -0.000007 0.000550 0.000004
# 3 -0.001253 -0.011380 0.015117 -0.000003 0.001226 0.000003
# 4 0.000004 -0.000007 -0.000003 0.025286 0.000010 0.001550
# 5 0.001840 0.000550 0.001226 0.000010 0.030057 -0.000007
# 6 -0.000003 0.000004 0.000003 0.001550 -0.000007 0.037002
#
#
# Mechanical properties :
#
#
# Convention : Reuss Voigt Hill
#
# Bulk Modulus (GPa) = 55.74011 62.53938 59.13974
# Shear Modulus (GPa) = 26.39310 29.91792 28.15551
#
# Velocity S-wave (km/s) = 3.57193 3.80298 3.68927
# Velocity P-wave (km/s) = 6.63001 7.03674 6.83640
#
# Compressibility (1/GPa) = 0.01794040
#
# Stress axis : x y z
#
# Youngs Moduli (GPa) = 60.26026 43.82603 66.15064
#
# Poissons Ratio (x) = 0.24814 0.08286
# Poissons Ratio (y) = 0.34119 0.75279
# Poissons Ratio (z) = 0.07548 0.49873
#
# Static dielectric constant tensor:
#      x y z
#    x 3.818570 0.000000 -0.240240 
#    y 0.000000 3.792270 0.000020 
#    z -0.240240 0.000020 3.944590 
# 
# 
# High freq. dielectric constant tensor:
#      x y z
#    x 1.810140 0.000000 -0.006090 
#    y 0.000000 1.802790 0.000000 
#    z -0.006090 0.000000 1.809560 
# 
# From -- ./inp_files/249636.got.cif
#   From: 2010.06.25/outbox.cif.g09.slc.cpg/sg15_125_cif.got.tgz:249636.got - 2010.06.28 07:06:18.
