data_PCOD8138954
_publ_section_title
;
Structure prediction by ZEFSAII (Michael W. Deem and Ramdas Pophale) SiO2 
 PCOD8138954
Probable space group: C 2/C
;
_chemical_formula_sum "Si O2"
_cell_formula_units_Z 56
_cell_length_a 8.310280
_cell_length_b 11.595891
_cell_length_c 27.659477
_cell_angle_alpha 90.000000
_cell_angle_beta 108.601600
_cell_angle_gamma 90.000000
_cell_volume 2526.166041
_symmetry_space_group_name_H-M "C 2/C"
_symmetry_group_IT_number 15
_symmetry_cell_setting 'monoclinic'
loop_
_space_group_symop_operation_xyz
x,y,z
-x,y,1/2-z
-x,-y,-z
x,-y,1/2+z
1/2+x,1/2+y,z
1/2-x,1/2+y,1/2-z
1/2-x,1/2-y,-z
1/2+x,1/2-y,1/2+z
loop_
_atom_site_type_symbol
_atom_site_label
_atom_site_fract_x
_atom_site_fract_y
_atom_site_fract_z
Si Si1 0.384308 0.167377 0.643567
Si Si2 0.217000 0.848438 0.034675
Si Si3 0.412014 0.403533 0.329814
Si Si4 0.158474 0.431068 0.993991
Si Si5 0.590261 0.718839 0.928171
Si Si6 0.121113 0.104052 0.304305
Si Si7 0.152559 0.435748 0.228341
O O1 0.381723 0.161232 0.585694
O O2 0.247287 0.071583 0.649519
O O3 0.315151 0.290452 0.656859
O O4 0.575626 0.150087 0.680722
O O5 0.046186 0.830227 0.047501
O O6 0.205174 0.973466 0.009040
O O7 0.250000 0.750000 0.000000
O O8 0.531976 0.305728 0.366781
O O9 0.523925 0.516145 0.330787
O O10 0.314177 0.371432 0.269660
O O11 0.110786 0.354794 0.941727
O O12 0.235261 0.349212 0.043284
O O13 0.000000 0.500000 0.000000
O O14 0.000000 0.151248 0.250000
O O15 0.284332 0.047725 0.294440
O O16 0.000000 0.470559 0.250000
#
# Coordination Sequence:
#
# PCOD8138954 Si02
#       7
#     8   8   8   8   8   8   8
#     4  10  22  39  60  88 125 164 208 258 308 375
#     4  11  23  41  62  91 126 174 214 261 323 371
#     4   9  20  37  61  90 122 158 200 254 312 374
#     4  11  23  42  64  90 124 165 218 264 320 375
#     4  10  23  41  63  92 128 165 209 271 315 383
#     4  10  20  38  63  89 123 166 202 254 318 369
#     4   9  19  40  62  91 125 156 205 254 309 385
#
# _framework density 22.167978999999999
#
# number of rings (size 3 to 8) (size 9 to 14) (size 15 to 20)
#    0.000    2.000    1.429    1.714    2.000    3.429 
#    0.000    7.857    0.000    0.000    0.000    0.000 
#    0.000    0.000    0.000    0.000    0.000    0.000 
#
# Total GULP energy -346896.288075 kJ/mol
# GULP energy per Si atom -12389.153146 kJ/mol
# Density = 2.211752 g / cm^3
# Si number density = 22.167979 Si / 1000 Ang^3
#
#
#
# Elastic Constant Matrix: (Units=GPa)
#
#
# Indices 1 2 3 4 5 6 
#
# 1 83.8665 32.9314 18.8791 0.0000 2.6669 0.0000
# 2 32.9314 97.3192 27.1808 0.0000 -1.1184 0.0000
# 3 18.8791 27.1808 101.3651 0.0000 14.1670 0.0000
# 4 0.0000 0.0000 0.0000 31.3116 0.0000 2.6579
# 5 2.6669 -1.1184 14.1670 0.0000 29.5253 0.0000
# 6 0.0000 0.0000 0.0000 2.6579 0.0000 30.0809
#
#
#
# Elastic Compliance Matrix: (Units=1/GPa)
#
#
# Indices 1 2 3 4 5 6 
#
# 1 0.013960 -0.004365 -0.001319 0.000000 -0.000793 0.000000
# 2 -0.004365 0.012581 -0.002875 0.000000 0.002250 0.000000
# 3 -0.001319 -0.002875 0.011663 0.000000 -0.005586 0.000000
# 4 0.000000 0.000000 0.000000 0.032178 0.000000 -0.002843
# 5 -0.000793 0.002250 -0.005586 0.000000 0.036706 0.000000
# 6 0.000000 0.000000 0.000000 -0.002843 0.000000 0.033495
#
#
# Mechanical properties :
#
#
# Convention : Reuss Voigt Hill
#
# Bulk Modulus (GPa) = 47.42384 48.94816 48.18600
# Shear Modulus (GPa) = 30.35286 31.75419 31.05352
#
# Velocity S-wave (km/s) = 3.70431 3.78886 3.74682
# Velocity P-wave (km/s) = 6.30359 6.42410 6.36413
#
# Compressibility (1/GPa) = 0.02108644
#
# Stress axis : x y z
#
# Youngs Moduli (GPa) = 71.63528 79.48317 85.74395
#
# Poissons Ratio (x) = 0.34691 0.11307
# Poissons Ratio (y) = 0.31266 0.24654
# Poissons Ratio (z) = 0.09447 0.22854
#
# Static dielectric constant tensor:
#      x y z
#    x 4.147520 0.000000 0.160240 
#    y 0.000000 3.915760 0.000000 
#    z 0.160240 0.000000 4.443750 
# 
# 
# High freq. dielectric constant tensor:
#      x y z
#    x 1.868600 0.000000 0.014700 
#    y 0.000000 1.851680 0.000000 
#    z 0.014700 0.000000 1.880130 
# 
# From -- ./inp_files/288073.got.cif
#   From: 2010.06.25/outbox.cif.g09.slc.cpg/sg15_145_cif.got.tgz:288073.got - 2010.06.28 07:06:18.
