data_PCOD8138180
_publ_section_title
;
Structure prediction by ZEFSAII (Michael W. Deem and Ramdas Pophale) SiO2 
 PCOD8138180
Probable space group: C 2/C
;
_chemical_formula_sum "Si O2"
_cell_formula_units_Z 64
_cell_length_a 12.481552
_cell_length_b 13.395576
_cell_length_c 21.066369
_cell_angle_alpha 90.000000
_cell_angle_beta 67.903247
_cell_angle_gamma 90.000000
_cell_volume 3263.536748
_symmetry_space_group_name_H-M "C 2/C"
_symmetry_group_IT_number 15
_symmetry_cell_setting 'monoclinic'
loop_
_space_group_symop_operation_xyz
x,y,z
-x,y,1/2-z
-x,-y,-z
x,-y,1/2+z
1/2+x,1/2+y,z
1/2-x,1/2+y,1/2-z
1/2-x,1/2-y,-z
1/2+x,1/2-y,1/2+z
loop_
_atom_site_type_symbol
_atom_site_label
_atom_site_fract_x
_atom_site_fract_y
_atom_site_fract_z
Si Si1 0.804159 0.256596 0.224977
Si Si2 0.627140 0.482952 0.948954
Si Si3 0.794635 0.391014 0.344337
Si Si4 0.123144 0.417273 0.750580
Si Si5 0.645781 0.950628 0.365113
Si Si6 0.511002 0.660154 0.390411
Si Si7 0.716554 0.537859 0.055306
Si Si8 0.417920 0.857779 0.445358
O O1 0.788823 0.294466 0.300501
O O2 0.701825 0.181184 0.230170
O O3 0.803037 0.353362 0.180498
O O4 0.929465 0.203007 0.187103
O O5 0.670114 0.582722 0.902644
O O6 0.620532 0.388474 0.903665
O O7 0.500000 0.500000 0.000000
O O8 0.705970 0.467548 0.994604
O O9 0.833097 0.492450 0.302224
O O10 0.885120 0.364867 0.378634
O O11 0.120906 0.457440 0.823241
O O12 0.000000 0.383758 0.750000
O O13 0.527560 0.930597 0.430341
O O14 0.745682 0.975947 0.392613
O O15 0.406908 0.584944 0.397773
O O16 0.457990 0.744530 0.448243
O O17 0.814761 0.620448 0.017505
#
# Coordination Sequence:
#
# PCOD8138180 Si02
#       8
#     8   8   8   8   8   8   8   8
#     4  10  23  39  60  89 122 154 208 253 300 375
#     4   9  19  39  63  82 123 161 194 245 315 359
#     4  10  20  39  64  87 113 165 200 248 305 356
#     4  11  21  41  60  82 123 161 197 248 310 368
#     4  10  22  39  58  91 122 157 204 253 301 361
#     4  10  20  37  60  90 117 155 204 251 300 359
#     4  10  21  38  61  90 122 157 199 254 305 361
#     4  10  20  37  63  86 124 153 210 245 298 364
#
# _framework density 19.610624999999999
#
# number of rings (size 3 to 8) (size 9 to 14) (size 15 to 20)
#    0.000    2.000    2.500    0.750    1.750    0.000 
#    4.500    2.500    0.000    0.000    0.000    0.000 
#    0.000    0.000    0.000    0.000    0.000    0.000 
#
# Total GULP energy -396571.214097 kJ/mol
# GULP energy per Si atom -12392.850441 kJ/mol
# Density = 1.956599 g / cm^3
# Si number density = 19.610625 Si / 1000 Ang^3
#
#
#
# Elastic Constant Matrix: (Units=GPa)
#
#
# Indices 1 2 3 4 5 6 
#
# 1 117.3679 54.9680 45.9934 0.0000 -2.4608 0.0000
# 2 54.9680 89.6992 33.9867 0.0000 2.8432 0.0000
# 3 45.9934 33.9867 83.6572 0.0000 3.3838 0.0000
# 4 0.0000 0.0000 0.0000 21.8941 0.0000 -10.7564
# 5 -2.4608 2.8432 3.3838 0.0000 32.0036 0.0000
# 6 0.0000 0.0000 0.0000 -10.7564 0.0000 32.7632
#
#
#
# Elastic Compliance Matrix: (Units=1/GPa)
#
#
# Indices 1 2 3 4 5 6 
#
# 1 0.013524 -0.006507 -0.004878 0.000000 0.002134 0.000000
# 2 -0.006507 0.016319 -0.002986 0.000000 -0.001634 0.000000
# 3 -0.004878 -0.002986 0.015921 0.000000 -0.001793 0.000000
# 4 0.000000 0.000000 0.000000 0.054458 0.000000 0.017879
# 5 0.002134 -0.001634 -0.001793 0.000000 0.031745 0.000000
# 6 0.000000 0.000000 0.000000 0.017879 0.000000 0.036392
#
#
# Mechanical properties :
#
#
# Convention : Reuss Voigt Hill
#
# Bulk Modulus (GPa) = 58.74856 62.29118 60.51987
# Shear Modulus (GPa) = 24.65771 27.71726 26.18749
#
# Velocity S-wave (km/s) = 3.54978 3.76357 3.65824
# Velocity P-wave (km/s) = 6.84279 7.12172 6.98365
#
# Compressibility (1/GPa) = 0.01702169
#
# Stress axis : x y z
#
# Youngs Moduli (GPa) = 73.94272 61.27776 62.80934
#
# Poissons Ratio (x) = 0.39873 0.30639
# Poissons Ratio (y) = 0.48114 0.18757
# Poissons Ratio (z) = 0.36070 0.18300
#
# Static dielectric constant tensor:
#      x y z
#    x 4.027140 0.000000 0.124420 
#    y 0.000000 4.295770 0.000000 
#    z 0.124420 0.000000 3.806520 
# 
# 
# High freq. dielectric constant tensor:
#      x y z
#    x 1.763930 0.000000 -0.011000 
#    y 0.000000 1.754100 0.000000 
#    z -0.011000 0.000000 1.768320 
# 
# From -- ./inp_files/238725.got.cif
#   From: 2010.06.25/outbox.cif.g09.slc.cpg/sg15_120_cif.got.tgz:238725.got - 2010.06.28 07:06:18.
