data_PCOD8138461
_publ_section_title
;
Structure prediction by ZEFSAII (Michael W. Deem and Ramdas Pophale) SiO2 
 PCOD8138461
Probable space group: C 2/C
;
_chemical_formula_sum "Si O2"
_cell_formula_units_Z 64
_cell_length_a 10.304351
_cell_length_b 29.731209
_cell_length_c 9.174627
_cell_angle_alpha 90.000000
_cell_angle_beta 100.300493
_cell_angle_gamma 90.000000
_cell_volume 2765.446796
_symmetry_space_group_name_H-M "C 2/C"
_symmetry_group_IT_number 15
_symmetry_cell_setting 'monoclinic'
loop_
_space_group_symop_operation_xyz
x,y,z
-x,y,1/2-z
-x,-y,-z
x,-y,1/2+z
1/2+x,1/2+y,z
1/2-x,1/2+y,1/2-z
1/2-x,1/2-y,-z
1/2+x,1/2-y,1/2+z
loop_
_atom_site_type_symbol
_atom_site_label
_atom_site_fract_x
_atom_site_fract_y
_atom_site_fract_z
Si Si1 0.867751 0.381003 0.299257
Si Si2 0.098262 0.752336 0.397043
Si Si3 0.900801 0.214380 0.051232
Si Si4 0.843199 0.870751 0.701080
Si Si5 0.868460 0.965856 0.625258
Si Si6 0.117974 0.351588 0.877687
Si Si7 0.139802 0.950693 0.211454
Si Si8 0.698832 0.219798 0.768331
O O1 0.880323 0.382017 0.476845
O O2 0.741641 0.409811 0.225499
O O3 0.847938 0.331105 0.232129
O O4 0.000000 0.400693 0.250000
O O5 0.085622 0.698996 0.421229
O O6 0.248682 0.767911 0.384704
O O7 0.000000 0.767481 0.250000
O O8 0.053269 0.782623 0.527400
O O9 0.833880 0.166400 0.072777
O O10 0.911484 0.246175 0.196030
O O11 0.817438 0.233686 0.900686
O O12 0.789051 0.919432 0.639031
O O13 0.759557 0.855693 0.825160
O O14 0.000000 0.874415 0.750000
O O15 0.891228 0.969826 0.456645
O O16 0.000000 0.966400 0.750000
O O17 0.794061 0.010196 0.672892
O O18 0.000000 0.369167 0.750000
O O19 0.000000 0.933700 0.250000
#
# Coordination Sequence:
#
# PCOD8138461 Si02
#       8
#     8   8   8   8   8   8   8   8
#     4  12  29  45  67 106 146 187 237 291 357 424
#     4   9  19  37  60  93 127 187 239 288 339 412
#     4  10  20  37  65  92 137 182 233 284 348 408
#     4  11  25  40  69 105 135 175 240 293 351 419
#     4  10  23  44  78 110 145 176 231 292 363 415
#     4  11  26  46  69  94 146 196 241 284 355 423
#     4  11  25  47  79 107 142 180 234 295 359 425
#     4  10  21  38  61  90 135 184 232 280 344 413
#
# _framework density 23.142734999999998
#
# number of rings (size 3 to 8) (size 9 to 14) (size 15 to 20)
#    0.000    1.500    1.250    3.000   12.250    3.500 
#    0.000    1.250    0.000    0.000    0.000    0.000 
#    0.000    0.000    0.000    0.000    0.000    0.000 
#
# Total GULP energy -396496.571397 kJ/mol
# GULP energy per Si atom -12390.517856 kJ/mol
# Density = 2.309006 g / cm^3
# Si number density = 23.142735 Si / 1000 Ang^3
#
#
#
# Elastic Constant Matrix: (Units=GPa)
#
#
# Indices 1 2 3 4 5 6 
#
# 1 124.7076 36.3235 60.7064 0.0000 -26.2598 0.0000
# 2 36.3235 112.9465 26.1697 0.0000 -14.9767 0.0000
# 3 60.7064 26.1697 153.9083 0.0000 -19.2129 0.0000
# 4 0.0000 0.0000 0.0000 30.3896 0.0000 0.9655
# 5 -26.2598 -14.9767 -19.2129 0.0000 46.5179 0.0000
# 6 0.0000 0.0000 0.0000 0.9655 0.0000 23.1010
#
#
#
# Elastic Compliance Matrix: (Units=1/GPa)
#
#
# Indices 1 2 3 4 5 6 
#
# 1 0.011280 -0.002252 -0.003545 0.000000 0.004179 0.000000
# 2 -0.002252 0.009938 -0.000591 0.000000 0.001684 0.000000
# 3 -0.003545 -0.000591 0.008142 0.000000 0.001172 0.000000
# 4 0.000000 0.000000 0.000000 0.032950 0.000000 -0.001377
# 5 0.004179 0.001684 0.001172 0.000000 0.024882 0.000000
# 6 0.000000 0.000000 0.000000 -0.001377 0.000000 0.043346
#
#
# Mechanical properties :
#
#
# Convention : Reuss Voigt Hill
#
# Bulk Modulus (GPa) = 60.29766 70.88465 65.59115
# Shear Modulus (GPa) = 33.59245 37.89255 35.74250
#
# Velocity S-wave (km/s) = 3.81403 4.05080 3.93420
# Velocity P-wave (km/s) = 6.74589 7.25082 7.00291
#
# Compressibility (1/GPa) = 0.01658439
#
# Stress axis : x y z
#
# Youngs Moduli (GPa) = 88.65097 100.61986 122.81550
#
# Poissons Ratio (x) = 0.22663 0.43534
# Poissons Ratio (y) = 0.19967 0.07261
# Poissons Ratio (z) = 0.31424 0.05949
#
# Static dielectric constant tensor:
#      x y z
#    x 4.340140 0.000000 -0.234110 
#    y 0.000000 4.583040 0.000000 
#    z -0.234110 0.000000 4.562070 
# 
# 
# High freq. dielectric constant tensor:
#      x y z
#    x 1.916330 0.000000 -0.001140 
#    y 0.000000 1.892900 0.000000 
#    z -0.001140 0.000000 1.946780 
# 
# From -- ./inp_files/35690.got.cif
#   From: 2010.06.25/outbox.cif.g09.slc.cpg/sg15_18_cif.got.tgz:35690.got - 2010.06.28 07:06:18.
