data_PCOD8138780
_publ_section_title
;
Structure prediction by ZEFSAII (Michael W. Deem and Ramdas Pophale) SiO2 
 PCOD8138780
Probable space group: C 2/C
;
_chemical_formula_sum "Si O2"
_cell_formula_units_Z 56
_cell_length_a 26.078868
_cell_length_b 11.802833
_cell_length_c 9.674158
_cell_angle_alpha 90.000000
_cell_angle_beta 125.507519
_cell_angle_gamma 90.000000
_cell_volume 2424.005212
_symmetry_space_group_name_H-M "C 2/C"
_symmetry_group_IT_number 15
_symmetry_cell_setting 'monoclinic'
loop_
_space_group_symop_operation_xyz
x,y,z
-x,y,1/2-z
-x,-y,-z
x,-y,1/2+z
1/2+x,1/2+y,z
1/2-x,1/2+y,1/2-z
1/2-x,1/2-y,-z
1/2+x,1/2-y,1/2+z
loop_
_atom_site_type_symbol
_atom_site_label
_atom_site_fract_x
_atom_site_fract_y
_atom_site_fract_z
Si Si1 0.381177 0.099683 0.258273
Si Si2 0.150365 0.289869 0.257806
Si Si3 0.072857 0.606432 0.858249
Si Si4 0.932972 0.272312 0.615034
Si Si5 0.174762 0.030842 0.236004
Si Si6 0.542094 0.515842 0.934406
Si Si7 0.755776 0.489291 0.109946
O O1 0.407305 0.095593 0.452599
O O2 0.393846 0.218636 0.198506
O O3 0.413679 0.005888 0.210079
O O4 0.306493 0.083888 0.149936
O O5 0.113225 0.293448 0.346192
O O6 0.166327 0.164870 0.234277
O O7 0.213936 0.364513 0.363489
O O8 0.103384 0.339114 0.064915
O O9 0.000000 0.639959 0.750000
O O10 0.945974 0.143942 0.592758
O O11 0.000000 0.333197 0.750000
O O12 0.194188 0.989253 0.418801
O O13 0.234115 0.003638 0.232802
O O14 0.111747 0.966981 0.080535
O O15 0.500000 0.453226 0.750000
O O16 0.500000 0.500000 0.000000
#
# Coordination Sequence:
#
# PCOD8138780 Si02
#       7
#     8   8   8   8   8   8   8
#     4  11  21  36  60  92 126 162 200 249 304 366
#     4  10  22  41  61  91 126 162 207 256 301 365
#     4  11  21  36  61  92 127 164 199 247 309 366
#     4  10  20  38  61  89 124 159 200 253 304 358
#     4  11  23  42  65  89 121 164 205 254 310 364
#     4  10  22  43  65  88 117 156 204 258 306 358
#     4  11  22  40  62  89 123 163 205 251 305 367
#
# _framework density 23.102260999999999
#
# number of rings (size 3 to 8) (size 9 to 14) (size 15 to 20)
#    0.000    1.429    0.000    7.286    0.000    0.000 
#    0.000   26.429    0.000    0.000    0.000    0.000 
#    0.000    0.000    0.000    0.000    0.000    0.000 
#
# Total GULP energy -346971.988373 kJ/mol
# GULP energy per Si atom -12391.856728 kJ/mol
# Density = 2.304968 g / cm^3
# Si number density = 23.102261 Si / 1000 Ang^3
#
#
#
# Elastic Constant Matrix: (Units=GPa)
#
#
# Indices 1 2 3 4 5 6 
#
# 1 116.3288 18.9723 26.9902 0.0000 -7.9558 0.0000
# 2 18.9723 32.7464 7.2370 0.0000 -5.1940 0.0000
# 3 26.9902 7.2370 184.3868 0.0000 0.5489 0.0000
# 4 0.0000 0.0000 0.0000 4.4531 0.0000 -4.9032
# 5 -7.9558 -5.1940 0.5489 0.0000 57.8867 0.0000
# 6 0.0000 0.0000 0.0000 -4.9032 0.0000 28.2331
#
#
#
# Elastic Compliance Matrix: (Units=1/GPa)
#
#
# Indices 1 2 3 4 5 6 
#
# 1 0.009801 -0.005266 -0.001231 0.000000 0.000886 0.000000
# 2 -0.005266 0.034087 -0.000574 0.000000 0.002340 0.000000
# 3 -0.001231 -0.000574 0.005627 0.000000 -0.000274 0.000000
# 4 0.000000 0.000000 0.000000 0.277653 0.000000 0.048219
# 5 0.000886 0.002340 -0.000274 0.000000 0.017609 0.000000
# 6 0.000000 0.000000 0.000000 0.048219 0.000000 0.043794
#
#
# Mechanical properties :
#
#
# Convention : Reuss Voigt Hill
#
# Bulk Modulus (GPa) = 28.26973 48.87346 38.57159
# Shear Modulus (GPa) = 12.06262 36.79876 24.43069
#
# Velocity S-wave (km/s) = 2.28752 3.99540 3.25545
# Velocity P-wave (km/s) = 4.38638 6.51809 5.55544
#
# Compressibility (1/GPa) = 0.03537352
#
# Stress axis : x y z
#
# Youngs Moduli (GPa) = 102.02711 29.33689 177.71880
#
# Poissons Ratio (x) = 0.15449 0.21871
# Poissons Ratio (y) = 0.53728 0.10201
# Poissons Ratio (z) = 0.12556 0.01684
#
# Static dielectric constant tensor:
#      x y z
#    x 4.517710 0.000000 0.350660 
#    y 0.000000 4.004630 0.000000 
#    z 0.350660 0.000000 5.508210 
# 
# 
# High freq. dielectric constant tensor:
#      x y z
#    x 1.925490 0.000000 0.002400 
#    y 0.000000 1.874870 0.000000 
#    z 0.002400 0.000000 1.942720 
# 
# From -- ./inp_files/61984.got.cif
#   From: 2010.06.25/outbox.cif.g09.slc.cpg/sg15_31_cif.got.tgz:61984.got - 2010.06.28 07:06:18.
