data_PCOD8138980
_publ_section_title
;
Structure prediction by ZEFSAII (Michael W. Deem and Ramdas Pophale) SiO2 
 PCOD8138980
Probable space group: C 2/C
;
_chemical_formula_sum "Si O2"
_cell_formula_units_Z 64
_cell_length_a 32.072065
_cell_length_b 18.170488
_cell_length_c 9.673033
_cell_angle_alpha 90.000000
_cell_angle_beta 146.669235
_cell_angle_gamma 90.000000
_cell_volume 3097.429113
_symmetry_space_group_name_H-M "C 2/C"
_symmetry_group_IT_number 15
_symmetry_cell_setting 'monoclinic'
loop_
_space_group_symop_operation_xyz
x,y,z
-x,y,1/2-z
-x,-y,-z
x,-y,1/2+z
1/2+x,1/2+y,z
1/2-x,1/2+y,1/2-z
1/2-x,1/2-y,-z
1/2+x,1/2-y,1/2+z
loop_
_atom_site_type_symbol
_atom_site_label
_atom_site_fract_x
_atom_site_fract_y
_atom_site_fract_z
Si Si1 0.209147 0.348872 0.897128
Si Si2 0.844601 0.519471 0.081927
Si Si3 0.555784 0.570750 0.773990
Si Si4 0.456024 0.408217 0.760483
Si Si5 0.815187 0.704804 0.609830
Si Si6 0.776331 0.909701 0.814112
Si Si7 0.341312 0.279908 0.414882
Si Si8 0.088300 0.584273 0.508935
O O1 0.157745 0.409982 0.825823
O O2 0.269223 0.385822 0.955529
O O3 0.149963 0.291451 0.661078
O O4 0.256178 0.308670 0.148994
O O5 0.894984 0.459426 0.302600
O O6 0.758741 0.491359 0.808577
O O7 0.883150 0.538364 0.043327
O O8 0.500000 0.578239 0.750000
O O9 0.577304 0.487314 0.781575
O O10 0.513268 0.618449 0.538313
O O11 0.640402 0.603665 0.021911
O O12 0.500000 0.435112 0.750000
O O13 0.399625 0.345710 0.550505
O O14 0.750000 0.750000 0.500000
O O15 0.779271 0.641195 0.422150
O O16 0.856319 0.759410 0.616103
O O17 0.872675 0.665669 0.876546
O O18 0.000000 0.598775 0.250000
#
# Coordination Sequence:
#
# PCOD8138980 Si02
#       8
#     8   8   8   8   8   8   8   8
#     4  10  20  38  63  93 120 168 219 261 320 385
#     4  11  21  41  70  98 125 165 214 267 335 382
#     4  10  22  37  60  94 127 165 212 264 325 371
#     4  10  21  39  56  86 127 161 210 254 315 377
#     4  10  23  41  60  91 127 166 218 259 308 391
#     4  10  21  38  64  92 125 160 220 265 314 387
#     4  10  21  38  60  85 128 167 214 263 307 386
#     4  11  24  44  67 100 133 165 212 276 329 387
#
# _framework density 20.662296999999999
#
# number of rings (size 3 to 8) (size 9 to 14) (size 15 to 20)
#    0.000    1.750    1.250    2.625    1.750    2.000 
#    4.500    0.000    0.000    0.000    0.000    0.000 
#    0.000    0.000    0.000    0.000    0.000    0.000 
#
# Total GULP energy -396481.691004 kJ/mol
# GULP energy per Si atom -12390.052844 kJ/mol
# Density = 2.061527 g / cm^3
# Si number density = 20.662297 Si / 1000 Ang^3
#
#
#
# Elastic Constant Matrix: (Units=GPa)
#
#
# Indices 1 2 3 4 5 6 
#
# 1 91.6687 16.7476 38.5658 0.0000 -6.6598 0.0000
# 2 16.7476 75.6332 24.1524 0.0000 -8.4261 0.0000
# 3 38.5658 24.1524 100.4584 0.0000 -3.1119 0.0000
# 4 0.0000 0.0000 0.0000 45.7847 0.0000 10.5622
# 5 -6.6598 -8.4261 -3.1119 0.0000 28.8760 0.0000
# 6 0.0000 0.0000 0.0000 10.5622 0.0000 56.2452
#
#
#
# Elastic Compliance Matrix: (Units=1/GPa)
#
#
# Indices 1 2 3 4 5 6 
#
# 1 0.013282 -0.001179 -0.004747 0.000000 0.002208 0.000000
# 2 -0.001179 0.014859 -0.003004 0.000000 0.003740 0.000000
# 3 -0.004747 -0.003004 0.012479 0.000000 -0.000626 0.000000
# 4 0.000000 0.000000 0.000000 0.022830 0.000000 -0.004287
# 5 0.002208 0.003740 -0.000626 0.000000 0.036164 0.000000
# 6 0.000000 0.000000 0.000000 -0.004287 0.000000 0.018584
#
#
# Mechanical properties :
#
#
# Convention : Reuss Voigt Hill
#
# Bulk Modulus (GPa) = 43.93663 47.41021 45.67342
# Shear Modulus (GPa) = 34.80798 38.73414 36.77106
#
# Velocity S-wave (km/s) = 4.10886 4.33440 4.22313
# Velocity P-wave (km/s) = 6.61971 6.93141 6.77735
#
# Compressibility (1/GPa) = 0.02276005
#
# Stress axis : x y z
#
# Youngs Moduli (GPa) = 75.29131 67.30055 80.13152
#
# Poissons Ratio (x) = 0.07936 0.38038
# Poissons Ratio (y) = 0.08878 0.24070
# Poissons Ratio (z) = 0.35740 0.20216
#
# Static dielectric constant tensor:
#      x y z
#    x 3.553940 0.000000 -0.342170 
#    y 0.000000 4.154060 0.000000 
#    z -0.342170 0.000000 4.000910 
# 
# 
# High freq. dielectric constant tensor:
#      x y z
#    x 1.795620 0.000000 -0.018320 
#    y 0.000000 1.813520 0.000000 
#    z -0.018320 0.000000 1.805480 
# 
# From -- ./inp_files/70624.got.cif
#   From: 2010.06.25/outbox.cif.g09.slc.cpg/sg15_36_cif.got.tgz:70624.got - 2010.06.28 07:06:18.
