data_PCOD8138147
_publ_section_title
;
Structure prediction by ZEFSAII (Michael W. Deem and Ramdas Pophale) SiO2 
 PCOD8138147
Probable space group: C 2/C
;
_chemical_formula_sum "Si O2"
_cell_formula_units_Z 60
_cell_length_a 28.627488
_cell_length_b 8.429692
_cell_length_c 22.605967
_cell_angle_alpha 90.000000
_cell_angle_beta 32.816950
_cell_angle_gamma 90.000000
_cell_volume 2956.533135
_symmetry_space_group_name_H-M "C 2/C"
_symmetry_group_IT_number 15
_symmetry_cell_setting 'monoclinic'
loop_
_space_group_symop_operation_xyz
x,y,z
-x,y,1/2-z
-x,-y,-z
x,-y,1/2+z
1/2+x,1/2+y,z
1/2-x,1/2+y,1/2-z
1/2-x,1/2-y,-z
1/2+x,1/2-y,1/2+z
loop_
_atom_site_type_symbol
_atom_site_label
_atom_site_fract_x
_atom_site_fract_y
_atom_site_fract_z
Si Si1 0.249798 0.959397 0.371553
Si Si2 0.301444 0.957653 0.081536
Si Si3 0.887227 0.177934 0.045237
Si Si4 0.160017 0.832510 0.773113
Si Si5 0.805457 0.261953 0.881443
Si Si6 0.046375 0.955594 0.308283
Si Si7 0.000000 0.149395 0.250000
Si Si8 0.327518 0.779638 0.462510
O O1 0.193090 0.069675 0.389136
O O2 0.307137 0.054699 0.359288
O O3 0.318834 0.850949 0.263467
O O4 0.179917 0.851037 0.478698
O O5 0.251471 0.073941 0.180075
O O6 0.376777 0.862619 0.035818
O O7 0.238161 0.821748 0.127545
O O8 0.331138 0.048883 0.990225
O O9 0.892081 0.164722 0.110740
O O10 0.980314 0.123731 0.923801
O O11 0.105434 0.915542 0.779084
O O12 0.899127 0.179368 0.785566
O O13 0.750000 0.250000 0.000000
O O14 0.990695 0.043042 0.318046
O O15 0.916162 0.259376 0.332937
O O16 0.250000 0.750000 0.500000
#
# Coordination Sequence:
#
# PCOD8138147 Si02
#       8
#     8   8   8   8   8   8   4   8
#     4  10  20  38  62  90 115 161 215 250 311 384
#     4   9  21  37  58  91 115 157 212 248 309 383
#     4  11  21  40  61  92 127 158 207 269 315 370
#     4  10  21  41  65  85 122 170 210 256 315 383
#     4  10  20  37  60  85 121 161 201 254 318 380
#     4  11  24  39  60  92 126 163 212 260 322 377
#     4  12  22  40  64  92 128 166 208 264 318 380
#     4  11  21  40  62  91 128 164 209 255 314 389
#
# _framework density 20.294039999999999
#
# number of rings (size 3 to 8) (size 9 to 14) (size 15 to 20)
#    0.000    1.600    1.333    5.200    1.867    0.000 
#    7.200    0.667    0.000    0.000    0.000    0.000 
#    0.000    0.000    0.000    0.000    0.000    0.000 
#
# Total GULP energy -371831.947789 kJ/mol
# GULP energy per Si atom -12394.398260 kJ/mol
# Density = 2.024785 g / cm^3
# Si number density = 20.294040 Si / 1000 Ang^3
#
#
#
# Elastic Constant Matrix: (Units=GPa)
#
#
# Indices 1 2 3 4 5 6 
#
# 1 72.6713 30.0047 37.7078 0.0257 6.0956 -0.0004
# 2 30.0047 104.5817 42.8452 0.0664 0.6779 -0.0250
# 3 37.7078 42.8452 149.5104 0.0664 8.1004 -0.0533
# 4 0.0257 0.0664 0.0664 32.1090 -0.0523 2.9554
# 5 6.0956 0.6779 8.1004 -0.0523 35.0489 0.0326
# 6 -0.0004 -0.0250 -0.0533 2.9554 0.0326 27.8052
#
#
#
# Elastic Compliance Matrix: (Units=1/GPa)
#
#
# Indices 1 2 3 4 5 6 
#
# 1 0.017062 -0.003587 -0.003158 -0.000003 -0.002168 -0.000006
# 2 -0.003587 0.011597 -0.002471 -0.000015 0.000971 0.000006
# 3 -0.003158 -0.002471 0.008264 -0.000013 -0.001313 0.000016
# 4 -0.000003 -0.000015 -0.000013 0.031452 0.000054 -0.003343
# 5 -0.002168 0.000971 -0.001313 0.000054 0.029193 -0.000042
# 6 -0.000006 0.000006 0.000016 -0.003343 -0.000042 0.036320
#
#
# Mechanical properties :
#
#
# Convention : Reuss Voigt Hill
#
# Bulk Modulus (GPa) = 54.08070 60.87544 57.47807
# Shear Modulus (GPa) = 31.54868 33.40633 32.47750
#
# Velocity S-wave (km/s) = 3.94709 4.06164 4.00477
# Velocity P-wave (km/s) = 6.89051 7.21510 7.05467
#
# Compressibility (1/GPa) = 0.01849089
#
# Stress axis : x y z
#
# Youngs Moduli (GPa) = 58.60930 86.22698 121.00348
#
# Poissons Ratio (x) = 0.30934 0.38209
# Poissons Ratio (y) = 0.21026 0.29903
# Poissons Ratio (z) = 0.18507 0.21309
#
# Static dielectric constant tensor:
#      x y z
#    x 3.481130 0.000010 0.037330 
#    y 0.000010 4.081290 -0.000010 
#    z 0.037330 -0.000010 3.602570 
# 
# 
# High freq. dielectric constant tensor:
#      x y z
#    x 1.780360 0.000000 0.011700 
#    y 0.000000 1.802590 0.000000 
#    z 0.011700 0.000000 1.786850 
# 
# From -- ./inp_files/255187.got.cif
#   From: 2010.06.25/outbox.cif.g09.slc.cpg/sg15_128_cif.got.tgz:255187.got - 2010.06.28 07:06:18.
