data_PCOD8138421
_publ_section_title
;
Structure prediction by ZEFSAII (Michael W. Deem and Ramdas Pophale) SiO2 
 PCOD8138421
Probable space group: C 2/C
;
_chemical_formula_sum "Si O2"
_cell_formula_units_Z 32
_cell_length_a 16.823319
_cell_length_b 4.949696
_cell_length_c 17.189676
_cell_angle_alpha 90.000000
_cell_angle_beta 89.555112
_cell_angle_gamma 90.000000
_cell_volume 1431.346581
_symmetry_space_group_name_H-M "C 2/C"
_symmetry_group_IT_number 15
_symmetry_cell_setting 'monoclinic'
loop_
_space_group_symop_operation_xyz
x,y,z
-x,y,1/2-z
-x,-y,-z
x,-y,1/2+z
1/2+x,1/2+y,z
1/2-x,1/2+y,1/2-z
1/2-x,1/2-y,-z
1/2+x,1/2-y,1/2+z
loop_
_atom_site_type_symbol
_atom_site_label
_atom_site_fract_x
_atom_site_fract_y
_atom_site_fract_z
Si Si1 0.673449 0.609192 0.037867
Si Si2 0.188176 0.423920 0.637953
Si Si3 0.582599 0.941814 0.786999
Si Si4 0.631213 0.457680 0.875878
O O1 0.694350 0.356616 0.091965
O O2 0.636297 0.848389 0.091400
O O3 0.750000 0.750000 0.000000
O O4 0.617395 0.500244 0.968766
O O5 0.149261 0.392853 0.721765
O O6 0.278193 0.528345 0.648664
O O7 0.500000 0.032138 0.750000
O O8 0.571800 0.659059 0.831661
O O9 0.610056 0.155383 0.851360
#
# Coordination Sequence:
#
# PCOD8138421 Si02
#       4
#     8   8   8   8
#     4  10  20  37  64  94 116 145 198 255 295 342
#     4  11  21  39  64  91 116 152 199 247 294 351
#     4  12  25  40  57  87 125 160 196 241 292 351
#     4  11  21  40  63  86 115 157 198 243 295 350
#
# _framework density 22.356567999999999
#
# number of rings (size 3 to 8) (size 9 to 14) (size 15 to 20)
#    0.000    1.000    0.000   11.250    0.000    0.000 
#    0.000    7.500    0.000    0.000    0.000    0.000 
#    0.000    0.000    0.000    0.000    0.000    0.000 
#
# Total GULP energy -198372.119919 kJ/mol
# GULP energy per Si atom -12398.257495 kJ/mol
# Density = 2.230568 g / cm^3
# Si number density = 22.356568 Si / 1000 Ang^3
#
#
#
# Elastic Constant Matrix: (Units=GPa)
#
#
# Indices 1 2 3 4 5 6 
#
# 1 30.0206 4.7911 -3.6087 0.0000 13.7209 0.0000
# 2 4.7911 152.5708 61.0790 0.0000 -0.2525 0.0000
# 3 -3.6087 61.0790 95.3361 0.0000 11.7573 0.0000
# 4 0.0000 0.0000 0.0000 57.9154 0.0000 12.4759
# 5 13.7209 -0.2525 11.7573 0.0000 15.3542 0.0000
# 6 0.0000 0.0000 0.0000 12.4759 0.0000 15.1948
#
#
#
# Elastic Compliance Matrix: (Units=1/GPa)
#
#
# Indices 1 2 3 4 5 6 
#
# 1 0.074743 -0.010302 0.019532 0.000000 -0.081918 0.000000
# 2 -0.010302 0.010587 -0.009199 0.000000 0.016424 0.000000
# 3 0.019532 -0.009199 0.021305 0.000000 -0.033919 0.000000
# 4 0.000000 0.000000 0.000000 0.020977 0.000000 -0.017223
# 5 -0.081918 0.016424 -0.033919 0.000000 0.164576 0.000000
# 6 0.000000 0.000000 0.000000 -0.017223 0.000000 0.079953
#
#
# Mechanical properties :
#
#
# Convention : Reuss Voigt Hill
#
# Bulk Modulus (GPa) = 9.37223 44.71670 27.04446
# Shear Modulus (GPa) = 12.26559 32.07063 22.16811
#
# Velocity S-wave (km/s) = 2.34484 3.79160 3.15234
# Velocity P-wave (km/s) = 3.39592 6.26205 5.03714
#
# Compressibility (1/GPa) = 0.10669822
#
# Stress axis : x y z
#
# Youngs Moduli (GPa) = 13.37919 94.45117 46.93761
#
# Poissons Ratio (x) = 0.97303 -0.91678
# Poissons Ratio (y) = 0.13783 0.43176
# Poissons Ratio (z) = -0.26132 0.86881
#
# Static dielectric constant tensor:
#      x y z
#    x 3.495820 0.000000 -0.012110 
#    y 0.000000 4.351240 0.000000 
#    z -0.012110 0.000000 4.629820 
# 
# 
# High freq. dielectric constant tensor:
#      x y z
#    x 1.826210 0.000000 0.001950 
#    y 0.000000 1.903500 0.000000 
#    z 0.001950 0.000000 1.905850 
# 
# From -- ./inp_files/158199.got.cif
#   From: 2010.06.25/outbox.cif.g09.slc.cpg/sg15_80_cif.got.tgz:158199.got - 2010.06.28 07:06:18.
