data_PCOD8138272
_publ_section_title
;
Structure prediction by ZEFSAII (Michael W. Deem and Ramdas Pophale) SiO2 
 PCOD8138272
Probable space group: C 2/C
;
_chemical_formula_sum "Si O2"
_cell_formula_units_Z 48
_cell_length_a 18.201014
_cell_length_b 8.465501
_cell_length_c 30.879716
_cell_angle_alpha 90.000000
_cell_angle_beta 29.520557
_cell_angle_gamma 90.000000
_cell_volume 2344.421334
_symmetry_space_group_name_H-M "C 2/C"
_symmetry_group_IT_number 15
_symmetry_cell_setting 'monoclinic'
loop_
_space_group_symop_operation_xyz
x,y,z
-x,y,1/2-z
-x,-y,-z
x,-y,1/2+z
1/2+x,1/2+y,z
1/2-x,1/2+y,1/2-z
1/2-x,1/2-y,-z
1/2+x,1/2-y,1/2+z
loop_
_atom_site_type_symbol
_atom_site_label
_atom_site_fract_x
_atom_site_fract_y
_atom_site_fract_z
Si Si1 0.675310 0.708814 0.828621
Si Si2 0.578631 0.123536 0.249469
Si Si3 0.834289 0.307371 0.498732
Si Si4 0.894543 0.358612 0.930994
Si Si5 0.653561 0.665532 0.336685
Si Si6 0.838696 0.720852 0.827755
O O1 0.513340 0.766586 0.898804
O O2 0.668570 0.521494 0.830292
O O3 0.806558 0.766158 0.730236
O O4 0.725943 0.783871 0.848629
O O5 0.500000 0.218874 0.250000
O O6 0.464547 0.093909 0.348336
O O7 0.721838 0.224905 0.192294
O O8 0.633852 0.961586 0.198927
O O9 0.750000 0.250000 0.500000
O O10 0.854158 0.493021 0.481668
O O11 0.733636 0.254064 0.589549
O O12 0.989302 0.223062 0.430885
O O13 0.750000 0.250000 0.000000
O O14 0.000000 0.805981 0.750000
#
# Coordination Sequence:
#
# PCOD8138272 Si02
#       6
#     8   8   8   8   8   8
#     4  10  21  38  60  87 124 160 201 252 311 370
#     4   9  19  38  62  87 121 159 202 252 305 367
#     4  12  23  38  63  88 118 158 207 259 313 380
#     4  11  24  41  61  90 125 165 207 256 315 376
#     4  10  20  37  62  88 118 162 205 253 311 368
#     4  10  21  37  60  88 118 155 202 256 309 367
#
# _framework density 20.474135
#
# number of rings (size 3 to 8) (size 9 to 14) (size 15 to 20)
#    0.000    1.667    0.000    7.000    0.000    4.667 
#    0.000    4.167    0.000    0.000    0.000    0.000 
#    0.000    0.000    0.000    0.000    0.000    0.000 
#
# Total GULP energy -297341.184095 kJ/mol
# GULP energy per Si atom -12389.216004 kJ/mol
# Density = 2.042753 g / cm^3
# Si number density = 20.474135 Si / 1000 Ang^3
#
#
#
# Elastic Constant Matrix: (Units=GPa)
#
#
# Indices 1 2 3 4 5 6 
#
# 1 197.4149 38.4402 91.6794 0.0014 -4.5147 0.0154
# 2 38.4402 79.0122 45.3498 0.0040 0.8738 0.0043
# 3 91.6794 45.3498 176.3170 0.0013 -3.2047 -0.0037
# 4 0.0014 0.0040 0.0013 29.3797 -0.0028 -2.8307
# 5 -4.5147 0.8738 -3.2047 -0.0028 41.9465 0.0055
# 6 0.0154 0.0043 -0.0037 -2.8307 0.0055 28.3033
#
#
#
# Elastic Compliance Matrix: (Units=1/GPa)
#
#
# Indices 1 2 3 4 5 6 
#
# 1 0.006839 -0.001522 -0.003155 0.000000 0.000527 -0.000004
# 2 -0.001522 0.015202 -0.003132 -0.000002 -0.000720 -0.000002
# 3 -0.003155 -0.003132 0.008124 0.000001 0.000346 0.000003
# 4 0.000000 -0.000002 0.000001 0.034368 0.000002 0.003437
# 5 0.000527 -0.000720 0.000346 0.000002 0.023938 -0.000005
# 6 -0.000004 -0.000002 0.000003 0.003437 -0.000005 0.035675
#
#
# Mechanical properties :
#
#
# Convention : Reuss Voigt Hill
#
# Bulk Modulus (GPa) = 68.74092 89.29811 79.01952
# Shear Modulus (GPa) = 34.57481 38.41090 36.49285
#
# Velocity S-wave (km/s) = 4.11385 4.33606 4.22641
# Velocity P-wave (km/s) = 7.49749 8.29327 7.90540
#
# Compressibility (1/GPa) = 0.01454738
#
# Stress axis : x y z
#
# Youngs Moduli (GPa) = 146.21758 65.77961 123.09367
#
# Poissons Ratio (x) = 0.10013 0.38836
# Poissons Ratio (y) = 0.22258 0.38549
# Poissons Ratio (z) = 0.46132 0.20600
#
# Static dielectric constant tensor:
#      x y z
#    x 4.873920 -0.000030 -0.352610 
#    y -0.000030 3.152580 -0.000100 
#    z -0.352610 -0.000100 4.000630 
# 
# 
# High freq. dielectric constant tensor:
#      x y z
#    x 1.834610 0.000000 -0.016080 
#    y 0.000000 1.774180 0.000000 
#    z -0.016080 0.000000 1.806450 
# 
# From -- ./inp_files/315641.got.cif
#   From: 2010.06.25/outbox.cif.g09.slc.cpg/sg15_158_cif.got.tgz:315641.got - 2010.06.28 07:06:18.
