data_PCOD8138684
_publ_section_title
;
Structure prediction by ZEFSAII (Michael W. Deem and Ramdas Pophale) SiO2 
 PCOD8138684
Probable space group: C 2/C
;
_chemical_formula_sum "Si O2"
_cell_formula_units_Z 40
_cell_length_a 11.360818
_cell_length_b 13.915103
_cell_length_c 13.661438
_cell_angle_alpha 90.000000
_cell_angle_beta 122.467691
_cell_angle_gamma 90.000000
_cell_volume 1822.122435
_symmetry_space_group_name_H-M "C 2/C"
_symmetry_group_IT_number 15
_symmetry_cell_setting 'monoclinic'
loop_
_space_group_symop_operation_xyz
x,y,z
-x,y,1/2-z
-x,-y,-z
x,-y,1/2+z
1/2+x,1/2+y,z
1/2-x,1/2+y,1/2-z
1/2-x,1/2-y,-z
1/2+x,1/2-y,1/2+z
loop_
_atom_site_type_symbol
_atom_site_label
_atom_site_fract_x
_atom_site_fract_y
_atom_site_fract_z
Si Si1 0.020151 0.231044 0.386926
Si Si2 0.239468 0.670670 0.778074
Si Si3 0.263976 0.895338 0.012169
Si Si4 0.273149 0.893140 0.442149
Si Si5 0.457856 0.274741 0.071313
O O1 0.122527 0.145426 0.397661
O O2 0.109870 0.324565 0.458642
O O3 0.893458 0.258382 0.255304
O O4 0.942543 0.195746 0.450895
O O5 0.257106 0.600811 0.879058
O O6 0.202266 0.611379 0.663945
O O7 0.380344 0.731852 0.823711
O O8 0.298410 0.998668 0.986001
O O9 0.383376 0.828458 0.552322
O O10 0.117527 0.856910 0.398164
#
# Coordination Sequence:
#
# PCOD8138684 Si02
#       5
#     8   8   8   8   8
#     4   9  20  39  60  83 118 154 196 247 294 348
#     4  10  20  38  60  86 122 160 194 240 302 350
#     4  10  21  40  61  87 121 156 198 245 292 353
#     4  10  21  40  61  87 121 156 198 245 292 353
#     4   9  20  39  60  83 118 154 196 247 294 348
#
# _framework density 21.952423
#
# number of rings (size 3 to 8) (size 9 to 14) (size 15 to 20)
#    0.000    2.400    0.000    1.200    0.000    6.400 
#    0.000   48.000    0.000    0.000    0.000    0.000 
#    0.000    0.000    0.000    0.000    0.000    0.000 
#
# Total GULP energy -247932.791288 kJ/mol
# GULP energy per Si atom -12396.639564 kJ/mol
# Density = 2.190246 g / cm^3
# Si number density = 21.952423 Si / 1000 Ang^3
#
#
#
# Elastic Constant Matrix: (Units=GPa)
#
#
# Indices 1 2 3 4 5 6 
#
# 1 84.5938 9.5882 23.0871 0.0000 12.0965 0.0000
# 2 9.5882 79.0627 20.2456 0.0000 -10.4885 0.0000
# 3 23.0871 20.2456 94.6361 0.0000 5.9240 0.0000
# 4 0.0000 0.0000 0.0000 23.2730 0.0000 -8.7933
# 5 12.0965 -10.4885 5.9240 0.0000 47.9922 0.0000
# 6 0.0000 0.0000 0.0000 -8.7933 0.0000 20.3710
#
#
#
# Elastic Compliance Matrix: (Units=1/GPa)
#
#
# Indices 1 2 3 4 5 6 
#
# 1 0.013185 -0.001336 -0.002726 0.000000 -0.003279 0.000000
# 2 -0.001336 0.014057 -0.002917 0.000000 0.003769 0.000000
# 3 -0.002726 -0.002917 0.011945 0.000000 -0.001425 0.000000
# 4 0.000000 0.000000 0.000000 0.051342 0.000000 0.022162
# 5 -0.003279 0.003769 -0.001425 0.000000 0.022663 0.000000
# 6 0.000000 0.000000 0.000000 0.022162 0.000000 0.058656
#
#
# Mechanical properties :
#
#
# Convention : Reuss Voigt Hill
#
# Bulk Modulus (GPa) = 39.63572 40.45939 40.04756
# Shear Modulus (GPa) = 25.74460 32.01870 28.88165
#
# Velocity S-wave (km/s) = 3.42825 3.82324 3.63112
# Velocity P-wave (km/s) = 5.81077 6.16117 5.98853
#
# Compressibility (1/GPa) = 0.02522977
#
# Stress axis : x y z
#
# Youngs Moduli (GPa) = 75.84163 71.13770 83.71699
#
# Poissons Ratio (x) = 0.09505 0.22818
# Poissons Ratio (y) = 0.10133 0.24422
# Poissons Ratio (z) = 0.20671 0.20753
#
# Static dielectric constant tensor:
#      x y z
#    x 4.374310 0.000000 0.041530 
#    y 0.000000 3.496390 0.000000 
#    z 0.041530 0.000000 4.041600 
# 
# 
# High freq. dielectric constant tensor:
#      x y z
#    x 1.895870 0.000000 0.000520 
#    y 0.000000 1.814530 0.000000 
#    z 0.000520 0.000000 1.864340 
# 
# From -- ./inp_files/118687.got.cif
#   From: 2010.06.25/outbox.cif.g09.slc.cpg/sg15_60_cif.got.tgz:118687.got - 2010.06.28 07:06:18.
