data_PCOD8138923
_publ_section_title
;
Structure prediction by ZEFSAII (Michael W. Deem and Ramdas Pophale) SiO2 
 PCOD8138923
Probable space group: C 2/C
;
_chemical_formula_sum "Si O2"
_cell_formula_units_Z 60
_cell_length_a 12.598279
_cell_length_b 26.896285
_cell_length_c 8.161380
_cell_angle_alpha 90.000000
_cell_angle_beta 96.001826
_cell_angle_gamma 90.000000
_cell_volume 2750.299649
_symmetry_space_group_name_H-M "C 2/C"
_symmetry_group_IT_number 15
_symmetry_cell_setting 'monoclinic'
loop_
_space_group_symop_operation_xyz
x,y,z
-x,y,1/2-z
-x,-y,-z
x,-y,1/2+z
1/2+x,1/2+y,z
1/2-x,1/2+y,1/2-z
1/2-x,1/2-y,-z
1/2+x,1/2-y,1/2+z
loop_
_atom_site_type_symbol
_atom_site_label
_atom_site_fract_x
_atom_site_fract_y
_atom_site_fract_z
Si Si1 0.331178 0.992508 0.148978
Si Si2 0.552786 0.331561 0.427111
Si Si3 0.130462 0.362660 0.466055
Si Si4 0.982537 0.728244 0.936916
Si Si5 0.701230 0.156695 0.611610
Si Si6 0.500000 0.390723 0.750000
Si Si7 0.778180 0.067441 0.139850
Si Si8 0.430594 0.933131 0.447367
O O1 0.387206 0.951647 0.267269
O O2 0.267753 0.037161 0.218114
O O3 0.243048 0.964197 0.027007
O O4 0.428502 0.019460 0.068011
O O5 0.500000 0.352762 0.250000
O O6 0.509006 0.275686 0.444512
O O7 0.678929 0.334489 0.424356
O O8 0.522145 0.359793 0.588433
O O9 0.187367 0.354320 0.302021
O O10 0.221077 0.378096 0.612150
O O11 0.070778 0.312198 0.509140
O O12 0.048203 0.409599 0.449140
O O13 0.864734 0.706067 0.942077
O O14 0.000000 0.742867 0.750000
O O15 0.651391 0.109901 0.505225
O O16 0.597575 0.426279 0.808931
#
# Coordination Sequence:
#
# PCOD8138923 Si02
#       8
#     8   8   8   8   8   4   8   8
#     4  10  23  38  66  99 134 177 227 273 340 411
#     4  12  25  45  71  99 130 178 239 280 338 403
#     4  10  21  40  69  98 144 176 215 273 356 406
#     4   9  20  43  67  99 138 175 217 279 346 410
#     4  10  20  40  66  92 133 184 212 275 338 403
#     4  12  28  50  70  96 138 182 238 294 332 396
#     4  11  24  44  64  99 135 180 230 282 339 401
#     4  10  20  38  62  98 137 175 217 276 340 414
#
# _framework density 21.815802999999999
#
# number of rings (size 3 to 8) (size 9 to 14) (size 15 to 20)
#    0.000    1.600    2.000    3.200    0.000    4.267 
#    9.600    2.000    0.000    0.000    0.000    0.000 
#    0.000    0.000    0.000    0.000    0.000    0.000 
#
# Total GULP energy -371839.185453 kJ/mol
# GULP energy per Si atom -12394.639515 kJ/mol
# Density = 2.176615 g / cm^3
# Si number density = 21.815803 Si / 1000 Ang^3
#
#
#
# Elastic Constant Matrix: (Units=GPa)
#
#
# Indices 1 2 3 4 5 6 
#
# 1 124.5235 20.1074 35.7417 0.0000 -2.3131 0.0000
# 2 20.1074 62.2554 27.1464 0.0000 -7.4432 0.0000
# 3 35.7417 27.1464 98.9903 0.0000 -0.1088 0.0000
# 4 0.0000 0.0000 0.0000 4.3481 0.0000 -20.7368
# 5 -2.3131 -7.4432 -0.1088 0.0000 28.7628 0.0000
# 6 0.0000 0.0000 0.0000 -20.7368 0.0000 3.2607
#
#
#
# Elastic Compliance Matrix: (Units=1/GPa)
#
#
# Indices 1 2 3 4 5 6 
#
# 1 0.009120 -0.001676 -0.002833 0.000000 0.000289 0.000000
# 2 -0.001676 0.019211 -0.004658 0.000000 0.004819 0.000000
# 3 -0.002833 -0.004658 0.012401 0.000000 -0.001386 0.000000
# 4 0.000000 0.000000 0.000000 -0.007841 0.000000 -0.049868
# 5 0.000289 0.004819 -0.001386 0.000000 0.036032 0.000000
# 6 0.000000 0.000000 0.000000 -0.049868 0.000000 -0.010456
#
#
# Mechanical properties :
#
#
# Convention : Reuss Voigt Hill
#
# Bulk Modulus (GPa) = 44.64585 50.19555 47.42070
# Shear Modulus (GPa) = 59.33589 20.79257 40.06423
#
# Velocity S-wave (km/s) = 5.22088 3.09058 4.29006
# Velocity P-wave (km/s) = 7.54008 5.98283 6.80614
#
# Compressibility (1/GPa) = 0.02239850
#
# Stress axis : x y z
#
# Youngs Moduli (GPa) = 109.65288 52.05244 80.64035
#
# Poissons Ratio (x) = 0.08722 0.22845
# Poissons Ratio (y) = 0.18374 0.37563
# Poissons Ratio (z) = 0.31064 0.24246
#
# Static dielectric constant tensor:
#      x y z
#    x 3.871680 0.000000 -0.081080 
#    y 0.000000 4.056170 0.000000 
#    z -0.081080 0.000000 3.986020 
# 
# 
# High freq. dielectric constant tensor:
#      x y z
#    x 1.851560 0.000000 -0.010620 
#    y 0.000000 1.865940 0.000000 
#    z -0.010620 0.000000 1.858460 
# 
# From -- ./inp_files/34276.got.cif
#   From: 2010.06.25/outbox.cif.g09.slc.cpg/sg15_18_cif.got.tgz:34276.got - 2010.06.28 07:06:18.
