data_PCOD8138733
_publ_section_title
;
Structure prediction by ZEFSAII (Michael W. Deem and Ramdas Pophale) SiO2 
 PCOD8138733
Probable space group: C 2/C
;
_chemical_formula_sum "Si O2"
_cell_formula_units_Z 56
_cell_length_a 22.424050
_cell_length_b 16.727021
_cell_length_c 8.960057
_cell_angle_alpha 90.000000
_cell_angle_beta 128.219305
_cell_angle_gamma 90.000000
_cell_volume 2640.412043
_symmetry_space_group_name_H-M "C 2/C"
_symmetry_group_IT_number 15
_symmetry_cell_setting 'monoclinic'
loop_
_space_group_symop_operation_xyz
x,y,z
-x,y,1/2-z
-x,-y,-z
x,-y,1/2+z
1/2+x,1/2+y,z
1/2-x,1/2+y,1/2-z
1/2-x,1/2-y,-z
1/2+x,1/2-y,1/2+z
loop_
_atom_site_type_symbol
_atom_site_label
_atom_site_fract_x
_atom_site_fract_y
_atom_site_fract_z
Si Si1 0.204290 0.392524 0.311671
Si Si2 0.500000 0.278079 0.750000
Si Si3 0.500000 0.339936 0.250000
Si Si4 0.078093 0.971715 0.192397
Si Si5 0.632554 0.396128 0.999062
Si Si6 0.847133 0.525721 0.476226
Si Si7 0.054018 0.704938 0.540494
Si Si8 0.056844 0.567153 0.139177
O O1 0.287213 0.352873 0.415231
O O2 0.206627 0.471107 0.210381
O O3 0.195890 0.417856 0.472277
O O4 0.138011 0.332509 0.157382
O O5 0.566458 0.331902 0.923383
O O6 0.538554 0.221445 0.689053
O O7 0.563603 0.395087 0.273419
O O8 0.548402 0.286673 0.440072
O O9 0.113226 0.045550 0.333635
O O10 0.138565 0.947048 0.160215
O O11 0.000000 0.000000 0.000000
O O12 0.890650 0.583191 0.425212
O O13 0.900777 0.464234 0.648816
O O14 0.987793 0.646167 0.380464
O O15 0.000000 0.500000 0.000000
#
# Coordination Sequence:
#
# PCOD8138733 Si02
#       8
#     8   4   4   8   8   8   8   8
#     4  11  24  39  63  95 134 163 209 269 333 369
#     4  12  25  42  65  90 122 172 218 252 327 392
#     4  12  23  40  67 100 124 172 212 268 329 382
#     4  12  21  44  73  97 117 160 229 279 312 375
#     4  12  24  44  70  94 124 164 216 278 319 388
#     4  10  20  38  60  98 120 168 219 264 309 368
#     4  12  24  38  62  95 135 169 209 264 322 392
#     4  11  20  35  66  87 127 175 227 257 296 377
#
# _framework density 21.20881
#
# number of rings (size 3 to 8) (size 9 to 14) (size 15 to 20)
#    0.000    0.571    7.143    3.000    0.000    0.571 
#    0.000    0.714    3.143    0.000    0.000    0.000 
#    0.000    0.000    0.000    0.000    0.000    0.000 
#
# Total GULP energy -347182.830988 kJ/mol
# GULP energy per Si atom -12399.386821 kJ/mol
# Density = 2.116054 g / cm^3
# Si number density = 21.208810 Si / 1000 Ang^3
#
#
#
# Elastic Constant Matrix: (Units=GPa)
#
#
# Indices 1 2 3 4 5 6 
#
# 1 122.1889 19.2461 37.5424 0.0000 15.5924 0.0000
# 2 19.2461 55.8960 4.0410 0.0000 9.6324 0.0000
# 3 37.5424 4.0410 55.6545 0.0000 -5.6597 0.0000
# 4 0.0000 0.0000 0.0000 23.2696 0.0000 -15.4212
# 5 15.5924 9.6324 -5.6597 0.0000 36.6571 0.0000
# 6 0.0000 0.0000 0.0000 -15.4212 0.0000 33.2208
#
#
#
# Elastic Compliance Matrix: (Units=1/GPa)
#
#
# Indices 1 2 3 4 5 6 
#
# 1 0.011893 -0.002504 -0.008421 0.000000 -0.005701 0.000000
# 2 -0.002504 0.019464 -0.000138 0.000000 -0.004071 0.000000
# 3 -0.008421 -0.000138 0.024409 0.000000 0.007387 0.000000
# 4 0.000000 0.000000 0.000000 0.062069 0.000000 0.028813
# 5 -0.005701 -0.004071 0.007387 0.000000 0.031915 0.000000
# 6 0.000000 0.000000 0.000000 0.028813 0.000000 0.043477
#
#
# Mechanical properties :
#
#
# Convention : Reuss Voigt Hill
#
# Bulk Modulus (GPa) = 29.72545 39.48871 34.60708
# Shear Modulus (GPa) = 22.06855 30.15681 26.11268
#
# Velocity S-wave (km/s) = 3.22924 3.77490 3.51268
# Velocity P-wave (km/s) = 5.28677 6.13671 5.72753
#
# Compressibility (1/GPa) = 0.03364121
#
# Stress axis : x y z
#
# Youngs Moduli (GPa) = 84.08187 51.37684 40.96769
#
# Poissons Ratio (x) = 0.12864 0.34497
# Poissons Ratio (y) = 0.21053 0.00566
# Poissons Ratio (z) = 0.70802 0.00710
#
# Static dielectric constant tensor:
#      x y z
#    x 4.782290 0.000000 -0.370970 
#    y 0.000000 3.752750 0.000000 
#    z -0.370970 0.000000 3.904380 
# 
# 
# High freq. dielectric constant tensor:
#      x y z
#    x 1.841560 0.000000 -0.021900 
#    y 0.000000 1.817220 0.000000 
#    z -0.021900 0.000000 1.832520 
# 
# From -- ./inp_files/62811.got.cif
#   From: 2010.06.25/outbox.cif.g09.slc.cpg/sg15_32_cif.got.tgz:62811.got - 2010.06.28 07:06:18.
