data_PCOD8138215
_publ_section_title
;
Structure prediction by ZEFSAII (Michael W. Deem and Ramdas Pophale) SiO2 
 PCOD8138215
Probable space group: C 2/C
;
_chemical_formula_sum "Si O2"
_cell_formula_units_Z 36
_cell_length_a 12.507857
_cell_length_b 18.563085
_cell_length_c 10.193420
_cell_angle_alpha 90.000000
_cell_angle_beta 45.950333
_cell_angle_gamma 90.000000
_cell_volume 1701.073981
_symmetry_space_group_name_H-M "C 2/C"
_symmetry_group_IT_number 15
_symmetry_cell_setting 'monoclinic'
loop_
_space_group_symop_operation_xyz
x,y,z
-x,y,1/2-z
-x,-y,-z
x,-y,1/2+z
1/2+x,1/2+y,z
1/2-x,1/2+y,1/2-z
1/2-x,1/2-y,-z
1/2+x,1/2-y,1/2+z
loop_
_atom_site_type_symbol
_atom_site_label
_atom_site_fract_x
_atom_site_fract_y
_atom_site_fract_z
Si Si1 0.751374 0.342592 0.926758
Si Si2 0.164404 0.406747 0.369964
Si Si3 0.683067 0.067388 0.363507
Si Si4 0.000000 0.241530 0.750000
Si Si5 0.323149 0.173420 0.902402
O O1 0.739811 0.407816 0.836954
O O2 0.879719 0.287328 0.768280
O O3 0.804600 0.362626 0.026320
O O4 0.588700 0.306805 0.068925
O O5 0.239460 0.485184 0.326395
O O6 0.227901 0.359611 0.194500
O O7 0.992611 0.423901 0.496779
O O8 0.735380 0.115092 0.441857
O O9 0.500000 0.183626 0.750000
O O10 0.250000 0.250000 0.000000
#
# Coordination Sequence:
#
# PCOD8138215 Si02
#       5
#     8   8   8   4   8
#     4  11  21  38  60  84 112 150 193 236 281 343
#     4  10  20  37  61  86 113 150 194 236 281 338
#     4  10  20  37  61  86 113 150 194 236 281 338
#     4  10  24  34  58  86 116 142 194 238 288 326
#     4  10  23  36  57  87 118 146 186 237 289 334
#
# _framework density 21.163101999999999
#
# number of rings (size 3 to 8) (size 9 to 14) (size 15 to 20)
#    0.000    1.778    2.222    1.333    6.222    3.556 
#    0.000    1.111    4.889    0.000    0.000    0.000 
#    0.000    0.000    0.000    0.000    0.000    0.000 
#
# Total GULP energy -223114.687435 kJ/mol
# GULP energy per Si atom -12395.260413 kJ/mol
# Density = 2.111493 g / cm^3
# Si number density = 21.163102 Si / 1000 Ang^3
#
#
#
# Elastic Constant Matrix: (Units=GPa)
#
#
# Indices 1 2 3 4 5 6 
#
# 1 22.1231 6.8606 10.3558 -0.0001 14.4709 0.0000
# 2 6.8606 136.1678 36.2679 0.0000 11.4948 0.0000
# 3 10.3558 36.2679 73.0503 0.0000 20.0811 0.0000
# 4 -0.0001 0.0000 0.0000 31.2564 0.0000 3.6533
# 5 14.4709 11.4948 20.0811 0.0000 47.2716 0.0000
# 6 0.0000 0.0000 0.0000 3.6533 0.0000 14.5285
#
#
#
# Elastic Compliance Matrix: (Units=1/GPa)
#
#
# Indices 1 2 3 4 5 6 
#
# 1 0.057456 -0.000630 -0.003441 0.000000 -0.015974 0.000000
# 2 -0.000630 0.008474 -0.004081 0.000000 -0.000134 0.000000
# 3 -0.003441 -0.004081 0.017709 0.000000 -0.005477 0.000000
# 4 0.000000 0.000000 0.000000 0.032962 0.000000 -0.008289
# 5 -0.015974 -0.000134 -0.005477 0.000000 0.028403 0.000000
# 6 0.000000 0.000000 0.000000 -0.008289 0.000000 0.070915
#
#
# Mechanical properties :
#
#
# Convention : Reuss Voigt Hill
#
# Bulk Modulus (GPa) = 14.85121 37.58997 26.22059
# Shear Modulus (GPa) = 19.63338 30.46841 25.05090
#
# Velocity S-wave (km/s) = 3.04915 3.79845 3.44424
# Velocity P-wave (km/s) = 4.40785 6.08590 5.31354
#
# Compressibility (1/GPa) = 0.06733456
#
# Stress axis : x y z
#
# Youngs Moduli (GPa) = 17.40454 118.00962 56.46936
#
# Poissons Ratio (x) = 0.07432 0.19433
# Poissons Ratio (y) = 0.01096 0.23045
# Poissons Ratio (z) = 0.05990 0.48159
#
# Static dielectric constant tensor:
#      x y z
#    x 3.478610 0.000000 0.104050 
#    y 0.000000 4.217720 0.000000 
#    z 0.104050 0.000000 3.896600 
# 
# 
# High freq. dielectric constant tensor:
#      x y z
#    x 1.792830 0.000000 0.013950 
#    y 0.000000 1.849490 0.000000 
#    z 0.013950 0.000000 1.828970 
# 
# From -- ./inp_files/38870.got.cif
#   From: 2010.06.25/outbox.cif.g09.slc.cpg/sg15_20_cif.got.tgz:38870.got - 2010.06.28 07:06:18.
