data_PCOD8138732
_publ_section_title
;
Structure prediction by ZEFSAII (Michael W. Deem and Ramdas Pophale) SiO2 
 PCOD8138732
Probable space group: C 2/C
;
_chemical_formula_sum "Si O2"
_cell_formula_units_Z 60
_cell_length_a 12.089659
_cell_length_b 17.544811
_cell_length_c 16.288832
_cell_angle_alpha 90.000000
_cell_angle_beta 64.448370
_cell_angle_gamma 90.000000
_cell_volume 3117.123849
_symmetry_space_group_name_H-M "C 2/C"
_symmetry_group_IT_number 15
_symmetry_cell_setting 'monoclinic'
loop_
_space_group_symop_operation_xyz
x,y,z
-x,y,1/2-z
-x,-y,-z
x,-y,1/2+z
1/2+x,1/2+y,z
1/2-x,1/2+y,1/2-z
1/2-x,1/2-y,-z
1/2+x,1/2-y,1/2+z
loop_
_atom_site_type_symbol
_atom_site_label
_atom_site_fract_x
_atom_site_fract_y
_atom_site_fract_z
Si Si1 0.867451 0.547671 0.395719
Si Si2 0.615292 0.478470 0.517413
Si Si3 0.456006 0.889073 0.349990
Si Si4 0.602406 0.398600 0.147980
Si Si5 0.373202 0.141518 0.553408
Si Si6 0.000000 0.664958 0.250000
Si Si7 0.500459 0.737387 0.908584
Si Si8 0.798124 0.181644 0.538991
O O1 0.730219 0.515720 0.432519
O O2 0.965161 0.480619 0.349236
O O3 0.895762 0.575523 0.479337
O O4 0.888114 0.612562 0.319547
O O5 0.500000 0.500000 0.500000
O O6 0.607628 0.515865 0.610530
O O7 0.622472 0.386515 0.529191
O O8 0.500000 0.855489 0.250000
O O9 0.531997 0.857820 0.402238
O O10 0.317184 0.863630 0.392291
O O11 0.500000 0.395210 0.250000
O O12 0.735894 0.367790 0.134940
O O13 0.562522 0.343137 0.087766
O O14 0.399415 0.220121 0.497043
O O15 0.959517 0.717956 0.187053
O O16 0.627772 0.722497 0.912917
O O17 0.750000 0.250000 0.500000
#
# Coordination Sequence:
#
# PCOD8138732 Si02
#       8
#     8   8   8   8   8   4   8   8
#     4   9  20  38  60  90 123 157 207 253 317 370
#     4  10  21  40  65  86 121 171 209 249 319 391
#     4  11  22  36  61  90 122 163 209 259 312 377
#     4  11  23  40  62  95 124 162 214 269 312 368
#     4  10  22  38  61  89 124 167 208 256 317 381
#     4  10  20  38  60  98 120 152 204 272 306 356
#     4  11  21  39  66  89 127 164 212 256 323 375
#     4  11  23  43  63  89 127 173 212 255 325 396
#
# _framework density 19.248514
#
# number of rings (size 3 to 8) (size 9 to 14) (size 15 to 20)
#    0.000    1.600    4.000    0.800    1.867    0.000 
#    0.000    2.000    0.000    0.000    0.000    0.000 
#    0.000    0.000    0.000    0.000    0.000    0.000 
#
# Total GULP energy -371760.572860 kJ/mol
# GULP energy per Si atom -12392.019095 kJ/mol
# Density = 1.920470 g / cm^3
# Si number density = 19.248514 Si / 1000 Ang^3
#
#
#
# Elastic Constant Matrix: (Units=GPa)
#
#
# Indices 1 2 3 4 5 6 
#
# 1 105.9657 37.8338 39.6088 0.0000 5.3013 0.0000
# 2 37.8338 126.4183 47.1161 0.0000 6.8749 0.0000
# 3 39.6088 47.1161 102.9381 0.0000 -3.5361 0.0000
# 4 0.0000 0.0000 0.0000 23.1279 0.0000 1.0302
# 5 5.3013 6.8749 -3.5361 0.0000 26.3229 0.0000
# 6 0.0000 0.0000 0.0000 1.0302 0.0000 27.0745
#
#
#
# Elastic Compliance Matrix: (Units=1/GPa)
#
#
# Indices 1 2 3 4 5 6 
#
# 1 0.011626 -0.001998 -0.003638 0.000000 -0.002308 0.000000
# 2 -0.001998 0.010138 -0.003967 0.000000 -0.002778 0.000000
# 3 -0.003638 -0.003967 0.013051 0.000000 0.003522 0.000000
# 4 0.000000 0.000000 0.000000 0.043311 0.000000 -0.001648
# 5 -0.002308 -0.002778 0.003522 0.000000 0.039653 0.000000
# 6 0.000000 0.000000 0.000000 -0.001648 0.000000 0.036998
#
#
# Mechanical properties :
#
#
# Convention : Reuss Voigt Hill
#
# Bulk Modulus (GPa) = 64.06656 64.93771 64.50214
# Shear Modulus (GPa) = 27.90400 29.35596 28.62998
#
# Velocity S-wave (km/s) = 3.81158 3.90949 3.86085
# Velocity P-wave (km/s) = 7.26134 7.36129 7.31148
#
# Compressibility (1/GPa) = 0.01560877
#
# Stress axis : x y z
#
# Youngs Moduli (GPa) = 86.01623 98.64197 76.62136
#
# Poissons Ratio (x) = 0.19706 0.27877
# Poissons Ratio (y) = 0.17184 0.30395
# Poissons Ratio (z) = 0.31295 0.39130
#
# Static dielectric constant tensor:
#      x y z
#    x 3.548550 0.000000 -0.088590 
#    y 0.000000 4.104160 0.000000 
#    z -0.088590 0.000000 3.420020 
# 
# 
# High freq. dielectric constant tensor:
#      x y z
#    x 1.748550 0.000000 -0.004060 
#    y 0.000000 1.762840 0.000000 
#    z -0.004060 0.000000 1.737450 
# 
# From -- ./inp_files/146041.got.cif
#   From: 2010.06.25/outbox.cif.g09.slc.cpg/sg15_74_cif.got.tgz:146041.got - 2010.06.28 07:06:18.
