data_PCOD8138971
_publ_section_title
;
Structure prediction by ZEFSAII (Michael W. Deem and Ramdas Pophale) SiO2 
 PCOD8138971
Probable space group: C 2/C
;
_chemical_formula_sum "Si O2"
_cell_formula_units_Z 40
_cell_length_a 5.206797
_cell_length_b 13.772682
_cell_length_c 24.939117
_cell_angle_alpha 90.000000
_cell_angle_beta 121.157866
_cell_angle_gamma 90.000000
_cell_volume 1530.433966
_symmetry_space_group_name_H-M "C 2/C"
_symmetry_group_IT_number 15
_symmetry_cell_setting 'monoclinic'
loop_
_space_group_symop_operation_xyz
x,y,z
-x,y,1/2-z
-x,-y,-z
x,-y,1/2+z
1/2+x,1/2+y,z
1/2-x,1/2+y,1/2-z
1/2-x,1/2-y,-z
1/2+x,1/2-y,1/2+z
loop_
_atom_site_type_symbol
_atom_site_label
_atom_site_fract_x
_atom_site_fract_y
_atom_site_fract_z
Si Si1 0.194973 0.333155 0.727217
Si Si2 0.172344 0.656784 0.417370
Si Si3 0.171428 0.620837 0.718786
Si Si4 0.781691 0.062812 0.920359
Si Si5 0.562153 0.848461 0.022572
O O1 0.500000 0.394151 0.750000
O O2 0.297593 0.235687 0.769144
O O3 0.000000 0.392607 0.750000
O O4 0.030272 0.309665 0.654115
O O5 0.320541 0.552930 0.421177
O O6 0.433307 0.737637 0.454238
O O7 0.968853 0.651691 0.449615
O O8 0.500000 0.572889 0.750000
O O9 0.000000 0.571713 0.750000
O O10 0.988428 0.600096 0.645407
O O11 0.678275 0.088760 0.970054
O O12 0.095298 0.110590 0.937236
#
# Coordination Sequence:
#
# PCOD8138971 Si02
#       5
#     8   8   8   8   8
#     4  10  21  38  61  92 129 169 218 272 327 394
#     4  11  26  44  73 101 135 184 227 275 345 406
#     4  10  20  38  63  91 130 173 214 274 333 386
#     4  12  25  45  71 100 137 180 227 280 340 404
#     4  11  26  46  68 102 141 175 226 287 333 400
#
# _framework density 26.136378000000001
#
# number of rings (size 3 to 8) (size 9 to 14) (size 15 to 20)
#    0.000    1.200    0.000    7.200    0.000    9.600 
#    0.000    0.000    0.000    0.000    0.000    0.000 
#    0.000    0.000    0.000    0.000    0.000    0.000 
#
# Total GULP energy -247921.012396 kJ/mol
# GULP energy per Si atom -12396.050620 kJ/mol
# Density = 2.607689 g / cm^3
# Si number density = 26.136378 Si / 1000 Ang^3
#
#
#
# Elastic Constant Matrix: (Units=GPa)
#
#
# Indices 1 2 3 4 5 6 
#
# 1 153.2159 13.3297 27.8650 0.0000 -10.1429 0.0001
# 2 13.3297 143.4894 6.5898 0.0000 3.6091 0.0000
# 3 27.8650 6.5898 159.3400 -0.0001 -3.6028 0.0000
# 4 0.0000 0.0000 -0.0001 0.6829 0.0000 27.7145
# 5 -10.1429 3.6091 -3.6028 0.0000 32.1192 0.0000
# 6 0.0001 0.0000 0.0000 27.7145 0.0000 -44.4309
#
#
#
# Elastic Compliance Matrix: (Units=1/GPa)
#
#
# Indices 1 2 3 4 5 6 
#
# 1 0.006931 -0.000645 -0.001137 0.000000 0.002134 0.000000
# 2 -0.000645 0.007064 -0.000202 0.000000 -0.001020 0.000000
# 3 -0.001137 -0.000202 0.006492 0.000000 0.000392 0.000000
# 4 0.000000 0.000000 0.000000 0.055647 0.000000 0.034711
# 5 0.002134 -0.001020 0.000392 0.000000 0.031966 0.000000
# 6 0.000000 0.000000 0.000000 0.034711 0.000000 -0.000855
#
#
# Mechanical properties :
#
#
# Convention : Reuss Voigt Hill
#
# Bulk Modulus (GPa) = 60.54237 61.29048 60.91643
# Shear Modulus (GPa) = 42.83728 24.89162 33.86445
#
# Velocity S-wave (km/s) = 4.05284 3.08940 3.60346
# Velocity P-wave (km/s) = 6.71677 6.01889 6.37738
#
# Compressibility (1/GPa) = 0.01651736
#
# Stress axis : x y z
#
# Youngs Moduli (GPa) = 144.28063 141.56166 154.03625
#
# Poissons Ratio (x) = 0.09135 0.17516
# Poissons Ratio (y) = 0.09311 0.03117
# Poissons Ratio (z) = 0.16407 0.02865
#
# Static dielectric constant tensor:
#      x y z
#    x 10.510140 0.000000 -1.131790 
#    y 0.000000 4.653080 0.000000 
#    z -1.131790 0.000000 5.057600 
# 
# 
# High freq. dielectric constant tensor:
#      x y z
#    x 2.058900 0.000000 -0.003040 
#    y 0.000000 2.049250 0.000000 
#    z -0.003040 0.000000 2.055060 
# 
# From -- ./inp_files/260458.got.cif
#   From: 2010.06.25/outbox.cif.g09.slc.cpg/sg15_131_cif.got.tgz:260458.got - 2010.06.28 07:06:18.
