data_PCOD8138015
_publ_section_title
;
Structure prediction by ZEFSAII (Michael W. Deem and Ramdas Pophale) SiO2 
 PCOD8138015
Probable space group: C 2/C
;
_chemical_formula_sum "Si O2"
_cell_formula_units_Z 44
_cell_length_a 26.570510
_cell_length_b 6.505001
_cell_length_c 14.270236
_cell_angle_alpha 90.000000
_cell_angle_beta 57.147364
_cell_angle_gamma 90.000000
_cell_volume 2072.016283
_symmetry_space_group_name_H-M "C 2/C"
_symmetry_group_IT_number 15
_symmetry_cell_setting 'monoclinic'
loop_
_space_group_symop_operation_xyz
x,y,z
-x,y,1/2-z
-x,-y,-z
x,-y,1/2+z
1/2+x,1/2+y,z
1/2-x,1/2+y,1/2-z
1/2-x,1/2-y,-z
1/2+x,1/2-y,1/2+z
loop_
_atom_site_type_symbol
_atom_site_label
_atom_site_fract_x
_atom_site_fract_y
_atom_site_fract_z
Si Si1 0.309042 0.544778 0.433982
Si Si2 0.347085 0.898349 0.654203
Si Si3 0.241002 0.692315 0.666044
Si Si4 0.000000 0.947726 0.750000
Si Si5 0.405384 0.858017 0.403503
Si Si6 0.594469 0.244144 0.220591
O O1 0.262116 0.522426 0.567318
O O2 0.275461 0.594242 0.370089
O O3 0.349022 0.746046 0.413860
O O4 0.346242 0.335960 0.389003
O O5 0.294829 0.734247 0.684052
O O6 0.388158 0.945482 0.522730
O O7 0.391726 0.807153 0.686246
O O8 0.316796 0.108853 0.720649
O O9 0.040141 0.803966 0.642040
O O10 0.041305 0.088928 0.774648
O O11 0.425656 0.044757 0.316783
#
# Coordination Sequence:
#
# PCOD8138015 Si02
#       6
#     8   8   8   4   8   8
#     4   9  20  38  61  88 135 169 204 243 299 370
#     4  11  23  36  65  97 131 164 208 248 304 377
#     4  10  20  37  56  98 135 168 200 247 293 371
#     4  10  24  46  68  82 122 160 212 278 326 354
#     4  10  22  43  62  95 123 160 214 264 305 376
#     4  11  22  42  67  89 120 172 205 260 322 366
#
# _framework density 21.235354999999998
#
# number of rings (size 3 to 8) (size 9 to 14) (size 15 to 20)
#    0.000    1.818    1.818    1.636    2.545    1.455 
#    3.273    3.636    0.000    0.000    0.000    0.000 
#    0.000    0.000    0.000    0.000    0.000    0.000 
#
# Total GULP energy -272840.554232 kJ/mol
# GULP energy per Si atom -12401.843374 kJ/mol
# Density = 2.118702 g / cm^3
# Si number density = 21.235355 Si / 1000 Ang^3
#
#
#
# Elastic Constant Matrix: (Units=GPa)
#
#
# Indices 1 2 3 4 5 6 
#
# 1 115.9632 45.2765 56.5389 0.0001 10.6790 -0.0004
# 2 45.2765 82.1217 36.6682 0.0002 8.9215 -0.0019
# 3 56.5389 36.6682 108.8068 -0.0001 12.3263 0.0000
# 4 0.0001 0.0002 -0.0001 28.8560 0.0001 -8.6715
# 5 10.6790 8.9215 12.3263 0.0001 33.1025 0.0000
# 6 -0.0004 -0.0019 0.0000 -8.6715 0.0000 35.4840
#
#
#
# Elastic Compliance Matrix: (Units=1/GPa)
#
#
# Indices 1 2 3 4 5 6 
#
# 1 0.013067 -0.004841 -0.005041 0.000000 -0.001033 0.000000
# 2 -0.004841 0.016276 -0.002766 0.000000 -0.001795 0.000001
# 3 -0.005041 -0.002766 0.013023 0.000000 -0.002477 0.000000
# 4 0.000000 0.000000 0.000000 0.037402 0.000000 0.009140
# 5 -0.001033 -0.001795 -0.002477 0.000000 0.031949 0.000000
# 6 0.000000 0.000001 0.000000 0.009140 0.000000 0.030415
#
#
# Mechanical properties :
#
#
# Convention : Reuss Voigt Hill
#
# Bulk Modulus (GPa) = 58.58600 64.87324 61.72962
# Shear Modulus (GPa) = 28.88202 30.71571 29.79886
#
# Velocity S-wave (km/s) = 3.69194 3.80734 3.75008
# Velocity P-wave (km/s) = 6.76925 7.06709 6.91977
#
# Compressibility (1/GPa) = 0.01706892
#
# Stress axis : x y z
#
# Youngs Moduli (GPa) = 76.53130 61.43962 76.78642
#
# Poissons Ratio (x) = 0.29742 0.38710
# Poissons Ratio (y) = 0.37047 0.21242
# Poissons Ratio (z) = 0.38582 0.16997
#
# Static dielectric constant tensor:
#      x y z
#    x 3.900600 0.000000 -0.049580 
#    y 0.000000 3.602170 0.000000 
#    z -0.049580 0.000000 3.806660 
# 
# 
# High freq. dielectric constant tensor:
#      x y z
#    x 1.837020 0.000000 -0.001860 
#    y 0.000000 1.821330 0.000000 
#    z -0.001860 0.000000 1.824320 
# 
# From -- ./inp_files/175368.got.cif
#   From: 2010.06.25/outbox.cif.g09.slc.cpg/sg15_88_cif.got.tgz:175368.got - 2010.06.28 07:06:18.
