data_PCOD8138339
_publ_section_title
;
Structure prediction by ZEFSAII (Michael W. Deem and Ramdas Pophale) SiO2 
 PCOD8138339
Probable space group: C 2/C
;
_chemical_formula_sum "Si O2"
_cell_formula_units_Z 48
_cell_length_a 12.866988
_cell_length_b 13.919355
_cell_length_c 27.729267
_cell_angle_alpha 90.000000
_cell_angle_beta 28.674958
_cell_angle_gamma 90.000000
_cell_volume 2383.037732
_symmetry_space_group_name_H-M "C 2/C"
_symmetry_group_IT_number 15
_symmetry_cell_setting 'monoclinic'
loop_
_space_group_symop_operation_xyz
x,y,z
-x,y,1/2-z
-x,-y,-z
x,-y,1/2+z
1/2+x,1/2+y,z
1/2-x,1/2+y,1/2-z
1/2-x,1/2-y,-z
1/2+x,1/2-y,1/2+z
loop_
_atom_site_type_symbol
_atom_site_label
_atom_site_fract_x
_atom_site_fract_y
_atom_site_fract_z
Si Si1 0.581572 0.965182 0.517742
Si Si2 0.449193 0.532027 0.147861
Si Si3 0.437009 0.281844 0.703022
Si Si4 0.442614 0.915261 0.165675
Si Si5 0.592731 0.590342 0.987552
Si Si6 0.647762 0.772481 0.908884
O O1 0.519836 0.852258 0.542846
O O2 0.500000 0.000000 0.500000
O O3 0.461069 0.028601 0.607626
O O4 0.838939 0.976624 0.418757
O O5 0.351753 0.614107 0.222303
O O6 0.261659 0.453134 0.220381
O O7 0.497135 0.592455 0.080156
O O8 0.423628 0.200875 0.666043
O O9 0.291909 0.239224 0.805022
O O10 0.685405 0.306509 0.617386
O O11 0.649855 0.925805 0.115759
O O12 0.521613 0.682435 0.984301
O O13 0.500000 0.500000 0.000000
#
# Coordination Sequence:
#
# PCOD8138339 Si02
#       6
#     8   8   8   8   8   8
#     4  11  22  36  62  92 127 158 200 258 311 368
#     4  11  22  39  62  91 124 163 204 255 311 365
#     4  10  20  37  63  86 120 165 201 247 313 369
#     4  10  23  40  61  90 123 160 206 256 303 372
#     4  10  23  41  64  87 120 166 209 251 303 370
#     4  10  20  38  62  90 120 162 204 251 305 371
#
# _framework density 20.142358000000002
#
# number of rings (size 3 to 8) (size 9 to 14) (size 15 to 20)
#    0.000    1.667    3.333    1.000    2.333    4.667 
#    3.000    2.500    0.000    0.000    0.000    0.000 
#    0.000    0.000    0.000    0.000    0.000    0.000 
#
# Total GULP energy -297388.416086 kJ/mol
# GULP energy per Si atom -12391.184004 kJ/mol
# Density = 2.009651 g / cm^3
# Si number density = 20.142358 Si / 1000 Ang^3
#
#
#
# Elastic Constant Matrix: (Units=GPa)
#
#
# Indices 1 2 3 4 5 6 
#
# 1 73.1245 58.5598 30.3102 0.0000 6.5194 0.0012
# 2 58.5598 150.2176 46.0722 0.0057 -5.7631 0.0032
# 3 30.3102 46.0722 95.1544 -0.0067 -5.8648 0.0117
# 4 0.0000 0.0057 -0.0067 34.7621 0.0075 1.9797
# 5 6.5194 -5.7631 -5.8648 0.0075 18.1337 -0.0025
# 6 0.0012 0.0032 0.0117 1.9797 -0.0025 43.6397
#
#
#
# Elastic Compliance Matrix: (Units=1/GPa)
#
#
# Indices 1 2 3 4 5 6 
#
# 1 0.023024 -0.008178 -0.004127 0.000003 -0.012211 0.000000
# 2 -0.008178 0.010752 -0.002254 -0.000003 0.005628 0.000001
# 3 -0.004127 -0.002254 0.013226 0.000002 0.005045 -0.000003
# 4 0.000003 -0.000003 0.000002 0.028841 -0.000014 -0.001308
# 5 -0.012211 0.005628 0.005045 -0.000014 0.062957 0.000003
# 6 0.000000 0.000001 -0.000003 -0.001308 0.000003 0.022974
#
#
# Mechanical properties :
#
#
# Convention : Reuss Voigt Hill
#
# Bulk Modulus (GPa) = 55.91590 65.37565 60.64577
# Shear Modulus (GPa) = 25.39944 31.54406 28.47175
#
# Velocity S-wave (km/s) = 3.55490 3.96164 3.76377
# Velocity P-wave (km/s) = 6.68359 7.31118 7.00442
#
# Compressibility (1/GPa) = 0.01788400
#
# Stress axis : x y z
#
# Youngs Moduli (GPa) = 43.43305 93.00186 75.60770
#
# Poissons Ratio (x) = 0.76059 0.31202
# Poissons Ratio (y) = 0.35521 0.17043
# Poissons Ratio (z) = 0.17924 0.20964
#
# Static dielectric constant tensor:
#      x y z
#    x 3.463000 -0.000480 -0.149500 
#    y -0.000480 2.677290 -0.002120 
#    z -0.149500 -0.002120 3.619140 
# 
# 
# High freq. dielectric constant tensor:
#      x y z
#    x 1.774290 0.000000 0.011120 
#    y 0.000000 1.797500 0.000000 
#    z 0.011120 0.000000 1.781750 
# 
# From -- ./inp_files/144071.got.cif
#   From: 2010.06.25/outbox.cif.g09.slc.cpg/sg15_73_cif.got.tgz:144071.got - 2010.06.28 07:06:18.
