data_PCOD8138067
_publ_section_title
;
Structure prediction by ZEFSAII (Michael W. Deem and Ramdas Pophale) SiO2 
 PCOD8138067
Probable space group: C 2/C
;
_chemical_formula_sum "Si O2"
_cell_formula_units_Z 56
_cell_length_a 27.670935
_cell_length_b 18.486770
_cell_length_c 18.170178
_cell_angle_alpha 90.000000
_cell_angle_beta 160.889537
_cell_angle_gamma 90.000000
_cell_volume 3043.056855
_symmetry_space_group_name_H-M "C 2/C"
_symmetry_group_IT_number 15
_symmetry_cell_setting 'monoclinic'
loop_
_space_group_symop_operation_xyz
x,y,z
-x,y,1/2-z
-x,-y,-z
x,-y,1/2+z
1/2+x,1/2+y,z
1/2-x,1/2+y,1/2-z
1/2-x,1/2-y,-z
1/2+x,1/2-y,1/2+z
loop_
_atom_site_type_symbol
_atom_site_label
_atom_site_fract_x
_atom_site_fract_y
_atom_site_fract_z
Si Si1 0.344840 0.616627 0.387759
Si Si2 0.156564 0.950504 0.327834
Si Si3 0.778246 0.540450 0.155241
Si Si4 0.100416 0.575518 0.565666
Si Si5 0.312540 0.802167 0.529590
Si Si6 0.368198 0.221092 0.955240
Si Si7 0.849586 0.470770 0.993660
O O1 0.487014 0.569883 0.567699
O O2 0.304930 0.600025 0.414944
O O3 0.374495 0.702255 0.422641
O O4 0.207535 0.595983 0.138023
O O5 0.174222 0.979272 0.436710
O O6 0.259795 0.882140 0.468285
O O7 0.217148 0.011202 0.359500
O O8 0.798762 0.466618 0.230610
O O9 0.932592 0.575034 0.351833
O O10 0.164970 0.657376 0.651705
O O11 0.112206 0.538989 0.502512
O O12 0.250000 0.750000 0.500000
O O13 0.484988 0.801742 0.791827
O O14 0.259981 0.777547 0.371247
O O15 0.000000 0.445682 0.250000
#
# Coordination Sequence:
#
# PCOD8138067 Si02
#       7
#     8   8   8   8   8   8   8
#     4  11  25  34  56  88 118 145 186 241 295 339
#     4  12  20  37  58  86 115 147 184 240 288 343
#     4  10  21  35  57  85 114 153 191 233 275 347
#     4  10  20  37  58  84 111 156 197 226 281 341
#     4  11  20  31  53  82 119 147 173 226 299 352
#     4  11  21  34  52  85 118 149 183 232 286 346
#     4  11  21  41  60  79 108 155 202 231 277 343
#
# _framework density 18.402547999999999
#
# number of rings (size 3 to 8) (size 9 to 14) (size 15 to 20)
#    0.000    1.143    5.714    1.714    2.000    0.000 
#    0.000    0.000    0.000    4.286    0.000    0.000 
#    0.000    0.000    0.000    0.000    0.000    0.000 
#
# Total GULP energy -347120.243901 kJ/mol
# GULP energy per Si atom -12397.151568 kJ/mol
# Density = 1.836066 g / cm^3
# Si number density = 18.402548 Si / 1000 Ang^3
#
#
#
# Elastic Constant Matrix: (Units=GPa)
#
#
# Indices 1 2 3 4 5 6 
#
# 1 105.3318 35.4097 27.5743 0.0000 -1.3939 0.0000
# 2 35.4097 76.3443 34.3683 0.0000 -2.8413 0.0000
# 3 27.5743 34.3683 75.9825 0.0000 -5.0209 0.0000
# 4 0.0000 0.0000 0.0000 18.1723 0.0000 3.8582
# 5 -1.3939 -2.8413 -5.0209 0.0000 25.0195 0.0000
# 6 0.0000 0.0000 0.0000 3.8582 0.0000 23.8245
#
#
#
# Elastic Compliance Matrix: (Units=1/GPa)
#
#
# Indices 1 2 3 4 5 6 
#
# 1 0.011540 -0.004356 -0.002237 0.000000 -0.000301 0.000000
# 2 -0.004356 0.018096 -0.006571 0.000000 0.000494 0.000000
# 3 -0.002237 -0.006571 0.017115 0.000000 0.002564 0.000000
# 4 0.000000 0.000000 0.000000 0.056988 0.000000 -0.009229
# 5 -0.000301 0.000494 0.002564 0.000000 0.040523 0.000000
# 6 0.000000 0.000000 0.000000 -0.009229 0.000000 0.043468
#
#
# Mechanical properties :
#
#
# Convention : Reuss Voigt Hill
#
# Bulk Modulus (GPa) = 48.97150 50.26259 49.61705
# Shear Modulus (GPa) = 22.63811 24.09036 23.36423
#
# Velocity S-wave (km/s) = 3.51117 3.62204 3.56704
# Velocity P-wave (km/s) = 6.56558 6.69809 6.63216
#
# Compressibility (1/GPa) = 0.02042004
#
# Stress axis : x y z
#
# Youngs Moduli (GPa) = 86.65478 55.26131 58.42941
#
# Poissons Ratio (x) = 0.24075 0.13072
# Poissons Ratio (y) = 0.37751 0.38397
# Poissons Ratio (z) = 0.19387 0.36315
#
# Static dielectric constant tensor:
#      x y z
#    x 4.335840 0.000000 0.314690 
#    y 0.000000 3.562820 0.000000 
#    z 0.314690 0.000000 3.298500 
# 
# 
# High freq. dielectric constant tensor:
#      x y z
#    x 1.735360 0.000000 0.012120 
#    y 0.000000 1.694700 0.000000 
#    z 0.012120 0.000000 1.690620 
# 
# From -- ./inp_files/222970.got.cif
#   From: 2010.06.25/outbox.cif.g09.slc.cpg/sg15_112_cif.got.tgz:222970.got - 2010.06.28 07:06:18.
