data_PCOD8138463
_publ_section_title
;
Structure prediction by ZEFSAII (Michael W. Deem and Ramdas Pophale) SiO2 
 PCOD8138463
Probable space group: C 2/C
;
_chemical_formula_sum "Si O2"
_cell_formula_units_Z 56
_cell_length_a 24.600795
_cell_length_b 8.642550
_cell_length_c 15.492051
_cell_angle_alpha 90.000000
_cell_angle_beta 52.669537
_cell_angle_gamma 90.000000
_cell_volume 2619.085443
_symmetry_space_group_name_H-M "C 2/C"
_symmetry_group_IT_number 15
_symmetry_cell_setting 'monoclinic'
loop_
_space_group_symop_operation_xyz
x,y,z
-x,y,1/2-z
-x,-y,-z
x,-y,1/2+z
1/2+x,1/2+y,z
1/2-x,1/2+y,1/2-z
1/2-x,1/2-y,-z
1/2+x,1/2-y,1/2+z
loop_
_atom_site_type_symbol
_atom_site_label
_atom_site_fract_x
_atom_site_fract_y
_atom_site_fract_z
Si Si1 0.900726 0.381298 0.562025
Si Si2 0.996769 0.823233 0.075693
Si Si3 0.309293 0.834612 0.887652
Si Si4 0.603693 0.416055 0.843854
Si Si5 0.557804 0.084149 0.137211
Si Si6 0.662711 0.891415 0.252118
Si Si7 0.295427 0.665910 0.722142
O O1 0.962242 0.269572 0.529676
O O2 0.913540 0.464008 0.459428
O O3 0.894027 0.503242 0.646861
O O4 0.832141 0.278135 0.617103
O O5 0.011574 0.720717 0.143664
O O6 0.948279 0.965283 0.153938
O O7 0.069470 0.873949 0.968066
O O8 0.379663 0.835666 0.872539
O O9 0.313513 0.734072 0.798105
O O10 0.300944 0.016559 0.863211
O O11 0.250000 0.750000 0.000000
O O12 0.623479 0.268157 0.763965
O O13 0.674527 0.493859 0.805176
O O14 0.500000 0.995249 0.250000
O O15 0.716436 0.846681 0.275314
#
# Coordination Sequence:
#
# PCOD8138463 Si02
#       7
#     8   8   8   8   8   8   8
#     4  10  21  39  64  94 125 174 231 267 322 419
#     4  10  22  38  66  89 130 172 224 273 328 411
#     4  11  26  43  66 100 138 174 222 290 352 397
#     4  10  20  37  65  95 120 162 235 268 318 389
#     4  12  23  38  67  94 136 176 220 282 351 397
#     4  11  21  39  72  93 126 173 228 273 325 424
#     4  10  22  42  67  95 126 177 231 270 335 411
#
# _framework density 21.381509999999999
#
# number of rings (size 3 to 8) (size 9 to 14) (size 15 to 20)
#    0.000    1.429    1.429    5.571    4.000    0.000 
#    0.000    2.857   12.571    0.000    0.000    0.000 
#    0.000    0.000    0.000    0.000    0.000    0.000 
#
# Total GULP energy -346910.992978 kJ/mol
# GULP energy per Si atom -12389.678321 kJ/mol
# Density = 2.133284 g / cm^3
# Si number density = 21.381510 Si / 1000 Ang^3
#
#
#
# Elastic Constant Matrix: (Units=GPa)
#
#
# Indices 1 2 3 4 5 6 
#
# 1 85.9244 30.3348 36.6381 -0.0002 -0.8156 0.0004
# 2 30.3348 145.2455 57.0964 -0.0009 -6.3226 0.0030
# 3 36.6381 57.0964 115.0436 0.0005 -6.9795 -0.0002
# 4 -0.0002 -0.0009 0.0005 45.7557 -0.0001 -7.4944
# 5 -0.8156 -6.3226 -6.9795 -0.0001 28.4626 -0.0002
# 6 0.0004 0.0030 -0.0002 -7.4944 -0.0002 23.5955
#
#
#
# Elastic Compliance Matrix: (Units=1/GPa)
#
#
# Indices 1 2 3 4 5 6 
#
# 1 0.013719 -0.001446 -0.003702 0.000000 -0.000836 0.000000
# 2 -0.001446 0.008728 -0.003812 0.000000 0.000962 -0.000001
# 3 -0.003702 -0.003812 0.011882 0.000000 0.001961 0.000001
# 4 0.000000 0.000000 0.000000 0.023055 0.000000 0.007323
# 5 -0.000836 0.000962 0.001961 0.000000 0.035804 0.000000
# 6 0.000000 -0.000001 0.000001 0.007323 0.000000 0.044707
#
#
# Mechanical properties :
#
#
# Convention : Reuss Voigt Hill
#
# Bulk Modulus (GPa) = 60.94788 66.03913 63.49350
# Shear Modulus (GPa) = 31.00073 34.37236 32.68655
#
# Velocity S-wave (km/s) = 3.81187 4.01381 3.91414
# Velocity P-wave (km/s) = 6.92391 7.24113 7.08430
#
# Compressibility (1/GPa) = 0.01640746
#
# Stress axis : x y z
#
# Youngs Moduli (GPa) = 72.88939 114.57939 84.15752
#
# Poissons Ratio (x) = 0.16573 0.31156
# Poissons Ratio (y) = 0.10543 0.32085
# Poissons Ratio (z) = 0.26984 0.43683
#
# Static dielectric constant tensor:
#      x y z
#    x 3.766530 0.000000 -0.287710 
#    y 0.000000 4.274080 0.000000 
#    z -0.287710 0.000000 3.993840 
# 
# 
# High freq. dielectric constant tensor:
#      x y z
#    x 1.833720 0.000000 -0.026820 
#    y 0.000000 1.852700 0.000000 
#    z -0.026820 0.000000 1.824210 
# 
# From -- ./inp_files/172270.got.cif
#   From: 2010.06.25/outbox.cif.g09.slc.cpg/sg15_87_cif.got.tgz:172270.got - 2010.06.28 07:06:18.
