data_PCOD8138803
_publ_section_title
;
Structure prediction by ZEFSAII (Michael W. Deem and Ramdas Pophale) SiO2 
 PCOD8138803
Probable space group: C 2/C
;
_chemical_formula_sum "Si O2"
_cell_formula_units_Z 52
_cell_length_a 14.211539
_cell_length_b 25.817551
_cell_length_c 10.070035
_cell_angle_alpha 90.000000
_cell_angle_beta 44.540189
_cell_angle_gamma 90.000000
_cell_volume 2591.544728
_symmetry_space_group_name_H-M "C 2/C"
_symmetry_group_IT_number 15
_symmetry_cell_setting 'monoclinic'
loop_
_space_group_symop_operation_xyz
x,y,z
-x,y,1/2-z
-x,-y,-z
x,-y,1/2+z
1/2+x,1/2+y,z
1/2-x,1/2+y,1/2-z
1/2-x,1/2-y,-z
1/2+x,1/2-y,1/2+z
loop_
_atom_site_type_symbol
_atom_site_label
_atom_site_fract_x
_atom_site_fract_y
_atom_site_fract_z
Si Si1 0.022324 0.061491 0.471729
Si Si2 0.500000 0.373533 0.250000
Si Si3 0.015980 0.295888 0.579861
Si Si4 0.494558 0.879927 0.403542
Si Si5 0.278284 0.964348 0.584780
Si Si6 0.740067 0.944765 0.191150
Si Si7 0.690020 0.287426 0.170486
O O1 0.052530 0.088540 0.581707
O O2 0.885006 0.083577 0.548413
O O3 0.148823 0.071105 0.249142
O O4 0.000000 0.000000 0.500000
O O5 0.627736 0.339566 0.169723
O O6 0.941832 0.337490 0.560494
O O7 0.175025 0.295843 0.376494
O O8 0.000000 0.312351 0.750000
O O9 0.936574 0.241743 0.631973
O O10 0.500000 0.855904 0.250000
O O11 0.406969 0.931627 0.495660
O O12 0.641439 0.896824 0.302198
O O13 0.279126 0.976790 0.426726
O O14 0.280160 0.017730 0.663020
O O15 0.750000 0.250000 0.000000
#
# Coordination Sequence:
#
# PCOD8138803 Si02
#       7
#     8   4   8   8   8   8   8
#     4  10  24  35  59  89 124 160 210 244 308 370
#     4  12  22  38  66  92 128 174 194 270 320 356
#     4  10  21  37  62  88 123 144 204 263 305 366
#     4  10  22  39  56  87 121 163 197 252 318 373
#     4  10  22  35  61  80 123 162 211 252 303 367
#     4  10  21  39  55  84 122 163 206 259 300 369
#     4  10  20  38  61  94 122 149 207 266 309 360
#
# _framework density 20.065252000000001
#
# number of rings (size 3 to 8) (size 9 to 14) (size 15 to 20)
#    0.000    1.846    2.308    1.846   12.923    1.231 
#    0.000    0.769    0.000    1.846    0.000    0.000 
#    0.000    0.000    0.000    0.000    0.000    0.000 
#
# Total GULP energy -322167.442615 kJ/mol
# GULP energy per Si atom -12391.055485 kJ/mol
# Density = 2.001958 g / cm^3
# Si number density = 20.065252 Si / 1000 Ang^3
#
#
#
# Elastic Constant Matrix: (Units=GPa)
#
#
# Indices 1 2 3 4 5 6 
#
# 1 94.1947 28.8427 26.9371 0.0000 -15.0504 0.0000
# 2 28.8427 77.8425 31.6876 0.0000 9.8083 0.0000
# 3 26.9371 31.6876 71.0444 0.0000 2.3074 0.0000
# 4 0.0000 0.0000 0.0000 26.2989 0.0000 7.4995
# 5 -15.0504 9.8083 2.3074 0.0000 43.0480 0.0000
# 6 0.0000 0.0000 0.0000 7.4995 0.0000 21.4442
#
#
#
# Elastic Compliance Matrix: (Units=1/GPa)
#
#
# Indices 1 2 3 4 5 6 
#
# 1 0.013973 -0.004532 -0.003475 0.000000 0.006104 0.000000
# 2 -0.004532 0.017621 -0.005970 0.000000 -0.005279 0.000000
# 3 -0.003475 -0.005970 0.018083 0.000000 -0.000824 0.000000
# 4 0.000000 0.000000 0.000000 0.042237 0.000000 -0.014771
# 5 0.006104 -0.005279 -0.000824 0.000000 0.026611 0.000000
# 6 0.000000 0.000000 0.000000 -0.014771 0.000000 0.051798
#
#
# Mechanical properties :
#
#
# Convention : Reuss Voigt Hill
#
# Bulk Modulus (GPa) = 46.03268 46.44625 46.23946
# Shear Modulus (GPa) = 24.32893 28.53250 26.43071
#
# Velocity S-wave (km/s) = 3.48586 3.77501 3.63331
# Velocity P-wave (km/s) = 6.26043 6.49606 6.37933
#
# Compressibility (1/GPa) = 0.02172370
#
# Stress axis : x y z
#
# Youngs Moduli (GPa) = 71.56640 56.75072 55.30180
#
# Poissons Ratio (x) = 0.25719 0.19217
# Poissons Ratio (y) = 0.32434 0.33013
# Poissons Ratio (z) = 0.24868 0.33878
#
# Static dielectric constant tensor:
#      x y z
#    x 4.380980 0.000000 -0.654320 
#    y 0.000000 3.461560 0.000000 
#    z -0.654320 0.000000 4.071030 
# 
# 
# High freq. dielectric constant tensor:
#      x y z
#    x 1.799380 0.000000 -0.020330 
#    y 0.000000 1.761300 0.000000 
#    z -0.020330 0.000000 1.772430 
# 
# From -- ./inp_files/43412.got.cif
#   From: 2010.06.25/outbox.cif.g09.slc.cpg/sg15_22_cif.got.tgz:43412.got - 2010.06.28 07:06:18.
