data_PCOD8138374
_publ_section_title
;
Structure prediction by ZEFSAII (Michael W. Deem and Ramdas Pophale) SiO2 
 PCOD8138374
Probable space group: C 2/C
;
_chemical_formula_sum "Si O2"
_cell_formula_units_Z 40
_cell_length_a 16.966550
_cell_length_b 4.994548
_cell_length_c 24.280899
_cell_angle_alpha 90.000000
_cell_angle_beta 115.408699
_cell_angle_gamma 90.000000
_cell_volume 1858.541050
_symmetry_space_group_name_H-M "C 2/C"
_symmetry_group_IT_number 15
_symmetry_cell_setting 'monoclinic'
loop_
_space_group_symop_operation_xyz
x,y,z
-x,y,1/2-z
-x,-y,-z
x,-y,1/2+z
1/2+x,1/2+y,z
1/2-x,1/2+y,1/2-z
1/2-x,1/2-y,-z
1/2+x,1/2-y,1/2+z
loop_
_atom_site_type_symbol
_atom_site_label
_atom_site_fract_x
_atom_site_fract_y
_atom_site_fract_z
Si Si1 0.297553 0.425027 0.285653
Si Si2 0.673602 0.143084 0.515610
Si Si3 0.585088 0.045303 0.382982
Si Si4 0.223183 0.115635 0.594949
Si Si5 0.508133 0.551609 0.188872
O O1 0.248363 0.707410 0.267004
O O2 0.294218 0.319350 0.346932
O O3 0.396048 0.451673 0.295961
O O4 0.750000 0.250000 0.500000
O O5 0.590718 0.094458 0.450827
O O6 0.659039 0.371731 0.557323
O O7 0.700391 0.869789 0.551851
O O8 0.560050 0.319531 0.345640
O O9 0.675776 0.953122 0.383494
O O10 0.512589 0.817890 0.352149
O O11 0.500000 0.629377 0.250000
#
# Coordination Sequence:
#
# PCOD8138374 Si02
#       5
#     8   8   8   8   8
#     4  12  25  43  62  88 122 161 201 249 303 360
#     4  10  20  37  63  93 121 158 201 243 293 358
#     4  11  21  39  62  89 119 155 200 249 293 352
#     4  11  21  39  64  91 121 161 202 243 294 357
#     4  12  24  40  61  89 119 157 201 250 302 355
#
# _framework density 21.522255000000001
#
# number of rings (size 3 to 8) (size 9 to 14) (size 15 to 20)
#    0.000    0.800    0.000   11.400    0.000    0.000 
#    0.000    6.000    0.000    0.000    0.000    0.000 
#    0.000    0.000    0.000    0.000    0.000    0.000 
#
# Total GULP energy -248095.234452 kJ/mol
# GULP energy per Si atom -12404.761723 kJ/mol
# Density = 2.147327 g / cm^3
# Si number density = 21.522255 Si / 1000 Ang^3
#
#
#
# Elastic Constant Matrix: (Units=GPa)
#
#
# Indices 1 2 3 4 5 6 
#
# 1 61.9849 2.5308 37.1242 0.0002 2.2556 -0.0018
# 2 2.5308 124.8612 42.8946 0.0003 20.8440 0.0022
# 3 37.1242 42.8946 128.4731 -0.0002 12.3229 0.0013
# 4 0.0002 0.0003 -0.0002 33.3950 0.0002 2.8664
# 5 2.2556 20.8440 12.3229 0.0002 22.8551 -0.0009
# 6 -0.0018 0.0022 0.0013 2.8664 -0.0009 17.3872
#
#
#
# Elastic Compliance Matrix: (Units=1/GPa)
#
#
# Indices 1 2 3 4 5 6 
#
# 1 0.019851 0.001801 -0.006319 0.000000 -0.000195 0.000002
# 2 0.001801 0.010407 -0.003235 0.000000 -0.007924 -0.000001
# 3 -0.006319 -0.003235 0.010911 0.000000 -0.002309 -0.000001
# 4 0.000000 0.000000 0.000000 0.030374 -0.000001 -0.005007
# 5 -0.000195 -0.007924 -0.002309 -0.000001 0.052245 0.000004
# 6 0.000002 -0.000001 -0.000001 -0.005007 0.000004 0.058339
#
#
# Mechanical properties :
#
#
# Convention : Reuss Voigt Hill
#
# Bulk Modulus (GPa) = 38.96632 53.37980 46.17306
# Shear Modulus (GPa) = 24.24977 30.24543 27.24760
#
# Velocity S-wave (km/s) = 3.36032 3.75281 3.56198
# Velocity P-wave (km/s) = 5.76195 6.60561 6.19815
#
# Compressibility (1/GPa) = 0.02566318
#
# Stress axis : x y z
#
# Youngs Moduli (GPa) = 50.37518 96.09317 91.64883
#
# Poissons Ratio (x) = -0.17305 0.57912
# Poissons Ratio (y) = -0.09072 0.29647
# Poissons Ratio (z) = 0.31831 0.31085
#
# Static dielectric constant tensor:
#      x y z
#    x 3.597980 -0.000030 0.204500 
#    y -0.000030 4.025730 -0.001030 
#    z 0.204500 -0.001030 3.619270 
# 
# 
# High freq. dielectric constant tensor:
#      x y z
#    x 1.814190 0.000000 0.010450 
#    y 0.000000 1.868860 0.000000 
#    z 0.010450 0.000000 1.868600 
# 
# From -- ./inp_files/271747.got.cif
#   From: 2010.06.25/outbox.cif.g09.slc.cpg/sg15_136_cif.got.tgz:271747.got - 2010.06.28 07:06:18.
