data_PCOD8138096
_publ_section_title
;
Structure prediction by ZEFSAII (Michael W. Deem and Ramdas Pophale) SiO2 
 PCOD8138096
Probable space group: C 2/C
;
_chemical_formula_sum "Si O2"
_cell_formula_units_Z 52
_cell_length_a 24.706528
_cell_length_b 8.427341
_cell_length_c 14.959401
_cell_angle_alpha 90.000000
_cell_angle_beta 121.341215
_cell_angle_gamma 90.000000
_cell_volume 2660.219872
_symmetry_space_group_name_H-M "C 2/C"
_symmetry_group_IT_number 15
_symmetry_cell_setting 'monoclinic'
loop_
_space_group_symop_operation_xyz
x,y,z
-x,y,1/2-z
-x,-y,-z
x,-y,1/2+z
1/2+x,1/2+y,z
1/2-x,1/2+y,1/2-z
1/2-x,1/2-y,-z
1/2+x,1/2-y,1/2+z
loop_
_atom_site_type_symbol
_atom_site_label
_atom_site_fract_x
_atom_site_fract_y
_atom_site_fract_z
Si Si1 0.681427 0.959891 0.948566
Si Si2 0.055075 0.526193 0.422477
Si Si3 0.000000 0.215006 0.750000
Si Si4 0.577094 0.043846 0.645338
Si Si5 0.765407 0.980403 0.186005
Si Si6 0.378843 0.720590 0.732103
Si Si7 0.204403 0.658585 0.806832
O O1 0.616296 0.049120 0.925475
O O2 0.663275 0.796893 0.883158
O O3 0.720074 0.077755 0.915893
O O4 0.723911 0.909568 0.069529
O O5 0.036970 0.683878 0.355083
O O6 0.075452 0.574061 0.539124
O O7 0.992050 0.415275 0.371077
O O8 0.941476 0.123960 0.748682
O O9 0.628114 0.162826 0.731613
O O10 0.597040 0.861251 0.682119
O O11 0.767132 0.167979 0.173013
O O12 0.835480 0.904451 0.247538
O O13 0.733093 0.950105 0.253183
#
# Coordination Sequence:
#
# PCOD8138096 Si02
#       7
#     8   8   4   8   8   8   8
#     4  10  20  37  59  84 108 148 191 231 269 327
#     4   9  16  31  60  81 109 139 191 229 263 325
#     4   8  16  32  52  84 104 144 186 224 274 324
#     4   9  17  34  57  84 106 147 184 232 270 321
#     4  12  23  38  56  82 117 150 182 233 275 337
#     4   9  19  34  57  81 110 145 188 225 277 325
#     4  11  23  37  55  83 113 147 189 225 282 327
#
# _framework density 19.547257999999999
#
# number of rings (size 3 to 8) (size 9 to 14) (size 15 to 20)
#    0.000    2.154    1.538    3.692    0.000    0.000 
#    0.000    1.538    0.000    8.308    0.000    0.000 
#    0.000    0.000    0.000    0.000    0.000    0.000 
#
# Total GULP energy -322126.401650 kJ/mol
# GULP energy per Si atom -12389.476987 kJ/mol
# Density = 1.950277 g / cm^3
# Si number density = 19.547258 Si / 1000 Ang^3
#
#
#
# Elastic Constant Matrix: (Units=GPa)
#
#
# Indices 1 2 3 4 5 6 
#
# 1 132.7217 25.7110 31.1455 0.0000 -9.7725 0.0000
# 2 25.7110 36.4899 -5.2077 0.0000 -1.4841 0.0000
# 3 31.1455 -5.2077 70.0034 0.0000 -7.1166 0.0000
# 4 0.0000 0.0000 0.0000 15.0660 0.0000 4.9922
# 5 -9.7725 -1.4841 -7.1166 0.0000 30.7689 0.0000
# 6 0.0000 0.0000 0.0000 4.9922 0.0000 35.0859
#
#
#
# Elastic Compliance Matrix: (Units=1/GPa)
#
#
# Indices 1 2 3 4 5 6 
#
# 1 0.010389 -0.007968 -0.005037 0.000000 0.001750 0.000000
# 2 -0.007968 0.033914 0.006121 0.000000 0.000521 0.000000
# 3 -0.005037 0.006121 0.017255 0.000000 0.002686 0.000000
# 4 0.000000 0.000000 0.000000 0.069659 0.000000 -0.009911
# 5 0.001750 0.000521 0.002686 0.000000 0.033703 0.000000
# 6 0.000000 0.000000 0.000000 -0.009911 0.000000 0.029912
#
#
# Mechanical properties :
#
#
# Convention : Reuss Voigt Hill
#
# Bulk Modulus (GPa) = 20.92520 38.05698 29.49109
# Shear Modulus (GPa) = 22.26892 28.68858 25.47875
#
# Velocity S-wave (km/s) = 3.37892 3.83515 3.61424
# Velocity P-wave (km/s) = 5.09421 6.25481 5.70410
#
# Compressibility (1/GPa) = 0.04778927
#
# Stress axis : x y z
#
# Youngs Moduli (GPa) = 96.25559 29.48659 57.95584
#
# Poissons Ratio (x) = 0.23494 0.29193
# Poissons Ratio (y) = 0.76695 -0.35474
# Poissons Ratio (z) = 0.48484 -0.18048
#
# Static dielectric constant tensor:
#      x y z
#    x 4.255520 0.000000 0.026260 
#    y 0.000000 2.905080 0.000000 
#    z 0.026260 0.000000 3.667430 
# 
# 
# High freq. dielectric constant tensor:
#      x y z
#    x 1.794720 0.000000 -0.001480 
#    y 0.000000 1.688880 0.000000 
#    z -0.001480 0.000000 1.771220 
# 
# From -- ./inp_files/172059.got.cif
#   From: 2010.06.25/outbox.cif.g09.slc.cpg/sg15_87_cif.got.tgz:172059.got - 2010.06.28 07:06:18.
