data_PCOD8138079
_publ_section_title
;
Structure prediction by ZEFSAII (Michael W. Deem and Ramdas Pophale) SiO2 
 PCOD8138079
Probable space group: C 2/C
;
_chemical_formula_sum "Si O2"
_cell_formula_units_Z 56
_cell_length_a 28.515173
_cell_length_b 10.987979
_cell_length_c 8.670570
_cell_angle_alpha 90.000000
_cell_angle_beta 114.888061
_cell_angle_gamma 90.000000
_cell_volume 2464.403616
_symmetry_space_group_name_H-M "C 2/C"
_symmetry_group_IT_number 15
_symmetry_cell_setting 'monoclinic'
loop_
_space_group_symop_operation_xyz
x,y,z
-x,y,1/2-z
-x,-y,-z
x,-y,1/2+z
1/2+x,1/2+y,z
1/2-x,1/2+y,1/2-z
1/2-x,1/2-y,-z
1/2+x,1/2-y,1/2+z
loop_
_atom_site_type_symbol
_atom_site_label
_atom_site_fract_x
_atom_site_fract_y
_atom_site_fract_z
Si Si1 0.952769 0.652162 0.899086
Si Si2 0.827808 0.012285 0.657461
Si Si3 0.610520 0.631797 0.502978
Si Si4 0.500000 0.337081 0.750000
Si Si5 0.839168 0.627226 0.769620
Si Si6 0.000000 0.540933 0.250000
Si Si7 0.832989 0.373353 0.917008
Si Si8 0.222485 0.839672 0.670364
O O1 0.893536 0.695388 0.815928
O O2 0.988259 0.759795 0.886339
O O3 0.959908 0.536322 0.797012
O O4 0.966779 0.626526 0.094308
O O5 0.876330 0.070823 0.815088
O O6 0.796310 0.117652 0.524344
O O7 0.849125 0.913370 0.568396
O O8 0.789874 0.944030 0.722082
O O9 0.552091 0.591558 0.372686
O O10 0.618891 0.778253 0.528118
O O11 0.851391 0.500390 0.870827
O O12 0.814079 0.605757 0.567183
O O13 0.802882 0.710473 0.824536
O O14 0.784217 0.321045 0.753967
#
# Coordination Sequence:
#
# PCOD8138079 Si02
#       8
#     8   8   8   4   8   4   8   8
#     4  10  20  37  58  88 129 170 212 267 322 389
#     4  10  24  46  70  94 132 176 225 278 322 395
#     4  11  25  45  68  97 131 174 225 277 331 389
#     4  11  22  42  66  95 130 168 221 278 331 388
#     4  12  25  41  64  98 135 173 218 269 333 399
#     4   9  20  32  58  83 126 172 211 256 327 382
#     4  12  26  41  66 100 136 175 219 273 332 401
#     4  11  24  44  67  95 135 176 221 272 333 389
#
# _framework density 22.723549999999999
#
# number of rings (size 3 to 8) (size 9 to 14) (size 15 to 20)
#    0.000    1.143    2.857    2.143   10.000    2.286 
#    0.000    0.000    0.000    0.000    0.000    0.000 
#    0.000    0.000    0.000    0.000    0.000    0.000 
#
# Total GULP energy -347267.899079 kJ/mol
# GULP energy per Si atom -12402.424967 kJ/mol
# Density = 2.267183 g / cm^3
# Si number density = 22.723550 Si / 1000 Ang^3
#
#
#
# Elastic Constant Matrix: (Units=GPa)
#
#
# Indices 1 2 3 4 5 6 
#
# 1 66.8278 -2.9682 18.0932 0.0000 16.5807 0.0000
# 2 -2.9682 70.5721 18.7501 0.0000 -5.8587 0.0000
# 3 18.0932 18.7501 144.3230 0.0000 5.9519 0.0000
# 4 0.0000 0.0000 0.0000 20.4207 0.0000 3.3332
# 5 16.5807 -5.8587 5.9519 0.0000 40.4816 0.0000
# 6 0.0000 0.0000 0.0000 3.3332 0.0000 24.8452
#
#
#
# Elastic Compliance Matrix: (Units=1/GPa)
#
#
# Indices 1 2 3 4 5 6 
#
# 1 0.017177 0.000694 -0.001969 0.000000 -0.006645 0.000000
# 2 0.000694 0.014944 -0.002119 0.000000 0.002190 0.000000
# 3 -0.001969 -0.002119 0.007476 0.000000 -0.000599 0.000000
# 4 0.000000 0.000000 0.000000 0.050066 0.000000 -0.006717
# 5 -0.006645 0.002190 -0.000599 0.000000 0.027829 0.000000
# 6 0.000000 0.000000 0.000000 -0.006717 0.000000 0.041150
#
#
# Mechanical properties :
#
#
# Convention : Reuss Voigt Hill
#
# Bulk Modulus (GPa) = 30.48055 38.83033 34.65544
# Shear Modulus (GPa) = 28.35003 33.67270 31.01136
#
# Velocity S-wave (km/s) = 3.53598 3.85365 3.69822
# Velocity P-wave (km/s) = 5.48759 6.07668 5.78963
#
# Compressibility (1/GPa) = 0.03280781
#
# Stress axis : x y z
#
# Youngs Moduli (GPa) = 58.21852 66.91714 133.76518
#
# Poissons Ratio (x) = -0.04644 0.26345
# Poissons Ratio (y) = -0.04041 0.28342
# Poissons Ratio (z) = 0.11466 0.14178
#
# Static dielectric constant tensor:
#      x y z
#    x 3.887460 0.000000 0.059260 
#    y 0.000000 3.845660 0.000000 
#    z 0.059260 0.000000 4.466840 
# 
# 
# High freq. dielectric constant tensor:
#      x y z
#    x 1.888990 0.000000 0.001000 
#    y 0.000000 1.878320 0.000000 
#    z 0.001000 0.000000 1.916860 
# 
# From -- ./inp_files/65461.got.cif
#   From: 2010.06.25/outbox.cif.g09.slc.cpg/sg15_33_cif.got.tgz:65461.got - 2010.06.28 07:06:18.
