data_PCOD8138759
_publ_section_title
;
Structure prediction by ZEFSAII (Michael W. Deem and Ramdas Pophale) SiO2 
 PCOD8138759
Probable space group: C 2/C
;
_chemical_formula_sum "Si O2"
_cell_formula_units_Z 56
_cell_length_a 16.753630
_cell_length_b 11.909987
_cell_length_c 19.475150
_cell_angle_alpha 90.000000
_cell_angle_beta 43.533001
_cell_angle_gamma 90.000000
_cell_volume 2676.558046
_symmetry_space_group_name_H-M "C 2/C"
_symmetry_group_IT_number 15
_symmetry_cell_setting 'monoclinic'
loop_
_space_group_symop_operation_xyz
x,y,z
-x,y,1/2-z
-x,-y,-z
x,-y,1/2+z
1/2+x,1/2+y,z
1/2-x,1/2+y,1/2-z
1/2-x,1/2-y,-z
1/2+x,1/2-y,1/2+z
loop_
_atom_site_type_symbol
_atom_site_label
_atom_site_fract_x
_atom_site_fract_y
_atom_site_fract_z
Si Si1 0.759052 0.954625 0.126887
Si Si2 0.404320 0.972136 0.647760
Si Si3 0.376551 0.312102 0.363888
Si Si4 0.934183 0.123336 0.971363
Si Si5 0.904531 0.562523 0.367196
Si Si6 0.667393 0.730001 0.835509
Si Si7 0.320105 0.826510 0.116172
O O1 0.774486 0.820969 0.131132
O O2 0.689526 0.010150 0.233690
O O3 0.885100 0.015616 0.042954
O O4 0.688849 0.969888 0.099329
O O5 0.535007 0.969967 0.598144
O O6 0.382468 0.853901 0.623250
O O7 0.395367 0.067142 0.594923
O O8 0.500000 0.312567 0.250000
O O9 0.379674 0.387316 0.429669
O O10 0.342889 0.184607 0.408273
O O11 0.278538 0.365013 0.376178
O O12 0.904737 0.238226 0.028935
O O13 0.072521 0.133329 0.876070
O O14 0.000000 0.571999 0.250000
O O15 0.760138 0.735402 0.717185
#
# Coordination Sequence:
#
# PCOD8138759 Si02
#       7
#     8   8   8   8   8   8   8
#     4  10  21  34  61  88 117 157 197 237 297 349
#     4  10  20  38  61  86 120 154 195 246 290 345
#     4  11  19  35  60  87 119 147 193 256 288 332
#     4  12  21  35  61  90 117 155 201 237 302 346
#     4   9  16  34  57  83 108 148 197 233 285 339
#     4  11  21  39  56  87 127 153 191 248 289 357
#     4  11  22  36  59  94 118 151 195 252 295 337
#
# _framework density 20.922393
#
# number of rings (size 3 to 8) (size 9 to 14) (size 15 to 20)
#    0.000    1.429    5.714    1.714    0.000    0.571 
#    0.000    0.000    0.000    9.429    0.000    0.000 
#    0.000    0.000    0.000    0.000    0.000    0.000 
#
# Total GULP energy -347060.560386 kJ/mol
# GULP energy per Si atom -12395.020014 kJ/mol
# Density = 2.087477 g / cm^3
# Si number density = 20.922393 Si / 1000 Ang^3
#
#
#
# Elastic Constant Matrix: (Units=GPa)
#
#
# Indices 1 2 3 4 5 6 
#
# 1 111.0980 50.2464 6.8565 0.0000 13.6303 0.0000
# 2 50.2464 89.7705 15.1863 0.0000 18.8421 0.0000
# 3 6.8565 15.1863 38.6443 0.0000 9.6477 0.0000
# 4 0.0000 0.0000 0.0000 13.6631 0.0000 18.9134
# 5 13.6303 18.8421 9.6477 0.0000 29.7004 0.0000
# 6 0.0000 0.0000 0.0000 18.9134 0.0000 6.3681
#
#
#
# Elastic Compliance Matrix: (Units=1/GPa)
#
#
# Indices 1 2 3 4 5 6 
#
# 1 0.012131 -0.006584 0.000851 0.000000 -0.001667 0.000000
# 2 -0.006584 0.016818 -0.003843 0.000000 -0.006399 0.000000
# 3 0.000851 -0.003843 0.029084 0.000000 -0.007400 0.000000
# 4 0.000000 0.000000 0.000000 -0.023524 0.000000 0.069866
# 5 -0.001667 -0.006399 -0.007400 0.000000 0.040898 0.000000
# 6 0.000000 0.000000 0.000000 0.069866 0.000000 -0.050472
#
#
# Mechanical properties :
#
#
# Convention : Reuss Voigt Hill
#
# Bulk Modulus (GPa) = 25.72000 42.67680 34.19840
# Shear Modulus (GPa) = 87.64624 21.09457 54.37040
#
# Velocity S-wave (km/s) = 6.47936 3.17871 5.10325
# Velocity P-wave (km/s) = 8.26413 5.82359 7.14878
#
# Compressibility (1/GPa) = 0.03888025
#
# Stress axis : x y z
#
# Youngs Moduli (GPa) = 82.43509 59.45987 34.38353
#
# Poissons Ratio (x) = 0.39148 -0.02926
# Poissons Ratio (y) = 0.54275 0.13215
# Poissons Ratio (z) = -0.07016 0.22852
#
# Static dielectric constant tensor:
#      x y z
#    x 4.100520 0.000000 -0.068130 
#    y 0.000000 3.500430 0.000000 
#    z -0.068130 0.000000 3.856980 
# 
# 
# High freq. dielectric constant tensor:
#      x y z
#    x 1.820060 0.000000 -0.011910 
#    y 0.000000 1.779290 0.000000 
#    z -0.011910 0.000000 1.834510 
# 
# From -- ./inp_files/210552.got.cif
#   From: 2010.06.25/outbox.cif.g09.slc.cpg/sg15_106_cif.got.tgz:210552.got - 2010.06.28 07:06:18.
