data_PCOD8138841
_publ_section_title
;
Structure prediction by ZEFSAII (Michael W. Deem and Ramdas Pophale) SiO2 
 PCOD8138841
Probable space group: C 2/C
;
_chemical_formula_sum "Si O2"
_cell_formula_units_Z 48
_cell_length_a 19.718456
_cell_length_b 7.967351
_cell_length_c 37.239577
_cell_angle_alpha 90.000000
_cell_angle_beta 157.599984
_cell_angle_gamma 90.000000
_cell_volume 2229.446620
_symmetry_space_group_name_H-M "C 2/C"
_symmetry_group_IT_number 15
_symmetry_cell_setting 'monoclinic'
loop_
_space_group_symop_operation_xyz
x,y,z
-x,y,1/2-z
-x,-y,-z
x,-y,1/2+z
1/2+x,1/2+y,z
1/2-x,1/2+y,1/2-z
1/2-x,1/2-y,-z
1/2+x,1/2-y,1/2+z
loop_
_atom_site_type_symbol
_atom_site_label
_atom_site_fract_x
_atom_site_fract_y
_atom_site_fract_z
Si Si1 0.039500 0.384490 0.924970
Si Si2 0.897517 0.338279 0.164516
Si Si3 0.689914 0.180426 0.750803
Si Si4 0.755273 0.946934 0.965686
Si Si5 0.438477 0.125258 0.501149
Si Si6 0.403994 0.346156 0.866373
O O1 0.079089 0.458650 0.904581
O O2 0.840366 0.319466 0.832394
O O3 0.179320 0.240765 0.002678
O O4 0.096776 0.526143 0.980123
O O5 0.802236 0.504755 0.102713
O O6 0.748322 0.203319 0.102850
O O7 0.000000 0.393010 0.250000
O O8 0.027660 0.266460 0.197245
O O9 0.642406 0.198172 0.685032
O O10 0.755860 0.992721 0.792833
O O11 0.908192 0.074051 0.054092
O O12 0.579616 0.268642 0.584730
O O13 0.500000 0.000000 0.500000
#
# Coordination Sequence:
#
# PCOD8138841 Si02
#       6
#     8   8   8   8   8   8
#     4  10  20  38  62  87 116 152 195 242 295 351
#     4  11  23  38  56  83 118 156 199 244 291 346
#     4  11  21  36  61  91 119 150 195 247 294 347
#     4   9  20  38  60  86 116 154 196 241 293 350
#     4  11  23  40  59  82 118 160 197 238 294 352
#     4  10  21  36  61  90 118 154 194 242 296 348
#
# _framework density 21.530007000000001
#
# number of rings (size 3 to 8) (size 9 to 14) (size 15 to 20)
#    0.000    1.667    0.000    5.000    0.000    4.000 
#    0.000    9.167    0.000    0.000    0.000    0.000 
#    0.000    0.000    0.000    0.000    0.000    0.000 
#
# Total GULP energy -297494.029496 kJ/mol
# GULP energy per Si atom -12395.584562 kJ/mol
# Density = 2.148100 g / cm^3
# Si number density = 21.530007 Si / 1000 Ang^3
#
#
#
# Elastic Constant Matrix: (Units=GPa)
#
#
# Indices 1 2 3 4 5 6 
#
# 1 84.1867 26.6947 43.5246 0.0175 -1.7230 -0.0069
# 2 26.6947 89.5179 39.5449 0.0253 -6.9619 -0.0099
# 3 43.5246 39.5449 122.2816 0.0303 -16.9032 -0.0115
# 4 0.0175 0.0253 0.0303 15.5956 -0.0125 -10.7504
# 5 -1.7230 -6.9619 -16.9032 -0.0125 36.5040 0.0048
# 6 -0.0069 -0.0099 -0.0115 -10.7504 0.0048 34.5009
#
#
#
# Elastic Compliance Matrix: (Units=1/GPa)
#
#
# Indices 1 2 3 4 5 6 
#
# 1 0.015148 -0.002531 -0.004852 -0.000006 -0.002014 -0.000001
# 2 -0.002531 0.013467 -0.003329 -0.000013 0.000907 -0.000002
# 3 -0.004852 -0.003329 0.011605 -0.000009 0.004510 -0.000002
# 4 -0.000006 -0.000013 -0.000009 0.081661 0.000018 0.025445
# 5 -0.002014 0.000907 0.004510 0.000018 0.029560 0.000003
# 6 -0.000001 -0.000002 -0.000002 0.025445 0.000003 0.036913
#
#
# Mechanical properties :
#
#
# Convention : Reuss Voigt Hill
#
# Bulk Modulus (GPa) = 53.20023 57.27939 55.23981
# Shear Modulus (GPa) = 23.14362 29.73489 26.43925
#
# Velocity S-wave (km/s) = 3.28220 3.72033 3.50811
# Velocity P-wave (km/s) = 6.25517 6.71690 6.49014
#
# Compressibility (1/GPa) = 0.01879691
#
# Stress axis : x y z
#
# Youngs Moduli (GPa) = 66.01563 74.25735 86.17213
#
# Poissons Ratio (x) = 0.18791 0.41809
# Poissons Ratio (y) = 0.16706 0.28685
# Poissons Ratio (z) = 0.32029 0.24719
#
# Static dielectric constant tensor:
#      x y z
#    x 3.745960 0.000000 0.062790 
#    y 0.000000 4.028970 0.000030 
#    z 0.062790 0.000030 4.244540 
# 
# 
# High freq. dielectric constant tensor:
#      x y z
#    x 1.823920 0.000000 0.003810 
#    y 0.000000 1.853920 0.000000 
#    z 0.003810 0.000000 1.864310 
# 
# From -- ./inp_files/315766.got.cif
#   From: 2010.06.25/outbox.cif.g09.slc.cpg/sg15_158_cif.got.tgz:315766.got - 2010.06.28 07:06:18.
