data_PCOD8138377
_publ_section_title
;
Structure prediction by ZEFSAII (Michael W. Deem and Ramdas Pophale) SiO2 
 PCOD8138377
Probable space group: C 2/C
;
_chemical_formula_sum "Si O2"
_cell_formula_units_Z 60
_cell_length_a 23.288074
_cell_length_b 20.163094
_cell_length_c 9.759764
_cell_angle_alpha 90.000000
_cell_angle_beta 38.927439
_cell_angle_gamma 90.000000
_cell_volume 2879.531210
_symmetry_space_group_name_H-M "C 2/C"
_symmetry_group_IT_number 15
_symmetry_cell_setting 'monoclinic'
loop_
_space_group_symop_operation_xyz
x,y,z
-x,y,1/2-z
-x,-y,-z
x,-y,1/2+z
1/2+x,1/2+y,z
1/2-x,1/2+y,1/2-z
1/2-x,1/2-y,-z
1/2+x,1/2-y,1/2+z
loop_
_atom_site_type_symbol
_atom_site_label
_atom_site_fract_x
_atom_site_fract_y
_atom_site_fract_z
Si Si1 0.225758 0.655808 0.456791
Si Si2 0.156284 0.055513 0.100308
Si Si3 0.821749 0.070370 0.753131
Si Si4 0.500000 0.162561 0.250000
Si Si5 0.099985 0.437085 0.033091
Si Si6 0.886564 0.249458 0.147002
Si Si7 0.121690 0.565501 0.178874
Si Si8 0.505776 0.347109 0.585303
O O1 0.262722 0.604068 0.500966
O O2 0.176352 0.617735 0.425021
O O3 0.153423 0.704603 0.659923
O O4 0.309543 0.697918 0.238152
O O5 0.058303 0.088467 0.308255
O O6 0.156639 0.986977 0.179355
O O7 0.170920 0.040290 0.913102
O O8 0.891454 0.131390 0.643839
O O9 0.720620 0.098516 0.969679
O O10 0.418575 0.206960 0.460403
O O11 0.542381 0.117697 0.291486
O O12 0.109574 0.457691 0.857373
O O13 0.114340 0.501707 0.097284
O O14 0.000000 0.407220 0.250000
O O15 0.974660 0.210601 0.041001
O O16 0.500000 0.318700 0.750000
#
# Coordination Sequence:
#
# PCOD8138377 Si02
#       8
#     8   8   8   4   8   8   8   8
#     4  10  22  42  67  90 122 164 220 245 306 370
#     4  10  20  37  63  93 127 165 203 257 313 366
#     4  11  21  37  61  96 129 159 205 260 313 367
#     4  12  26  44  62  90 132 162 208 250 322 362
#     4  12  25  42  66  99 127 157 206 262 318 372
#     4  10  23  43  64  88 123 178 205 253 295 380
#     4  12  26  40  66  97 128 163 200 261 321 368
#     4   9  21  40  62  89 124 168 213 252 302 365
#
# _framework density 20.836724
#
# number of rings (size 3 to 8) (size 9 to 14) (size 15 to 20)
#    0.000    1.333    2.000    3.200    1.867    3.733 
#    2.400    1.333    0.000    0.000    0.000    0.000 
#    0.000    0.000    0.000    0.000    0.000    0.000 
#
# Total GULP energy -372146.534548 kJ/mol
# GULP energy per Si atom -12404.884485 kJ/mol
# Density = 2.078930 g / cm^3
# Si number density = 20.836724 Si / 1000 Ang^3
#
#
#
# Elastic Constant Matrix: (Units=GPa)
#
#
# Indices 1 2 3 4 5 6 
#
# 1 126.4771 53.6488 60.5508 0.0000 0.7010 0.0000
# 2 53.6488 93.8148 43.4341 0.0000 4.2734 0.0000
# 3 60.5508 43.4341 111.8757 0.0000 0.8784 0.0000
# 4 0.0000 0.0000 0.0000 24.2409 0.0000 -3.2647
# 5 0.7010 4.2734 0.8784 0.0000 38.4122 0.0000
# 6 0.0000 0.0000 0.0000 -3.2647 0.0000 29.6390
#
#
#
# Elastic Compliance Matrix: (Units=1/GPa)
#
#
# Indices 1 2 3 4 5 6 
#
# 1 0.012217 -0.004807 -0.004749 0.000000 0.000420 0.000000
# 2 -0.004807 0.014955 -0.003193 0.000000 -0.001503 0.000000
# 3 -0.004749 -0.003193 0.012747 0.000000 0.000150 0.000000
# 4 0.000000 0.000000 0.000000 0.041874 0.000000 0.004612
# 5 0.000420 -0.001503 0.000150 0.000000 0.026189 0.000000
# 6 0.000000 0.000000 0.000000 0.004612 0.000000 0.034247
#
#
# Mechanical properties :
#
#
# Convention : Reuss Voigt Hill
#
# Bulk Modulus (GPa) = 69.34059 71.93725 70.63892
# Shear Modulus (GPa) = 28.97985 30.09401 29.53693
#
# Velocity S-wave (km/s) = 3.73340 3.80449 3.76911
# Velocity P-wave (km/s) = 7.20657 7.34153 7.27436
#
# Compressibility (1/GPa) = 0.01442157
#
# Stress axis : x y z
#
# Youngs Moduli (GPa) = 81.85411 66.86923 78.44792
#
# Poissons Ratio (x) = 0.32141 0.37258
# Poissons Ratio (y) = 0.39344 0.25045
# Poissons Ratio (z) = 0.38876 0.21349
#
# Static dielectric constant tensor:
#      x y z
#    x 4.072370 0.000000 -0.271000 
#    y 0.000000 3.682370 0.000000 
#    z -0.271000 0.000000 3.798560 
# 
# 
# High freq. dielectric constant tensor:
#      x y z
#    x 1.828710 0.000000 -0.013520 
#    y 0.000000 1.807400 0.000000 
#    z -0.013520 0.000000 1.815440 
# 
# From -- ./inp_files/63508.got.cif
#   From: 2010.06.25/outbox.cif.g09.slc.cpg/sg15_32_cif.got.tgz:63508.got - 2010.06.28 07:06:18.
