data_PCOD8138827
_publ_section_title
;
Structure prediction by ZEFSAII (Michael W. Deem and Ramdas Pophale) SiO2 
 PCOD8138827
Probable space group: C 2/C
;
_chemical_formula_sum "Si O2"
_cell_formula_units_Z 64
_cell_length_a 11.778538
_cell_length_b 15.680914
_cell_length_c 27.781418
_cell_angle_alpha 90.000000
_cell_angle_beta 139.643351
_cell_angle_gamma 90.000000
_cell_volume 3322.661755
_symmetry_space_group_name_H-M "C 2/C"
_symmetry_group_IT_number 15
_symmetry_cell_setting 'monoclinic'
loop_
_space_group_symop_operation_xyz
x,y,z
-x,y,1/2-z
-x,-y,-z
x,-y,1/2+z
1/2+x,1/2+y,z
1/2-x,1/2+y,1/2-z
1/2-x,1/2-y,-z
1/2+x,1/2-y,1/2+z
loop_
_atom_site_type_symbol
_atom_site_label
_atom_site_fract_x
_atom_site_fract_y
_atom_site_fract_z
Si Si1 0.604724 0.931051 0.355529
Si Si2 0.884744 0.908929 0.103484
Si Si3 0.422229 0.795922 0.073539
Si Si4 0.243435 0.180869 0.177271
Si Si5 0.750424 0.019449 0.805562
Si Si6 0.412576 0.048222 0.927719
Si Si7 0.954270 0.276442 0.655275
Si Si8 0.889171 0.567163 0.070725
O O1 0.615700 0.842541 0.387986
O O2 0.401163 0.955592 0.280813
O O3 0.716731 0.924271 0.342720
O O4 0.694231 0.007363 0.414962
O O5 0.789256 0.934171 0.123016
O O6 0.939635 0.811518 0.122723
O O7 0.059181 0.964562 0.155009
O O8 0.756204 0.922486 0.017188
O O9 0.552737 0.717753 0.125919
O O10 0.493275 0.862421 0.056253
O O11 0.250000 0.750000 0.000000
O O12 0.367069 0.222925 0.257136
O O13 0.293508 0.208288 0.139439
O O14 0.261141 0.079786 0.185901
O O15 0.435284 0.982616 0.890920
O O16 0.500000 0.000000 0.000000
O O17 0.954182 0.343928 0.612194
#
# Coordination Sequence:
#
# PCOD8138827 Si02
#       8
#     8   8   8   8   8   8   8   8
#     4  10  21  43  61  89 125 164 200 248 323 350
#     4  11  23  37  63  92 120 157 211 248 304 366
#     4  11  24  40  65  90 125 163 203 258 305 371
#     4  11  22  38  64  90 122 159 211 252 304 376
#     4  11  22  41  66  87 123 165 203 254 297 382
#     4   9  21  41  58  86 127 158 192 247 310 355
#     4  11  20  41  59  92 119 158 203 259 307 349
#     4  10  20  38  62  85 124 160 191 255 303 361
#
# _framework density 19.261666000000002
#
# number of rings (size 3 to 8) (size 9 to 14) (size 15 to 20)
#    0.000    1.500    3.750    1.875    5.250    1.500 
#    4.500    0.000    0.000    0.000    0.000    0.000 
#    0.000    0.000    0.000    0.000    0.000    0.000 
#
# Total GULP energy -396715.951728 kJ/mol
# GULP energy per Si atom -12397.373492 kJ/mol
# Density = 1.921783 g / cm^3
# Si number density = 19.261666 Si / 1000 Ang^3
#
#
#
# Elastic Constant Matrix: (Units=GPa)
#
#
# Indices 1 2 3 4 5 6 
#
# 1 88.1850 37.4150 49.0284 0.0000 17.0587 0.0000
# 2 37.4150 85.6615 55.0106 0.0000 0.2622 0.0000
# 3 49.0284 55.0106 92.6951 0.0000 6.2382 0.0000
# 4 0.0000 0.0000 0.0000 35.9832 0.0000 -2.2499
# 5 17.0587 0.2622 6.2382 0.0000 29.6203 0.0000
# 6 0.0000 0.0000 0.0000 -2.2499 0.0000 26.2255
#
#
#
# Elastic Compliance Matrix: (Units=1/GPa)
#
#
# Indices 1 2 3 4 5 6 
#
# 1 0.018556 -0.003506 -0.007118 0.000000 -0.009156 0.000000
# 2 -0.003506 0.019670 -0.010086 0.000000 0.003969 0.000000
# 3 -0.007118 -0.010086 0.020548 0.000000 -0.000139 0.000000
# 4 0.000000 0.000000 0.000000 0.027941 0.000000 0.002397
# 5 -0.009156 0.003969 -0.000139 0.000000 0.039028 0.000000
# 6 0.000000 0.000000 0.000000 0.002397 0.000000 0.038336
#
#
# Mechanical properties :
#
#
# Convention : Reuss Voigt Hill
#
# Bulk Modulus (GPa) = 57.62283 61.04995 59.33639
# Shear Modulus (GPa) = 23.66488 26.70496 25.18492
#
# Velocity S-wave (km/s) = 3.50894 3.72752 3.61988
# Velocity P-wave (km/s) = 6.81158 7.09152 6.95296
#
# Compressibility (1/GPa) = 0.01735423
#
# Stress axis : x y z
#
# Youngs Moduli (GPa) = 53.89166 50.83828 48.66669
#
# Poissons Ratio (x) = 0.17823 0.34640
# Poissons Ratio (y) = 0.18893 0.49087
# Poissons Ratio (z) = 0.38359 0.51277
#
# Static dielectric constant tensor:
#      x y z
#    x 3.849580 0.000000 -0.160080 
#    y 0.000000 3.987880 0.000000 
#    z -0.160080 0.000000 3.416580 
# 
# 
# High freq. dielectric constant tensor:
#      x y z
#    x 1.751470 0.000000 -0.010220 
#    y 0.000000 1.758130 0.000000 
#    z -0.010220 0.000000 1.744300 
# 
# From -- ./inp_files/311217.got.cif
#   From: 2010.06.25/outbox.cif.g09.slc.cpg/sg15_156_cif.got.tgz:311217.got - 2010.06.28 07:06:18.
