data_PCOD8138289
_publ_section_title
;
Structure prediction by ZEFSAII (Michael W. Deem and Ramdas Pophale) SiO2 
 PCOD8138289
Probable space group: C 2/C
;
_chemical_formula_sum "Si O2"
_cell_formula_units_Z 64
_cell_length_a 17.502463
_cell_length_b 11.228319
_cell_length_c 30.029711
_cell_angle_alpha 90.000000
_cell_angle_beta 148.982555
_cell_angle_gamma 90.000000
_cell_volume 3041.055825
_symmetry_space_group_name_H-M "C 2/C"
_symmetry_group_IT_number 15
_symmetry_cell_setting 'monoclinic'
loop_
_space_group_symop_operation_xyz
x,y,z
-x,y,1/2-z
-x,-y,-z
x,-y,1/2+z
1/2+x,1/2+y,z
1/2-x,1/2+y,1/2-z
1/2-x,1/2-y,-z
1/2+x,1/2-y,1/2+z
loop_
_atom_site_type_symbol
_atom_site_label
_atom_site_fract_x
_atom_site_fract_y
_atom_site_fract_z
Si Si1 0.941635 0.657010 0.606400
Si Si2 0.017140 0.461178 0.809595
Si Si3 0.501578 0.422729 0.396118
Si Si4 0.222091 0.197809 0.068534
Si Si5 0.168279 0.935082 0.339164
Si Si6 0.694224 0.603958 0.149902
Si Si7 0.659238 0.602978 0.413154
Si Si8 0.729724 0.137418 0.702066
O O1 0.896593 0.570211 0.624167
O O2 0.818885 0.654520 0.506416
O O3 0.958076 0.789847 0.636089
O O4 0.090493 0.596022 0.661607
O O5 0.115534 0.343116 0.867272
O O6 0.000000 0.495530 0.750000
O O7 0.852851 0.441254 0.746577
O O8 0.594510 0.321361 0.468212
O O9 0.434485 0.517734 0.397153
O O10 0.612686 0.487974 0.417933
O O11 0.374435 0.356080 0.305119
O O12 0.233449 0.337472 0.085565
O O13 0.183123 0.113984 0.091122
O O14 0.237802 0.949109 0.324200
O O15 0.000000 0.887491 0.250000
O O16 0.168290 0.061027 0.365792
O O17 0.673295 0.734255 0.158967
#
# Coordination Sequence:
#
# PCOD8138289 Si02
#       8
#     8   8   8   8   8   8   8   8
#     4  11  23  44  63  93 128 173 217 267 314 401
#     4  10  20  37  62  90 121 161 210 263 322 382
#     4  12  21  38  64  94 124 170 216 269 327 392
#     4  10  22  38  63  95 125 161 215 271 324 384
#     4  11  23  44  65  96 132 171 214 276 335 386
#     4  10  21  39  61  90 127 162 209 275 328 377
#     4  11  25  41  66  90 129 173 214 261 332 384
#     4  11  23  40  67  91 131 171 220 270 331 390
#
# _framework density 21.045323
#
# number of rings (size 3 to 8) (size 9 to 14) (size 15 to 20)
#    0.000    1.250    5.000    2.250    0.000    2.500 
#    0.000    0.000    5.500    0.000    0.000    0.000 
#    0.000    0.000    0.000    0.000    0.000    0.000 
#
# Total GULP energy -396723.146464 kJ/mol
# GULP energy per Si atom -12397.598327 kJ/mol
# Density = 2.099742 g / cm^3
# Si number density = 21.045323 Si / 1000 Ang^3
#
#
#
# Elastic Constant Matrix: (Units=GPa)
#
#
# Indices 1 2 3 4 5 6 
#
# 1 91.2831 26.5732 39.1692 0.0000 1.0045 0.0000
# 2 26.5732 56.5595 24.4243 0.0000 -8.6403 0.0000
# 3 39.1692 24.4243 108.6349 0.0002 -8.0239 0.0003
# 4 0.0000 0.0000 0.0002 30.3204 -0.0001 -9.8863
# 5 1.0045 -8.6403 -8.0239 -0.0001 23.2194 0.0000
# 6 0.0000 0.0000 0.0003 -9.8863 0.0000 29.9738
#
#
#
# Elastic Compliance Matrix: (Units=1/GPa)
#
#
# Indices 1 2 3 4 5 6 
#
# 1 0.014458 -0.005590 -0.004265 0.000000 -0.004179 0.000000
# 2 -0.005590 0.022568 -0.002484 0.000000 0.007781 0.000000
# 3 -0.004265 -0.002484 0.011541 0.000000 0.003249 0.000000
# 4 0.000000 0.000000 0.000000 0.036956 0.000000 0.012189
# 5 -0.004179 0.007781 0.003249 0.000000 0.047266 0.000000
# 6 0.000000 0.000000 0.000000 0.012189 0.000000 0.037383
#
#
# Mechanical properties :
#
#
# Convention : Reuss Voigt Hill
#
# Bulk Modulus (GPa) = 41.85738 48.53455 45.19596
# Shear Modulus (GPa) = 24.65333 27.79010 26.22171
#
# Velocity S-wave (km/s) = 3.42634 3.63779 3.53365
# Velocity P-wave (km/s) = 5.96535 6.38410 6.17827
#
# Compressibility (1/GPa) = 0.02389065
#
# Stress axis : x y z
#
# Youngs Moduli (GPa) = 69.16500 44.31072 86.64522
#
# Poissons Ratio (x) = 0.24768 0.36954
# Poissons Ratio (y) = 0.38660 0.21521
# Poissons Ratio (z) = 0.29499 0.11006
#
# Static dielectric constant tensor:
#      x y z
#    x 3.992700 0.000000 -0.005900 
#    y 0.000000 3.540980 0.000000 
#    z -0.005900 0.000000 3.739170 
# 
# 
# High freq. dielectric constant tensor:
#      x y z
#    x 1.829930 0.000000 -0.001350 
#    y 0.000000 1.807890 0.000000 
#    z -0.001350 0.000000 1.822690 
# 
# From -- ./inp_files/316224.got.cif
#   From: 2010.06.25/outbox.cif.g09.slc.cpg/sg15_159_cif.got.tgz:316224.got - 2010.06.28 07:06:18.
