data_PCOD8138965
_publ_section_title
;
Structure prediction by ZEFSAII (Michael W. Deem and Ramdas Pophale) SiO2 
 PCOD8138965
Probable space group: C 2/C
;
_chemical_formula_sum "Si O2"
_cell_formula_units_Z 64
_cell_length_a 18.112018
_cell_length_b 19.326516
_cell_length_c 18.461992
_cell_angle_alpha 90.000000
_cell_angle_beta 28.990851
_cell_angle_gamma 90.000000
_cell_volume 3132.168144
_symmetry_space_group_name_H-M "C 2/C"
_symmetry_group_IT_number 15
_symmetry_cell_setting 'monoclinic'
loop_
_space_group_symop_operation_xyz
x,y,z
-x,y,1/2-z
-x,-y,-z
x,-y,1/2+z
1/2+x,1/2+y,z
1/2-x,1/2+y,1/2-z
1/2-x,1/2-y,-z
1/2+x,1/2-y,1/2+z
loop_
_atom_site_type_symbol
_atom_site_label
_atom_site_fract_x
_atom_site_fract_y
_atom_site_fract_z
Si Si1 0.138557 0.047618 0.315196
Si Si2 0.295947 0.441857 0.123703
Si Si3 0.671956 0.701782 0.123623
Si Si4 0.303147 0.795225 0.259283
Si Si5 0.257761 0.156526 0.329246
Si Si6 0.169290 0.455435 0.624861
Si Si7 0.495543 0.762199 0.542613
Si Si8 0.825784 0.951691 0.876495
O O1 0.198218 0.111586 0.311953
O O2 0.216096 0.037152 0.171534
O O3 0.962302 0.062308 0.444621
O O4 0.170270 0.974159 0.326382
O O5 0.207442 0.369871 0.195760
O O6 0.178840 0.488718 0.180184
O O7 0.500000 0.696222 0.250000
O O8 0.683618 0.732418 0.194843
O O9 0.743585 0.625281 0.051301
O O10 0.750000 0.750000 0.000000
O O11 0.146746 0.787740 0.349554
O O12 0.448755 0.796788 0.080654
O O13 0.258353 0.114575 0.404034
O O14 0.428328 0.182906 0.159528
O O15 0.139061 0.218197 0.448632
O O16 0.248485 0.485412 0.485597
O O17 0.000000 0.436737 0.750000
O O18 0.000000 0.954452 0.750000
#
# Coordination Sequence:
#
# PCOD8138965 Si02
#       8
#     8   8   8   8   8   8   8   8
#     4  10  20  38  63  91 120 157 214 261 303 381
#     4  10  21  37  62  88 123 163 207 258 317 365
#     4  11  24  35  51  84 130 172 205 244 304 382
#     4  11  21  35  59  91 125 166 207 257 313 374
#     4  10  22  43  66  94 126 160 208 269 320 381
#     4  11  25  42  62  90 129 167 209 267 314 369
#     4  10  21  37  64  93 121 155 207 264 323 374
#     4  11  22  38  62  89 125 172 216 250 310 379
#
# _framework density 20.433130999999999
#
# number of rings (size 3 to 8) (size 9 to 14) (size 15 to 20)
#    0.000    1.500    2.500    3.000    1.750    5.000 
#    0.000    4.375    0.000    0.000    0.000    0.000 
#    0.000    0.000    0.000    0.000    0.000    0.000 
#
# Total GULP energy -396514.741052 kJ/mol
# GULP energy per Si atom -12391.085658 kJ/mol
# Density = 2.038662 g / cm^3
# Si number density = 20.433131 Si / 1000 Ang^3
#
#
#
# Elastic Constant Matrix: (Units=GPa)
#
#
# Indices 1 2 3 4 5 6 
#
# 1 82.6884 39.6798 33.0815 -0.0450 5.1780 0.0363
# 2 39.6798 97.9262 42.2205 0.1199 13.3566 -0.1237
# 3 33.0815 42.2205 93.7283 -0.0533 17.0209 0.0553
# 4 -0.0450 0.1199 -0.0533 71.7718 0.0055 -39.1646
# 5 5.1780 13.3566 17.0209 0.0055 30.8189 0.0006
# 6 0.0363 -0.1237 0.0553 -39.1646 0.0006 77.5709
#
#
#
# Elastic Compliance Matrix: (Units=1/GPa)
#
#
# Indices 1 2 3 4 5 6 
#
# 1 0.015878 -0.005095 -0.003585 0.000012 0.001521 -0.000007
# 2 -0.005095 0.014499 -0.004165 -0.000020 -0.003127 0.000018
# 3 -0.003585 -0.004165 0.014864 0.000011 -0.005802 -0.000010
# 4 0.000012 -0.000020 0.000011 0.019232 -0.000003 0.009710
# 5 0.001521 -0.003127 -0.005802 -0.000003 0.036752 -0.000003
# 6 -0.000007 0.000018 -0.000010 0.009710 -0.000003 0.017794
#
#
# Mechanical properties :
#
#
# Convention : Reuss Voigt Hill
#
# Bulk Modulus (GPa) = 51.14976 56.03403 53.59189
# Shear Modulus (GPa) = 33.06340 46.65639 39.85989
#
# Velocity S-wave (km/s) = 4.02696 4.78365 4.42152
# Velocity P-wave (km/s) = 6.83440 7.61536 7.23542
#
# Compressibility (1/GPa) = 0.01955044
#
# Stress axis : x y z
#
# Youngs Moduli (GPa) = 62.98105 68.97193 67.27634
#
# Poissons Ratio (x) = 0.35145 0.24118
# Poissons Ratio (y) = 0.32092 0.28018
# Poissons Ratio (z) = 0.22578 0.28724
#
# Static dielectric constant tensor:
#      x y z
#    x 3.665310 -0.000070 0.066230 
#    y -0.000070 3.755020 0.000110 
#    z 0.066230 0.000110 3.460190 
# 
# 
# High freq. dielectric constant tensor:
#      x y z
#    x 1.793130 0.000000 -0.001300 
#    y 0.000000 1.800620 0.000010 
#    z -0.001300 0.000010 1.790440 
# 
# From -- ./inp_files/211962.got.cif
#   From: 2010.06.25/outbox.cif.g09.slc.cpg/sg15_106_cif.got.tgz:211962.got - 2010.06.28 07:06:18.
