data_PCOD8138190
_publ_section_title
;
Structure prediction by ZEFSAII (Michael W. Deem and Ramdas Pophale) SiO2 
 PCOD8138190
Probable space group: C 2/C
;
_chemical_formula_sum "Si O2"
_cell_formula_units_Z 56
_cell_length_a 22.660828
_cell_length_b 22.460481
_cell_length_c 9.567705
_cell_angle_alpha 90.000000
_cell_angle_beta 144.684178
_cell_angle_gamma 90.000000
_cell_volume 2815.093234
_symmetry_space_group_name_H-M "C 2/C"
_symmetry_group_IT_number 15
_symmetry_cell_setting 'monoclinic'
loop_
_space_group_symop_operation_xyz
x,y,z
-x,y,1/2-z
-x,-y,-z
x,-y,1/2+z
1/2+x,1/2+y,z
1/2-x,1/2+y,1/2-z
1/2-x,1/2-y,-z
1/2+x,1/2-y,1/2+z
loop_
_atom_site_type_symbol
_atom_site_label
_atom_site_fract_x
_atom_site_fract_y
_atom_site_fract_z
Si Si1 0.121201 0.588698 0.327141
Si Si2 0.895966 0.612592 0.892459
Si Si3 0.381065 0.529552 0.498511
Si Si4 0.111099 0.163946 0.914409
Si Si5 0.247826 0.979865 0.014309
Si Si6 0.787929 0.268816 0.224585
Si Si7 0.281727 0.309431 0.135743
O O1 0.111607 0.579031 0.474185
O O2 0.167290 0.530242 0.345439
O O3 0.192141 0.644342 0.429635
O O4 0.008540 0.602142 0.045601
O O5 0.808258 0.583158 0.625586
O O6 0.878854 0.683637 0.877045
O O7 0.500000 0.513539 0.750000
O O8 0.356829 0.597530 0.486750
O O9 0.308050 0.486957 0.446065
O O10 0.346871 0.517755 0.274695
O O11 0.117992 0.169345 0.757152
O O12 0.000000 0.179804 0.750000
O O13 0.181288 0.209864 0.133464
O O14 0.704050 0.300551 0.167893
O O15 0.750000 0.250000 0.000000
O O16 0.250000 0.250000 0.000000
#
# Coordination Sequence:
#
# PCOD8138190 Si02
#       7
#     8   8   8   8   8   8   8
#     4  10  20  37  60  91 121 162 205 244 310 372
#     4  10  22  36  62  92 122 161 202 251 310 370
#     4  11  24  40  62  89 117 161 210 256 311 371
#     4  10  21  38  62  85 114 159 209 248 303 375
#     4  12  21  41  61  86 127 160 202 258 309 368
#     4  10  21  38  60  88 124 156 198 259 313 354
#     4   9  19  35  62  83 118 159 203 246 301 364
#
# _framework density 19.892769999999999
#
# number of rings (size 3 to 8) (size 9 to 14) (size 15 to 20)
#    0.000    1.714    2.857    1.714    6.000    0.000 
#    0.000    0.714    0.000    0.000    0.000    0.000 
#    0.000    0.000    0.000    0.000    0.000    0.000 
#
# Total GULP energy -346961.037255 kJ/mol
# GULP energy per Si atom -12391.465616 kJ/mol
# Density = 1.984749 g / cm^3
# Si number density = 19.892770 Si / 1000 Ang^3
#
#
#
# Elastic Constant Matrix: (Units=GPa)
#
#
# Indices 1 2 3 4 5 6 
#
# 1 131.8757 21.9601 42.2784 0.0000 5.3448 0.0000
# 2 21.9601 65.8917 6.3954 0.0000 6.7213 0.0000
# 3 42.2784 6.3954 89.4055 0.0000 1.0227 0.0000
# 4 0.0000 0.0000 0.0000 23.7213 0.0000 -5.6731
# 5 5.3448 6.7213 1.0227 0.0000 30.8240 0.0000
# 6 0.0000 0.0000 0.0000 -5.6731 0.0000 20.2212
#
#
#
# Elastic Compliance Matrix: (Units=1/GPa)
#
#
# Indices 1 2 3 4 5 6 
#
# 1 0.009424 -0.002634 -0.004257 0.000000 -0.000918 0.000000
# 2 -0.002634 0.016361 0.000111 0.000000 -0.003115 0.000000
# 3 -0.004257 0.000111 0.013187 0.000000 0.000277 0.000000
# 4 0.000000 0.000000 0.000000 0.045188 0.000000 0.012678
# 5 -0.000918 -0.003115 0.000277 0.000000 0.033271 0.000000
# 6 0.000000 0.000000 0.000000 0.012678 0.000000 0.053010
#
#
# Mechanical properties :
#
#
# Convention : Reuss Voigt Hill
#
# Bulk Modulus (GPa) = 39.35283 47.60450 43.47867
# Shear Modulus (GPa) = 25.97778 29.38925 27.68351
#
# Velocity S-wave (km/s) = 3.61763 3.84784 3.73451
# Velocity P-wave (km/s) = 6.10533 6.61239 6.36391
#
# Compressibility (1/GPa) = 0.02541113
#
# Stress axis : x y z
#
# Youngs Moduli (GPa) = 106.11691 61.12047 75.83142
#
# Poissons Ratio (x) = 0.16098 0.32284
# Poissons Ratio (y) = 0.27948 -0.00840
# Poissons Ratio (z) = 0.45178 -0.00677
#
# Static dielectric constant tensor:
#      x y z
#    x 4.129040 0.000000 -0.153940 
#    y 0.000000 3.618240 0.000000 
#    z -0.153940 0.000000 3.372290 
# 
# 
# High freq. dielectric constant tensor:
#      x y z
#    x 1.789380 0.000000 -0.003920 
#    y 0.000000 1.788890 0.000000 
#    z -0.003920 0.000000 1.743040 
# 
# From -- ./inp_files/63860.got.cif
#   From: 2010.06.25/outbox.cif.g09.slc.cpg/sg15_32_cif.got.tgz:63860.got - 2010.06.28 07:06:18.
