data_PCOD8138072
_publ_section_title
;
Structure prediction by ZEFSAII (Michael W. Deem and Ramdas Pophale) SiO2 
 PCOD8138072
Probable space group: C 2/C
;
_chemical_formula_sum "Si O2"
_cell_formula_units_Z 56
_cell_length_a 22.808181
_cell_length_b 8.208278
_cell_length_c 22.391739
_cell_angle_alpha 90.000000
_cell_angle_beta 136.870567
_cell_angle_gamma 90.000000
_cell_volume 2865.916729
_symmetry_space_group_name_H-M "C 2/C"
_symmetry_group_IT_number 15
_symmetry_cell_setting 'monoclinic'
loop_
_space_group_symop_operation_xyz
x,y,z
-x,y,1/2-z
-x,-y,-z
x,-y,1/2+z
1/2+x,1/2+y,z
1/2-x,1/2+y,1/2-z
1/2-x,1/2-y,-z
1/2+x,1/2-y,1/2+z
loop_
_atom_site_type_symbol
_atom_site_label
_atom_site_fract_x
_atom_site_fract_y
_atom_site_fract_z
Si Si1 0.315426 0.110074 0.399186
Si Si2 0.797995 0.405944 0.168445
Si Si3 0.678590 0.818514 0.902554
Si Si4 0.065107 0.511769 0.908481
Si Si5 0.957285 0.200169 0.276944
Si Si6 0.853692 0.091492 0.729383
Si Si7 0.894188 0.607682 0.333893
O O1 0.286282 0.298166 0.383202
O O2 0.355139 0.049479 0.490279
O O3 0.384871 0.094433 0.398075
O O4 0.236608 0.993650 0.326707
O O5 0.774534 0.550514 0.105433
O O6 0.872661 0.298661 0.193805
O O7 0.834348 0.471908 0.258353
O O8 0.640870 0.676342 0.832072
O O9 0.599197 0.903732 0.878255
O O10 0.750000 0.750000 0.000000
O O11 0.024514 0.684463 0.860331
O O12 0.993516 0.409096 0.890157
O O13 0.000000 0.128359 0.250000
O O14 0.928982 0.042464 0.293849
O O15 0.863303 0.216076 0.790297
#
# Coordination Sequence:
#
# PCOD8138072 Si02
#       7
#     8   8   8   8   8   8   8
#     4  11  21  41  60  87 119 161 203 237 294 356
#     4   9  21  37  62  84 117 159 191 241 294 353
#     4  11  21  39  60  94 121 145 196 253 306 346
#     4  11  23  38  61  89 124 155 193 252 305 338
#     4  10  20  37  58  87 119 152 191 237 300 362
#     4  10  23  37  63  90 114 163 200 242 296 360
#     4  10  22  40  61  86 120 158 202 246 288 350
#
# _framework density 19.539995000000001
#
# number of rings (size 3 to 8) (size 9 to 14) (size 15 to 20)
#    0.000    1.714    2.857    1.286    2.000    1.714 
#    0.000    0.714    0.000    0.000    0.000    0.000 
#    0.000    0.000    0.000    0.000    0.000    0.000 
#
# Total GULP energy -347207.998459 kJ/mol
# GULP energy per Si atom -12400.285659 kJ/mol
# Density = 1.949552 g / cm^3
# Si number density = 19.539995 Si / 1000 Ang^3
#
#
#
# Elastic Constant Matrix: (Units=GPa)
#
#
# Indices 1 2 3 4 5 6 
#
# 1 104.9265 31.4342 12.5429 0.0000 -2.6639 0.0001
# 2 31.4342 99.4955 16.6159 -0.0001 6.4935 0.0003
# 3 12.5429 16.6159 46.2342 0.0000 1.7641 0.0000
# 4 0.0000 -0.0001 0.0000 28.1489 0.0000 6.1005
# 5 -2.6639 6.4935 1.7641 0.0000 26.1341 0.0000
# 6 0.0001 0.0003 0.0000 6.1005 0.0000 21.6891
#
#
#
# Elastic Compliance Matrix: (Units=1/GPa)
#
#
# Indices 1 2 3 4 5 6 
#
# 1 0.010768 -0.003227 -0.001839 0.000000 0.002024 0.000000
# 2 -0.003227 0.011812 -0.003254 0.000000 -0.003044 0.000000
# 3 -0.001839 -0.003254 0.023334 0.000000 -0.000954 0.000000
# 4 0.000000 0.000000 0.000000 0.037832 0.000000 -0.010641
# 5 0.002024 -0.003044 -0.000954 0.000000 0.039291 0.000000
# 6 0.000000 0.000000 0.000000 -0.010641 0.000000 0.049099
#
#
# Mechanical properties :
#
#
# Convention : Reuss Voigt Hill
#
# Bulk Modulus (GPa) = 34.15837 41.31580 37.73708
# Shear Modulus (GPa) = 25.18464 27.86529 26.52496
#
# Velocity S-wave (km/s) = 3.59399 3.78042 3.68838
# Velocity P-wave (km/s) = 5.89419 6.34394 6.12320
#
# Compressibility (1/GPa) = 0.02927540
#
# Stress axis : x y z
#
# Youngs Moduli (GPa) = 92.86379 84.65753 42.85674
#
# Poissons Ratio (x) = 0.27320 0.07881
# Poissons Ratio (y) = 0.29968 0.13943
# Poissons Ratio (z) = 0.17076 0.27543
#
# Static dielectric constant tensor:
#      x y z
#    x 3.526880 0.000000 0.010970 
#    y 0.000000 3.759500 0.000000 
#    z 0.010970 0.000000 3.322190 
# 
# 
# High freq. dielectric constant tensor:
#      x y z
#    x 1.764360 0.000000 0.000420 
#    y 0.000000 1.771970 0.000000 
#    z 0.000420 0.000000 1.743520 
# 
# From -- ./inp_files/218331.got.cif
#   From: 2010.06.25/outbox.cif.g09.slc.cpg/sg15_110_cif.got.tgz:218331.got - 2010.06.28 07:06:18.
