data_PCOD8138625
_publ_section_title
;
Structure prediction by ZEFSAII (Michael W. Deem and Ramdas Pophale) SiO2 
 PCOD8138625
Probable space group: C 2/C
;
_chemical_formula_sum "Si O2"
_cell_formula_units_Z 56
_cell_length_a 19.217001
_cell_length_b 8.662610
_cell_length_c 18.278632
_cell_angle_alpha 90.000000
_cell_angle_beta 116.015540
_cell_angle_gamma 90.000000
_cell_volume 2734.517966
_symmetry_space_group_name_H-M "C 2/C"
_symmetry_group_IT_number 15
_symmetry_cell_setting 'monoclinic'
loop_
_space_group_symop_operation_xyz
x,y,z
-x,y,1/2-z
-x,-y,-z
x,-y,1/2+z
1/2+x,1/2+y,z
1/2-x,1/2+y,1/2-z
1/2-x,1/2-y,-z
1/2+x,1/2-y,1/2+z
loop_
_atom_site_type_symbol
_atom_site_label
_atom_site_fract_x
_atom_site_fract_y
_atom_site_fract_z
Si Si1 0.987958 0.867424 0.327759
Si Si2 0.567368 0.844440 0.466672
Si Si3 0.121746 0.998889 0.976996
Si Si4 0.059532 0.430736 0.626951
Si Si5 0.235733 0.408121 0.534523
Si Si6 0.724646 0.144211 0.193059
Si Si7 0.845006 0.014878 0.841879
O O1 0.964620 0.687761 0.320668
O O2 0.921600 0.978692 0.328443
O O3 0.000000 0.916994 0.250000
O O4 0.065149 0.882403 0.411666
O O5 0.585548 0.671966 0.448523
O O6 0.547620 0.843387 0.543707
O O7 0.644120 0.950174 0.486777
O O8 0.493183 0.915661 0.390326
O O9 0.205962 0.026430 0.978103
O O10 0.130475 0.038018 0.066105
O O11 0.150908 0.467006 0.677448
O O12 0.250000 0.250000 0.500000
O O13 0.259995 0.397533 0.630580
O O14 0.698363 0.321498 0.178834
O O15 0.789127 0.117115 0.284180
#
# Coordination Sequence:
#
# PCOD8138625 Si02
#       7
#     8   8   8   8   8   8   8
#     4  11  23  40  57  85 123 149 183 240 297 344
#     4   9  17  35  64  82 107 147 196 231 278 335
#     4  11  20  38  62  85 113 150 198 237 283 341
#     4   9  19  38  58  82 114 152 183 236 288 336
#     4   9  16  35  59  82 110 146 189 238 279 325
#     4  10  20  38  59  83 117 151 190 236 286 334
#     4  11  22  39  56  84 116 155 192 238 283 338
#
# _framework density 20.478929999999998
#
# number of rings (size 3 to 8) (size 9 to 14) (size 15 to 20)
#    0.000    2.000    5.714    1.286    0.000    1.143 
#   10.286    1.429    0.000    0.000    0.000    0.000 
#    0.000    0.000    0.000    0.000    0.000    0.000 
#
# Total GULP energy -347092.182331 kJ/mol
# GULP energy per Si atom -12396.149369 kJ/mol
# Density = 2.043232 g / cm^3
# Si number density = 20.478930 Si / 1000 Ang^3
#
#
#
# Elastic Constant Matrix: (Units=GPa)
#
#
# Indices 1 2 3 4 5 6 
#
# 1 117.8806 10.8695 61.1252 0.0000 -14.4483 0.0000
# 2 10.8695 16.5966 22.0070 0.0000 -1.3051 0.0000
# 3 61.1252 22.0070 142.0746 0.0000 -1.3170 0.0000
# 4 0.0000 0.0000 0.0000 27.2732 0.0000 11.2822
# 5 -14.4483 -1.3051 -1.3170 0.0000 34.5784 0.0000
# 6 0.0000 0.0000 0.0000 11.2822 0.0000 16.3467
#
#
#
# Elastic Compliance Matrix: (Units=1/GPa)
#
#
# Indices 1 2 3 4 5 6 
#
# 1 0.011636 -0.000849 -0.004832 0.000000 0.004646 0.000000
# 2 -0.000849 0.076092 -0.011402 0.000000 0.002083 0.000000
# 3 -0.004832 -0.011402 0.010865 0.000000 -0.002035 0.000000
# 4 0.000000 0.000000 0.000000 0.051318 0.000000 -0.035419
# 5 0.004646 0.002083 -0.002035 0.000000 0.030862 0.000000
# 6 0.000000 0.000000 0.000000 -0.035419 0.000000 0.085620
#
#
# Mechanical properties :
#
#
# Convention : Reuss Voigt Hill
#
# Bulk Modulus (GPa) = 15.52123 51.61724 33.56923
# Shear Modulus (GPa) = 15.52632 27.80967 21.66800
#
# Velocity S-wave (km/s) = 2.75646 3.68906 3.25632
# Velocity P-wave (km/s) = 4.21026 6.58827 5.52863
#
# Compressibility (1/GPa) = 0.06442789
#
# Stress axis : x y z
#
# Youngs Moduli (GPa) = 85.93778 13.14203 92.04164
#
# Poissons Ratio (x) = 0.01115 0.44473
# Poissons Ratio (y) = 0.07292 1.04946
# Poissons Ratio (z) = 0.41524 0.14985
#
# Static dielectric constant tensor:
#      x y z
#    x 5.242750 0.000000 -0.082780 
#    y 0.000000 3.223230 0.000000 
#    z -0.082780 0.000000 3.631740 
# 
# 
# High freq. dielectric constant tensor:
#      x y z
#    x 1.822680 0.000000 0.002470 
#    y 0.000000 1.759830 0.000000 
#    z 0.002470 0.000000 1.787480 
# 
# From -- ./inp_files/209528.got.cif
#   From: 2010.06.25/outbox.cif.g09.slc.cpg/sg15_105_cif.got.tgz:209528.got - 2010.06.28 07:06:18.
