data_PCOD8138523
_publ_section_title
;
Structure prediction by ZEFSAII (Michael W. Deem and Ramdas Pophale) SiO2 
 PCOD8138523
Probable space group: C 2/C
;
_chemical_formula_sum "Si O2"
_cell_formula_units_Z 44
_cell_length_a 8.774935
_cell_length_b 27.057373
_cell_length_c 9.173926
_cell_angle_alpha 90.000000
_cell_angle_beta 58.300478
_cell_angle_gamma 90.000000
_cell_volume 1853.190901
_symmetry_space_group_name_H-M "C 2/C"
_symmetry_group_IT_number 15
_symmetry_cell_setting 'monoclinic'
loop_
_space_group_symop_operation_xyz
x,y,z
-x,y,1/2-z
-x,-y,-z
x,-y,1/2+z
1/2+x,1/2+y,z
1/2-x,1/2+y,1/2-z
1/2-x,1/2-y,-z
1/2+x,1/2-y,1/2+z
loop_
_atom_site_type_symbol
_atom_site_label
_atom_site_fract_x
_atom_site_fract_y
_atom_site_fract_z
Si Si1 0.000000 0.688952 0.750000
Si Si2 0.632967 0.359233 0.481055
Si Si3 0.500000 0.555750 0.250000
Si Si4 0.000000 0.738855 0.250000
Si Si5 0.000000 0.484309 0.250000
Si Si6 0.728581 0.028815 0.885736
Si Si7 0.000000 0.891602 0.250000
Si Si8 0.118753 0.775803 0.892161
O O1 0.157667 0.654610 0.603783
O O2 0.086195 0.722929 0.832382
O O3 0.581701 0.411421 0.578822
O O4 0.581725 0.358860 0.336706
O O5 0.509151 0.316779 0.617342
O O6 0.662066 0.520244 0.218482
O O7 0.925417 0.773353 0.414920
O O8 0.828978 0.707708 0.273650
O O9 0.138920 0.451862 0.276941
O O10 0.911452 0.519062 0.416227
O O11 0.846894 0.072597 0.891380
#
# Coordination Sequence:
#
# PCOD8138523 Si02
#       8
#     4   8   4   4   4   8   4   8
#     4  12  27  43  67  92 137 175 223 278 339 389
#     4  12  26  43  66 101 132 173 229 277 324 393
#     4  11  25  42  65  96 135 172 217 271 327 399
#     4  10  23  40  76  88 131 173 228 257 342 404
#     4  10  20  37  73  96 118 170 226 254 316 418
#     4  10  22  44  68  94 132 176 209 264 342 390
#     4  11  25  44  65  94 135 172 216 272 328 398
#     4  11  23  46  66 100 127 184 213 281 332 402
#
# _framework density 23.742833000000001
#
# number of rings (size 3 to 8) (size 9 to 14) (size 15 to 20)
#    0.000    1.091    1.818    3.818    5.091    7.273 
#    0.000    5.455    0.000    0.000    0.000    0.000 
#    0.000    0.000    0.000    0.000    0.000    0.000 
#
# Total GULP energy -272681.396702 kJ/mol
# GULP energy per Si atom -12394.608941 kJ/mol
# Density = 2.368879 g / cm^3
# Si number density = 23.742833 Si / 1000 Ang^3
#
#
#
# Elastic Constant Matrix: (Units=GPa)
#
#
# Indices 1 2 3 4 5 6 
#
# 1 160.7646 32.9196 50.8021 0.0000 -27.5500 0.0000
# 2 32.9196 79.4959 19.8866 0.0000 -17.0244 0.0000
# 3 50.8021 19.8866 103.3959 0.0000 -8.0922 0.0000
# 4 0.0000 0.0000 0.0000 15.5630 0.0000 8.6822
# 5 -27.5500 -17.0244 -8.0922 0.0000 53.5219 0.0000
# 6 0.0000 0.0000 0.0000 8.6822 0.0000 14.1049
#
#
#
# Elastic Compliance Matrix: (Units=1/GPa)
#
#
# Indices 1 2 3 4 5 6 
#
# 1 0.008225 -0.001879 -0.003436 0.000000 0.003117 0.000000
# 2 -0.001879 0.014485 -0.001597 0.000000 0.003399 0.000000
# 3 -0.003436 -0.001597 0.011626 0.000000 -0.000519 0.000000
# 4 0.000000 0.000000 0.000000 0.097859 0.000000 -0.060236
# 5 0.003117 0.003399 -0.000519 0.000000 0.021291 0.000000
# 6 0.000000 0.000000 0.000000 -0.060236 0.000000 0.107975
#
#
# Mechanical properties :
#
#
# Convention : Reuss Voigt Hill
#
# Bulk Modulus (GPa) = 48.75044 61.20811 54.97927
# Shear Modulus (GPa) = 17.72287 32.64116 25.18201
#
# Velocity S-wave (km/s) = 2.73509 3.71182 3.26024
# Velocity P-wave (km/s) = 5.52735 6.64874 6.11381
#
# Compressibility (1/GPa) = 0.02051263
#
# Stress axis : x y z
#
# Youngs Moduli (GPa) = 121.58271 69.03861 86.01238
#
# Poissons Ratio (x) = 0.12972 0.29553
# Poissons Ratio (y) = 0.22846 0.13733
# Poissons Ratio (z) = 0.41774 0.11023
#
# Static dielectric constant tensor:
#      x y z
#    x 4.800700 0.000000 -0.205440 
#    y 0.000000 3.995610 0.000000 
#    z -0.205440 0.000000 4.250380 
# 
# 
# High freq. dielectric constant tensor:
#      x y z
#    x 1.959820 0.000000 -0.006000 
#    y 0.000000 1.914460 0.000000 
#    z -0.006000 0.000000 1.949570 
# 
# From -- ./inp_files/26046.got.cif
#   From: 2010.06.25/outbox.cif.g09.slc.cpg/sg15_14_cif.got.tgz:26046.got - 2010.06.28 07:06:18.
