data_PCOD8138050
_publ_section_title
;
Structure prediction by ZEFSAII (Michael W. Deem and Ramdas Pophale) SiO2 
 PCOD8138050
Probable space group: C 2/C
;
_chemical_formula_sum "Si O2"
_cell_formula_units_Z 56
_cell_length_a 9.307180
_cell_length_b 22.528697
_cell_length_c 15.951301
_cell_angle_alpha 90.000000
_cell_angle_beta 125.916612
_cell_angle_gamma 90.000000
_cell_volume 2708.734664
_symmetry_space_group_name_H-M "C 2/C"
_symmetry_group_IT_number 15
_symmetry_cell_setting 'monoclinic'
loop_
_space_group_symop_operation_xyz
x,y,z
-x,y,1/2-z
-x,-y,-z
x,-y,1/2+z
1/2+x,1/2+y,z
1/2-x,1/2+y,1/2-z
1/2-x,1/2-y,-z
1/2+x,1/2-y,1/2+z
loop_
_atom_site_type_symbol
_atom_site_label
_atom_site_fract_x
_atom_site_fract_y
_atom_site_fract_z
Si Si1 0.585714 0.189362 0.865124
Si Si2 0.675819 0.518744 0.777692
Si Si3 0.034303 0.570730 0.923588
Si Si4 0.798923 0.997374 0.898559
Si Si5 0.223590 0.890594 0.851651
Si Si6 0.448909 0.311562 0.565618
Si Si7 0.698757 0.132935 0.303490
O O1 0.500000 0.212298 0.750000
O O2 0.485354 0.128390 0.851914
O O3 0.549838 0.241249 0.919203
O O4 0.798904 0.175354 0.942934
O O5 0.500000 0.553750 0.750000
O O6 0.704669 0.533171 0.689683
O O7 0.635811 0.450476 0.786443
O O8 0.853189 0.538019 0.886276
O O9 0.171323 0.527405 0.922865
O O10 0.105877 0.593411 0.035942
O O11 0.722247 0.932748 0.849817
O O12 0.000000 0.000000 0.000000
O O13 0.089253 0.851427 0.863216
O O14 0.283093 0.855675 0.789752
O O15 0.644489 0.328739 0.598730
O O16 0.500000 0.156544 0.250000
#
# Coordination Sequence:
#
# PCOD8138050 Si02
#       7
#     8   8   8   8   8   8   8
#     4  10  20  37  62  86 111 147 196 244 284 335
#     4  11  21  33  51  77 111 148 183 226 282 343
#     4  11  22  37  55  81 115 149 186 231 289 348
#     4  11  21  34  54  81 113 149 190 236 287 345
#     4  10  20  37  58  79 108 148 194 236 275 332
#     4  10  21  38  63  87 108 148 200 241 281 338
#     4  11  22  36  57  87 119 151 191 242 296 344
#
# _framework density 20.673860000000001
#
# number of rings (size 3 to 8) (size 9 to 14) (size 15 to 20)
#    0.000    1.429    0.000    9.000    0.000    1.143 
#    0.000    0.714    0.000   12.000    0.000    0.000 
#    0.000    0.000    0.000    0.000    0.000    0.000 
#
# Total GULP energy -346933.714301 kJ/mol
# GULP energy per Si atom -12390.489796 kJ/mol
# Density = 2.062681 g / cm^3
# Si number density = 20.673860 Si / 1000 Ang^3
#
#
#
# Elastic Constant Matrix: (Units=GPa)
#
#
# Indices 1 2 3 4 5 6 
#
# 1 133.7773 32.5111 43.2820 0.0000 48.8540 0.0000
# 2 32.5111 70.2963 5.2524 0.0000 9.1487 0.0000
# 3 43.2820 5.2524 98.8234 0.0000 17.8230 0.0000
# 4 0.0000 0.0000 0.0000 24.3693 0.0000 3.9666
# 5 48.8540 9.1487 17.8230 0.0000 28.6121 0.0000
# 6 0.0000 0.0000 0.0000 3.9666 0.0000 8.0406
#
#
#
# Elastic Compliance Matrix: (Units=1/GPa)
#
#
# Indices 1 2 3 4 5 6 
#
# 1 0.022619 -0.005693 -0.003342 0.000000 -0.034718 0.000000
# 2 -0.005693 0.016276 0.000917 0.000000 0.003945 0.000000
# 3 -0.003342 0.000917 0.011894 0.000000 -0.001995 0.000000
# 4 0.000000 0.000000 0.000000 0.044618 0.000000 -0.022011
# 5 -0.034718 0.003945 -0.001995 0.000000 0.094212 0.000000
# 6 0.000000 0.000000 0.000000 -0.022011 0.000000 0.135226
#
#
# Mechanical properties :
#
#
# Convention : Reuss Voigt Hill
#
# Bulk Modulus (GPa) = 28.94138 51.66533 40.30335
# Shear Modulus (GPa) = 14.18039 26.99449 20.58744
#
# Velocity S-wave (km/s) = 2.62183 3.61741 3.15908
# Velocity P-wave (km/s) = 4.81609 6.51862 5.73093
#
# Compressibility (1/GPa) = 0.03455260
#
# Stress axis : x y z
#
# Youngs Moduli (GPa) = 44.21120 61.43846 84.07578
#
# Poissons Ratio (x) = 0.34975 0.28101
# Poissons Ratio (y) = 0.25168 -0.07708
# Poissons Ratio (z) = 0.14777 -0.05632
#
# Static dielectric constant tensor:
#      x y z
#    x 3.795280 0.000000 0.243320 
#    y 0.000000 3.673170 0.000000 
#    z 0.243320 0.000000 4.033940 
# 
# 
# High freq. dielectric constant tensor:
#      x y z
#    x 1.791320 0.000000 0.024600 
#    y 0.000000 1.789840 0.000000 
#    z 0.024600 0.000000 1.828990 
# 
# From -- ./inp_files/137916.got.cif
#   From: 2010.06.25/outbox.cif.g09.slc.cpg/sg15_69_cif.got.tgz:137916.got - 2010.06.28 07:06:18.
