data_PCOD8138757
_publ_section_title
;
Structure prediction by ZEFSAII (Michael W. Deem and Ramdas Pophale) SiO2 
 PCOD8138757
Probable space group: C 2/C
;
_chemical_formula_sum "Si O2"
_cell_formula_units_Z 56
_cell_length_a 25.683790
_cell_length_b 14.552152
_cell_length_c 16.609012
_cell_angle_alpha 90.000000
_cell_angle_beta 25.949328
_cell_angle_gamma 90.000000
_cell_volume 2716.337398
_symmetry_space_group_name_H-M "C 2/C"
_symmetry_group_IT_number 15
_symmetry_cell_setting 'monoclinic'
loop_
_space_group_symop_operation_xyz
x,y,z
-x,y,1/2-z
-x,-y,-z
x,-y,1/2+z
1/2+x,1/2+y,z
1/2-x,1/2+y,1/2-z
1/2-x,1/2-y,-z
1/2+x,1/2-y,1/2+z
loop_
_atom_site_type_symbol
_atom_site_label
_atom_site_fract_x
_atom_site_fract_y
_atom_site_fract_z
Si Si1 0.428008 0.089020 0.700033
Si Si2 0.706799 0.591595 0.118627
Si Si3 0.990622 0.221374 0.170322
Si Si4 0.944172 0.071405 0.640782
Si Si5 0.353811 0.028465 0.635452
Si Si6 0.200468 0.175563 0.779020
Si Si7 0.192624 0.131771 0.327522
O O1 0.498731 0.184902 0.607229
O O2 0.361999 0.086133 0.706305
O O3 0.519095 0.003611 0.576291
O O4 0.338361 0.085921 0.899579
O O5 0.632083 0.669429 0.176652
O O6 0.647485 0.492088 0.182223
O O7 0.717807 0.620846 0.196864
O O8 0.000000 0.245586 0.250000
O O9 0.105783 0.163166 0.983540
O O10 0.874533 0.158191 0.698422
O O11 0.052551 0.114763 0.541341
O O12 0.000000 0.000000 0.500000
O O13 0.295931 0.093832 0.649322
O O14 0.269435 0.941778 0.769695
O O15 0.270760 0.270727 0.686337
#
# Coordination Sequence:
#
# PCOD8138757 Si02
#       7
#     8   8   8   8   8   8   8
#     4  11  25  38  59  95 130 159 210 260 322 382
#     4  11  21  41  61  92 132 163 208 267 313 392
#     4  12  22  36  61  99 132 160 199 261 339 387
#     4  10  20  38  61  86 119 169 214 243 304 380
#     4  11  23  40  60  91 123 174 209 254 319 378
#     4  12  21  37  62  89 124 164 208 258 310 378
#     4  11  21  39  66  91 124 165 217 260 319 368
#
# _framework density 20.615995999999999
#
# number of rings (size 3 to 8) (size 9 to 14) (size 15 to 20)
#    0.000    0.857    7.143    3.000    0.000    0.000 
#    0.000    0.000    0.000    5.143    0.000    0.000 
#    0.000    0.000    0.000    0.000    0.000    0.000 
#
# Total GULP energy -347177.656838 kJ/mol
# GULP energy per Si atom -12399.202030 kJ/mol
# Density = 2.056907 g / cm^3
# Si number density = 20.615996 Si / 1000 Ang^3
#
#
#
# Elastic Constant Matrix: (Units=GPa)
#
#
# Indices 1 2 3 4 5 6 
#
# 1 79.2081 29.7689 14.4512 0.0000 -11.8944 0.0000
# 2 29.7689 108.9354 23.7045 0.0000 -8.7952 0.0000
# 3 14.4512 23.7045 65.1930 0.0000 -13.4772 0.0000
# 4 0.0000 0.0000 0.0000 32.4250 0.0000 -12.8761
# 5 -11.8944 -8.7952 -13.4772 0.0000 28.5003 0.0000
# 6 0.0000 0.0000 0.0000 -12.8761 0.0000 45.1571
#
#
#
# Elastic Compliance Matrix: (Units=1/GPa)
#
#
# Indices 1 2 3 4 5 6 
#
# 1 0.014806 -0.003439 -0.001079 0.000000 0.004608 0.000000
# 2 -0.003439 0.010826 -0.003081 0.000000 0.000448 0.000000
# 3 -0.001079 -0.003081 0.018187 0.000000 0.007199 0.000000
# 4 0.000000 0.000000 0.000000 0.034778 0.000000 0.009917
# 5 0.004608 0.000448 0.007199 0.000000 0.040553 0.000000
# 6 0.000000 0.000000 0.000000 0.009917 0.000000 0.024973
#
#
# Mechanical properties :
#
#
# Convention : Reuss Voigt Hill
#
# Bulk Modulus (GPa) = 34.94041 43.24284 39.09162
# Shear Modulus (GPa) = 29.60978 33.57728 31.59353
#
# Velocity S-wave (km/s) = 3.79390 4.04009 3.91893
# Velocity P-wave (km/s) = 6.01470 6.54095 6.28334
#
# Compressibility (1/GPa) = 0.02862016
#
# Stress axis : x y z
#
# Youngs Moduli (GPa) = 67.53849 92.36728 54.98463
#
# Poissons Ratio (x) = 0.31768 0.05933
# Poissons Ratio (y) = 0.23229 0.16943
# Poissons Ratio (z) = 0.07287 0.28462
#
# Static dielectric constant tensor:
#      x y z
#    x 3.754600 0.000000 -0.461390 
#    y 0.000000 3.989090 0.000000 
#    z -0.461390 0.000000 3.790100 
# 
# 
# High freq. dielectric constant tensor:
#      x y z
#    x 1.799880 0.000000 -0.041050 
#    y 0.000000 1.810850 0.000000 
#    z -0.041050 0.000000 1.790290 
# 
# From -- ./inp_files/173803.got.cif
#   From: 2010.06.25/outbox.cif.g09.slc.cpg/sg15_87_cif.got.tgz:173803.got - 2010.06.28 07:06:18.
