data_PCOD8138187
_publ_section_title
;
Structure prediction by ZEFSAII (Michael W. Deem and Ramdas Pophale) SiO2 
 PCOD8138187
Probable space group: C 2/C
;
_chemical_formula_sum "Si O2"
_cell_formula_units_Z 56
_cell_length_a 31.978345
_cell_length_b 13.430652
_cell_length_c 13.377636
_cell_angle_alpha 90.000000
_cell_angle_beta 28.288784
_cell_angle_gamma 90.000000
_cell_volume 2722.912467
_symmetry_space_group_name_H-M "C 2/C"
_symmetry_group_IT_number 15
_symmetry_cell_setting 'monoclinic'
loop_
_space_group_symop_operation_xyz
x,y,z
-x,y,1/2-z
-x,-y,-z
x,-y,1/2+z
1/2+x,1/2+y,z
1/2-x,1/2+y,1/2-z
1/2-x,1/2-y,-z
1/2+x,1/2-y,1/2+z
loop_
_atom_site_type_symbol
_atom_site_label
_atom_site_fract_x
_atom_site_fract_y
_atom_site_fract_z
Si Si1 0.187635 0.153543 0.142580
Si Si2 0.729325 0.136503 0.036154
Si Si3 0.464960 0.137283 0.094802
Si Si4 0.148002 0.014030 0.579714
Si Si5 0.000045 0.167539 0.867557
Si Si6 0.447900 0.045968 0.762028
Si Si7 0.247681 0.505797 0.335616
O O1 0.100575 0.175825 0.387932
O O2 0.244721 0.078201 0.086271
O O3 0.155267 0.098942 0.107608
O O4 0.250000 0.250000 0.000000
O O5 0.783835 0.082609 0.006682
O O6 0.754679 0.103794 0.869535
O O7 0.750000 0.250000 0.000000
O O8 0.626448 0.111188 0.268821
O O9 0.452161 0.244266 0.172937
O O10 0.486857 0.056703 0.134679
O O11 0.540226 0.131222 0.849509
O O12 0.174561 0.014595 0.407751
O O13 0.049383 0.062971 0.792010
O O14 0.000000 0.187148 0.750000
O O15 0.500000 0.079401 0.750000
O O16 0.347667 0.030306 0.009555
#
# Coordination Sequence:
#
# PCOD8138187 Si02
#       7
#     8   8   8   8   8   8   8
#     4  11  25  43  66  95 129 171 221 276 326 391
#     4  10  20  38  62  89 126 168 214 265 328 393
#     4  10  21  36  61  95 124 170 217 273 333 403
#     4  11  23  42  66  92 130 173 219 270 330 402
#     4  12  23  41  68  93 131 173 223 272 338 404
#     4  10  20  37  60  90 132 166 215 276 338 392
#     4  10  22  39  62  92 123 168 213 264 329 393
#
# _framework density 20.566213999999999
#
# number of rings (size 3 to 8) (size 9 to 14) (size 15 to 20)
#    0.000    1.429    2.857    2.571    0.000    6.857 
#    0.000    1.429    0.000    0.857    0.000    0.000 
#    0.000    0.000    0.000    0.000    0.000    0.000 
#
# Total GULP energy -347044.503692 kJ/mol
# GULP energy per Si atom -12394.446560 kJ/mol
# Density = 2.051940 g / cm^3
# Si number density = 20.566214 Si / 1000 Ang^3
#
#
#
# Elastic Constant Matrix: (Units=GPa)
#
#
# Indices 1 2 3 4 5 6 
#
# 1 88.8734 32.5403 34.2131 0.0000 2.7064 0.0000
# 2 32.5403 105.7468 43.4533 0.0000 3.8194 0.0000
# 3 34.2131 43.4533 123.5135 0.0000 3.7059 0.0000
# 4 0.0000 0.0000 0.0000 27.7916 0.0000 -4.6762
# 5 2.7064 3.8194 3.7059 0.0000 32.4206 0.0000
# 6 0.0000 0.0000 0.0000 -4.6762 0.0000 31.2639
#
#
#
# Elastic Compliance Matrix: (Units=1/GPa)
#
#
# Indices 1 2 3 4 5 6 
#
# 1 0.013385 -0.003021 -0.002631 0.000000 -0.000461 0.000000
# 2 -0.003021 0.011761 -0.003278 0.000000 -0.000759 0.000000
# 3 -0.002631 -0.003278 0.009994 0.000000 -0.000537 0.000000
# 4 0.000000 0.000000 0.000000 0.036911 0.000000 0.005521
# 5 -0.000461 -0.000759 -0.000537 0.000000 0.031034 0.000000
# 6 0.000000 0.000000 0.000000 0.005521 0.000000 0.032812
#
#
# Mechanical properties :
#
#
# Convention : Reuss Voigt Hill
#
# Bulk Modulus (GPa) = 57.87024 59.83856 58.85440
# Shear Modulus (GPa) = 31.34482 32.15702 31.75092
#
# Velocity S-wave (km/s) = 3.90820 3.95851 3.93343
# Velocity P-wave (km/s) = 6.96885 7.07473 7.02199
#
# Compressibility (1/GPa) = 0.01728004
#
# Stress axis : x y z
#
# Youngs Moduli (GPa) = 74.71082 85.03024 100.05653
#
# Poissons Ratio (x) = 0.25688 0.26324
# Poissons Ratio (y) = 0.22570 0.32797
# Poissons Ratio (z) = 0.19656 0.27872
#
# Static dielectric constant tensor:
#      x y z
#    x 5.082030 0.000000 1.152080 
#    y 0.000000 3.926680 0.000000 
#    z 1.152080 0.000000 4.982890 
# 
# 
# High freq. dielectric constant tensor:
#      x y z
#    x 1.810960 0.000000 -0.005220 
#    y 0.000000 1.796210 0.000000 
#    z -0.005220 0.000000 1.806270 
# 
# From -- ./inp_files/127000.got.cif
#   From: 2010.06.25/outbox.cif.g09.slc.cpg/sg15_64_cif.got.tgz:127000.got - 2010.06.28 07:06:18.
