data_PCOD8138049
_publ_section_title
;
Structure prediction by ZEFSAII (Michael W. Deem and Ramdas Pophale) SiO2 
 PCOD8138049
Probable space group: C 2/C
;
_chemical_formula_sum "Si O2"
_cell_formula_units_Z 40
_cell_length_a 15.446861
_cell_length_b 11.686962
_cell_length_c 12.049436
_cell_angle_alpha 90.000000
_cell_angle_beta 84.941589
_cell_angle_gamma 90.000000
_cell_volume 2166.775184
_symmetry_space_group_name_H-M "C 2/C"
_symmetry_group_IT_number 15
_symmetry_cell_setting 'monoclinic'
loop_
_space_group_symop_operation_xyz
x,y,z
-x,y,1/2-z
-x,-y,-z
x,-y,1/2+z
1/2+x,1/2+y,z
1/2-x,1/2+y,1/2-z
1/2-x,1/2-y,-z
1/2+x,1/2-y,1/2+z
loop_
_atom_site_type_symbol
_atom_site_label
_atom_site_fract_x
_atom_site_fract_y
_atom_site_fract_z
Si Si1 0.008279 0.152951 0.093986
Si Si2 0.206504 0.825846 0.598528
Si Si3 0.463331 0.392321 0.365141
Si Si4 0.775011 0.086215 0.947223
Si Si5 0.822453 0.779445 0.655441
O O1 0.103428 0.197257 0.111081
O O2 0.927087 0.213016 0.166570
O O3 0.999563 0.020033 0.125599
O O4 0.995849 0.180127 0.965594
O O5 0.250000 0.750000 0.500000
O O6 0.231342 0.794687 0.723244
O O7 0.240246 0.951473 0.561769
O O8 0.500000 0.334893 0.250000
O O9 0.360231 0.385705 0.366563
O O10 0.696782 0.156810 0.899578
O O11 0.790390 0.120511 0.074546
#
# Coordination Sequence:
#
# PCOD8138049 Si02
#       5
#     8   8   8   8   8
#     4   9  18  32  49  80 102 142 179 215 280 315
#     4  11  23  33  57  84 110 140 189 231 261 322
#     4   9  16  28  54  75 107 132 174 234 265 316
#     4   9  21  36  54  84 108 149 177 219 287 323
#     4  10  20  37  58  76 117 144 175 225 282 337
#
# _framework density 18.460615000000001
#
# number of rings (size 3 to 8) (size 9 to 14) (size 15 to 20)
#    0.000    2.400    0.000    4.200    5.600    0.000 
#    0.000    1.000    0.000    0.000    0.000    0.000 
#    0.000    0.000    0.000    0.000    0.000    0.000 
#
# Total GULP energy -247821.939403 kJ/mol
# GULP energy per Si atom -12391.096970 kJ/mol
# Density = 1.841860 g / cm^3
# Si number density = 18.460615 Si / 1000 Ang^3
#
#
#
# Elastic Constant Matrix: (Units=GPa)
#
#
# Indices 1 2 3 4 5 6 
#
# 1 69.2725 42.8068 17.0144 0.0000 -3.6685 0.0000
# 2 42.8068 87.9631 44.6253 0.0000 -1.9922 0.0000
# 3 17.0144 44.6253 145.1380 0.0000 -26.8864 0.0000
# 4 0.0000 0.0000 0.0000 16.3921 0.0000 -4.3281
# 5 -3.6685 -1.9922 -26.8864 0.0000 17.7704 0.0000
# 6 0.0000 0.0000 0.0000 -4.3281 0.0000 26.9100
#
#
#
# Elastic Compliance Matrix: (Units=1/GPa)
#
#
# Indices 1 2 3 4 5 6 
#
# 1 0.021210 -0.011274 0.002163 0.000000 0.006388 0.000000
# 2 -0.011274 0.020045 -0.006748 0.000000 -0.010289 0.000000
# 3 0.002163 -0.006748 0.012024 0.000000 0.017882 0.000000
# 4 0.000000 0.000000 0.000000 0.063711 0.000000 0.010247
# 5 0.006388 -0.010289 0.017882 0.000000 0.083493 0.000000
# 6 0.000000 0.000000 0.000000 0.010247 0.000000 0.038809
#
#
# Mechanical properties :
#
#
# Convention : Reuss Voigt Hill
#
# Bulk Modulus (GPa) = 46.37958 56.80740 51.59349
# Shear Modulus (GPa) = 17.97295 25.40964 21.69130
#
# Velocity S-wave (km/s) = 3.12362 3.71404 3.43155
# Velocity P-wave (km/s) = 6.17959 7.01649 6.61130
#
# Compressibility (1/GPa) = 0.02156121
#
# Stress axis : x y z
#
# Youngs Moduli (GPa) = 47.14829 49.88715 83.16990
#
# Poissons Ratio (x) = 0.56245 -0.17994
# Poissons Ratio (y) = 0.53157 0.56120
# Poissons Ratio (z) = -0.10200 0.33662
#
# Static dielectric constant tensor:
#      x y z
#    x 3.366780 0.000000 0.035300 
#    y 0.000000 3.326140 0.000000 
#    z 0.035300 0.000000 3.789650 
# 
# 
# High freq. dielectric constant tensor:
#      x y z
#    x 1.706110 0.000000 0.004180 
#    y 0.000000 1.670440 0.000000 
#    z 0.004180 0.000000 1.741900 
# 
# From -- ./inp_files/94495.got.cif
#   From: 2010.06.25/outbox.cif.g09.slc.cpg/sg15_48_cif.got.tgz:94495.got - 2010.06.28 07:06:18.
