data_PCOD8138637
_publ_section_title
;
Structure prediction by ZEFSAII (Michael W. Deem and Ramdas Pophale) SiO2 
 PCOD8138637
Probable space group: C 2/C
;
_chemical_formula_sum "Si O2"
_cell_formula_units_Z 64
_cell_length_a 19.765505
_cell_length_b 17.277269
_cell_length_c 17.683313
_cell_angle_alpha 90.000000
_cell_angle_beta 147.814831
_cell_angle_gamma 90.000000
_cell_volume 3216.580785
_symmetry_space_group_name_H-M "C 2/C"
_symmetry_group_IT_number 15
_symmetry_cell_setting 'monoclinic'
loop_
_space_group_symop_operation_xyz
x,y,z
-x,y,1/2-z
-x,-y,-z
x,-y,1/2+z
1/2+x,1/2+y,z
1/2-x,1/2+y,1/2-z
1/2-x,1/2-y,-z
1/2+x,1/2-y,1/2+z
loop_
_atom_site_type_symbol
_atom_site_label
_atom_site_fract_x
_atom_site_fract_y
_atom_site_fract_z
Si Si1 0.132877 0.725586 0.608505
Si Si2 0.712521 0.086423 0.049166
Si Si3 0.137365 0.610403 0.820738
Si Si4 0.887516 0.220152 0.249317
Si Si5 0.903153 0.169288 0.841672
Si Si6 0.091407 0.892150 0.987037
Si Si7 0.934401 0.024881 0.769235
Si Si8 0.998283 0.576655 0.951257
O O1 0.171059 0.766626 0.722887
O O2 0.270029 0.714606 0.696700
O O3 0.028346 0.775627 0.463308
O O4 0.067193 0.643205 0.562116
O O5 0.800346 0.161582 0.119503
O O6 0.791836 0.007233 0.125199
O O7 0.612303 0.082943 0.883687
O O8 0.641778 0.097931 0.062443
O O9 0.094088 0.699450 0.775659
O O10 0.071495 0.558862 0.694099
O O11 0.285385 0.598578 0.946488
O O12 0.026067 0.183690 0.390218
O O13 0.929631 0.110582 0.798593
O O14 0.881093 0.121491 0.898341
O O15 0.007096 0.968854 0.896755
O O16 0.000000 0.027749 0.750000
O O17 0.000000 0.500000 0.000000
#
# Coordination Sequence:
#
# PCOD8138637 Si02
#       8
#     8   8   8   8   8   8   8   8
#     4  10  21  40  62  93 120 155 213 255 305 376
#     4  11  22  37  57  87 122 161 198 239 306 362
#     4  11  21  37  57  85 127 155 197 240 300 367
#     4   9  20  33  58  84 122 156 186 239 295 367
#     4  11  21  41  67  89 121 163 203 265 314 366
#     4  10  20  38  59  89 117 160 206 241 296 377
#     4  11  23  41  62  87 121 163 209 260 302 368
#     4  11  23  39  59  85 120 159 198 247 305 369
#
# _framework density 19.896905
#
# number of rings (size 3 to 8) (size 9 to 14) (size 15 to 20)
#    0.000    1.500    3.750    2.625    3.500    0.000 
#    6.750    0.625    0.000    1.500    0.000    0.000 
#    0.000    0.000    0.000    0.000    0.000    0.000 
#
# Total GULP energy -396726.195467 kJ/mol
# GULP energy per Si atom -12397.693608 kJ/mol
# Density = 1.985162 g / cm^3
# Si number density = 19.896905 Si / 1000 Ang^3
#
#
#
# Elastic Constant Matrix: (Units=GPa)
#
#
# Indices 1 2 3 4 5 6 
#
# 1 60.1311 31.4076 34.6021 0.0003 6.5314 0.0002
# 2 31.4076 98.9360 62.2174 0.0002 -7.4867 0.0002
# 3 34.6021 62.2174 88.3068 0.0003 -2.4089 0.0002
# 4 0.0003 0.0002 0.0003 26.7562 0.0003 -0.2402
# 5 6.5314 -7.4867 -2.4089 0.0003 25.1620 0.0002
# 6 0.0002 0.0002 0.0002 -0.2402 0.0002 18.9786
#
#
#
# Elastic Compliance Matrix: (Units=1/GPa)
#
#
# Indices 1 2 3 4 5 6 
#
# 1 0.023299 -0.003793 -0.006670 0.000000 -0.007815 0.000000
# 2 -0.003793 0.019217 -0.011902 0.000000 0.005563 0.000000
# 3 -0.006670 -0.011902 0.022332 0.000000 0.000328 0.000000
# 4 0.000000 0.000000 0.000000 0.037379 0.000000 0.000473
# 5 -0.007815 0.005563 0.000328 0.000000 0.043458 0.000000
# 6 0.000000 0.000000 0.000000 0.000473 0.000000 0.052697
#
#
# Mechanical properties :
#
#
# Convention : Reuss Voigt Hill
#
# Bulk Modulus (GPa) = 49.70568 55.98088 52.84328
# Shear Modulus (GPa) = 20.01467 22.12247 21.06857
#
# Velocity S-wave (km/s) = 3.17506 3.33807 3.25758
# Velocity P-wave (km/s) = 6.20300 6.56151 6.38477
#
# Compressibility (1/GPa) = 0.02011842
#
# Stress axis : x y z
#
# Youngs Moduli (GPa) = 42.92103 52.03696 44.77861
#
# Poissons Ratio (x) = 0.19738 0.29868
# Poissons Ratio (y) = 0.16280 0.53294
# Poissons Ratio (z) = 0.28629 0.61932
#
# Static dielectric constant tensor:
#      x y z
#    x 3.431070 0.000000 0.149960 
#    y 0.000000 3.504820 0.000000 
#    z 0.149960 0.000000 3.837290 
# 
# 
# High freq. dielectric constant tensor:
#      x y z
#    x 1.767140 0.000000 0.019660 
#    y 0.000000 1.754050 0.000000 
#    z 0.019660 0.000000 1.786880 
# 
# From -- ./inp_files/216191.got.cif
#   From: 2010.06.25/outbox.cif.g09.slc.cpg/sg15_109_cif.got.tgz:216191.got - 2010.06.28 07:06:18.
