data_PCOD8138935
_publ_section_title
;
Structure prediction by ZEFSAII (Michael W. Deem and Ramdas Pophale) SiO2 
 PCOD8138935
Probable space group: C 2/C
;
_chemical_formula_sum "Si O2"
_cell_formula_units_Z 64
_cell_length_a 14.797868
_cell_length_b 18.433745
_cell_length_c 18.333514
_cell_angle_alpha 90.000000
_cell_angle_beta 142.132925
_cell_angle_gamma 90.000000
_cell_volume 3069.783290
_symmetry_space_group_name_H-M "C 2/C"
_symmetry_group_IT_number 15
_symmetry_cell_setting 'monoclinic'
loop_
_space_group_symop_operation_xyz
x,y,z
-x,y,1/2-z
-x,-y,-z
x,-y,1/2+z
1/2+x,1/2+y,z
1/2-x,1/2+y,1/2-z
1/2-x,1/2-y,-z
1/2+x,1/2-y,1/2+z
loop_
_atom_site_type_symbol
_atom_site_label
_atom_site_fract_x
_atom_site_fract_y
_atom_site_fract_z
Si Si1 0.832580 0.279819 0.654553
Si Si2 0.785496 0.647517 0.982995
Si Si3 0.790785 0.508026 0.434571
Si Si4 0.626729 0.981120 0.172474
Si Si5 0.654727 0.864587 0.310465
Si Si6 0.667975 0.702166 0.295743
Si Si7 0.620695 0.855179 0.679144
Si Si8 0.638992 0.363793 0.918947
O O1 0.739807 0.322818 0.533836
O O2 0.811776 0.193067 0.636849
O O3 0.784298 0.307859 0.703057
O O4 0.000000 0.303483 0.750000
O O5 0.951995 0.668005 0.068449
O O6 0.756657 0.562473 0.961492
O O7 0.776992 0.482756 0.340967
O O8 0.672075 0.565490 0.388897
O O9 0.956056 0.539567 0.549095
O O10 0.692276 0.924436 0.272718
O O11 0.634916 0.061226 0.211586
O O12 0.500000 0.883007 0.250000
O O13 0.649867 0.787287 0.265550
O O14 0.781334 0.867283 0.452744
O O15 0.814175 0.664300 0.358084
O O16 0.534817 0.651345 0.180480
O O17 0.687067 0.702259 0.396158
#
# Coordination Sequence:
#
# PCOD8138935 Si02
#       8
#     8   8   8   8   8   8   8   8
#     4   9  19  37  59  90 121 154 204 258 312 365
#     4   9  20  36  62  90 116 160 207 253 305 369
#     4  10  20  38  63  86 121 163 202 261 312 371
#     4  10  22  37  60  95 116 153 215 263 307 370
#     4  12  24  38  66  95 122 159 222 266 307 382
#     4  11  25  42  63  91 131 176 203 260 324 380
#     4  10  21  39  63  86 123 161 205 258 308 369
#     4  11  23  43  63  90 129 169 208 257 322 375
#
# _framework density 20.848376999999999
#
# number of rings (size 3 to 8) (size 9 to 14) (size 15 to 20)
#    0.000    1.750    3.750    0.375    3.500    1.500 
#    2.250    0.625    2.750    0.000    0.000    0.000 
#    0.000    0.000    0.000    0.000    0.000    0.000 
#
# Total GULP energy -396585.861995 kJ/mol
# GULP energy per Si atom -12393.308187 kJ/mol
# Density = 2.080093 g / cm^3
# Si number density = 20.848377 Si / 1000 Ang^3
#
#
#
# Elastic Constant Matrix: (Units=GPa)
#
#
# Indices 1 2 3 4 5 6 
#
# 1 56.1090 18.6808 17.0336 -0.0002 -6.0664 -0.0003
# 2 18.6808 97.9785 30.2230 0.0004 -4.0489 0.0002
# 3 17.0336 30.2230 106.2926 -0.0007 -13.3706 -0.0008
# 4 -0.0002 0.0004 -0.0007 31.1464 -0.0006 -7.5426
# 5 -6.0664 -4.0489 -13.3706 -0.0006 11.8537 -0.0007
# 6 -0.0003 0.0002 -0.0008 -7.5426 -0.0007 27.9785
#
#
#
# Elastic Compliance Matrix: (Units=1/GPa)
#
#
# Indices 1 2 3 4 5 6 
#
# 1 0.020099 -0.003090 -0.001376 0.000000 0.007678 0.000000
# 2 -0.003090 0.011663 -0.002935 0.000000 -0.000909 0.000000
# 3 -0.001376 -0.002935 0.011943 0.000001 0.011764 0.000001
# 4 0.000000 0.000000 0.000001 0.034349 0.000003 0.009260
# 5 0.007678 -0.000909 0.011764 0.000003 0.101251 0.000004
# 6 0.000000 0.000000 0.000001 0.009260 0.000004 0.038238
#
#
# Mechanical properties :
#
#
# Convention : Reuss Voigt Hill
#
# Bulk Modulus (GPa) = 34.60027 43.58387 39.09207
# Shear Modulus (GPa) = 20.66273 27.15858 23.91065
#
# Velocity S-wave (km/s) = 3.15158 3.61317 3.39024
# Velocity P-wave (km/s) = 5.46585 6.19332 5.84092
#
# Compressibility (1/GPa) = 0.02890151
#
# Stress axis : x y z
#
# Youngs Moduli (GPa) = 49.75287 85.73793 83.73062
#
# Poissons Ratio (x) = 0.26496 0.11525
# Poissons Ratio (y) = 0.15375 0.24579
# Poissons Ratio (z) = 0.06848 0.25168
#
# Static dielectric constant tensor:
#      x y z
#    x 3.624250 0.000000 -0.221270 
#    y 0.000000 3.819000 0.000000 
#    z -0.221270 0.000000 3.771590 
# 
# 
# High freq. dielectric constant tensor:
#      x y z
#    x 1.798960 0.000000 -0.014990 
#    y 0.000000 1.824590 0.000000 
#    z -0.014990 0.000000 1.802910 
# 
# From -- ./inp_files/155521.got.cif
#   From: 2010.06.25/outbox.cif.g09.slc.cpg/sg15_78_cif.got.tgz:155521.got - 2010.06.28 07:06:18.
