data_PCOD8138844
_publ_section_title
;
Structure prediction by ZEFSAII (Michael W. Deem and Ramdas Pophale) SiO2 
 PCOD8138844
Probable space group: C 2/C
;
_chemical_formula_sum "Si O2"
_cell_formula_units_Z 36
_cell_length_a 11.617207
_cell_length_b 30.750800
_cell_length_c 13.588720
_cell_angle_alpha 90.000000
_cell_angle_beta 21.292520
_cell_angle_gamma 90.000000
_cell_volume 1762.780920
_symmetry_space_group_name_H-M "C 2/C"
_symmetry_group_IT_number 15
_symmetry_cell_setting 'monoclinic'
loop_
_space_group_symop_operation_xyz
x,y,z
-x,y,1/2-z
-x,-y,-z
x,-y,1/2+z
1/2+x,1/2+y,z
1/2-x,1/2+y,1/2-z
1/2-x,1/2-y,-z
1/2+x,1/2-y,1/2+z
loop_
_atom_site_type_symbol
_atom_site_label
_atom_site_fract_x
_atom_site_fract_y
_atom_site_fract_z
Si Si1 0.573682 0.219078 0.423591
Si Si2 0.926808 0.466033 0.194912
Si Si3 0.366497 0.139435 0.462301
Si Si4 0.000000 0.780199 0.750000
Si Si5 0.779206 0.557473 0.234038
O O1 0.295417 0.248817 0.686494
O O2 0.403455 0.182592 0.496376
O O3 0.793551 0.194101 0.331927
O O4 0.945970 0.517275 0.156704
O O5 0.587830 0.444323 0.443849
O O6 0.000000 0.456814 0.250000
O O7 0.175268 0.444211 0.921006
O O8 0.500000 0.150797 0.250000
O O9 0.571492 0.101098 0.344629
O O10 0.000000 0.125406 0.750000
O O11 0.250000 0.750000 0.500000
#
# Coordination Sequence:
#
# PCOD8138844 Si02
#       5
#     8   8   8   4   8
#     4  10  21  39  62  87 118 157 204 246 302 358
#     4  10  20  38  62  87 117 157 199 249 298 356
#     4  12  25  40  61  88 126 162 203 250 302 363
#     4   8  16  34  58  80 108 148 192 240 292 354
#     4  10  22  38  59  87 122 155 201 242 300 363
#
# _framework density 20.422277000000001
#
# number of rings (size 3 to 8) (size 9 to 14) (size 15 to 20)
#    0.000    1.778    0.000    4.000    0.000    6.222 
#    4.000    0.000    4.889    0.000    0.000    0.000 
#    0.000    0.000    0.000    0.000    0.000    0.000 
#
# Total GULP energy -223083.257797 kJ/mol
# GULP energy per Si atom -12393.514322 kJ/mol
# Density = 2.037579 g / cm^3
# Si number density = 20.422277 Si / 1000 Ang^3
#
#
#
# Elastic Constant Matrix: (Units=GPa)
#
#
# Indices 1 2 3 4 5 6 
#
# 1 108.2360 39.3772 9.8639 0.0009 8.1826 -0.0006
# 2 39.3772 97.0566 27.1825 0.0005 -7.5389 -0.0008
# 3 9.8639 27.1825 100.8432 0.0034 19.2782 -0.0062
# 4 0.0009 0.0005 0.0034 22.8804 -0.0014 -7.7882
# 5 8.1826 -7.5389 19.2782 -0.0014 31.1588 -0.0003
# 6 -0.0006 -0.0008 -0.0062 -7.7882 -0.0003 45.5830
#
#
#
# Elastic Compliance Matrix: (Units=1/GPa)
#
#
# Indices 1 2 3 4 5 6 
#
# 1 0.011483 -0.005430 0.001325 -0.000001 -0.005149 0.000000
# 2 -0.005430 0.014497 -0.004899 0.000001 0.007965 0.000000
# 3 0.001325 -0.004899 0.012930 -0.000002 -0.009533 0.000001
# 4 -0.000001 0.000001 -0.000002 0.046404 0.000004 0.007929
# 5 -0.005149 0.007965 -0.009533 0.000004 0.041271 0.000000
# 6 0.000000 0.000000 0.000001 0.007929 0.000000 0.023293
#
#
# Mechanical properties :
#
#
# Convention : Reuss Voigt Hill
#
# Bulk Modulus (GPa) = 47.84384 50.99810 49.42097
# Shear Modulus (GPa) = 28.59541 35.23859 31.91700
#
# Velocity S-wave (km/s) = 3.74599 4.15842 3.95758
# Velocity P-wave (km/s) = 6.49524 6.93416 6.71828
#
# Compressibility (1/GPa) = 0.02090133
#
# Stress axis : x y z
#
# Youngs Moduli (GPa) = 87.08531 68.98002 77.34057
#
# Poissons Ratio (x) = 0.37455 -0.10245
# Poissons Ratio (y) = 0.47285 0.37891
# Poissons Ratio (z) = -0.11536 0.33795
#
# Static dielectric constant tensor:
#      x y z
#    x 4.121010 0.000910 0.048790 
#    y 0.000910 3.872350 -0.000180 
#    z 0.048790 -0.000180 3.933490 
# 
# 
# High freq. dielectric constant tensor:
#      x y z
#    x 1.815130 0.000000 0.008600 
#    y 0.000000 1.768800 0.000000 
#    z 0.008600 0.000000 1.821540 
# 
# From -- ./inp_files/4282.got.cif
#   From: 2010.06.25/outbox.cif.g09.slc.cpg/sg15_3_cif.got.tgz:4282.got - 2010.06.28 07:06:18.
