data_PCOD8138489
_publ_section_title
;
Structure prediction by ZEFSAII (Michael W. Deem and Ramdas Pophale) SiO2 
 PCOD8138489
Probable space group: C 2/C
;
_chemical_formula_sum "Si O2"
_cell_formula_units_Z 60
_cell_length_a 18.120832
_cell_length_b 12.012921
_cell_length_c 21.249513
_cell_angle_alpha 90.000000
_cell_angle_beta 41.387536
_cell_angle_gamma 90.000000
_cell_volume 3058.263252
_symmetry_space_group_name_H-M "C 2/C"
_symmetry_group_IT_number 15
_symmetry_cell_setting 'monoclinic'
loop_
_space_group_symop_operation_xyz
x,y,z
-x,y,1/2-z
-x,-y,-z
x,-y,1/2+z
1/2+x,1/2+y,z
1/2-x,1/2+y,1/2-z
1/2-x,1/2-y,-z
1/2+x,1/2-y,1/2+z
loop_
_atom_site_type_symbol
_atom_site_label
_atom_site_fract_x
_atom_site_fract_y
_atom_site_fract_z
Si Si1 0.610196 0.926841 0.441802
Si Si2 0.871765 0.707388 0.442252
Si Si3 0.167207 0.571973 0.709602
Si Si4 0.709151 0.532581 0.251620
Si Si5 0.496858 0.403825 0.083608
Si Si6 0.000000 0.412643 0.750000
Si Si7 0.582354 0.754130 0.351306
Si Si8 0.607413 0.624063 0.976125
O O1 0.627111 0.885497 0.502771
O O2 0.612063 0.817853 0.396721
O O3 0.500000 0.000000 0.500000
O O4 0.712453 0.009395 0.358677
O O5 0.750000 0.750000 0.500000
O O6 0.941815 0.661184 0.339629
O O7 0.937078 0.817108 0.418185
O O8 0.230589 0.504161 0.723092
O O9 0.098808 0.487344 0.712511
O O10 0.082316 0.661577 0.793057
O O11 0.258586 0.636985 0.607754
O O12 0.596564 0.462040 0.313415
O O13 0.678395 0.662239 0.278615
O O14 0.439371 0.340021 0.062175
O O15 0.583802 0.493964 0.001806
O O16 0.457596 0.701786 0.432412
#
# Coordination Sequence:
#
# PCOD8138489 Si02
#       8
#     8   8   8   8   8   4   8   8
#     4  11  24  39  62 101 135 157 227 274 322 388
#     4  12  26  40  66  94 135 180 204 266 340 404
#     4  10  22  38  62  91 121 167 205 263 328 385
#     4   9  21  37  68  93 120 160 217 275 310 386
#     4   9  18  36  60  94 121 159 208 253 315 382
#     4  12  28  44  58  86 140 170 214 256 336 406
#     4  10  20  37  66  95 121 159 212 274 323 363
#     4   9  17  35  64  91 121 150 215 267 303 378
#
# _framework density 19.618977999999998
#
# number of rings (size 3 to 8) (size 9 to 14) (size 15 to 20)
#    0.000    1.867    1.333    3.200    5.600    3.200 
#    0.000    0.667    5.867    0.000    0.000    0.000 
#    0.000    0.000    0.000    0.000    0.000    0.000 
#
# Total GULP energy -371913.198684 kJ/mol
# GULP energy per Si atom -12397.106623 kJ/mol
# Density = 1.957432 g / cm^3
# Si number density = 19.618978 Si / 1000 Ang^3
#
#
#
# Elastic Constant Matrix: (Units=GPa)
#
#
# Indices 1 2 3 4 5 6 
#
# 1 100.2671 52.2131 53.8094 0.0000 -9.0522 0.0000
# 2 52.2131 96.8061 46.3162 0.0000 1.9114 0.0000
# 3 53.8094 46.3162 146.7110 0.0000 -2.2227 0.0000
# 4 0.0000 0.0000 0.0000 20.8587 0.0000 -3.8829
# 5 -9.0522 1.9114 -2.2227 0.0000 25.9670 0.0000
# 6 0.0000 0.0000 0.0000 -3.8829 0.0000 38.4837
#
#
#
# Elastic Compliance Matrix: (Units=1/GPa)
#
#
# Indices 1 2 3 4 5 6 
#
# 1 0.016117 -0.007094 -0.003583 0.000000 0.005834 0.000000
# 2 -0.007094 0.015329 -0.002295 0.000000 -0.003798 0.000000
# 3 -0.003583 -0.002295 0.008850 0.000000 -0.000323 0.000000
# 4 0.000000 0.000000 0.000000 0.048859 0.000000 0.004930
# 5 0.005834 -0.003798 -0.000323 0.000000 0.040796 0.000000
# 6 0.000000 0.000000 0.000000 0.004930 0.000000 0.026482
#
#
# Mechanical properties :
#
#
# Convention : Reuss Voigt Hill
#
# Bulk Modulus (GPa) = 69.67758 72.05127 70.86443
# Shear Modulus (GPa) = 26.71480 29.82492 28.26986
#
# Velocity S-wave (km/s) = 3.69410 3.90321 3.80010
# Velocity P-wave (km/s) = 7.33401 7.55768 7.44668
#
# Compressibility (1/GPa) = 0.01435182
#
# Stress axis : x y z
#
# Youngs Moduli (GPa) = 62.04612 65.23601 112.99296
#
# Poissons Ratio (x) = 0.46275 0.40491
# Poissons Ratio (y) = 0.44013 0.25933
# Poissons Ratio (z) = 0.22234 0.14973
#
# Static dielectric constant tensor:
#      x y z
#    x 3.256420 0.000000 -0.055550 
#    y 0.000000 3.648910 0.000000 
#    z -0.055550 0.000000 3.906720 
# 
# 
# High freq. dielectric constant tensor:
#      x y z
#    x 1.726840 0.000000 -0.011960 
#    y 0.000000 1.771970 0.000000 
#    z -0.011960 0.000000 1.787070 
# 
# From -- ./inp_files/248764.got.cif
#   From: 2010.06.25/outbox.cif.g09.slc.cpg/sg15_125_cif.got.tgz:248764.got - 2010.06.28 07:06:18.
