data_PCOD8138696
_publ_section_title
;
Structure prediction by ZEFSAII (Michael W. Deem and Ramdas Pophale) SiO2 
 PCOD8138696
Probable space group: C 2/C
;
_chemical_formula_sum "Si O2"
_cell_formula_units_Z 60
_cell_length_a 23.149886
_cell_length_b 20.767030
_cell_length_c 11.436061
_cell_angle_alpha 90.000000
_cell_angle_beta 30.318763
_cell_angle_gamma 90.000000
_cell_volume 2775.415124
_symmetry_space_group_name_H-M "C 2/C"
_symmetry_group_IT_number 15
_symmetry_cell_setting 'monoclinic'
loop_
_space_group_symop_operation_xyz
x,y,z
-x,y,1/2-z
-x,-y,-z
x,-y,1/2+z
1/2+x,1/2+y,z
1/2-x,1/2+y,1/2-z
1/2-x,1/2-y,-z
1/2+x,1/2-y,1/2+z
loop_
_atom_site_type_symbol
_atom_site_label
_atom_site_fract_x
_atom_site_fract_y
_atom_site_fract_z
Si Si1 0.510012 0.303587 0.984571
Si Si2 0.255386 0.387539 0.734007
Si Si3 0.000000 0.853039 0.250000
Si Si4 0.007778 0.422567 0.866181
Si Si5 0.284342 0.753636 0.805796
Si Si6 0.355865 0.806860 0.154814
Si Si7 0.799691 0.891103 0.915269
Si Si8 0.180531 0.508589 0.201173
O O1 0.611863 0.250794 0.813270
O O2 0.567659 0.368916 0.831859
O O3 0.465089 0.310858 0.197211
O O4 0.407274 0.282082 0.079314
O O5 0.390842 0.395361 0.474166
O O6 0.200409 0.327283 0.762086
O O7 0.230970 0.379766 0.914074
O O8 0.204040 0.454865 0.780801
O O9 0.000000 0.450904 0.750000
O O10 0.137294 0.436931 0.684088
O O11 0.972760 0.347327 0.928241
O O12 0.919611 0.457134 0.106921
O O13 0.190180 0.719457 0.888743
O O14 0.250000 0.750000 0.000000
O O15 0.256005 0.849227 0.385072
O O16 0.790635 0.967654 0.962937
#
# Coordination Sequence:
#
# PCOD8138696 Si02
#       8
#     8   8   4   8   8   8   8   8
#     4  11  21  39  62  94 132 173 215 267 337 400
#     4  11  22  41  66  90 128 173 218 272 329 398
#     4  10  20  38  60  88 124 164 208 272 326 382
#     4  10  22  36  63  90 126 167 215 284 329 382
#     4  12  24  38  66 100 130 170 223 268 334 404
#     4  11  23  40  63  96 135 168 214 279 337 394
#     4  10  23  44  65  91 137 172 214 280 335 393
#     4  10  22  42  60  94 123 173 229 267 328 401
#
# _framework density 21.618387999999999
#
# number of rings (size 3 to 8) (size 9 to 14) (size 15 to 20)
#    0.000    1.333    4.000    2.000    4.667    0.533 
#    0.000    9.333    0.000    0.000    0.000    0.000 
#    0.000    0.000    0.000    0.000    0.000    0.000 
#
# Total GULP energy -371892.852120 kJ/mol
# GULP energy per Si atom -12396.428404 kJ/mol
# Density = 2.156918 g / cm^3
# Si number density = 21.618388 Si / 1000 Ang^3
#
#
#
# Elastic Constant Matrix: (Units=GPa)
#
#
# Indices 1 2 3 4 5 6 
#
# 1 80.7146 41.1673 20.2446 0.0000 -7.5781 0.0000
# 2 41.1673 110.7274 32.3977 0.0000 -5.7379 -0.0001
# 3 20.2446 32.3977 60.3917 0.0001 -0.1264 -0.0001
# 4 0.0000 0.0000 0.0001 29.5567 -0.0001 2.6897
# 5 -7.5781 -5.7379 -0.1264 -0.0001 38.0201 0.0001
# 6 0.0000 -0.0001 -0.0001 2.6897 0.0001 32.0706
#
#
#
# Elastic Compliance Matrix: (Units=1/GPa)
#
#
# Indices 1 2 3 4 5 6 
#
# 1 0.015816 -0.004990 -0.002620 0.000000 0.002391 0.000000
# 2 -0.004990 0.012385 -0.004969 0.000000 0.000858 0.000000
# 3 -0.002620 -0.004969 0.020100 0.000000 -0.001205 0.000000
# 4 0.000000 0.000000 0.000000 0.034093 0.000000 -0.002859
# 5 0.002391 0.000858 -0.001205 0.000000 0.026904 0.000000
# 6 0.000000 0.000000 0.000000 -0.002859 0.000000 0.031421
#
#
# Mechanical properties :
#
#
# Convention : Reuss Voigt Hill
#
# Bulk Modulus (GPa) = 43.21062 48.82810 46.01936
# Shear Modulus (GPa) = 28.80319 30.46442 29.63381
#
# Velocity S-wave (km/s) = 3.65409 3.75799 3.70641
# Velocity P-wave (km/s) = 6.15097 6.43936 6.29682
#
# Compressibility (1/GPa) = 0.02314246
#
# Stress axis : x y z
#
# Youngs Moduli (GPa) = 63.22773 80.74421 49.75051
#
# Poissons Ratio (x) = 0.40289 0.13035
# Poissons Ratio (y) = 0.31549 0.24724
# Poissons Ratio (z) = 0.16566 0.40126
#
# Static dielectric constant tensor:
#      x y z
#    x 3.913710 0.000000 -0.043980 
#    y 0.000000 3.993320 0.000000 
#    z -0.043980 0.000000 3.794380 
# 
# 
# High freq. dielectric constant tensor:
#      x y z
#    x 1.848180 0.000000 0.006390 
#    y 0.000000 1.843540 0.000000 
#    z 0.006390 0.000000 1.836130 
# 
# From -- ./inp_files/119932.got.cif
#   From: 2010.06.25/outbox.cif.g09.slc.cpg/sg15_60_cif.got.tgz:119932.got - 2010.06.28 07:06:18.
