data_PCOD8138239
_publ_section_title
;
Structure prediction by ZEFSAII (Michael W. Deem and Ramdas Pophale) SiO2 
 PCOD8138239
Probable space group: C 2/C
;
_chemical_formula_sum "Si O2"
_cell_formula_units_Z 40
_cell_length_a 11.788149
_cell_length_b 8.316690
_cell_length_c 19.564400
_cell_angle_alpha 90.000000
_cell_angle_beta 107.870423
_cell_angle_gamma 90.000000
_cell_volume 1825.521241
_symmetry_space_group_name_H-M "C 2/C"
_symmetry_group_IT_number 15
_symmetry_cell_setting 'monoclinic'
loop_
_space_group_symop_operation_xyz
x,y,z
-x,y,1/2-z
-x,-y,-z
x,-y,1/2+z
1/2+x,1/2+y,z
1/2-x,1/2+y,1/2-z
1/2-x,1/2-y,-z
1/2+x,1/2-y,1/2+z
loop_
_atom_site_type_symbol
_atom_site_label
_atom_site_fract_x
_atom_site_fract_y
_atom_site_fract_z
Si Si1 0.715860 0.092422 0.183644
Si Si2 0.092942 0.883249 0.890916
Si Si3 0.349062 0.440744 0.331139
Si Si4 0.557142 0.873650 0.061368
Si Si5 0.363687 0.555689 0.475987
O O1 0.829822 0.151605 0.161375
O O2 0.637483 0.251485 0.181399
O O3 0.755685 0.022472 0.263214
O O4 0.639413 0.956693 0.132600
O O5 0.048787 0.718844 0.918341
O O6 0.979707 0.986043 0.845706
O O7 0.180541 0.986011 0.959205
O O8 0.298951 0.474029 0.398839
O O9 0.638294 0.749647 0.031641
O O10 0.500000 0.000000 0.000000
O O11 0.500000 0.500000 0.500000
#
# Coordination Sequence:
#
# PCOD8138239 Si02
#       5
#     8   8   8   8   8
#     4  12  23  39  64  85 118 163 194 241 305 346
#     4  10  22  41  62  87 120 157 196 243 294 352
#     4  10  21  39  59  88 121 151 197 246 288 350
#     4  10  20  37  61  91 121 151 197 247 290 352
#     4   8  17  36  58  82 118 150 187 243 286 336
#
# _framework density 21.911549000000001
#
# number of rings (size 3 to 8) (size 9 to 14) (size 15 to 20)
#    0.000    2.400    0.000    6.600    0.000    4.000 
#    0.000   12.000    0.000    0.000    0.000    0.000 
#    0.000    0.000    0.000    0.000    0.000    0.000 
#
# Total GULP energy -247927.037417 kJ/mol
# GULP energy per Si atom -12396.351871 kJ/mol
# Density = 2.186168 g / cm^3
# Si number density = 21.911549 Si / 1000 Ang^3
#
#
#
# Elastic Constant Matrix: (Units=GPa)
#
#
# Indices 1 2 3 4 5 6 
#
# 1 34.3140 13.2881 16.7231 0.0000 1.9800 0.0000
# 2 13.2881 163.6418 65.9677 0.0000 16.7446 0.0000
# 3 16.7231 65.9677 178.6393 0.0000 21.8240 0.0000
# 4 0.0000 0.0000 0.0000 51.3785 0.0000 8.2842
# 5 1.9800 16.7446 21.8240 0.0000 23.5906 0.0000
# 6 0.0000 0.0000 0.0000 8.2842 0.0000 18.3541
#
#
#
# Elastic Compliance Matrix: (Units=1/GPa)
#
#
# Indices 1 2 3 4 5 6 
#
# 1 0.030890 -0.001625 -0.002385 0.000000 0.000768 0.000000
# 2 -0.001625 0.007456 -0.002222 0.000000 -0.003100 0.000000
# 3 -0.002385 -0.002222 0.007243 0.000000 -0.004923 0.000000
# 4 0.000000 0.000000 0.000000 0.020991 0.000000 -0.009474
# 5 0.000768 -0.003100 -0.004923 0.000000 0.049080 0.000000
# 6 0.000000 0.000000 0.000000 -0.009474 0.000000 0.058760
#
#
# Mechanical properties :
#
#
# Convention : Reuss Voigt Hill
#
# Bulk Modulus (GPa) = 30.19028 63.17253 46.68141
# Shear Modulus (GPa) = 25.26169 37.37238 31.31704
#
# Velocity S-wave (km/s) = 3.39911 4.13437 3.78464
# Velocity P-wave (km/s) = 5.40495 7.18916 6.35993
#
# Compressibility (1/GPa) = 0.03312324
#
# Stress axis : x y z
#
# Youngs Moduli (GPa) = 32.37270 134.11986 138.05761
#
# Poissons Ratio (x) = 0.21799 0.32931
# Poissons Ratio (y) = 0.05262 0.30683
# Poissons Ratio (z) = 0.07722 0.29808
#
# Static dielectric constant tensor:
#      x y z
#    x 3.660000 0.000000 -0.159160 
#    y 0.000000 4.177000 0.000000 
#    z -0.159160 0.000000 4.942660 
# 
# 
# High freq. dielectric constant tensor:
#      x y z
#    x 1.822070 0.000000 0.002920 
#    y 0.000000 1.875910 0.000000 
#    z 0.002920 0.000000 1.881760 
# 
# From -- ./inp_files/242111.got.cif
#   From: 2010.06.25/outbox.cif.g09.slc.cpg/sg15_122_cif.got.tgz:242111.got - 2010.06.28 07:06:18.
