data_PCOD8138687
_publ_section_title
;
Structure prediction by ZEFSAII (Michael W. Deem and Ramdas Pophale) SiO2 
 PCOD8138687
Probable space group: C 2/C
;
_chemical_formula_sum "Si O2"
_cell_formula_units_Z 64
_cell_length_a 30.535556
_cell_length_b 19.220397
_cell_length_c 9.058732
_cell_angle_alpha 90.000000
_cell_angle_beta 35.446596
_cell_angle_gamma 90.000000
_cell_volume 3083.341100
_symmetry_space_group_name_H-M "C 2/C"
_symmetry_group_IT_number 15
_symmetry_cell_setting 'monoclinic'
loop_
_space_group_symop_operation_xyz
x,y,z
-x,y,1/2-z
-x,-y,-z
x,-y,1/2+z
1/2+x,1/2+y,z
1/2-x,1/2+y,1/2-z
1/2-x,1/2-y,-z
1/2+x,1/2-y,1/2+z
loop_
_atom_site_type_symbol
_atom_site_label
_atom_site_fract_x
_atom_site_fract_y
_atom_site_fract_z
Si Si1 0.832630 0.692653 0.158454
Si Si2 0.288090 0.205287 0.611207
Si Si3 0.954277 0.449755 0.727905
Si Si4 0.542456 0.700296 0.271364
Si Si5 0.684104 0.953320 0.888405
Si Si6 0.213337 0.001556 0.142775
Si Si7 0.549606 0.205856 0.260252
Si Si8 0.336600 0.596773 0.467473
O O1 0.759390 0.723884 0.276616
O O2 0.815969 0.678892 0.375286
O O3 0.857239 0.620957 0.010718
O O4 0.901881 0.744117 0.953240
O O5 0.361245 0.222316 0.512902
O O6 0.238143 0.144673 0.822003
O O7 0.950333 0.372229 0.671030
O O8 0.000000 0.443537 0.750000
O O9 0.000000 0.500000 0.500000
O O10 0.871355 0.481279 0.981958
O O11 0.500000 0.664391 0.250000
O O12 0.482245 0.737869 0.539920
O O13 0.587199 0.641659 0.238645
O O14 0.722570 0.957661 0.942330
O O15 0.747078 0.953179 0.587788
O O16 0.163370 0.955074 0.391365
O O17 0.161921 0.056301 0.192732
O O18 0.500000 0.211041 0.250000
#
# Coordination Sequence:
#
# PCOD8138687 Si02
#       8
#     8   8   8   8   8   8   8   8
#     4  10  21  35  61  90 114 159 209 253 299 356
#     4  10  20  38  60  87 122 155 205 255 299 361
#     4  11  24  35  51  83 124 164 203 241 297 368
#     4  11  23  40  64  89 120 161 209 251 306 370
#     4  11  21  35  59  86 117 162 199 249 301 358
#     4  10  21  37  60  87 118 150 199 251 305 361
#     4  11  24  40  58  88 128 168 204 256 309 360
#     4  10  22  41  64  93 121 156 201 258 307 369
#
# _framework density 20.756703999999999
#
# number of rings (size 3 to 8) (size 9 to 14) (size 15 to 20)
#    0.000    1.500    2.500    3.000    1.750    5.000 
#    0.000    4.375    0.000    0.000    0.000    0.000 
#    0.000    0.000    0.000    0.000    0.000    0.000 
#
# Total GULP energy -396774.244008 kJ/mol
# GULP energy per Si atom -12399.195125 kJ/mol
# Density = 2.070946 g / cm^3
# Si number density = 20.756704 Si / 1000 Ang^3
#
#
#
# Elastic Constant Matrix: (Units=GPa)
#
#
# Indices 1 2 3 4 5 6 
#
# 1 131.6830 53.2158 29.5580 0.0000 -14.2258 0.0000
# 2 53.2158 93.3828 25.3303 0.0000 -5.8919 0.0000
# 3 29.5580 25.3303 54.2763 0.0000 -8.5591 0.0000
# 4 0.0000 0.0000 0.0000 39.0650 0.0000 5.0343
# 5 -14.2258 -5.8919 -8.5591 0.0000 32.6958 0.0000
# 6 0.0000 0.0000 0.0000 5.0343 0.0000 35.5598
#
#
#
# Elastic Compliance Matrix: (Units=1/GPa)
#
#
# Indices 1 2 3 4 5 6 
#
# 1 0.010622 -0.005066 -0.002958 0.000000 0.002934 0.000000
# 2 -0.005066 0.014694 -0.004202 0.000000 -0.000656 0.000000
# 3 -0.002958 -0.004202 0.022607 0.000000 0.003874 0.000000
# 4 0.000000 0.000000 0.000000 0.026074 0.000000 -0.003691
# 5 0.002934 -0.000656 0.003874 0.000000 0.032758 0.000000
# 6 0.000000 0.000000 0.000000 -0.003691 0.000000 0.028644
#
#
# Mechanical properties :
#
#
# Convention : Reuss Voigt Hill
#
# Bulk Modulus (GPa) = 42.60482 55.06113 48.83297
# Shear Modulus (GPa) = 29.81973 32.87998 31.34986
#
# Velocity S-wave (km/s) = 3.79440 3.98435 3.89054
# Velocity P-wave (km/s) = 6.30611 6.91023 6.61507
#
# Compressibility (1/GPa) = 0.02347152
#
# Stress axis : x y z
#
# Youngs Moduli (GPa) = 94.14366 68.05558 44.23406
#
# Poissons Ratio (x) = 0.34475 0.13083
# Poissons Ratio (y) = 0.47691 0.18588
# Poissons Ratio (z) = 0.27845 0.28599
#
# Static dielectric constant tensor:
#      x y z
#    x 3.888170 0.000000 -0.106480 
#    y 0.000000 3.404950 0.000000 
#    z -0.106480 0.000000 3.606990 
# 
# 
# High freq. dielectric constant tensor:
#      x y z
#    x 1.822240 0.000000 -0.002860 
#    y 0.000000 1.811750 0.000000 
#    z -0.002860 0.000000 1.791720 
# 
# From -- ./inp_files/70583.got.cif
#   From: 2010.06.25/outbox.cif.g09.slc.cpg/sg15_36_cif.got.tgz:70583.got - 2010.06.28 07:06:18.
