data_PCOD8138056
_publ_section_title
;
Structure prediction by ZEFSAII (Michael W. Deem and Ramdas Pophale) SiO2 
 PCOD8138056
Probable space group: C 2/C
;
_chemical_formula_sum "Si O2"
_cell_formula_units_Z 40
_cell_length_a 15.885115
_cell_length_b 23.710128
_cell_length_c 10.752544
_cell_angle_alpha 90.000000
_cell_angle_beta 31.137448
_cell_angle_gamma 90.000000
_cell_volume 2094.131922
_symmetry_space_group_name_H-M "C 2/C"
_symmetry_group_IT_number 15
_symmetry_cell_setting 'monoclinic'
loop_
_space_group_symop_operation_xyz
x,y,z
-x,y,1/2-z
-x,-y,-z
x,-y,1/2+z
1/2+x,1/2+y,z
1/2-x,1/2+y,1/2-z
1/2-x,1/2-y,-z
1/2+x,1/2-y,1/2+z
loop_
_atom_site_type_symbol
_atom_site_label
_atom_site_fract_x
_atom_site_fract_y
_atom_site_fract_z
Si Si1 0.500000 0.225755 0.750000
Si Si2 0.015332 0.115058 0.866515
Si Si3 0.500000 0.590051 0.250000
Si Si4 0.181365 0.545524 0.010429
Si Si5 0.159300 0.179412 0.203636
Si Si6 0.808018 0.003474 0.109672
O O1 0.648649 0.187426 0.509720
O O2 0.424545 0.262778 0.734757
O O3 0.204048 0.100021 0.653292
O O4 0.000000 0.141991 0.750000
O O5 0.081640 0.056747 0.501646
O O6 0.943142 0.162280 0.046636
O O7 0.643072 0.629842 0.122372
O O8 0.425190 0.551471 0.453803
O O9 0.219378 0.510453 0.088678
O O10 0.000000 0.569367 0.250000
O O11 0.190405 0.504926 0.877039
#
# Coordination Sequence:
#
# PCOD8138056 Si02
#       6
#     4   8   4   8   8   8
#     4   9  22  42  62  88 108 136 204 261 282 344
#     4  10  20  37  58  81 121 157 187 232 292 357
#     4  11  18  34  64  82 118 162 188 223 294 350
#     4  11  21  34  51  81 122 164 199 236 269 338
#     4  10  20  40  63  85 111 149 191 247 300 332
#     4  11  20  37  54  83 127 163 195 228 279 361
#
# _framework density 19.100994
#
# number of rings (size 3 to 8) (size 9 to 14) (size 15 to 20)
#    0.000    1.600    5.000    2.400    0.000    0.000 
#   14.400    1.000    0.000    0.000    0.000    0.000 
#    0.000    0.000    0.000    0.000    0.000    0.000 
#
# Total GULP energy -247947.555349 kJ/mol
# GULP energy per Si atom -12397.377767 kJ/mol
# Density = 1.905752 g / cm^3
# Si number density = 19.100994 Si / 1000 Ang^3
#
#
#
# Elastic Constant Matrix: (Units=GPa)
#
#
# Indices 1 2 3 4 5 6 
#
# 1 95.8246 28.8123 75.1215 -0.0101 7.9151 -0.0320
# 2 28.8123 65.5411 44.2472 0.0003 -4.8048 0.0014
# 3 75.1215 44.2472 157.9625 -0.0162 -10.5865 -0.0328
# 4 -0.0101 0.0003 -0.0162 32.9066 0.0059 0.5417
# 5 7.9151 -4.8048 -10.5865 0.0059 40.2227 0.0192
# 6 -0.0320 0.0014 -0.0328 0.5417 0.0192 4.4749
#
#
#
# Elastic Compliance Matrix: (Units=1/GPa)
#
#
# Indices 1 2 3 4 5 6 
#
# 1 0.018337 -0.002894 -0.008322 0.000001 -0.006144 0.000097
# 2 -0.002894 0.019303 -0.003907 -0.000002 0.001847 -0.000063
# 3 -0.008322 -0.003907 0.011667 0.000002 0.004242 0.000009
# 4 0.000001 -0.000002 0.000002 0.030450 -0.000003 -0.003686
# 5 -0.006144 0.001847 0.004242 -0.000003 0.027408 -0.000131
# 6 0.000097 -0.000063 0.000009 -0.003686 -0.000131 0.223914
#
#
# Mechanical properties :
#
#
# Convention : Reuss Voigt Hill
#
# Bulk Modulus (GPa) = 52.46053 68.41002 60.43528
# Shear Modulus (GPa) = 13.59890 26.93066 20.26478
#
# Velocity S-wave (km/s) = 2.67113 3.75895 3.26072
# Velocity P-wave (km/s) = 6.08586 7.39812 6.77384
#
# Compressibility (1/GPa) = 0.01906195
#
# Stress axis : x y z
#
# Youngs Moduli (GPa) = 54.53414 51.80615 85.71297
#
# Poissons Ratio (x) = 0.14990 0.71328
# Poissons Ratio (y) = 0.15779 0.33489
# Poissons Ratio (z) = 0.45382 0.20241
#
# Static dielectric constant tensor:
#      x y z
#    x 3.804970 0.000000 0.163760 
#    y 0.000000 3.248690 0.000000 
#    z 0.163760 0.000000 3.673070 
# 
# 
# High freq. dielectric constant tensor:
#      x y z
#    x 1.752140 0.000000 0.007340 
#    y 0.000000 1.711910 0.000000 
#    z 0.007340 0.000000 1.743030 
# 
# From -- ./inp_files/107443.got.cif
#   From: 2010.06.25/outbox.cif.g09.slc.cpg/sg15_54_cif.got.tgz:107443.got - 2010.06.28 07:06:18.
