data_PCOD8138366
_publ_section_title
;
Structure prediction by ZEFSAII (Michael W. Deem and Ramdas Pophale) SiO2 
 PCOD8138366
Probable space group: C 2/C
;
_chemical_formula_sum "Si O2"
_cell_formula_units_Z 60
_cell_length_a 7.893261
_cell_length_b 22.021156
_cell_length_c 24.820155
_cell_angle_alpha 90.000000
_cell_angle_beta 42.886818
_cell_angle_gamma 90.000000
_cell_volume 2936.044152
_symmetry_space_group_name_H-M "C 2/C"
_symmetry_group_IT_number 15
_symmetry_cell_setting 'monoclinic'
loop_
_space_group_symop_operation_xyz
x,y,z
-x,y,1/2-z
-x,-y,-z
x,-y,1/2+z
1/2+x,1/2+y,z
1/2-x,1/2+y,1/2-z
1/2-x,1/2-y,-z
1/2+x,1/2-y,1/2+z
loop_
_atom_site_type_symbol
_atom_site_label
_atom_site_fract_x
_atom_site_fract_y
_atom_site_fract_z
Si Si1 0.723250 0.850677 0.827428
Si Si2 0.071340 0.254048 0.385412
Si Si3 0.604362 0.913559 0.283145
Si Si4 0.000000 0.166784 0.750000
Si Si5 0.770770 0.862208 0.050211
Si Si6 0.714863 0.948029 0.739688
Si Si7 0.118209 0.871898 0.597210
Si Si8 0.279221 0.707651 0.043626
O O1 0.699750 0.912680 0.799531
O O2 0.683187 0.863686 0.900642
O O3 0.490956 0.807035 0.867037
O O4 0.000000 0.822188 0.750000
O O5 0.332434 0.287783 0.322618
O O6 0.041087 0.242881 0.456234
O O7 0.860462 0.297136 0.410343
O O8 0.060123 0.188057 0.359418
O O9 0.500000 0.890215 0.250000
O O10 0.838787 0.873378 0.246328
O O11 0.378679 0.911433 0.379374
O O12 0.705720 0.981361 0.255062
O O13 0.755663 0.881632 0.990542
O O14 0.056621 0.854172 0.005234
O O15 0.500000 0.926772 0.750000
O O16 0.964688 0.931953 0.648770
O O17 0.250000 0.750000 0.000000
#
# Coordination Sequence:
#
# PCOD8138366 Si02
#       8
#     8   8   8   4   8   8   8   8
#     4  10  22  36  60  97 124 164 215 267 322 388
#     4  10  21  36  58  92 126 166 206 264 324 393
#     4  10  24  45  65  92 129 175 224 269 315 398
#     4  10  24  38  66  88 130 174 212 260 328 386
#     4  10  21  41  61  89 132 167 208 268 331 391
#     4  10  21  40  65  89 122 165 220 273 314 376
#     4  10  20  37  63  91 126 160 212 269 329 377
#     4  11  21  35  59  90 128 168 204 262 325 396
#
# _framework density 20.435661
#
# number of rings (size 3 to 8) (size 9 to 14) (size 15 to 20)
#    0.000    1.867    0.000    4.800    9.333    0.000 
#    0.000    6.667    0.000    0.000    0.000    0.000 
#    0.000    0.000    0.000    0.000    0.000    0.000 
#
# Total GULP energy -371733.217397 kJ/mol
# GULP energy per Si atom -12391.107247 kJ/mol
# Density = 2.038915 g / cm^3
# Si number density = 20.435661 Si / 1000 Ang^3
#
#
#
# Elastic Constant Matrix: (Units=GPa)
#
#
# Indices 1 2 3 4 5 6 
#
# 1 98.4838 26.5251 26.4067 0.0004 13.9528 0.0011
# 2 26.5251 92.9813 45.0104 -0.0002 2.1682 0.0002
# 3 26.4067 45.0104 112.6426 0.0010 3.1012 0.0000
# 4 0.0004 -0.0002 0.0010 30.1567 -0.0007 -0.5045
# 5 13.9528 2.1682 3.1012 -0.0007 43.1338 0.0002
# 6 0.0011 0.0002 0.0000 -0.5045 0.0002 20.7803
#
#
#
# Elastic Compliance Matrix: (Units=1/GPa)
#
#
# Indices 1 2 3 4 5 6 
#
# 1 0.011772 -0.002463 -0.001677 0.000000 -0.003564 -0.000001
# 2 -0.002463 0.013853 -0.004971 0.000000 0.000458 0.000000
# 3 -0.001677 -0.004971 0.011258 0.000000 -0.000017 0.000000
# 4 0.000000 0.000000 0.000000 0.033174 0.000001 0.000805
# 5 -0.003564 0.000458 -0.000017 0.000001 0.024315 0.000000
# 6 -0.000001 0.000000 0.000000 0.000805 0.000000 0.048142
#
#
# Mechanical properties :
#
#
# Convention : Reuss Voigt Hill
#
# Bulk Modulus (GPa) = 53.58989 55.55468 54.57228
# Shear Modulus (GPa) = 29.94816 32.55852 31.25334
#
# Velocity S-wave (km/s) = 3.83232 3.99585 3.91494
# Velocity P-wave (km/s) = 6.77221 6.96658 6.87008
#
# Compressibility (1/GPa) = 0.01866024
#
# Stress axis : x y z
#
# Youngs Moduli (GPa) = 84.94737 72.18629 88.82946
#
# Poissons Ratio (x) = 0.17781 0.14900
# Poissons Ratio (y) = 0.20924 0.44154
# Poissons Ratio (z) = 0.14249 0.35881
#
# Static dielectric constant tensor:
#      x y z
#    x 4.171950 0.000000 -0.308680 
#    y 0.000000 3.477090 0.000000 
#    z -0.308680 0.000000 4.226930 
# 
# 
# High freq. dielectric constant tensor:
#      x y z
#    x 1.817140 0.000000 -0.000360 
#    y 0.000000 1.773740 0.000000 
#    z -0.000360 0.000000 1.798030 
# 
# From -- ./inp_files/290213.got.cif
#   From: 2010.06.25/outbox.cif.g09.slc.cpg/sg15_146_cif.got.tgz:290213.got - 2010.06.28 07:06:18.
