data_PCOD8138505
_publ_section_title
;
Structure prediction by ZEFSAII (Michael W. Deem and Ramdas Pophale) SiO2 
 PCOD8138505
Probable space group: C 2/C
;
_chemical_formula_sum "Si O2"
_cell_formula_units_Z 48
_cell_length_a 19.615888
_cell_length_b 9.036479
_cell_length_c 26.354305
_cell_angle_alpha 90.000000
_cell_angle_beta 30.828432
_cell_angle_gamma 90.000000
_cell_volume 2394.012548
_symmetry_space_group_name_H-M "C 2/C"
_symmetry_group_IT_number 15
_symmetry_cell_setting 'monoclinic'
loop_
_space_group_symop_operation_xyz
x,y,z
-x,y,1/2-z
-x,-y,-z
x,-y,1/2+z
1/2+x,1/2+y,z
1/2-x,1/2+y,1/2-z
1/2-x,1/2-y,-z
1/2+x,1/2-y,1/2+z
loop_
_atom_site_type_symbol
_atom_site_label
_atom_site_fract_x
_atom_site_fract_y
_atom_site_fract_z
Si Si1 0.585158 0.449524 0.745385
Si Si2 0.735899 0.243566 0.429911
Si Si3 0.887744 0.146404 0.678939
Si Si4 0.552556 0.170331 0.633367
Si Si5 0.312419 0.041331 0.262674
Si Si6 0.605949 0.473747 0.974073
O O1 0.500000 0.496503 0.750000
O O2 0.722599 0.371824 0.640234
O O3 0.617135 0.590172 0.759794
O O4 0.509614 0.334296 0.830478
O O5 0.664578 0.147493 0.518924
O O6 0.868556 0.332988 0.363377
O O7 0.632277 0.362054 0.476828
O O8 0.853181 0.319475 0.702437
O O9 0.038991 0.128684 0.560406
O O10 0.779018 0.064772 0.713456
O O11 0.443061 0.043752 0.698491
O O12 0.235832 0.094594 0.363041
O O13 0.500000 0.500000 0.000000
#
# Coordination Sequence:
#
# PCOD8138505 Si02
#       6
#     8   8   8   8   8   8
#     4  10  20  38  62  90 123 164 201 253 307 364
#     4  10  20  37  67  90 122 160 211 247 305 378
#     4  11  24  42  62  90 128 161 210 259 308 366
#     4  10  20  38  64  92 118 163 206 251 305 366
#     4  11  24  41  64  90 124 167 206 257 312 367
#     4  10  22  38  62  90 121 162 200 259 306 359
#
# _framework density 20.050021999999998
#
# number of rings (size 3 to 8) (size 9 to 14) (size 15 to 20)
#    0.000    1.667    3.333    1.000    4.667    1.333 
#    3.000    2.500    0.000    0.000    0.000    0.000 
#    0.000    0.000    0.000    0.000    0.000    0.000 
#
# Total GULP energy -297459.441439 kJ/mol
# GULP energy per Si atom -12394.143393 kJ/mol
# Density = 2.000439 g / cm^3
# Si number density = 20.050022 Si / 1000 Ang^3
#
#
#
# Elastic Constant Matrix: (Units=GPa)
#
#
# Indices 1 2 3 4 5 6 
#
# 1 77.7478 41.2297 39.2582 -0.0007 -3.5691 0.0031
# 2 41.2297 79.9463 32.8249 -0.0050 -8.3284 0.0040
# 3 39.2582 32.8249 133.6344 -0.0025 -0.5571 0.0021
# 4 -0.0007 -0.0050 -0.0025 23.9963 -0.0005 0.5122
# 5 -3.5691 -8.3284 -0.5571 -0.0005 30.3705 0.0005
# 6 0.0031 0.0040 0.0021 0.5122 0.0005 35.1931
#
#
#
# Elastic Compliance Matrix: (Units=1/GPa)
#
#
# Indices 1 2 3 4 5 6 
#
# 1 0.019108 -0.008411 -0.003548 -0.000002 -0.000126 -0.000001
# 2 -0.008411 0.018055 -0.001948 0.000003 0.003927 -0.000001
# 3 -0.003548 -0.001948 0.009001 0.000000 -0.000786 0.000000
# 4 -0.000002 0.000003 0.000000 0.041686 0.000001 -0.000607
# 5 -0.000126 0.003927 -0.000786 0.000001 0.033974 -0.000001
# 6 -0.000001 -0.000001 0.000000 -0.000607 -0.000001 0.028423
#
#
# Mechanical properties :
#
#
# Convention : Reuss Voigt Hill
#
# Bulk Modulus (GPa) = 54.49405 57.55044 56.02225
# Shear Modulus (GPa) = 27.14783 29.77970 28.46377
#
# Velocity S-wave (km/s) = 3.68367 3.85810 3.77190
# Velocity P-wave (km/s) = 6.73280 6.97225 6.85358
#
# Compressibility (1/GPa) = 0.01835063
#
# Stress axis : x y z
#
# Youngs Moduli (GPa) = 52.33388 55.38722 111.10451
#
# Poissons Ratio (x) = 0.46585 0.39420
# Poissons Ratio (y) = 0.44017 0.21639
# Poissons Ratio (z) = 0.18568 0.10787
#
# Static dielectric constant tensor:
#      x y z
#    x 3.569440 0.000000 0.114360 
#    y 0.000000 3.195870 0.000000 
#    z 0.114360 0.000000 4.785760 
# 
# 
# High freq. dielectric constant tensor:
#      x y z
#    x 1.783040 0.000000 0.006270 
#    y 0.000000 1.745330 0.000000 
#    z 0.006270 0.000000 1.805240 
# 
# From -- ./inp_files/180726.got.cif
#   From: 2010.06.25/outbox.cif.g09.slc.cpg/sg15_91_cif.got.tgz:180726.got - 2010.06.28 07:06:18.
