data_PCOD8138001
_publ_section_title
;
Structure prediction by ZEFSAII (Michael W. Deem and Ramdas Pophale) SiO2 
 PCOD8138001
Probable space group: C 2/C
;
_chemical_formula_sum "Si O2"
_cell_formula_units_Z 64
_cell_length_a 11.061750
_cell_length_b 24.112946
_cell_length_c 21.516785
_cell_angle_alpha 90.000000
_cell_angle_beta 145.485526
_cell_angle_gamma 90.000000
_cell_volume 3251.914415
_symmetry_space_group_name_H-M "C 2/C"
_symmetry_group_IT_number 15
_symmetry_cell_setting 'monoclinic'
loop_
_space_group_symop_operation_xyz
x,y,z
-x,y,1/2-z
-x,-y,-z
x,-y,1/2+z
1/2+x,1/2+y,z
1/2-x,1/2+y,1/2-z
1/2-x,1/2-y,-z
1/2+x,1/2-y,1/2+z
loop_
_atom_site_type_symbol
_atom_site_label
_atom_site_fract_x
_atom_site_fract_y
_atom_site_fract_z
Si Si1 0.248583 0.118501 0.204520
Si Si2 0.814493 0.956768 0.936318
Si Si3 0.131649 0.100399 0.366033
Si Si4 0.727019 0.227615 0.363881
Si Si5 0.451027 0.835749 0.473221
Si Si6 0.391070 0.999153 0.036884
Si Si7 0.247143 0.059793 0.863173
Si Si8 0.686795 0.856594 0.949496
O O1 0.268573 0.067465 0.164261
O O2 0.236770 0.177230 0.166877
O O3 0.460627 0.114350 0.335628
O O4 0.033668 0.119056 0.152271
O O5 0.865278 0.902850 0.002736
O O6 0.647770 0.993788 0.906138
O O7 0.000000 0.000000 0.000000
O O8 0.295842 0.150504 0.417721
O O9 0.259453 0.049528 0.448303
O O10 0.000000 0.081505 0.250000
O O11 0.500000 0.255746 0.250000
O O12 0.914531 0.272987 0.434372
O O13 0.727519 0.202091 0.433181
O O14 0.330040 0.879551 0.376677
O O15 0.319840 0.840833 0.481800
O O16 0.641966 0.986817 0.133413
O O17 0.323536 0.053547 0.968174
O O18 0.000000 0.052171 0.750000
#
# Coordination Sequence:
#
# PCOD8138001 Si02
#       8
#     8   8   8   8   8   8   8   8
#     4  10  21  38  58  83 114 151 193 240 281 337
#     4  11  20  36  56  80 115 148 187 234 284 334
#     4  11  21  35  59  85 113 150 194 240 285 336
#     4   9  20  36  56  83 112 146 189 237 285 341
#     4  11  20  34  59  84 111 147 190 238 292 335
#     4  10  21  36  55  85 113 152 190 230 284 352
#     4  10  21  36  54  83 117 147 187 236 285 342
#     4  10  20  37  56  84 110 146 199 232 278 344
#
# _framework density 19.680713999999998
#
# number of rings (size 3 to 8) (size 9 to 14) (size 15 to 20)
#    0.000    1.750    3.750    2.250    0.000    1.500 
#    2.250    0.000    0.000    0.000    0.000    3.500 
#    0.000    0.000    0.000    0.000    0.000    0.000 
#
# Total GULP energy -396455.732065 kJ/mol
# GULP energy per Si atom -12389.241627 kJ/mol
# Density = 1.963592 g / cm^3
# Si number density = 19.680714 Si / 1000 Ang^3
#
#
#
# Elastic Constant Matrix: (Units=GPa)
#
#
# Indices 1 2 3 4 5 6 
#
# 1 107.9036 20.7078 27.1057 0.0027 13.0888 0.0000
# 2 20.7078 93.6974 39.3107 0.0031 12.2770 -0.0003
# 3 27.1057 39.3107 77.1310 -0.0306 16.5973 -0.0201
# 4 0.0027 0.0031 -0.0306 19.7494 -0.0038 11.3827
# 5 13.0888 12.2770 16.5973 -0.0038 28.4798 -0.0045
# 6 0.0000 -0.0003 -0.0201 11.3827 -0.0045 17.0538
#
#
#
# Elastic Compliance Matrix: (Units=1/GPa)
#
#
# Indices 1 2 3 4 5 6 
#
# 1 0.010438 -0.000826 -0.002620 -0.000006 -0.002914 0.000000
# 2 -0.000826 0.013750 -0.006316 -0.000013 -0.001867 0.000001
# 3 -0.002620 -0.006316 0.018591 0.000028 -0.006908 0.000001
# 4 -0.000006 -0.000013 0.000028 0.082292 -0.000006 -0.054926
# 5 -0.002914 -0.001867 -0.006908 -0.000006 0.041282 0.000007
# 6 0.000000 0.000001 0.000001 -0.054926 0.000007 0.095299
#
#
# Mechanical properties :
#
#
# Convention : Reuss Voigt Hill
#
# Bulk Modulus (GPa) = 43.00125 50.33114 46.66619
# Shear Modulus (GPa) = 17.30546 25.83044 21.56795
#
# Velocity S-wave (km/s) = 2.96853 3.62674 3.31402
# Velocity P-wave (km/s) = 5.80056 6.57016 6.19732
#
# Compressibility (1/GPa) = 0.02325514
#
# Stress axis : x y z
#
# Youngs Moduli (GPa) = 95.80689 72.72986 53.78935
#
# Poissons Ratio (x) = 0.06005 0.14094
# Poissons Ratio (y) = 0.07911 0.33972
# Poissons Ratio (z) = 0.25103 0.45934
#
# Static dielectric constant tensor:
#      x y z
#    x 3.892830 0.000000 0.181460 
#    y 0.000000 3.706480 0.000000 
#    z 0.181460 0.000000 3.497660 
# 
# 
# High freq. dielectric constant tensor:
#      x y z
#    x 1.773230 0.000000 0.003280 
#    y 0.000000 1.773470 0.000000 
#    z 0.003280 0.000000 1.738920 
# 
# From -- ./inp_files/271299.got.cif
#   From: 2010.06.25/outbox.cif.g09.slc.cpg/sg15_136_cif.got.tgz:271299.got - 2010.06.28 07:06:18.
