data_PCOD8138936
_publ_section_title
;
Structure prediction by ZEFSAII (Michael W. Deem and Ramdas Pophale) SiO2 
 PCOD8138936
Probable space group: C 2/C
;
_chemical_formula_sum "Si O2"
_cell_formula_units_Z 52
_cell_length_a 24.791120
_cell_length_b 13.384210
_cell_length_c 8.325170
_cell_angle_alpha 90.000000
_cell_angle_beta 58.991127
_cell_angle_gamma 90.000000
_cell_volume 2367.593706
_symmetry_space_group_name_H-M "C 2/C"
_symmetry_group_IT_number 15
_symmetry_cell_setting 'monoclinic'
loop_
_space_group_symop_operation_xyz
x,y,z
-x,y,1/2-z
-x,-y,-z
x,-y,1/2+z
1/2+x,1/2+y,z
1/2-x,1/2+y,1/2-z
1/2-x,1/2-y,-z
1/2+x,1/2-y,1/2+z
loop_
_atom_site_type_symbol
_atom_site_label
_atom_site_fract_x
_atom_site_fract_y
_atom_site_fract_z
Si Si1 0.500000 0.267119 0.750000
Si Si2 0.398381 0.624754 0.251207
Si Si3 0.931838 0.421783 0.352542
Si Si4 0.235295 0.898323 0.932167
Si Si5 0.656515 0.452649 0.344526
Si Si6 0.208085 0.743439 0.722756
Si Si7 0.344217 0.034543 0.716725
O O1 0.529567 0.335776 0.845978
O O2 0.555665 0.191863 0.601046
O O3 0.397342 0.517200 0.165681
O O4 0.373362 0.617684 0.474037
O O5 0.358014 0.702962 0.210733
O O6 0.875091 0.475743 0.525038
O O7 0.903898 0.418723 0.217249
O O8 0.000000 0.479080 0.250000
O O9 0.241604 0.791943 0.829216
O O10 0.301591 0.951792 0.875774
O O11 0.205689 0.971357 0.844982
O O12 0.192258 0.885730 0.156101
O O13 0.250000 0.750000 0.500000
O O14 0.198521 0.626954 0.778830
#
# Coordination Sequence:
#
# PCOD8138936 Si02
#       7
#     4   8   8   8   8   8   8
#     4  10  22  40  62  90 114 172 212 252 294 374
#     4  10  20  38  63  86 125 159 210 248 314 366
#     4  10  23  40  61  84 120 160 210 252 294 352
#     4  10  21  36  60  92 124 151 200 250 315 381
#     4   9  19  38  58  90 126 156 189 262 308 371
#     4  11  21  37  62  88 123 166 199 253 316 379
#     4  12  21  41  62  89 120 166 199 251 318 363
#
# _framework density 21.963227
#
# number of rings (size 3 to 8) (size 9 to 14) (size 15 to 20)
#    0.462    1.231    1.538    5.077    0.000    0.615 
#    2.769    3.846    0.000    1.846    0.000    0.000 
#    0.000    0.000    0.000    0.000    0.000    0.000 
#
# Total GULP energy -322113.315733 kJ/mol
# GULP energy per Si atom -12388.973682 kJ/mol
# Density = 2.191324 g / cm^3
# Si number density = 21.963227 Si / 1000 Ang^3
#
#
#
# Elastic Constant Matrix: (Units=GPa)
#
#
# Indices 1 2 3 4 5 6 
#
# 1 95.9664 30.5958 -4.6838 0.0000 -3.8117 0.0000
# 2 30.5958 93.1868 22.6791 0.0000 -6.3163 0.0000
# 3 -4.6838 22.6791 66.5012 0.0000 13.4864 0.0000
# 4 0.0000 0.0000 0.0000 25.7657 0.0000 -7.7578
# 5 -3.8117 -6.3163 13.4864 0.0000 21.4858 0.0000
# 6 0.0000 0.0000 0.0000 -7.7578 0.0000 45.9049
#
#
#
# Elastic Compliance Matrix: (Units=1/GPa)
#
#
# Indices 1 2 3 4 5 6 
#
# 1 0.011988 -0.004627 0.002597 0.000000 -0.000864 0.000000
# 2 -0.004627 0.014428 -0.006806 0.000000 0.007693 0.000000
# 3 0.002597 -0.006806 0.020458 0.000000 -0.014381 0.000000
# 4 0.000000 0.000000 0.000000 0.040892 0.000000 0.006911
# 5 -0.000864 0.007693 -0.014381 0.000000 0.057678 0.000000
# 6 0.000000 0.000000 0.000000 0.006911 0.000000 0.022952
#
#
# Mechanical properties :
#
#
# Convention : Reuss Voigt Hill
#
# Bulk Modulus (GPa) = 34.24373 39.20408 36.72390
# Shear Modulus (GPa) = 25.53611 32.43552 28.98582
#
# Velocity S-wave (km/s) = 3.41350 3.84710 3.63677
# Velocity P-wave (km/s) = 5.58222 6.13369 5.86444
#
# Compressibility (1/GPa) = 0.02920243
#
# Stress axis : x y z
#
# Youngs Moduli (GPa) = 83.41809 69.30909 48.88062
#
# Poissons Ratio (x) = 0.32066 -0.12696
# Poissons Ratio (y) = 0.38594 0.33270
# Poissons Ratio (z) = -0.21666 0.47175
#
# Static dielectric constant tensor:
#      x y z
#    x 4.149240 0.000000 0.092010 
#    y 0.000000 4.134340 0.000000 
#    z 0.092010 0.000000 3.582880 
# 
# 
# High freq. dielectric constant tensor:
#      x y z
#    x 1.875580 0.000000 0.011010 
#    y 0.000000 1.864730 0.000000 
#    z 0.011010 0.000000 1.826740 
# 
# From -- ./inp_files/65365.got.cif
#   From: 2010.06.25/outbox.cif.g09.slc.cpg/sg15_33_cif.got.tgz:65365.got - 2010.06.28 07:06:18.
