data_PCOD8138594
_publ_section_title
;
Structure prediction by ZEFSAII (Michael W. Deem and Ramdas Pophale) SiO2 
 PCOD8138594
Probable space group: C 2/C
;
_chemical_formula_sum "Si O2"
_cell_formula_units_Z 44
_cell_length_a 9.306785
_cell_length_b 10.916128
_cell_length_c 23.403190
_cell_angle_alpha 90.000000
_cell_angle_beta 44.102166
_cell_angle_gamma 90.000000
_cell_volume 1654.684212
_symmetry_space_group_name_H-M "C 2/C"
_symmetry_group_IT_number 15
_symmetry_cell_setting 'monoclinic'
loop_
_space_group_symop_operation_xyz
x,y,z
-x,y,1/2-z
-x,-y,-z
x,-y,1/2+z
1/2+x,1/2+y,z
1/2-x,1/2+y,1/2-z
1/2-x,1/2-y,-z
1/2+x,1/2-y,1/2+z
loop_
_atom_site_type_symbol
_atom_site_label
_atom_site_fract_x
_atom_site_fract_y
_atom_site_fract_z
Si Si1 0.407020 0.148721 0.386036
Si Si2 0.726973 0.329482 0.259041
Si Si3 0.917807 0.161261 0.377801
Si Si4 0.500000 0.998425 0.250000
Si Si5 0.821546 0.469941 0.120190
Si Si6 0.485855 0.267777 0.983155
O O1 0.506960 0.280795 0.343203
O O2 0.405634 0.077788 0.327115
O O3 0.522334 0.076792 0.403211
O O4 0.166345 0.173825 0.470918
O O5 0.807339 0.419799 0.284231
O O6 0.710946 0.398743 0.203364
O O7 0.878200 0.210940 0.211596
O O8 0.859427 0.030350 0.366678
O O9 0.731922 0.261182 0.420922
O O10 0.956331 0.150314 0.434665
O O11 0.961568 0.374553 0.045613
#
# Coordination Sequence:
#
# PCOD8138594 Si02
#       6
#     8   8   8   4   8   8
#     4  11  23  39  61  88 117 151 196 242 285 343
#     4  10  22  38  59  87 117 151 194 240 288 345
#     4  10  21  41  61  83 121 156 189 240 293 342
#     4  10  20  38  58  88 120 148 192 240 292 346
#     4  10  22  39  61  88 115 153 199 235 288 350
#     4  10  23  41  59  86 121 153 192 242 289 342
#
# _framework density 26.591177999999999
#
# number of rings (size 3 to 8) (size 9 to 14) (size 15 to 20)
#    0.000    1.818    0.000    3.818    0.000    6.545 
#    0.000   16.364    0.000    0.000    0.000    0.000 
#    0.000    0.000    0.000    0.000    0.000    0.000 
#
# Total GULP energy -272874.356772 kJ/mol
# GULP energy per Si atom -12403.379853 kJ/mol
# Density = 2.653066 g / cm^3
# Si number density = 26.591178 Si / 1000 Ang^3
#
#
#
# Elastic Constant Matrix: (Units=GPa)
#
#
# Indices 1 2 3 4 5 6 
#
# 1 110.8224 42.2395 12.3410 -0.0003 -10.2592 0.0001
# 2 42.2395 99.9483 -11.5945 -0.0004 7.0218 0.0001
# 3 12.3410 -11.5945 42.4139 -0.0004 -20.8965 0.0001
# 4 -0.0003 -0.0004 -0.0004 9.6530 0.0004 3.2225
# 5 -10.2592 7.0218 -20.8965 0.0004 34.0996 -0.0001
# 6 0.0001 0.0001 0.0001 3.2225 -0.0001 18.4187
#
#
#
# Elastic Compliance Matrix: (Units=1/GPa)
#
#
# Indices 1 2 3 4 5 6 
#
# 1 0.011797 -0.005592 -0.003789 0.000000 0.002379 0.000000
# 2 -0.005592 0.012992 0.004343 0.000001 -0.001696 0.000000
# 3 -0.003789 0.004343 0.035619 0.000001 0.019793 0.000000
# 4 0.000000 0.000001 0.000001 0.110020 -0.000001 -0.019249
# 5 0.002379 -0.001696 0.019793 -0.000001 0.042520 0.000000
# 6 0.000000 0.000000 0.000000 -0.019249 0.000000 0.057660
#
#
# Mechanical properties :
#
#
# Convention : Reuss Voigt Hill
#
# Bulk Modulus (GPa) = 19.86909 37.68407 28.77658
# Shear Modulus (GPa) = 16.80887 26.44752 21.62819
#
# Velocity S-wave (km/s) = 2.51693 3.15715 2.85504
# Velocity P-wave (km/s) = 3.99185 5.24333 4.65979
#
# Compressibility (1/GPa) = 0.05032943
#
# Stress axis : x y z
#
# Youngs Moduli (GPa) = 84.76644 76.97320 28.07529
#
# Poissons Ratio (x) = 0.43046 0.10639
# Poissons Ratio (y) = 0.47404 -0.12193
# Poissons Ratio (z) = 0.32121 -0.33428
#
# Static dielectric constant tensor:
#      x y z
#    x 5.020100 0.000000 -0.090160 
#    y 0.000000 4.794460 0.000000 
#    z -0.090160 0.000000 4.538090 
# 
# 
# High freq. dielectric constant tensor:
#      x y z
#    x 2.084030 0.000000 -0.013540 
#    y 0.000000 2.064870 0.000000 
#    z -0.013540 0.000000 2.053340 
# 
# From -- ./inp_files/287853.got.cif
#   From: 2010.06.25/outbox.cif.g09.slc.cpg/sg15_144_cif.got.tgz:287853.got - 2010.06.28 07:06:18.
