data_PCOD8138906
_publ_section_title
;
Structure prediction by ZEFSAII (Michael W. Deem and Ramdas Pophale) SiO2 
 PCOD8138906
Probable space group: C 2/C
;
_chemical_formula_sum "Si O2"
_cell_formula_units_Z 48
_cell_length_a 14.066103
_cell_length_b 14.550214
_cell_length_c 12.596510
_cell_angle_alpha 90.000000
_cell_angle_beta 119.217046
_cell_angle_gamma 90.000000
_cell_volume 2250.073221
_symmetry_space_group_name_H-M "C 2/C"
_symmetry_group_IT_number 15
_symmetry_cell_setting 'monoclinic'
loop_
_space_group_symop_operation_xyz
x,y,z
-x,y,1/2-z
-x,-y,-z
x,-y,1/2+z
1/2+x,1/2+y,z
1/2-x,1/2+y,1/2-z
1/2-x,1/2-y,-z
1/2+x,1/2-y,1/2+z
loop_
_atom_site_type_symbol
_atom_site_label
_atom_site_fract_x
_atom_site_fract_y
_atom_site_fract_z
Si Si1 0.731345 0.188782 0.387102
Si Si2 0.220475 0.589940 0.063072
Si Si3 0.103838 0.104334 0.509454
Si Si4 0.875541 0.932193 0.833550
Si Si5 0.426519 0.057903 0.112161
Si Si6 0.582652 0.782866 0.622157
O O1 0.750000 0.250000 0.500000
O O2 0.835278 0.161685 0.372102
O O3 0.687019 0.090850 0.401251
O O4 0.636637 0.237163 0.266164
O O5 0.305831 0.543468 0.190962
O O6 0.173258 0.679382 0.092065
O O7 0.286529 0.625905 0.996557
O O8 0.113985 0.524847 0.985284
O O9 0.053809 0.184976 0.556441
O O10 0.003263 0.081262 0.375459
O O11 0.137362 0.018897 0.598320
O O12 0.500000 0.020363 0.250000
O O13 0.483543 0.143475 0.080572
#
# Coordination Sequence:
#
# PCOD8138906 Si02
#       6
#     8   8   8   8   8   8
#     4  10  20  38  62  94 122 163 212 262 301 368
#     4  11  22  42  64  89 127 165 210 256 314 376
#     4  11  22  41  61  92 126 167 203 255 322 369
#     4  10  23  39  63  90 125 164 209 256 311 378
#     4  10  21  40  62  91 124 162 214 261 305 367
#     4  10  23  38  61  94 129 161 209 258 312 375
#
# _framework density 21.332640000000001
#
# number of rings (size 3 to 8) (size 9 to 14) (size 15 to 20)
#    0.000    1.667    1.667    2.500    2.333    0.000 
#    0.000    3.333    0.000    0.000    0.000    0.000 
#    0.000    0.000    0.000    0.000    0.000    0.000 
#
# Total GULP energy -297340.007331 kJ/mol
# GULP energy per Si atom -12389.166972 kJ/mol
# Density = 2.128409 g / cm^3
# Si number density = 21.332640 Si / 1000 Ang^3
#
#
#
# Elastic Constant Matrix: (Units=GPa)
#
#
# Indices 1 2 3 4 5 6 
#
# 1 80.6828 13.9099 15.7930 0.0000 3.8890 0.0000
# 2 13.9099 65.1625 52.0721 0.0000 6.8692 0.0000
# 3 15.7930 52.0721 122.7192 0.0000 12.1857 0.0000
# 4 0.0000 0.0000 0.0000 28.1689 0.0000 -5.9308
# 5 3.8890 6.8692 12.1857 0.0000 27.6702 0.0000
# 6 0.0000 0.0000 0.0000 -5.9308 0.0000 20.0420
#
#
#
# Elastic Compliance Matrix: (Units=1/GPa)
#
#
# Indices 1 2 3 4 5 6 
#
# 1 0.012939 -0.002126 -0.000664 0.000000 -0.000998 0.000000
# 2 -0.002126 0.023628 -0.009620 0.000000 -0.001330 0.000000
# 3 -0.000664 -0.009620 0.012622 0.000000 -0.003077 0.000000
# 4 0.000000 0.000000 0.000000 0.037859 0.000000 0.011203
# 5 -0.000998 -0.001330 -0.003077 0.000000 0.037966 0.000000
# 6 0.000000 0.000000 0.000000 0.011203 0.000000 0.053211
#
#
# Mechanical properties :
#
#
# Convention : Reuss Voigt Hill
#
# Bulk Modulus (GPa) = 41.03727 48.01272 44.52500
# Shear Modulus (GPa) = 23.67804 27.62885 25.65344
#
# Velocity S-wave (km/s) = 3.33520 3.60272 3.47153
# Velocity P-wave (km/s) = 5.84038 6.31361 6.08160
#
# Compressibility (1/GPa) = 0.02436809
#
# Stress axis : x y z
#
# Youngs Moduli (GPa) = 77.28669 42.32296 79.22930
#
# Poissons Ratio (x) = 0.08999 0.05259
# Poissons Ratio (y) = 0.16434 0.76219
# Poissons Ratio (z) = 0.05130 0.40715
#
# Static dielectric constant tensor:
#      x y z
#    x 3.917160 0.000000 0.180330 
#    y 0.000000 3.504980 0.000000 
#    z 0.180330 0.000000 2.929650 
# 
# 
# High freq. dielectric constant tensor:
#      x y z
#    x 1.850480 0.000000 0.004200 
#    y 0.000000 1.814930 0.000000 
#    z 0.004200 0.000000 1.837890 
# 
# From -- ./inp_files/96828.got.cif
#   From: 2010.06.25/outbox.cif.g09.slc.cpg/sg15_49_cif.got.tgz:96828.got - 2010.06.28 07:06:18.
