data_PCOD8138012
_publ_section_title
;
Structure prediction by ZEFSAII (Michael W. Deem and Ramdas Pophale) SiO2 
 PCOD8138012
Probable space group: C 2/C
;
_chemical_formula_sum "Si O2"
_cell_formula_units_Z 48
_cell_length_a 30.497104
_cell_length_b 6.798601
_cell_length_c 19.905452
_cell_angle_alpha 90.000000
_cell_angle_beta 145.876014
_cell_angle_gamma 90.000000
_cell_volume 2315.271426
_symmetry_space_group_name_H-M "C 2/C"
_symmetry_group_IT_number 15
_symmetry_cell_setting 'monoclinic'
loop_
_space_group_symop_operation_xyz
x,y,z
-x,y,1/2-z
-x,-y,-z
x,-y,1/2+z
1/2+x,1/2+y,z
1/2-x,1/2+y,1/2-z
1/2-x,1/2-y,-z
1/2+x,1/2-y,1/2+z
loop_
_atom_site_type_symbol
_atom_site_label
_atom_site_fract_x
_atom_site_fract_y
_atom_site_fract_z
Si Si1 0.704779 0.744705 0.051298
Si Si2 0.654901 0.717870 0.681620
Si Si3 0.084463 0.960315 0.702137
Si Si4 0.086644 0.937643 0.494484
Si Si5 0.080100 0.384387 0.099389
Si Si6 0.738466 0.476501 0.977826
O O1 0.756770 0.815634 0.180746
O O2 0.622928 0.653782 0.972349
O O3 0.696921 0.935122 0.992353
O O4 0.749626 0.579924 0.063916
O O5 0.590541 0.616333 0.648695
O O6 0.641814 0.616049 0.592195
O O7 0.646244 0.952918 0.669993
O O8 0.094393 0.737644 0.686423
O O9 0.150567 0.013952 0.839776
O O10 0.999991 0.980431 0.630315
O O11 0.082222 0.762537 0.540855
O O12 0.000000 0.500000 0.000000
O O13 0.750000 0.250000 0.000000
#
# Coordination Sequence:
#
# PCOD8138012 Si02
#       6
#     8   8   8   8   8   8
#     4  10  24  39  60  89 118 160 203 252 303 356
#     4  10  20  37  56  87 126 156 190 241 303 368
#     4  10  20  37  61  85 119 159 199 250 294 358
#     4  11  22  35  57  95 124 148 197 254 304 355
#     4  11  18  34  59  88 121 158 191 233 310 366
#     4  10  22  45  64  79 117 168 213 246 298 368
#
# _framework density 20.731909999999999
#
# number of rings (size 3 to 8) (size 9 to 14) (size 15 to 20)
#    0.000    1.667    3.333    2.000    2.333    2.000 
#    0.000    0.000    0.000    0.000    0.000    0.000 
#    0.000    0.000    0.000    0.000    0.000    0.000 
#
# Total GULP energy -297525.711373 kJ/mol
# GULP energy per Si atom -12396.904641 kJ/mol
# Density = 2.068472 g / cm^3
# Si number density = 20.731910 Si / 1000 Ang^3
#
#
#
# Elastic Constant Matrix: (Units=GPa)
#
#
# Indices 1 2 3 4 5 6 
#
# 1 101.1068 37.4590 27.4524 0.0001 10.2138 0.0000
# 2 37.4590 142.8745 17.0443 -0.0022 1.8084 -0.0005
# 3 27.4524 17.0443 54.4935 -0.0004 -1.0571 -0.0001
# 4 0.0001 -0.0022 -0.0004 31.3175 0.0001 1.3177
# 5 10.2138 1.8084 -1.0571 0.0001 19.0222 0.0000
# 6 0.0000 -0.0005 -0.0001 1.3177 0.0000 27.8277
#
#
#
# Elastic Compliance Matrix: (Units=1/GPa)
#
#
# Indices 1 2 3 4 5 6 
#
# 1 0.013223 -0.002664 -0.005967 0.000000 -0.007178 0.000000
# 2 -0.002664 0.007820 -0.001092 0.000001 0.000626 0.000000
# 3 -0.005967 -0.001092 0.021786 0.000000 0.004519 0.000000
# 4 0.000000 0.000001 0.000000 0.031995 0.000000 -0.001515
# 5 -0.007178 0.000626 0.004519 0.000000 0.056616 0.000000
# 6 0.000000 0.000000 0.000000 -0.001515 0.000000 0.036007
#
#
# Mechanical properties :
#
#
# Convention : Reuss Voigt Hill
#
# Bulk Modulus (GPa) = 42.76646 51.37624 47.07135
# Shear Modulus (GPa) = 25.68219 30.06809 27.87514
#
# Velocity S-wave (km/s) = 3.52344 3.81245 3.67079
# Velocity P-wave (km/s) = 6.10131 6.64942 6.38125
#
# Compressibility (1/GPa) = 0.02338281
#
# Stress axis : x y z
#
# Youngs Moduli (GPa) = 75.62604 127.87852 45.90077
#
# Poissons Ratio (x) = 0.34068 0.27391
# Poissons Ratio (y) = 0.20147 0.05011
# Poissons Ratio (z) = 0.45129 0.13960
#
# Static dielectric constant tensor:
#      x y z
#    x 3.862840 0.000000 0.039230 
#    y 0.000000 4.163380 0.000000 
#    z 0.039230 0.000000 4.046420 
# 
# 
# High freq. dielectric constant tensor:
#      x y z
#    x 1.786420 0.000000 0.002090 
#    y 0.000000 1.826130 0.000000 
#    z 0.002090 0.000000 1.797820 
# 
# From -- ./inp_files/254436.got.cif
#   From: 2010.06.25/outbox.cif.g09.slc.cpg/sg15_128_cif.got.tgz:254436.got - 2010.06.28 07:06:18.
