data_PCOD8138593
_publ_section_title
;
Structure prediction by ZEFSAII (Michael W. Deem and Ramdas Pophale) SiO2 
 PCOD8138593
Probable space group: C 2/C
;
_chemical_formula_sum "Si O2"
_cell_formula_units_Z 64
_cell_length_a 30.838033
_cell_length_b 8.860905
_cell_length_c 15.167513
_cell_angle_alpha 90.000000
_cell_angle_beta 131.655555
_cell_angle_gamma 90.000000
_cell_volume 3096.629465
_symmetry_space_group_name_H-M "C 2/C"
_symmetry_group_IT_number 15
_symmetry_cell_setting 'monoclinic'
loop_
_space_group_symop_operation_xyz
x,y,z
-x,y,1/2-z
-x,-y,-z
x,-y,1/2+z
1/2+x,1/2+y,z
1/2-x,1/2+y,1/2-z
1/2-x,1/2-y,-z
1/2+x,1/2-y,1/2+z
loop_
_atom_site_type_symbol
_atom_site_label
_atom_site_fract_x
_atom_site_fract_y
_atom_site_fract_z
Si Si1 0.592704 0.076034 0.778857
Si Si2 0.526421 0.974505 0.441147
Si Si3 0.364372 0.572828 0.485666
Si Si4 0.726323 0.674130 0.834354
Si Si5 0.127613 0.665038 0.634760
Si Si6 0.757284 0.473559 0.730849
Si Si7 0.558881 0.292858 0.878834
Si Si8 0.340058 0.224841 0.100223
O O1 0.528127 0.000061 0.698840
O O2 0.602526 0.165281 0.700071
O O3 0.599591 0.195712 0.867377
O O4 0.637782 0.941453 0.848660
O O5 0.547050 0.803421 0.451339
O O6 0.500000 0.000000 0.500000
O O7 0.582502 0.081896 0.506486
O O8 0.366044 0.667419 0.396265
O O9 0.298986 0.505277 0.409040
O O10 0.410136 0.439983 0.542793
O O11 0.381636 0.675912 0.593716
O O12 0.733731 0.511584 0.797850
O O13 0.669938 0.685413 0.821162
O O14 0.720789 0.801203 0.749317
O O15 0.781373 0.705811 0.967814
O O16 0.190417 0.586249 0.721616
O O17 0.500000 0.340903 0.750000
#
# Coordination Sequence:
#
# PCOD8138593 Si02
#       8
#     8   8   8   8   8   8   8   8
#     4  10  21  39  65  86 116 156 207 245 297 360
#     4   9  21  39  64  90 113 155 207 240 289 358
#     4  11  25  38  59  91 123 159 199 246 311 356
#     4  10  22  36  58  86 122 156 196 245 301 351
#     4  11  21  40  60  88 119 157 204 250 293 367
#     4  11  21  38  57  86 119 158 199 242 300 359
#     4  10  23  42  60  89 125 156 196 256 302 353
#     4  10  20  38  58  88 119 155 199 246 294 362
#
# _framework density 20.667634
#
# number of rings (size 3 to 8) (size 9 to 14) (size 15 to 20)
#    0.000    1.750    3.750    0.750    1.750    2.000 
#    0.000    6.250    0.000    0.000    0.000    0.000 
#    0.000    0.000    0.000    0.000    0.000    0.000 
#
# Total GULP energy -396473.049441 kJ/mol
# GULP energy per Si atom -12389.782795 kJ/mol
# Density = 2.062059 g / cm^3
# Si number density = 20.667634 Si / 1000 Ang^3
#
#
#
# Elastic Constant Matrix: (Units=GPa)
#
#
# Indices 1 2 3 4 5 6 
#
# 1 110.1433 62.7281 41.1681 0.0000 -13.6033 0.0000
# 2 62.7281 104.0245 53.3224 0.0000 -7.2734 0.0000
# 3 41.1681 53.3224 61.5134 0.0000 -3.5103 0.0000
# 4 0.0000 0.0000 0.0000 41.6756 0.0000 2.9440
# 5 -13.6033 -7.2734 -3.5103 0.0000 37.5714 0.0000
# 6 0.0000 0.0000 0.0000 2.9440 0.0000 30.4753
#
#
#
# Elastic Compliance Matrix: (Units=1/GPa)
#
#
# Indices 1 2 3 4 5 6 
#
# 1 0.014789 -0.006648 -0.003924 0.000000 0.003701 0.000000
# 2 -0.006648 0.020433 -0.013245 0.000000 0.000311 0.000000
# 3 -0.003924 -0.013245 0.030298 0.000000 -0.001154 0.000000
# 4 0.000000 0.000000 0.000000 0.024160 0.000000 -0.002334
# 5 0.003701 0.000311 -0.001154 0.000000 0.027908 0.000000
# 6 0.000000 0.000000 0.000000 -0.002334 0.000000 0.033039
#
#
# Mechanical properties :
#
#
# Convention : Reuss Voigt Hill
#
# Bulk Modulus (GPa) = 55.90822 65.56873 60.73847
# Shear Modulus (GPa) = 24.48302 29.84197 27.16250
#
# Velocity S-wave (km/s) = 3.44555 3.80399 3.62920
# Velocity P-wave (km/s) = 6.55278 7.14758 6.85663
#
# Compressibility (1/GPa) = 0.01788646
#
# Stress axis : x y z
#
# Youngs Moduli (GPa) = 67.61917 48.94017 33.00504
#
# Poissons Ratio (x) = 0.32534 0.12950
# Poissons Ratio (y) = 0.44952 0.43717
# Poissons Ratio (z) = 0.26531 0.64824
#
# Static dielectric constant tensor:
#      x y z
#    x 4.168570 0.000000 -0.083660 
#    y 0.000000 3.751650 0.000000 
#    z -0.083660 0.000000 4.063020 
# 
# 
# High freq. dielectric constant tensor:
#      x y z
#    x 1.817030 0.000000 0.001490 
#    y 0.000000 1.790490 0.000000 
#    z 0.001490 0.000000 1.802810 
# 
# From -- ./inp_files/181191.got.cif
#   From: 2010.06.25/outbox.cif.g09.slc.cpg/sg15_91_cif.got.tgz:181191.got - 2010.06.28 07:06:18.
