data_PCOD8138745
_publ_section_title
;
Structure prediction by ZEFSAII (Michael W. Deem and Ramdas Pophale) SiO2 
 PCOD8138745
Probable space group: C 2/C
;
_chemical_formula_sum "Si O2"
_cell_formula_units_Z 40
_cell_length_a 9.701916
_cell_length_b 8.386964
_cell_length_c 22.703616
_cell_angle_alpha 90.000000
_cell_angle_beta 86.746395
_cell_angle_gamma 90.000000
_cell_volume 1844.406815
_symmetry_space_group_name_H-M "C 2/C"
_symmetry_group_IT_number 15
_symmetry_cell_setting 'monoclinic'
loop_
_space_group_symop_operation_xyz
x,y,z
-x,y,1/2-z
-x,-y,-z
x,-y,1/2+z
1/2+x,1/2+y,z
1/2-x,1/2+y,1/2-z
1/2-x,1/2-y,-z
1/2+x,1/2-y,1/2+z
loop_
_atom_site_type_symbol
_atom_site_label
_atom_site_fract_x
_atom_site_fract_y
_atom_site_fract_z
Si Si1 0.711850 0.658808 0.835014
Si Si2 0.587165 0.708802 0.627141
Si Si3 0.653676 0.115707 0.237035
Si Si4 0.596537 0.940711 0.070869
Si Si5 0.198381 0.604811 0.962885
O O1 0.562830 0.627859 0.867646
O O2 0.712943 0.822640 0.797963
O O3 0.742993 0.515365 0.789865
O O4 0.822587 0.669582 0.884866
O O5 0.643527 0.735732 0.691892
O O6 0.577360 0.880534 0.595717
O O7 0.687692 0.583543 0.591217
O O8 0.500000 0.042371 0.250000
O O9 0.448960 0.857938 0.063923
O O10 0.680164 0.951410 0.006410
O O11 0.250000 0.750000 0.000000
#
# Coordination Sequence:
#
# PCOD8138745 Si02
#       5
#     8   8   8   8   8
#     4  10  20  38  61  84 114 154 195 238 288 341
#     4   9  19  36  57  83 115 147 187 237 284 338
#     4   9  20  38  56  82 118 150 189 243 293 341
#     4   9  19  37  59  83 114 152 189 230 284 342
#     4   9  18  37  59  81 116 152 184 233 288 337
#
# _framework density 21.687187999999999
#
# number of rings (size 3 to 8) (size 9 to 14) (size 15 to 20)
#    0.000    2.800    0.000    0.000    0.000    5.600 
#    0.000   38.000    0.000    0.000    0.000    0.000 
#    0.000    0.000    0.000    0.000    0.000    0.000 
#
# Total GULP energy -247911.150874 kJ/mol
# GULP energy per Si atom -12395.557544 kJ/mol
# Density = 2.163783 g / cm^3
# Si number density = 21.687188 Si / 1000 Ang^3
#
#
#
# Elastic Constant Matrix: (Units=GPa)
#
#
# Indices 1 2 3 4 5 6 
#
# 1 146.6452 38.1166 53.0766 0.0000 -9.9430 0.0000
# 2 38.1166 29.2760 4.2057 0.0000 0.1024 0.0000
# 3 53.0766 4.2057 73.2400 0.0000 -6.5799 0.0000
# 4 0.0000 0.0000 0.0000 20.7455 0.0000 -0.3297
# 5 -9.9430 0.1024 -6.5799 0.0000 54.9840 0.0000
# 6 0.0000 0.0000 0.0000 -0.3297 0.0000 27.9909
#
#
#
# Elastic Compliance Matrix: (Units=1/GPa)
#
#
# Indices 1 2 3 4 5 6 
#
# 1 0.015334 -0.018548 -0.009902 0.000000 0.001623 0.000000
# 2 -0.018548 0.056882 0.009971 0.000000 -0.002267 0.000000
# 3 -0.009902 0.009971 0.020313 0.000000 0.000622 0.000000
# 4 0.000000 0.000000 0.000000 0.048212 0.000000 0.000568
# 5 0.001623 -0.002267 0.000622 0.000000 0.018559 0.000000
# 6 0.000000 0.000000 0.000000 0.000568 0.000000 0.035733
#
#
# Mechanical properties :
#
#
# Convention : Reuss Voigt Hill
#
# Bulk Modulus (GPa) = 17.99452 48.88434 33.43943
# Shear Modulus (GPa) = 19.95912 30.99488 25.47700
#
# Velocity S-wave (km/s) = 3.03697 3.78455 3.43118
# Velocity P-wave (km/s) = 4.54014 6.45652 5.58120
#
# Compressibility (1/GPa) = 0.05557248
#
# Stress axis : x y z
#
# Youngs Moduli (GPa) = 65.21488 17.58038 49.23047
#
# Poissons Ratio (x) = 0.32607 0.48746
# Poissons Ratio (y) = 1.20958 -0.49089
# Poissons Ratio (z) = 0.64573 -0.17530
#
# Static dielectric constant tensor:
#      x y z
#    x 4.033340 0.000000 -0.278100 
#    y 0.000000 3.340730 0.000000 
#    z -0.278100 0.000000 4.619050 
# 
# 
# High freq. dielectric constant tensor:
#      x y z
#    x 1.853350 0.000000 -0.005390 
#    y 0.000000 1.802360 0.000000 
#    z -0.005390 0.000000 1.880620 
# 
# From -- ./inp_files/262423.got.cif
#   From: 2010.06.25/outbox.cif.g09.slc.cpg/sg15_132_cif.got.tgz:262423.got - 2010.06.28 07:06:18.
