data_PCOD8138256
_publ_section_title
;
Structure prediction by ZEFSAII (Michael W. Deem and Ramdas Pophale) SiO2 
 PCOD8138256
Probable space group: C 2/C
;
_chemical_formula_sum "Si O2"
_cell_formula_units_Z 48
_cell_length_a 19.784296
_cell_length_b 12.352181
_cell_length_c 11.276797
_cell_angle_alpha 90.000000
_cell_angle_beta 122.489998
_cell_angle_gamma 90.000000
_cell_volume 2324.488981
_symmetry_space_group_name_H-M "C 2/C"
_symmetry_group_IT_number 15
_symmetry_cell_setting 'monoclinic'
loop_
_space_group_symop_operation_xyz
x,y,z
-x,y,1/2-z
-x,-y,-z
x,-y,1/2+z
1/2+x,1/2+y,z
1/2-x,1/2+y,1/2-z
1/2-x,1/2-y,-z
1/2+x,1/2-y,1/2+z
loop_
_atom_site_type_symbol
_atom_site_label
_atom_site_fract_x
_atom_site_fract_y
_atom_site_fract_z
Si Si1 0.683775 0.406382 0.731240
Si Si2 0.142858 0.253080 0.984154
Si Si3 0.193682 0.148237 0.800023
Si Si4 0.984766 0.626437 0.998384
Si Si5 0.847385 0.684039 0.413241
Si Si6 0.084111 0.251843 0.283339
O O1 0.651556 0.352574 0.578865
O O2 0.661055 0.530062 0.735133
O O3 0.780722 0.407623 0.828076
O O4 0.643485 0.342679 0.801302
O O5 0.215995 0.338715 0.065242
O O6 0.064111 0.326898 0.934850
O O7 0.136799 0.204328 0.845838
O O8 0.192180 0.205430 0.670259
O O9 0.933840 0.662744 0.836355
O O10 0.000000 0.500000 0.000000
O O11 0.073451 0.673794 0.091425
O O12 0.869825 0.682628 0.571807
O O13 0.000000 0.201139 0.250000
#
# Coordination Sequence:
#
# PCOD8138256 Si02
#       6
#     8   8   8   8   8   8
#     4  10  20  37  62  83 115 162 192 241 297 353
#     4   9  21  40  55  89 123 146 208 245 286 369
#     4  10  21  38  58  85 120 157 191 250 297 347
#     4  10  20  40  62  84 117 154 187 249 304 344
#     4  10  21  38  57  89 113 148 203 239 290 361
#     4   9  20  39  56  88 118 144 201 244 281 363
#
# _framework density 20.649699999999999
#
# number of rings (size 3 to 8) (size 9 to 14) (size 15 to 20)
#    0.000    2.333    0.000    1.500    2.333    0.667 
#   21.000    2.500    0.000    0.000    0.000    0.000 
#    0.000    0.000    0.000    0.000    0.000    0.000 
#
# Total GULP energy -297373.609934 kJ/mol
# GULP energy per Si atom -12390.567081 kJ/mol
# Density = 2.060270 g / cm^3
# Si number density = 20.649700 Si / 1000 Ang^3
#
#
#
# Elastic Constant Matrix: (Units=GPa)
#
#
# Indices 1 2 3 4 5 6 
#
# 1 101.5062 23.5821 16.1226 0.0000 -4.1326 0.0000
# 2 23.5821 113.2862 17.2892 0.0000 -3.9398 0.0000
# 3 16.1226 17.2892 57.9101 0.0000 1.6663 0.0000
# 4 0.0000 0.0000 0.0000 10.1654 0.0000 3.2012
# 5 -4.1326 -3.9398 1.6663 0.0000 27.9421 0.0000
# 6 0.0000 0.0000 0.0000 3.2012 0.0000 25.6222
#
#
#
# Elastic Compliance Matrix: (Units=1/GPa)
#
#
# Indices 1 2 3 4 5 6 
#
# 1 0.010726 -0.001801 -0.002491 0.000000 0.001481 0.000000
# 2 -0.001801 0.009612 -0.002404 0.000000 0.001232 0.000000
# 3 -0.002491 -0.002404 0.018732 0.000000 -0.001824 0.000000
# 4 0.000000 0.000000 0.000000 0.102402 0.000000 -0.012794
# 5 0.001481 0.001232 -0.001824 0.000000 0.036290 0.000000
# 6 0.000000 0.000000 0.000000 -0.012794 0.000000 0.040627
#
#
# Mechanical properties :
#
#
# Convention : Reuss Voigt Hill
#
# Bulk Modulus (GPa) = 38.94392 42.96559 40.95476
# Shear Modulus (GPa) = 20.80390 27.12653 23.96522
#
# Velocity S-wave (km/s) = 3.17751 3.62837 3.41040
# Velocity P-wave (km/s) = 5.68879 6.19721 5.94844
#
# Compressibility (1/GPa) = 0.02567795
#
# Stress axis : x y z
#
# Youngs Moduli (GPa) = 93.23137 104.03871 53.38522
#
# Poissons Ratio (x) = 0.18738 0.13299
# Poissons Ratio (y) = 0.16792 0.12832
# Poissons Ratio (z) = 0.23225 0.25007
#
# Static dielectric constant tensor:
#      x y z
#    x 4.541790 0.000000 0.458180 
#    y 0.000000 3.700260 0.000000 
#    z 0.458180 0.000000 4.099630 
# 
# 
# High freq. dielectric constant tensor:
#      x y z
#    x 1.822800 0.000000 -0.002000 
#    y 0.000000 1.787730 0.000000 
#    z -0.002000 0.000000 1.802910 
# 
# From -- ./inp_files/111214.got.cif
#   From: 2010.06.25/outbox.cif.g09.slc.cpg/sg15_56_cif.got.tgz:111214.got - 2010.06.28 07:06:18.
