data_PCOD8138624
_publ_section_title
;
Structure prediction by ZEFSAII (Michael W. Deem and Ramdas Pophale) SiO2 
 PCOD8138624
Probable space group: C 2/C
;
_chemical_formula_sum "Si O2"
_cell_formula_units_Z 32
_cell_length_a 9.070925
_cell_length_b 10.506596
_cell_length_c 18.832441
_cell_angle_alpha 90.000000
_cell_angle_beta 139.527910
_cell_angle_gamma 90.000000
_cell_volume 1164.975576
_symmetry_space_group_name_H-M "C 2/C"
_symmetry_group_IT_number 15
_symmetry_cell_setting 'monoclinic'
loop_
_space_group_symop_operation_xyz
x,y,z
-x,y,1/2-z
-x,-y,-z
x,-y,1/2+z
1/2+x,1/2+y,z
1/2-x,1/2+y,1/2-z
1/2-x,1/2-y,-z
1/2+x,1/2-y,1/2+z
loop_
_atom_site_type_symbol
_atom_site_label
_atom_site_fract_x
_atom_site_fract_y
_atom_site_fract_z
Si Si1 0.750776 0.612241 0.858359
Si Si2 0.768231 0.858702 0.350707
Si Si3 0.369461 0.376042 0.903938
Si Si4 0.045575 0.379310 0.917775
O O1 0.500000 0.565948 0.750000
O O2 0.809203 0.746500 0.839565
O O3 0.917149 0.508359 0.888880
O O4 0.780922 0.644799 0.953159
O O5 0.500000 0.838805 0.250000
O O6 0.875489 0.864720 0.470185
O O7 0.877675 0.741140 0.348841
O O8 0.840567 0.998018 0.343008
O O9 0.180401 0.399718 0.895418
#
# Coordination Sequence:
#
# PCOD8138624 Si02
#       4
#     8   8   8   8
#     4  10  20  38  59  83 115 147 186 232 275 330
#     4  10  20  38  59  83 115 147 186 232 275 330
#     4  10  22  39  58  83 115 148 185 231 279 329
#     4  10  22  39  58  83 115 148 185 231 279 329
#
# _framework density 27.468384
#
# number of rings (size 3 to 8) (size 9 to 14) (size 15 to 20)
#    0.000    2.000    0.000    4.500    0.000    4.000 
#    0.000   22.500    0.000    0.000    0.000    0.000 
#    0.000    0.000    0.000    0.000    0.000    0.000 
#
# Total GULP energy -198277.546290 kJ/mol
# GULP energy per Si atom -12392.346643 kJ/mol
# Density = 2.740586 g / cm^3
# Si number density = 27.468384 Si / 1000 Ang^3
#
#
#
# Elastic Constant Matrix: (Units=GPa)
#
#
# Indices 1 2 3 4 5 6 
#
# 1 38.7861 19.4037 34.8624 0.0000 2.3254 0.0000
# 2 19.4037 203.5306 -10.3520 0.0000 21.1374 0.0000
# 3 34.8624 -10.3520 147.4787 0.0000 34.5384 0.0000
# 4 0.0000 0.0000 0.0000 7.3014 0.0000 28.6869
# 5 2.3254 21.1374 34.5384 0.0000 37.2971 0.0000
# 6 0.0000 0.0000 0.0000 28.6869 0.0000 -4.6098
#
#
#
# Elastic Compliance Matrix: (Units=1/GPa)
#
#
# Indices 1 2 3 4 5 6 
#
# 1 0.039155 -0.005658 -0.012555 0.000000 0.012392 0.000000
# 2 -0.005658 0.006258 0.003224 0.000000 -0.006180 0.000000
# 3 -0.012555 0.003224 0.013050 0.000000 -0.013129 0.000000
# 4 0.000000 0.000000 0.000000 0.005382 0.000000 0.033489
# 5 0.012392 -0.006180 -0.013129 0.000000 0.041699 0.000000
# 6 0.000000 0.000000 0.000000 0.033489 0.000000 -0.008524
#
#
# Mechanical properties :
#
#
# Convention : Reuss Voigt Hill
#
# Bulk Modulus (GPa) = 35.10704 53.06929 44.08816
# Shear Modulus (GPa) = 36.63171 31.05649 33.84410
#
# Velocity S-wave (km/s) = 3.65580 3.36613 3.51395
# Velocity P-wave (km/s) = 5.53430 5.87110 5.70519
#
# Compressibility (1/GPa) = 0.02848432
#
# Stress axis : x y z
#
# Youngs Moduli (GPa) = 25.53936 159.78304 76.63122
#
# Poissons Ratio (x) = 0.90412 0.96212
# Poissons Ratio (y) = 0.14451 -0.24707
# Poissons Ratio (z) = 0.32065 -0.51516
#
# Static dielectric constant tensor:
#      x y z
#    x 4.313440 0.000000 -0.071260 
#    y 0.000000 5.967920 0.000000 
#    z -0.071260 0.000000 5.492930 
# 
# 
# High freq. dielectric constant tensor:
#      x y z
#    x 2.056020 0.000000 0.008640 
#    y 0.000000 2.149800 0.000000 
#    z 0.008640 0.000000 2.130600 
# 
# From -- ./inp_files/141200.got.cif
#   From: 2010.06.25/outbox.cif.g09.slc.cpg/sg15_71_cif.got.tgz:141200.got - 2010.06.28 07:06:18.
