data_PCOD8138197
_publ_section_title
;
Structure prediction by ZEFSAII (Michael W. Deem and Ramdas Pophale) SiO2 
 PCOD8138197
Probable space group: C 2/C
;
_chemical_formula_sum "Si O2"
_cell_formula_units_Z 56
_cell_length_a 13.723162
_cell_length_b 8.816262
_cell_length_c 23.860926
_cell_angle_alpha 90.000000
_cell_angle_beta 118.243300
_cell_angle_gamma 90.000000
_cell_volume 2543.169461
_symmetry_space_group_name_H-M "C 2/C"
_symmetry_group_IT_number 15
_symmetry_cell_setting 'monoclinic'
loop_
_space_group_symop_operation_xyz
x,y,z
-x,y,1/2-z
-x,-y,-z
x,-y,1/2+z
1/2+x,1/2+y,z
1/2-x,1/2+y,1/2-z
1/2-x,1/2-y,-z
1/2+x,1/2-y,1/2+z
loop_
_atom_site_type_symbol
_atom_site_label
_atom_site_fract_x
_atom_site_fract_y
_atom_site_fract_z
Si Si1 0.723635 0.275309 0.928404
Si Si2 0.293083 0.933219 0.397467
Si Si3 0.124182 0.698707 0.474604
Si Si4 0.908808 0.863584 0.399180
Si Si5 0.860363 0.388696 0.806978
Si Si6 0.260243 0.620471 0.334875
Si Si7 0.581302 0.017857 0.859143
O O1 0.708342 0.452914 0.906901
O O2 0.828775 0.206851 0.924242
O O3 0.607043 0.192655 0.882402
O O4 0.750000 0.250000 0.000000
O O5 0.386330 0.884981 0.468091
O O6 0.237565 0.781015 0.358467
O O7 0.342998 0.017418 0.358511
O O8 0.250000 0.750000 0.500000
O O9 0.094996 0.583318 0.418073
O O10 0.037618 0.840331 0.451779
O O11 0.890813 0.781603 0.334085
O O12 0.878995 0.042544 0.381871
O O13 0.756015 0.373052 0.736887
O O14 0.958691 0.482216 0.802776
O O15 0.165645 0.513202 0.332502
#
# Coordination Sequence:
#
# PCOD8138197 Si02
#       7
#     8   8   8   8   8   8   8
#     4  10  20  37  60  93 130 160 207 263 324 394
#     4  11  23  37  65  94 126 168 213 271 330 385
#     4  11  21  40  61  96 132 159 218 269 335 393
#     4   9  23  38  62  89 124 173 210 262 331 386
#     4  10  22  40  64  88 124 169 224 262 319 391
#     4  11  21  42  61  91 126 171 218 264 323 391
#     4  10  21  38  63  91 125 175 203 269 332 387
#
# _framework density 22.019766000000001
#
# number of rings (size 3 to 8) (size 9 to 14) (size 15 to 20)
#    0.000    1.714    2.857    1.286    2.000    2.286 
#    2.571    0.000    0.000    3.429    0.000    0.000 
#    0.000    0.000    0.000    0.000    0.000    0.000 
#
# Total GULP energy -346899.753969 kJ/mol
# GULP energy per Si atom -12389.276927 kJ/mol
# Density = 2.196965 g / cm^3
# Si number density = 22.019766 Si / 1000 Ang^3
#
#
#
# Elastic Constant Matrix: (Units=GPa)
#
#
# Indices 1 2 3 4 5 6 
#
# 1 75.3030 34.0264 28.5370 0.0000 4.8852 0.0000
# 2 34.0264 137.7204 39.5425 0.0000 9.9489 0.0000
# 3 28.5370 39.5425 107.4841 0.0000 -2.1816 0.0000
# 4 0.0000 0.0000 0.0000 25.8065 0.0000 -2.7608
# 5 4.8852 9.9489 -2.1816 0.0000 28.7768 0.0000
# 6 0.0000 0.0000 0.0000 -2.7608 0.0000 34.8650
#
#
#
# Elastic Compliance Matrix: (Units=1/GPa)
#
#
# Indices 1 2 3 4 5 6 
#
# 1 0.015920 -0.002870 -0.003210 0.000000 -0.001954 0.000000
# 2 -0.002870 0.008910 -0.002573 0.000000 -0.002788 0.000000
# 3 -0.003210 -0.002573 0.011149 0.000000 0.002280 0.000000
# 4 0.000000 0.000000 0.000000 0.039081 0.000000 0.003095
# 5 -0.001954 -0.002788 0.002280 0.000000 0.036219 0.000000
# 6 0.000000 0.000000 0.000000 0.003095 0.000000 0.028927
#
#
# Mechanical properties :
#
#
# Convention : Reuss Voigt Hill
#
# Bulk Modulus (GPa) = 53.55502 58.30215 55.92859
# Shear Modulus (GPa) = 30.53682 32.44977 31.49329
#
# Velocity S-wave (km/s) = 3.72800 3.84300 3.78594
# Velocity P-wave (km/s) = 6.55018 6.79899 6.67574
#
# Compressibility (1/GPa) = 0.01867239
#
# Stress axis : x y z
#
# Youngs Moduli (GPa) = 62.81372 112.22921 89.69618
#
# Poissons Ratio (x) = 0.32215 0.28796
# Poissons Ratio (y) = 0.18030 0.23075
# Poissons Ratio (z) = 0.20166 0.28871
#
# Static dielectric constant tensor:
#      x y z
#    x 4.084570 0.000000 0.042950 
#    y 0.000000 4.569320 0.000000 
#    z 0.042950 0.000000 4.181300 
# 
# 
# High freq. dielectric constant tensor:
#      x y z
#    x 1.847060 0.000000 -0.018790 
#    y 0.000000 1.865050 0.000000 
#    z -0.018790 0.000000 1.871890 
# 
# From -- ./inp_files/273243.got.cif
#   From: 2010.06.25/outbox.cif.g09.slc.cpg/sg15_137_cif.got.tgz:273243.got - 2010.06.28 07:06:18.
