data_PCOD8138285
_publ_section_title
;
Structure prediction by ZEFSAII (Michael W. Deem and Ramdas Pophale) SiO2 
 PCOD8138285
Probable space group: C 2/C
;
_chemical_formula_sum "Si O2"
_cell_formula_units_Z 56
_cell_length_a 23.262022
_cell_length_b 15.057114
_cell_length_c 9.072270
_cell_angle_alpha 90.000000
_cell_angle_beta 57.536654
_cell_angle_gamma 90.000000
_cell_volume 2681.089015
_symmetry_space_group_name_H-M "C 2/C"
_symmetry_group_IT_number 15
_symmetry_cell_setting 'monoclinic'
loop_
_space_group_symop_operation_xyz
x,y,z
-x,y,1/2-z
-x,-y,-z
x,-y,1/2+z
1/2+x,1/2+y,z
1/2-x,1/2+y,1/2-z
1/2-x,1/2-y,-z
1/2+x,1/2-y,1/2+z
loop_
_atom_site_type_symbol
_atom_site_label
_atom_site_fract_x
_atom_site_fract_y
_atom_site_fract_z
Si Si1 0.355512 0.746458 0.414315
Si Si2 0.345043 0.513418 0.754325
Si Si3 0.721415 0.773304 0.266973
Si Si4 0.921304 0.574744 0.817397
Si Si5 0.849614 0.453743 0.127342
Si Si6 0.925834 0.915949 0.889602
Si Si7 0.264788 0.412455 0.617294
O O1 0.336088 0.741603 0.269237
O O2 0.292346 0.704705 0.589806
O O3 0.374549 0.844750 0.442847
O O4 0.422357 0.688413 0.357683
O O5 0.372651 0.460136 0.854230
O O6 0.404865 0.568130 0.589228
O O7 0.314295 0.446415 0.678255
O O8 0.289297 0.575497 0.913302
O O9 0.694894 0.868440 0.365004
O O10 0.737061 0.695112 0.363114
O O11 0.909899 0.572003 0.657977
O O12 0.000000 0.587961 0.750000
O O13 0.890285 0.485893 0.928942
O O14 0.804729 0.532118 0.264021
O O15 0.000000 0.953670 0.750000
#
# Coordination Sequence:
#
# PCOD8138285 Si02
#       7
#     8   8   8   8   8   8   8
#     4  10  20  37  62  90 112 160 205 251 308 365
#     4  10  22  35  61  87 122 159 199 253 316 357
#     4  10  20  37  63  87 124 151 198 260 317 361
#     4  11  23  42  62  88 124 168 209 251 301 383
#     4  11  23  39  65  92 121 165 203 257 322 362
#     4  11  21  38  57  86 120 162 205 243 298 380
#     4  11  20  40  60  93 124 153 202 266 313 369
#
# _framework density 20.887034
#
# number of rings (size 3 to 8) (size 9 to 14) (size 15 to 20)
#    0.000    1.429    2.857    3.857    2.000    0.000 
#    2.571    2.143    0.000    0.000    0.000    0.000 
#    0.000    0.000    0.000    0.000    0.000    0.000 
#
# Total GULP energy -346978.168933 kJ/mol
# GULP energy per Si atom -12392.077462 kJ/mol
# Density = 2.083949 g / cm^3
# Si number density = 20.887034 Si / 1000 Ang^3
#
#
#
# Elastic Constant Matrix: (Units=GPa)
#
#
# Indices 1 2 3 4 5 6 
#
# 1 71.5944 23.2750 7.1840 0.0000 -5.9585 0.0000
# 2 23.2750 108.4007 18.6021 0.0000 3.0872 0.0000
# 3 7.1840 18.6021 79.9429 0.0000 2.2194 0.0000
# 4 0.0000 0.0000 0.0000 20.7660 0.0000 -18.6837
# 5 -5.9585 3.0872 2.2194 0.0000 23.4351 0.0000
# 6 0.0000 0.0000 0.0000 -18.6837 0.0000 -6.1637
#
#
#
# Elastic Compliance Matrix: (Units=1/GPa)
#
#
# Indices 1 2 3 4 5 6 
#
# 1 0.015493 -0.003326 -0.000742 0.000000 0.004448 0.000000
# 2 -0.003326 0.010349 -0.002053 0.000000 -0.002015 0.000000
# 3 -0.000742 -0.002053 0.013086 0.000000 -0.001157 0.000000
# 4 0.000000 0.000000 0.000000 0.012920 0.000000 -0.039163
# 5 0.004448 -0.002015 -0.001157 0.000000 0.044177 0.000000
# 6 0.000000 0.000000 0.000000 -0.039163 0.000000 -0.043528
#
#
# Mechanical properties :
#
#
# Convention : Reuss Voigt Hill
#
# Bulk Modulus (GPa) = 37.47344 39.78446 38.62895
# Shear Modulus (GPa) = 67.90304 21.66593 44.78449
#
# Velocity S-wave (km/s) = 5.70791 3.22419 4.63550
# Velocity P-wave (km/s) = 7.83711 5.74015 6.86912
#
# Compressibility (1/GPa) = 0.02668557
#
# Stress axis : x y z
#
# Youngs Moduli (GPa) = 64.54344 96.62862 76.42040
#
# Poissons Ratio (x) = 0.32139 0.05669
# Poissons Ratio (y) = 0.21467 0.15691
# Poissons Ratio (z) = 0.04788 0.19841
#
# Static dielectric constant tensor:
#      x y z
#    x 3.664390 0.000000 0.090310 
#    y 0.000000 3.857080 0.000000 
#    z 0.090310 0.000000 3.625760 
# 
# 
# High freq. dielectric constant tensor:
#      x y z
#    x 1.815890 0.000000 0.008880 
#    y 0.000000 1.822140 0.000000 
#    z 0.008880 0.000000 1.802430 
# 
# From -- ./inp_files/61606.got.cif
#   From: 2010.06.25/outbox.cif.g09.slc.cpg/sg15_31_cif.got.tgz:61606.got - 2010.06.28 07:06:18.
