data_PCOD8138631
_publ_section_title
;
Structure prediction by ZEFSAII (Michael W. Deem and Ramdas Pophale) SiO2 
 PCOD8138631
Probable space group: C 2/C
;
_chemical_formula_sum "Si O2"
_cell_formula_units_Z 60
_cell_length_a 8.693388
_cell_length_b 26.278556
_cell_length_c 21.879140
_cell_angle_alpha 90.000000
_cell_angle_beta 144.231601
_cell_angle_gamma 90.000000
_cell_volume 2921.547419
_symmetry_space_group_name_H-M "C 2/C"
_symmetry_group_IT_number 15
_symmetry_cell_setting 'monoclinic'
loop_
_space_group_symop_operation_xyz
x,y,z
-x,y,1/2-z
-x,-y,-z
x,-y,1/2+z
1/2+x,1/2+y,z
1/2-x,1/2+y,1/2-z
1/2-x,1/2-y,-z
1/2+x,1/2-y,1/2+z
loop_
_atom_site_type_symbol
_atom_site_label
_atom_site_fract_x
_atom_site_fract_y
_atom_site_fract_z
Si Si1 0.500000 0.440127 0.250000
Si Si2 0.156508 0.348229 0.155760
Si Si3 0.697778 0.537720 0.093081
Si Si4 0.730155 0.474993 0.742630
Si Si5 0.124134 0.863936 0.728184
Si Si6 0.345169 0.189041 0.082680
Si Si7 0.902171 0.196759 0.623244
Si Si8 0.550565 0.353986 0.960727
O O1 0.249598 0.403017 0.158083
O O2 0.424851 0.476191 0.282149
O O3 0.327381 0.332723 0.271067
O O4 0.204353 0.306769 0.117564
O O5 0.854907 0.351911 0.077694
O O6 0.739887 0.517548 0.174155
O O7 0.583868 0.594466 0.058766
O O8 0.965092 0.532597 0.139056
O O9 0.500000 0.500000 0.000000
O O10 0.575780 0.424454 0.713245
O O11 0.432109 0.850592 0.824149
O O12 0.000000 0.840036 0.750000
O O13 0.978535 0.842987 0.620893
O O14 0.469498 0.245363 0.126218
O O15 0.102492 0.189676 0.051864
O O16 0.240574 0.172418 0.981936
#
# Coordination Sequence:
#
# PCOD8138631 Si02
#       8
#     4   8   8   8   8   8   8   8
#     4  10  20  40  64  82 126 170 206 256 308 364
#     4  10  23  43  62  91 129 163 220 251 315 378
#     4  10  21  37  56  89 124 153 205 255 305 373
#     4  10  20  38  59  87 119 162 205 250 307 365
#     4  11  22  39  62  92 127 159 213 258 308 381
#     4  11  22  42  66  91 126 165 207 262 326 357
#     4   9  23  43  63  91 126 163 211 262 307 387
#     4  11  23  38  65  93 125 170 205 258 322 371
#
# _framework density 20.537061999999999
#
# number of rings (size 3 to 8) (size 9 to 14) (size 15 to 20)
#    0.000    1.867    2.000    2.000    3.733    3.200 
#    7.200    2.000    0.000    0.000    0.000    0.000 
#    0.000    0.000    0.000    0.000    0.000    0.000 
#
# Total GULP energy -371852.943011 kJ/mol
# GULP energy per Si atom -12395.098100 kJ/mol
# Density = 2.049032 g / cm^3
# Si number density = 20.537062 Si / 1000 Ang^3
#
#
#
# Elastic Constant Matrix: (Units=GPa)
#
#
# Indices 1 2 3 4 5 6 
#
# 1 89.2061 20.6258 33.8735 0.0003 17.2843 -0.0013
# 2 20.6258 74.2538 37.3540 0.0001 -0.7414 -0.0003
# 3 33.8735 37.3540 120.3079 0.0011 13.9010 -0.0032
# 4 0.0003 0.0001 0.0011 27.9009 0.0006 -6.4588
# 5 17.2843 -0.7414 13.9010 0.0006 38.4044 -0.0022
# 6 -0.0013 -0.0003 -0.0032 -6.4588 -0.0022 13.1959
#
#
#
# Elastic Compliance Matrix: (Units=1/GPa)
#
#
# Indices 1 2 3 4 5 6 
#
# 1 0.013792 -0.002659 -0.002436 0.000000 -0.005377 0.000000
# 2 -0.002659 0.016652 -0.004798 0.000000 0.003255 0.000000
# 3 -0.002436 -0.004798 0.010824 0.000000 -0.002914 0.000002
# 4 0.000000 0.000000 0.000000 0.040421 0.000000 0.019784
# 5 -0.005377 0.003255 -0.002914 0.000000 0.029576 0.000004
# 6 0.000000 0.000000 0.000002 0.019784 0.000004 0.085465
#
#
# Mechanical properties :
#
#
# Convention : Reuss Voigt Hill
#
# Bulk Modulus (GPa) = 46.55070 51.94160 49.24615
# Shear Modulus (GPa) = 22.35376 28.69454 25.52415
#
# Velocity S-wave (km/s) = 3.30276 3.74198 3.52921
# Velocity P-wave (km/s) = 6.10411 6.63449 6.37482
#
# Compressibility (1/GPa) = 0.02148195
#
# Stress axis : x y z
#
# Youngs Moduli (GPa) = 72.50746 60.05311 92.38496
#
# Poissons Ratio (x) = 0.15968 0.22508
# Poissons Ratio (y) = 0.19280 0.44323
# Poissons Ratio (z) = 0.17665 0.28811
#
# Static dielectric constant tensor:
#      x y z
#    x 3.702300 0.000000 0.026600 
#    y 0.000000 3.687140 0.000000 
#    z 0.026600 0.000000 3.750110 
# 
# 
# High freq. dielectric constant tensor:
#      x y z
#    x 1.802550 0.000000 0.001620 
#    y 0.000000 1.798610 0.000000 
#    z 0.001620 0.000000 1.799380 
# 
# From -- ./inp_files/234786.got.cif
#   From: 2010.06.25/outbox.cif.g09.slc.cpg/sg15_118_cif.got.tgz:234786.got - 2010.06.28 07:06:18.
