data_PCOD8138496
_publ_section_title
;
Structure prediction by ZEFSAII (Michael W. Deem and Ramdas Pophale) SiO2 
 PCOD8138496
Probable space group: C 2/C
;
_chemical_formula_sum "Si O2"
_cell_formula_units_Z 44
_cell_length_a 17.620414
_cell_length_b 11.556272
_cell_length_c 11.702488
_cell_angle_alpha 90.000000
_cell_angle_beta 61.681401
_cell_angle_gamma 90.000000
_cell_volume 2097.752849
_symmetry_space_group_name_H-M "C 2/C"
_symmetry_group_IT_number 15
_symmetry_cell_setting 'monoclinic'
loop_
_space_group_symop_operation_xyz
x,y,z
-x,y,1/2-z
-x,-y,-z
x,-y,1/2+z
1/2+x,1/2+y,z
1/2-x,1/2+y,1/2-z
1/2-x,1/2-y,-z
1/2+x,1/2-y,1/2+z
loop_
_atom_site_type_symbol
_atom_site_label
_atom_site_fract_x
_atom_site_fract_y
_atom_site_fract_z
Si Si1 0.735276 0.140524 0.089031
Si Si2 0.500000 0.663412 0.250000
Si Si3 0.558433 0.913788 0.616895
Si Si4 0.003883 0.349752 0.066540
Si Si5 0.801891 0.696982 0.127023
Si Si6 0.180122 0.083374 0.035908
O O1 0.651805 0.070466 0.104990
O O2 0.729856 0.188552 0.220790
O O3 0.750000 0.250000 0.000000
O O4 0.811049 0.046087 0.020469
O O5 0.470118 0.744763 0.167235
O O6 0.581567 0.588820 0.151326
O O7 0.500000 0.842275 0.750000
O O8 0.563425 0.850149 0.490909
O O9 0.504308 0.032721 0.638502
O O10 0.099505 0.339655 0.948587
O O11 0.744138 0.608709 0.095000
O O12 0.796104 0.827541 0.082832
#
# Coordination Sequence:
#
# PCOD8138496 Si02
#       6
#     8   4   8   8   8   8
#     4  12  27  43  66 100 134 183 221 279 340 400
#     4  10  22  42  68  96 128 182 220 268 338 408
#     4  11  21  37  62  97 133 164 221 283 329 391
#     4  10  20  37  66  98 128 170 218 276 335 392
#     4  10  22  42  68  94 132 171 223 275 340 393
#     4  10  24  45  68  97 133 178 223 279 332 412
#
# _framework density 20.974824999999999
#
# number of rings (size 3 to 8) (size 9 to 14) (size 15 to 20)
#    0.000    1.455    4.545    0.000    5.091    0.000 
#    1.636    0.909    0.000    0.000    0.000    0.000 
#    0.000    0.000    0.000    0.000    0.000    0.000 
#
# Total GULP energy -272731.622118 kJ/mol
# GULP energy per Si atom -12396.891914 kJ/mol
# Density = 2.092709 g / cm^3
# Si number density = 20.974825 Si / 1000 Ang^3
#
#
#
# Elastic Constant Matrix: (Units=GPa)
#
#
# Indices 1 2 3 4 5 6 
#
# 1 76.9284 26.1772 48.8798 0.0000 12.5876 0.0000
# 2 26.1772 100.9336 64.4325 0.0000 2.8096 0.0000
# 3 48.8798 64.4325 166.4500 0.0000 17.1974 0.0000
# 4 0.0000 0.0000 0.0000 19.7589 0.0000 -4.8679
# 5 12.5876 2.8096 17.1974 0.0000 35.9731 0.0000
# 6 0.0000 0.0000 0.0000 -4.8679 0.0000 17.0213
#
#
#
# Elastic Compliance Matrix: (Units=1/GPa)
#
#
# Indices 1 2 3 4 5 6 
#
# 1 0.016654 -0.001786 -0.003799 0.000000 -0.003872 0.000000
# 2 -0.001786 0.013426 -0.004869 0.000000 0.001904 0.000000
# 3 -0.003799 -0.004869 0.009291 0.000000 -0.002732 0.000000
# 4 0.000000 0.000000 0.000000 0.054446 0.000000 0.015571
# 5 -0.003872 0.001904 -0.002732 0.000000 0.030311 0.000000
# 6 0.000000 0.000000 0.000000 0.015571 0.000000 0.063203
#
#
# Mechanical properties :
#
#
# Convention : Reuss Voigt Hill
#
# Bulk Modulus (GPa) = 54.16689 69.25455 61.71072
# Shear Modulus (GPa) = 23.32142 28.20551 25.76347
#
# Velocity S-wave (km/s) = 3.33810 3.67104 3.50852
# Velocity P-wave (km/s) = 6.38263 7.14551 6.77482
#
# Compressibility (1/GPa) = 0.01846146
#
# Stress axis : x y z
#
# Youngs Moduli (GPa) = 60.04385 74.48090 107.63429
#
# Poissons Ratio (x) = 0.13304 0.40893
# Poissons Ratio (y) = 0.10725 0.52412
# Poissons Ratio (z) = 0.22812 0.36268
#
# Static dielectric constant tensor:
#      x y z
#    x 3.856090 0.000000 0.145810 
#    y 0.000000 3.533660 0.000000 
#    z 0.145810 0.000000 3.915580 
# 
# 
# High freq. dielectric constant tensor:
#      x y z
#    x 1.821940 0.000000 0.008120 
#    y 0.000000 1.796850 0.000000 
#    z 0.008120 0.000000 1.840060 
# 
# From -- ./inp_files/103870.got.cif
#   From: 2010.06.25/outbox.cif.g09.slc.cpg/sg15_52_cif.got.tgz:103870.got - 2010.06.28 07:06:18.
