data_PCOD8138331
_publ_section_title
;
Structure prediction by ZEFSAII (Michael W. Deem and Ramdas Pophale) SiO2 
 PCOD8138331
Probable space group: C 2/C
;
_chemical_formula_sum "Si O2"
_cell_formula_units_Z 64
_cell_length_a 34.721388
_cell_length_b 14.250390
_cell_length_c 24.204192
_cell_angle_alpha 90.000000
_cell_angle_beta 163.113405
_cell_angle_gamma 90.000000
_cell_volume 3478.789526
_symmetry_space_group_name_H-M "C 2/C"
_symmetry_group_IT_number 15
_symmetry_cell_setting 'monoclinic'
loop_
_space_group_symop_operation_xyz
x,y,z
-x,y,1/2-z
-x,-y,-z
x,-y,1/2+z
1/2+x,1/2+y,z
1/2-x,1/2+y,1/2-z
1/2-x,1/2-y,-z
1/2+x,1/2-y,1/2+z
loop_
_atom_site_type_symbol
_atom_site_label
_atom_site_fract_x
_atom_site_fract_y
_atom_site_fract_z
Si Si1 0.887656 0.587920 0.715963
Si Si2 0.451892 0.258598 0.375930
Si Si3 0.549462 0.232816 0.877136
Si Si4 0.798438 0.637730 0.954436
Si Si5 0.117073 0.869921 0.785510
Si Si6 0.156838 0.282938 0.247956
Si Si7 0.458859 0.878730 0.784998
Si Si8 0.447097 0.464746 0.369862
O O1 0.766510 0.609829 0.508835
O O2 0.845367 0.620192 0.719789
O O3 0.920258 0.478156 0.758865
O O4 0.017601 0.646896 0.875134
O O5 0.301697 0.273896 0.193302
O O6 0.544863 0.206477 0.547415
O O7 0.439383 0.199944 0.303552
O O8 0.510523 0.362971 0.441954
O O9 0.500000 0.198237 0.750000
O O10 0.462086 0.323368 0.773049
O O11 0.702768 0.263028 0.088795
O O12 0.712278 0.543057 0.841743
O O13 0.874162 0.651342 0.115874
O O14 0.889096 0.622588 0.025548
O O15 0.120807 0.803312 0.737636
O O16 0.032664 0.961943 0.652240
O O17 0.500000 0.500000 0.500000
#
# Coordination Sequence:
#
# PCOD8138331 Si02
#       8
#     8   8   8   8   8   8   8   8
#     4  11  22  34  60  89 117 154 198 245 293 357
#     4  10  23  39  59  82 124 153 195 251 302 344
#     4  11  21  33  59  88 123 154 197 240 297 358
#     4   9  22  38  63  85 112 149 208 246 284 350
#     4  11  19  37  58  89 115 147 202 245 294 352
#     4  11  22  37  56  89 124 158 188 245 304 352
#     4  11  22  39  63  88 112 158 207 242 294 357
#     4  10  20  37  63  82 111 151 191 247 299 338
#
# _framework density 18.397205
#
# number of rings (size 3 to 8) (size 9 to 14) (size 15 to 20)
#    0.750    0.750    5.000    1.125    3.500    3.500 
#    0.000    1.250    2.750    0.000    0.000    0.000 
#    0.000    0.000    0.000    0.000    0.000    0.000 
#
# Total GULP energy -396601.153829 kJ/mol
# GULP energy per Si atom -12393.786057 kJ/mol
# Density = 1.835533 g / cm^3
# Si number density = 18.397205 Si / 1000 Ang^3
#
#
#
# Elastic Constant Matrix: (Units=GPa)
#
#
# Indices 1 2 3 4 5 6 
#
# 1 59.9439 37.8777 31.9938 0.0003 6.5706 0.0003
# 2 37.8777 101.4575 23.2830 0.0001 0.1871 0.0001
# 3 31.9938 23.2830 86.1421 0.0002 -0.5537 0.0003
# 4 0.0003 0.0001 0.0002 23.0017 0.0001 -4.4792
# 5 6.5706 0.1871 -0.5537 0.0001 24.0090 0.0002
# 6 0.0003 0.0001 0.0003 -4.4792 0.0002 30.9883
#
#
#
# Elastic Compliance Matrix: (Units=1/GPa)
#
#
# Indices 1 2 3 4 5 6 
#
# 1 0.026861 -0.008224 -0.007802 0.000000 -0.007467 0.000000
# 2 -0.008224 0.013027 -0.000453 0.000000 0.002139 0.000000
# 3 -0.007802 -0.000453 0.014645 0.000000 0.002476 0.000000
# 4 0.000000 0.000000 0.000000 0.044734 0.000000 0.006466
# 5 -0.007467 0.002139 0.002476 0.000000 0.043735 0.000000
# 6 0.000000 0.000000 0.000000 0.006466 0.000000 0.033205
#
#
# Mechanical properties :
#
#
# Convention : Reuss Voigt Hill
#
# Bulk Modulus (GPa) = 46.34845 48.20584 47.27714
# Shear Modulus (GPa) = 23.11010 25.89241 24.50125
#
# Velocity S-wave (km/s) = 3.54810 3.75562 3.65333
# Velocity P-wave (km/s) = 6.48331 6.71311 6.59921
#
# Compressibility (1/GPa) = 0.02157569
#
# Stress axis : x y z
#
# Youngs Moduli (GPa) = 37.22806 76.76570 68.28463
#
# Poissons Ratio (x) = 0.63134 0.53273
# Poissons Ratio (y) = 0.30617 0.03091
# Poissons Ratio (z) = 0.29044 0.03475
#
# Static dielectric constant tensor:
#      x y z
#    x 3.323090 0.000000 0.088700 
#    y 0.000000 3.381110 0.000000 
#    z 0.088700 0.000000 3.452480 
# 
# 
# High freq. dielectric constant tensor:
#      x y z
#    x 1.700760 0.000000 -0.005830 
#    y 0.000000 1.704640 0.000000 
#    z -0.005830 0.000000 1.717510 
# 
# From -- ./inp_files/259457.got.cif
#   From: 2010.06.25/outbox.cif.g09.slc.cpg/sg15_130_cif.got.tgz:259457.got - 2010.06.28 07:06:18.
