data_PCOD8138749
_publ_section_title
;
Structure prediction by ZEFSAII (Michael W. Deem and Ramdas Pophale) SiO2 
 PCOD8138749
Probable space group: C 2/C
;
_chemical_formula_sum "Si O2"
_cell_formula_units_Z 40
_cell_length_a 10.985583
_cell_length_b 17.818812
_cell_length_c 16.703150
_cell_angle_alpha 90.000000
_cell_angle_beta 144.922823
_cell_angle_gamma 90.000000
_cell_volume 1878.995744
_symmetry_space_group_name_H-M "C 2/C"
_symmetry_group_IT_number 15
_symmetry_cell_setting 'monoclinic'
loop_
_space_group_symop_operation_xyz
x,y,z
-x,y,1/2-z
-x,-y,-z
x,-y,1/2+z
1/2+x,1/2+y,z
1/2-x,1/2+y,1/2-z
1/2-x,1/2-y,-z
1/2+x,1/2-y,1/2+z
loop_
_atom_site_type_symbol
_atom_site_label
_atom_site_fract_x
_atom_site_fract_y
_atom_site_fract_z
Si Si1 0.066296 0.962622 0.116366
Si Si2 0.241725 0.656174 0.878470
Si Si3 0.068196 0.719458 0.118615
Si Si4 0.046455 0.113909 0.181436
Si Si5 0.635798 0.346965 0.393848
O O1 0.255178 0.906183 0.191498
O O2 0.871319 0.910148 0.040921
O O3 0.127499 0.027898 0.212370
O O4 0.000000 0.000000 0.000000
O O5 0.379758 0.728744 0.929376
O O6 0.000000 0.682586 0.750000
O O7 0.334294 0.627664 0.013782
O O8 0.271105 0.669815 0.251839
O O9 0.983554 0.769209 0.147234
O O10 0.874766 0.664408 0.992222
O O11 0.000000 0.127292 0.250000
O O12 0.500000 0.383615 0.250000
#
# Coordination Sequence:
#
# PCOD8138749 Si02
#       5
#     8   8   8   8   8
#     4   9  21  40  58  84 119 154 195 239 292 349
#     4  10  22  41  61  85 121 159 192 239 299 349
#     4  10  22  37  60  88 117 152 194 242 290 346
#     4  11  23  38  60  90 119 153 199 244 288 348
#     4  10  20  38  61  85 115 154 195 238 288 346
#
# _framework density 21.287966999999998
#
# number of rings (size 3 to 8) (size 9 to 14) (size 15 to 20)
#    0.000    2.000    0.000    2.400    0.000   11.200 
#    0.000    3.000    0.000    0.000    0.000    0.000 
#    0.000    0.000    0.000    0.000    0.000    0.000 
#
# Total GULP energy -247837.935624 kJ/mol
# GULP energy per Si atom -12391.896781 kJ/mol
# Density = 2.123952 g / cm^3
# Si number density = 21.287967 Si / 1000 Ang^3
#
#
#
# Elastic Constant Matrix: (Units=GPa)
#
#
# Indices 1 2 3 4 5 6 
#
# 1 114.5491 48.9683 57.7850 -0.0017 11.9298 -0.0008
# 2 48.9683 117.4793 34.8415 -0.0021 8.1287 -0.0019
# 3 57.7850 34.8415 110.3113 -0.0154 7.1431 -0.0096
# 4 -0.0017 -0.0021 -0.0154 25.4625 -0.0038 -6.9577
# 5 11.9298 8.1287 7.1431 -0.0038 28.0415 -0.0019
# 6 -0.0008 -0.0019 -0.0096 -6.9577 -0.0019 27.4063
#
#
#
# Elastic Compliance Matrix: (Units=1/GPa)
#
#
# Indices 1 2 3 4 5 6 
#
# 1 0.013537 -0.003727 -0.005705 -0.000004 -0.003225 -0.000003
# 2 -0.003727 0.010530 -0.001300 0.000000 -0.001136 0.000000
# 3 -0.005705 -0.001300 0.012489 0.000009 -0.000377 0.000006
# 4 -0.000004 0.000000 0.000009 0.042201 0.000006 0.010714
# 5 -0.003225 -0.001136 -0.000377 0.000006 0.037459 0.000004
# 6 -0.000003 0.000000 0.000006 0.010714 0.000004 0.039208
#
#
# Mechanical properties :
#
#
# Convention : Reuss Voigt Hill
#
# Bulk Modulus (GPa) = 66.26363 69.50326 67.88345
# Shear Modulus (GPa) = 27.48482 29.56505 28.52494
#
# Velocity S-wave (km/s) = 3.59708 3.73072 3.66451
# Velocity P-wave (km/s) = 6.96038 7.16084 7.06132
#
# Compressibility (1/GPa) = 0.01509123
#
# Stress axis : x y z
#
# Youngs Moduli (GPa) = 73.87042 94.96789 80.07202
#
# Poissons Ratio (x) = 0.35399 0.45682
# Poissons Ratio (y) = 0.27535 0.10407
# Poissons Ratio (z) = 0.42144 0.12343
#
# Static dielectric constant tensor:
#      x y z
#    x 4.152630 0.000020 0.031340 
#    y 0.000020 4.822080 0.000000 
#    z 0.031340 0.000000 3.493420 
# 
# 
# High freq. dielectric constant tensor:
#      x y z
#    x 1.841950 0.000000 -0.001830 
#    y 0.000000 1.850560 0.000000 
#    z -0.001830 0.000000 1.800400 
# 
# From -- ./inp_files/199755.got.cif
#   From: 2010.06.25/outbox.cif.g09.slc.cpg/sg15_100_cif.got.tgz:199755.got - 2010.06.28 07:06:18.
