data_PCOD8138536
_publ_section_title
;
Structure prediction by ZEFSAII (Michael W. Deem and Ramdas Pophale) SiO2 
 PCOD8138536
Probable space group: C 2/C
;
_chemical_formula_sum "Si O2"
_cell_formula_units_Z 56
_cell_length_a 8.929041
_cell_length_b 11.741149
_cell_length_c 27.202309
_cell_angle_alpha 90.000000
_cell_angle_beta 103.244253
_cell_angle_gamma 90.000000
_cell_volume 2775.962078
_symmetry_space_group_name_H-M "C 2/C"
_symmetry_group_IT_number 15
_symmetry_cell_setting 'monoclinic'
loop_
_space_group_symop_operation_xyz
x,y,z
-x,y,1/2-z
-x,-y,-z
x,-y,1/2+z
1/2+x,1/2+y,z
1/2-x,1/2+y,1/2-z
1/2-x,1/2-y,-z
1/2+x,1/2-y,1/2+z
loop_
_atom_site_type_symbol
_atom_site_label
_atom_site_fract_x
_atom_site_fract_y
_atom_site_fract_z
Si Si1 0.363583 0.268118 0.822544
Si Si2 0.592779 0.836103 0.614978
Si Si3 0.339351 0.833619 0.112287
Si Si4 0.894062 0.032237 0.844466
Si Si5 0.168989 0.824949 0.395975
Si Si6 0.136751 0.237513 0.723885
Si Si7 0.955225 0.557392 0.946061
O O1 0.521636 0.199133 0.840538
O O2 0.395153 0.399640 0.835387
O O3 0.234856 0.216536 0.848778
O O4 0.300987 0.256302 0.762409
O O5 0.728579 0.774208 0.595004
O O6 0.429376 0.778364 0.588026
O O7 0.625828 0.819667 0.675503
O O8 0.588806 0.967316 0.599859
O O9 0.245476 0.937872 0.129090
O O10 0.402189 0.869197 0.063426
O O11 0.873273 0.105374 0.792968
O O12 0.057721 0.066632 0.880259
O O13 0.307542 0.860840 0.442757
O O14 0.000000 0.272165 0.750000
O O15 0.000000 0.500000 0.000000
#
# Coordination Sequence:
#
# PCOD8138536 Si02
#       7
#     8   8   8   8   8   8   8
#     4  11  19  36  59  82 117 159 185 233 285 337
#     4  10  21  40  57  80 125 151 186 253 290 337
#     4   9  22  38  57  88 114 145 201 236 282 357
#     4  10  21  38  57  81 120 155 187 239 293 338
#     4   9  20  39  59  82 118 147 193 238 287 354
#     4  10  20  38  55  89 116 153 200 230 285 359
#     4  11  23  39  63  88 112 156 200 245 304 348
#
# _framework density 20.173185
#
# number of rings (size 3 to 8) (size 9 to 14) (size 15 to 20)
#    0.000    2.286    2.857    1.714    0.000    5.714 
#    5.143    2.857    0.000    0.000    0.000    0.000 
#    0.000    0.000    0.000    0.000    0.000    0.000 
#
# Total GULP energy -347145.484599 kJ/mol
# GULP energy per Si atom -12398.053021 kJ/mol
# Density = 2.012727 g / cm^3
# Si number density = 20.173185 Si / 1000 Ang^3
#
#
#
# Elastic Constant Matrix: (Units=GPa)
#
#
# Indices 1 2 3 4 5 6 
#
# 1 114.4607 18.8504 17.7525 0.0000 -3.2891 0.0000
# 2 18.8504 55.3658 13.2520 0.0000 -4.4048 0.0000
# 3 17.7525 13.2520 56.4385 0.0000 -0.9129 0.0000
# 4 0.0000 0.0000 0.0000 23.9758 0.0000 2.3234
# 5 -3.2891 -4.4048 -0.9129 0.0000 14.4366 0.0000
# 6 0.0000 0.0000 0.0000 2.3234 0.0000 16.6027
#
#
#
# Elastic Compliance Matrix: (Units=1/GPa)
#
#
# Indices 1 2 3 4 5 6 
#
# 1 0.009568 -0.002589 -0.002382 0.000000 0.001239 0.000000
# 2 -0.002589 0.020294 -0.003864 0.000000 0.005358 0.000000
# 3 -0.002382 -0.003864 0.019367 0.000000 -0.000497 0.000000
# 4 0.000000 0.000000 0.000000 0.042282 0.000000 -0.005917
# 5 0.001239 0.005358 -0.000497 0.000000 0.071154 0.000000
# 6 0.000000 0.000000 0.000000 -0.005917 0.000000 0.061059
#
#
# Mechanical properties :
#
#
# Convention : Reuss Voigt Hill
#
# Bulk Modulus (GPa) = 31.68609 36.21942 33.95276
# Shear Modulus (GPa) = 19.84807 22.76371 21.30589
#
# Velocity S-wave (km/s) = 3.14009 3.36283 3.25337
# Velocity P-wave (km/s) = 5.37476 5.75077 5.56594
#
# Compressibility (1/GPa) = 0.03155959
#
# Stress axis : x y z
#
# Youngs Moduli (GPa) = 104.51517 49.27489 51.63472
#
# Poissons Ratio (x) = 0.12757 0.12297
# Poissons Ratio (y) = 0.27059 0.19953
# Poissons Ratio (z) = 0.24892 0.19041
#
# Static dielectric constant tensor:
#      x y z
#    x 4.024110 0.000000 0.115250 
#    y 0.000000 3.544330 0.000000 
#    z 0.115250 0.000000 3.328990 
# 
# 
# High freq. dielectric constant tensor:
#      x y z
#    x 1.810740 0.000000 0.008530 
#    y 0.000000 1.782810 0.000000 
#    z 0.008530 0.000000 1.756150 
# 
# From -- ./inp_files/307241.got.cif
#   From: 2010.06.25/outbox.cif.g09.slc.cpg/sg15_154_cif.got.tgz:307241.got - 2010.06.28 07:06:18.
