data_PCOD8138531
_publ_section_title
;
Structure prediction by ZEFSAII (Michael W. Deem and Ramdas Pophale) SiO2 
 PCOD8138531
Probable space group: C 2/C
;
_chemical_formula_sum "Si O2"
_cell_formula_units_Z 60
_cell_length_a 31.787420
_cell_length_b 11.738230
_cell_length_c 12.195877
_cell_angle_alpha 90.000000
_cell_angle_beta 44.036768
_cell_angle_gamma 90.000000
_cell_volume 3163.228883
_symmetry_space_group_name_H-M "C 2/C"
_symmetry_group_IT_number 15
_symmetry_cell_setting 'monoclinic'
loop_
_space_group_symop_operation_xyz
x,y,z
-x,y,1/2-z
-x,-y,-z
x,-y,1/2+z
1/2+x,1/2+y,z
1/2-x,1/2+y,1/2-z
1/2-x,1/2-y,-z
1/2+x,1/2-y,1/2+z
loop_
_atom_site_type_symbol
_atom_site_label
_atom_site_fract_x
_atom_site_fract_y
_atom_site_fract_z
Si Si1 0.585131 0.320244 0.492456
Si Si2 0.358817 0.963822 0.070476
Si Si3 0.195633 0.680692 0.224292
Si Si4 0.556021 0.114986 0.697161
Si Si5 0.675572 0.226761 0.015771
Si Si6 0.450191 0.312171 0.189224
Si Si7 0.500000 0.501870 0.750000
Si Si8 0.034214 0.386875 0.475281
O O1 0.657427 0.287537 0.349948
O O2 0.556532 0.211117 0.602618
O O3 0.560579 0.339047 0.417082
O O4 0.561247 0.428793 0.607375
O O5 0.316819 0.056247 0.206075
O O6 0.319611 0.863397 0.091982
O O7 0.406475 0.913675 0.067196
O O8 0.388787 0.027377 0.910167
O O9 0.266838 0.693303 0.110339
O O10 0.179132 0.669100 0.127783
O O11 0.500000 0.041622 0.750000
O O12 0.553281 0.170318 0.823144
O O13 0.612395 0.295366 0.126661
O O14 0.485254 0.419262 0.173685
O O15 0.490689 0.197727 0.124154
O O16 0.000000 0.500000 0.500000
#
# Coordination Sequence:
#
# PCOD8138531 Si02
#       8
#     8   8   8   8   8   8   4   8
#     4  10  20  38  55  75 106 152 188 218 277 337
#     4  11  21  32  58  87 110 146 185 241 291 332
#     4   9  21  40  59  78 106 152 198 229 271 347
#     4  11  18  32  53  80 112 144 177 220 277 354
#     4  10  21  39  56  78 112 146 189 232 280 331
#     4  11  22  34  53  84 113 143 181 228 279 344
#     4  12  22  34  54  82 116 144 178 228 280 328
#     4  12  20  32  54  86 121 139 175 231 298 341
#
# _framework density 18.967960999999999
#
# number of rings (size 3 to 8) (size 9 to 14) (size 15 to 20)
#    0.000    1.333    3.333    4.400    0.000    1.067 
#    0.000    0.000    0.000    7.200    0.000    0.000 
#    0.000    0.000    0.000    0.000    0.000    0.000 
#
# Total GULP energy -371696.327695 kJ/mol
# GULP energy per Si atom -12389.877590 kJ/mol
# Density = 1.892479 g / cm^3
# Si number density = 18.967961 Si / 1000 Ang^3
#
#
#
# Elastic Constant Matrix: (Units=GPa)
#
#
# Indices 1 2 3 4 5 6 
#
# 1 79.2287 33.1665 41.6075 0.0000 2.4118 0.0000
# 2 33.1665 76.0789 32.9002 0.0000 2.8857 0.0000
# 3 41.6075 32.9002 99.7656 0.0000 -6.6728 0.0000
# 4 0.0000 0.0000 0.0000 29.3670 0.0000 6.8000
# 5 2.4118 2.8857 -6.6728 0.0000 22.2497 0.0000
# 6 0.0000 0.0000 0.0000 6.8000 0.0000 25.5927
#
#
#
# Elastic Compliance Matrix: (Units=1/GPa)
#
#
# Indices 1 2 3 4 5 6 
#
# 1 0.018035 -0.005135 -0.006036 0.000000 -0.003099 0.000000
# 2 -0.005135 0.017076 -0.003675 0.000000 -0.002760 0.000000
# 3 -0.006036 -0.003675 0.014111 0.000000 0.005363 0.000000
# 4 0.000000 0.000000 0.000000 0.036284 0.000000 -0.009641
# 5 -0.003099 -0.002760 0.005363 0.000000 0.047247 0.000000
# 6 0.000000 0.000000 0.000000 -0.009641 0.000000 0.041635
#
#
# Mechanical properties :
#
#
# Convention : Reuss Voigt Hill
#
# Bulk Modulus (GPa) = 51.19547 52.26906 51.73226
# Shear Modulus (GPa) = 23.74288 25.26849 24.50569
#
# Velocity S-wave (km/s) = 3.54183 3.65385 3.59827
# Velocity P-wave (km/s) = 6.61628 6.73922 6.67803
#
# Compressibility (1/GPa) = 0.01953298
#
# Stress axis : x y z
#
# Youngs Moduli (GPa) = 55.44732 58.56006 70.86626
#
# Poissons Ratio (x) = 0.30069 0.42772
# Poissons Ratio (y) = 0.28471 0.26040
# Poissons Ratio (z) = 0.33466 0.21518
#
# Static dielectric constant tensor:
#      x y z
#    x 3.401460 0.000000 0.061640 
#    y 0.000000 3.326610 0.000000 
#    z 0.061640 0.000000 3.949770 
# 
# 
# High freq. dielectric constant tensor:
#      x y z
#    x 1.728660 0.000000 0.009200 
#    y 0.000000 1.721890 0.000000 
#    z 0.009200 0.000000 1.747720 
# 
# From -- ./inp_files/126441.got.cif
#   From: 2010.06.25/outbox.cif.g09.slc.cpg/sg15_64_cif.got.tgz:126441.got - 2010.06.28 07:06:18.
