data_PCOD8138905
_publ_section_title
;
Structure prediction by ZEFSAII (Michael W. Deem and Ramdas Pophale) SiO2 
 PCOD8138905
Probable space group: C 2/C
;
_chemical_formula_sum "Si O2"
_cell_formula_units_Z 60
_cell_length_a 10.130359
_cell_length_b 15.946822
_cell_length_c 21.248725
_cell_angle_alpha 90.000000
_cell_angle_beta 55.881994
_cell_angle_gamma 90.000000
_cell_volume 2841.851650
_symmetry_space_group_name_H-M "C 2/C"
_symmetry_group_IT_number 15
_symmetry_cell_setting 'monoclinic'
loop_
_space_group_symop_operation_xyz
x,y,z
-x,y,1/2-z
-x,-y,-z
x,-y,1/2+z
1/2+x,1/2+y,z
1/2-x,1/2+y,1/2-z
1/2-x,1/2-y,-z
1/2+x,1/2-y,1/2+z
loop_
_atom_site_type_symbol
_atom_site_label
_atom_site_fract_x
_atom_site_fract_y
_atom_site_fract_z
Si Si1 0.500000 0.873541 0.250000
Si Si2 0.731138 0.747029 0.776315
Si Si3 0.410758 0.035823 0.333579
Si Si4 0.066117 0.054838 0.162390
Si Si5 0.955131 0.869787 0.334143
Si Si6 0.154014 0.711118 0.967752
Si Si7 0.110260 0.388240 0.891674
Si Si8 0.148040 0.157041 0.369478
O O1 0.619987 0.814748 0.255683
O O2 0.406539 0.934297 0.325044
O O3 0.570201 0.696821 0.836595
O O4 0.728270 0.822053 0.826731
O O5 0.734767 0.786321 0.705293
O O6 0.500000 0.077287 0.250000
O O7 0.506045 0.057381 0.371245
O O8 0.237307 0.078518 0.378944
O O9 0.259791 0.053553 0.108269
O O10 0.000000 0.071086 0.250000
O O11 0.998476 0.125083 0.133467
O O12 0.010874 0.964211 0.151093
O O13 0.772617 0.845877 0.395018
O O14 0.000000 0.866963 0.250000
O O15 0.083612 0.785590 0.943403
O O16 0.250000 0.750000 0.000000
O O17 0.006037 0.654448 0.027468
#
# Coordination Sequence:
#
# PCOD8138905 Si02
#       8
#     4   8   8   8   8   8   8   8
#     4  10  24  34  62 104 130 158 214 274 322 374
#     4  12  20  38  64  97 126 160 215 269 314 372
#     4  10  20  38  62  94 121 172 212 255 311 387
#     4  11  24  42  66  99 131 167 208 273 330 383
#     4  11  24  40  67  96 124 162 221 267 319 375
#     4  12  25  42  65  98 125 173 224 267 309 390
#     4  12  24  41  67  93 134 169 213 266 324 378
#     4  12  22  41  69  93 126 173 217 257 326 383
#
# _framework density 21.112995999999999
#
# number of rings (size 3 to 8) (size 9 to 14) (size 15 to 20)
#    0.400    0.267    6.667    1.600    3.733    1.067 
#    0.000    2.000    0.000    0.000    0.000    0.000 
#    0.000    0.000    0.000    0.000    0.000    0.000 
#
# Total GULP energy -371909.613350 kJ/mol
# GULP energy per Si atom -12396.987112 kJ/mol
# Density = 2.106494 g / cm^3
# Si number density = 21.112996 Si / 1000 Ang^3
#
#
#
# Elastic Constant Matrix: (Units=GPa)
#
#
# Indices 1 2 3 4 5 6 
#
# 1 103.0074 26.4316 9.2170 -0.0002 -0.2574 0.0000
# 2 26.4316 92.5238 16.7805 -0.0001 7.1235 0.0000
# 3 9.2170 16.7805 68.8294 -0.0004 -3.9767 0.0001
# 4 -0.0002 -0.0001 -0.0004 -18.0646 0.0002 -3.4999
# 5 -0.2574 7.1235 -3.9767 0.0002 29.1244 0.0000
# 6 0.0000 0.0000 0.0001 -3.4999 0.0000 27.5788
#
#
#
# Elastic Compliance Matrix: (Units=1/GPa)
#
#
# Indices 1 2 3 4 5 6 
#
# 1 0.010523 -0.002944 -0.000650 0.000000 0.000724 0.000000
# 2 -0.002944 0.012429 -0.002835 0.000000 -0.003453 0.000000
# 3 -0.000650 -0.002835 0.015469 0.000000 0.002800 0.000000
# 4 0.000000 0.000000 0.000000 -0.054028 0.000000 -0.006856
# 5 0.000724 -0.003453 0.002800 0.000000 0.035569 0.000000
# 6 0.000000 0.000000 0.000000 -0.006856 0.000000 0.035390
#
#
# Mechanical properties :
#
#
# Convention : Reuss Voigt Hill
#
# Bulk Modulus (GPa) = 39.11924 41.02431 40.07177
# Shear Modulus (GPa) = 65.16275 21.85647 43.50961
#
# Velocity S-wave (km/s) = 5.56155 3.22096 4.54453
# Velocity P-wave (km/s) = 7.73368 5.77112 6.82333
#
# Compressibility (1/GPa) = 0.02556287
#
# Stress axis : x y z
#
# Youngs Moduli (GPa) = 95.02575 80.45540 64.64663
#
# Poissons Ratio (x) = 0.23688 0.04199
# Poissons Ratio (y) = 0.27978 0.18330
# Poissons Ratio (z) = 0.06172 0.22813
#
# Static dielectric constant tensor:
#      x y z
#    x 3.891980 0.000000 -0.220650 
#    y 0.000000 4.067670 0.000000 
#    z -0.220650 0.000000 3.756920 
# 
# 
# High freq. dielectric constant tensor:
#      x y z
#    x 1.821700 0.000000 -0.001630 
#    y 0.000000 1.841730 0.000000 
#    z -0.001630 0.000000 1.801640 
# 
# From -- ./inp_files/233056.got.cif
#   From: 2010.06.25/outbox.cif.g09.slc.cpg/sg15_117_cif.got.tgz:233056.got - 2010.06.28 07:06:18.
