data_PCOD8138783
_publ_section_title
;
Structure prediction by ZEFSAII (Michael W. Deem and Ramdas Pophale) SiO2 
 PCOD8138783
Probable space group: C 2/C
;
_chemical_formula_sum "Si O2"
_cell_formula_units_Z 48
_cell_length_a 20.013428
_cell_length_b 9.476748
_cell_length_c 17.708385
_cell_angle_alpha 90.000000
_cell_angle_beta 137.443821
_cell_angle_gamma 90.000000
_cell_volume 2271.471913
_symmetry_space_group_name_H-M "C 2/C"
_symmetry_group_IT_number 15
_symmetry_cell_setting 'monoclinic'
loop_
_space_group_symop_operation_xyz
x,y,z
-x,y,1/2-z
-x,-y,-z
x,-y,1/2+z
1/2+x,1/2+y,z
1/2-x,1/2+y,1/2-z
1/2-x,1/2-y,-z
1/2+x,1/2-y,1/2+z
loop_
_atom_site_type_symbol
_atom_site_label
_atom_site_fract_x
_atom_site_fract_y
_atom_site_fract_z
Si Si1 0.265133 0.403201 0.361874
Si Si2 0.700358 0.407523 0.279868
Si Si3 0.865561 0.608396 0.443268
Si Si4 0.204992 0.810420 0.541280
Si Si5 0.986773 0.788192 0.322697
Si Si6 0.065278 0.504527 0.162461
O O1 0.295716 0.449942 0.303695
O O2 0.328124 0.264644 0.432177
O O3 0.287278 0.520183 0.444297
O O4 0.145219 0.387743 0.256751
O O5 0.769438 0.515162 0.384163
O O6 0.742359 0.254234 0.340581
O O7 0.584123 0.408713 0.201478
O O8 0.902643 0.581808 0.388905
O O9 0.959391 0.572583 0.573396
O O10 0.250000 0.750000 0.500000
O O11 0.089378 0.775036 0.452475
O O12 0.937620 0.632748 0.280328
O O13 0.000000 0.842904 0.250000
#
# Coordination Sequence:
#
# PCOD8138783 Si02
#       6
#     8   8   8   8   8   8
#     4  11  22  39  64  98 131 170 226 284 334 401
#     4  11  21  39  63  97 127 173 225 281 329 406
#     4  10  21  37  62  91 133 166 218 285 336 390
#     4  12  24  42  69  96 132 181 234 274 341 421
#     4  12  22  39  68  92 129 179 232 269 334 420
#     4  10  20  38  61  89 129 177 218 267 349 397
#
# _framework density 21.131672999999999
#
# number of rings (size 3 to 8) (size 9 to 14) (size 15 to 20)
#    0.000    1.000    6.667    1.000    0.000    2.000 
#    0.000    0.833    0.000    0.000    0.000    0.000 
#    0.000    0.000    0.000    0.000    0.000    0.000 
#
# Total GULP energy -297347.824373 kJ/mol
# GULP energy per Si atom -12389.492682 kJ/mol
# Density = 2.108358 g / cm^3
# Si number density = 21.131673 Si / 1000 Ang^3
#
#
#
# Elastic Constant Matrix: (Units=GPa)
#
#
# Indices 1 2 3 4 5 6 
#
# 1 93.6290 40.9522 53.3161 0.0000 24.2804 0.0000
# 2 40.9522 126.4269 39.0209 0.0000 15.7893 0.0000
# 3 53.3161 39.0209 91.8730 0.0000 26.5979 0.0000
# 4 0.0000 0.0000 0.0000 39.9953 0.0000 6.0635
# 5 24.2804 15.7893 26.5979 0.0000 38.1980 0.0000
# 6 0.0000 0.0000 0.0000 6.0635 0.0000 38.7664
#
#
#
# Elastic Compliance Matrix: (Units=1/GPa)
#
#
# Indices 1 2 3 4 5 6 
#
# 1 0.017399 -0.002710 -0.007601 0.000000 -0.004647 0.000000
# 2 -0.002710 0.009580 -0.002315 0.000000 -0.000625 0.000000
# 3 -0.007601 -0.002315 0.018290 0.000000 -0.006947 0.000000
# 4 0.000000 0.000000 0.000000 0.025610 0.000000 -0.004006
# 5 -0.004647 -0.000625 -0.006947 0.000000 0.034229 0.000000
# 6 0.000000 0.000000 0.000000 -0.004006 0.000000 0.026422
#
#
# Mechanical properties :
#
#
# Convention : Reuss Voigt Hill
#
# Bulk Modulus (GPa) = 49.95614 64.27859 57.11737
# Shear Modulus (GPa) = 30.58946 35.30126 32.94536
#
# Velocity S-wave (km/s) = 3.80881 4.09166 3.95277
# Velocity P-wave (km/s) = 6.56007 7.26680 6.92246
#
# Compressibility (1/GPa) = 0.02001756
#
# Stress axis : x y z
#
# Youngs Moduli (GPa) = 57.47509 104.38254 54.67383
#
# Poissons Ratio (x) = 0.28283 0.41557
# Poissons Ratio (y) = 0.15573 0.12660
# Poissons Ratio (z) = 0.43686 0.24170
#
# Static dielectric constant tensor:
#      x y z
#    x 3.937510 0.000000 0.448260 
#    y 0.000000 3.645780 0.000000 
#    z 0.448260 0.000000 4.060920 
# 
# 
# High freq. dielectric constant tensor:
#      x y z
#    x 1.815270 0.000000 0.027440 
#    y 0.000000 1.805020 0.000000 
#    z 0.027440 0.000000 1.841530 
# 
# From -- ./inp_files/166413.got.cif
#   From: 2010.06.25/outbox.cif.g09.slc.cpg/sg15_84_cif.got.tgz:166413.got - 2010.06.28 07:06:18.
