data_PCOD8138398
_publ_section_title
;
Structure prediction by ZEFSAII (Michael W. Deem and Ramdas Pophale) SiO2 
 PCOD8138398
Probable space group: C 2/C
;
_chemical_formula_sum "Si O2"
_cell_formula_units_Z 52
_cell_length_a 21.848211
_cell_length_b 8.977668
_cell_length_c 16.688780
_cell_angle_alpha 90.000000
_cell_angle_beta 128.236103
_cell_angle_gamma 90.000000
_cell_volume 2571.177110
_symmetry_space_group_name_H-M "C 2/C"
_symmetry_group_IT_number 15
_symmetry_cell_setting 'monoclinic'
loop_
_space_group_symop_operation_xyz
x,y,z
-x,y,1/2-z
-x,-y,-z
x,-y,1/2+z
1/2+x,1/2+y,z
1/2-x,1/2+y,1/2-z
1/2-x,1/2-y,-z
1/2+x,1/2-y,1/2+z
loop_
_atom_site_type_symbol
_atom_site_label
_atom_site_fract_x
_atom_site_fract_y
_atom_site_fract_z
Si Si1 0.377341 0.243182 0.885104
Si Si2 0.900027 0.039317 0.259353
Si Si3 0.748295 0.855894 0.108648
Si Si4 0.500000 0.242440 0.750000
Si Si5 0.445790 0.025864 0.820725
Si Si6 0.524213 0.279239 0.381974
Si Si7 0.852809 0.376348 0.616006
O O1 0.381284 0.377249 0.826321
O O2 0.289926 0.189251 0.837171
O O3 0.415239 0.095577 0.877845
O O4 0.418196 0.307363 0.997536
O O5 0.925145 0.154493 0.209533
O O6 0.818462 0.970087 0.169926
O O7 0.970140 0.922439 0.327000
O O8 0.780828 0.701852 0.100846
O O9 0.681048 0.929879 0.997429
O O10 0.513444 0.134051 0.838518
O O11 0.473009 0.862280 0.865393
O O12 0.381381 0.011006 0.696425
O O13 0.574642 0.240016 0.342187
#
# Coordination Sequence:
#
# PCOD8138398 Si02
#       7
#     8   8   8   4   8   8   8
#     4  10  25  38  57  91 129 149 197 250 297 360
#     4  11  22  38  63  89 122 156 197 255 298 345
#     4  10  22  38  59  88 121 159 197 236 302 365
#     4  10  22  36  58  92 116 142 210 260 292 328
#     4  11  20  39  64  86 118 155 199 254 298 345
#     4  11  20  39  67  87 112 162 203 239 303 358
#     4  10  20  37  64  87 112 157 206 240 283 369
#
# _framework density 20.224201000000001
#
# number of rings (size 3 to 8) (size 9 to 14) (size 15 to 20)
#    0.000    1.538    3.077    1.846    2.154    0.000 
#    0.000    3.077    3.385    0.000    0.000    0.000 
#    0.000    0.000    0.000    0.000    0.000    0.000 
#
# Total GULP energy -322206.796976 kJ/mol
# GULP energy per Si atom -12392.569114 kJ/mol
# Density = 2.017817 g / cm^3
# Si number density = 20.224201 Si / 1000 Ang^3
#
#
#
# Elastic Constant Matrix: (Units=GPa)
#
#
# Indices 1 2 3 4 5 6 
#
# 1 103.5513 14.7299 9.1962 0.0000 -10.1006 0.0000
# 2 14.7299 71.4792 13.1436 0.0000 -4.8696 0.0000
# 3 9.1962 13.1436 55.7405 0.0000 7.0928 0.0000
# 4 0.0000 0.0000 0.0000 15.8674 0.0000 -1.2874
# 5 -10.1006 -4.8696 7.0928 0.0000 26.3816 0.0000
# 6 0.0000 0.0000 0.0000 -1.2874 0.0000 34.4539
#
#
#
# Elastic Compliance Matrix: (Units=1/GPa)
#
#
# Indices 1 2 3 4 5 6 
#
# 1 0.010455 -0.001515 -0.001907 0.000000 0.004236 0.000000
# 2 -0.001515 0.015212 -0.003749 0.000000 0.003236 0.000000
# 3 -0.001907 -0.003749 0.020004 0.000000 -0.006800 0.000000
# 4 0.000000 0.000000 0.000000 0.063214 0.000000 0.002362
# 5 0.004236 0.003236 -0.006800 0.000000 0.041952 0.000000
# 6 0.000000 0.000000 0.000000 0.002362 0.000000 0.029113
#
#
# Mechanical properties :
#
#
# Convention : Reuss Voigt Hill
#
# Bulk Modulus (GPa) = 31.91832 33.87892 32.89862
# Shear Modulus (GPa) = 24.42182 28.25399 26.33791
#
# Velocity S-wave (km/s) = 3.47876 3.74175 3.61265
# Velocity P-wave (km/s) = 5.65263 5.95447 5.80551
#
# Compressibility (1/GPa) = 0.03132997
#
# Stress axis : x y z
#
# Youngs Moduli (GPa) = 95.64712 65.73710 49.98985
#
# Poissons Ratio (x) = 0.09962 0.09531
# Poissons Ratio (y) = 0.14494 0.18740
# Poissons Ratio (z) = 0.18236 0.24643
#
# Static dielectric constant tensor:
#      x y z
#    x 3.996280 0.000000 -0.083140 
#    y 0.000000 3.667040 0.000000 
#    z -0.083140 0.000000 3.638750 
# 
# 
# High freq. dielectric constant tensor:
#      x y z
#    x 1.808280 0.000000 -0.007260 
#    y 0.000000 1.783010 0.000000 
#    z -0.007260 0.000000 1.773110 
# 
# From -- ./inp_files/214229.got.cif
#   From: 2010.06.25/outbox.cif.g09.slc.cpg/sg15_108_cif.got.tgz:214229.got - 2010.06.28 07:06:18.
