data_PCOD8138228
_publ_section_title
;
Structure prediction by ZEFSAII (Michael W. Deem and Ramdas Pophale) SiO2 
 PCOD8138228
Probable space group: C 2/C
;
_chemical_formula_sum "Si O2"
_cell_formula_units_Z 52
_cell_length_a 8.029726
_cell_length_b 15.518060
_cell_length_c 27.882461
_cell_angle_alpha 90.000000
_cell_angle_beta 47.607824
_cell_angle_gamma 90.000000
_cell_volume 2565.946737
_symmetry_space_group_name_H-M "C 2/C"
_symmetry_group_IT_number 15
_symmetry_cell_setting 'monoclinic'
loop_
_space_group_symop_operation_xyz
x,y,z
-x,y,1/2-z
-x,-y,-z
x,-y,1/2+z
1/2+x,1/2+y,z
1/2-x,1/2+y,1/2-z
1/2-x,1/2-y,-z
1/2+x,1/2-y,1/2+z
loop_
_atom_site_type_symbol
_atom_site_label
_atom_site_fract_x
_atom_site_fract_y
_atom_site_fract_z
Si Si1 0.193184 0.152323 0.882333
Si Si2 0.438856 0.829561 0.707857
Si Si3 0.500000 0.743377 0.250000
Si Si4 0.574919 0.339664 0.509647
Si Si5 0.793024 0.472054 0.901118
Si Si6 0.791947 0.199305 0.897115
Si Si7 0.966694 0.440662 0.460667
O O1 0.383469 0.196056 0.812483
O O2 0.947344 0.185353 0.913586
O O3 0.226505 0.048036 0.876328
O O4 0.206113 0.182503 0.934874
O O5 0.500000 0.854922 0.750000
O O6 0.175268 0.817687 0.745219
O O7 0.539969 0.904615 0.655818
O O8 0.558755 0.737798 0.674653
O O9 0.426002 0.425581 0.534822
O O10 0.424842 0.259783 0.553578
O O11 0.772693 0.367498 0.508691
O O12 0.920321 0.504683 0.922881
O O13 0.701693 0.105400 0.901779
O O14 0.000000 0.500000 0.500000
#
# Coordination Sequence:
#
# PCOD8138228 Si02
#       7
#     8   8   4   8   8   8   8
#     4  10  20  38  65  85 126 156 203 254 310 372
#     4  10  24  45  63  85 127 164 216 258 306 376
#     4  10  24  42  62  92 116 170 212 250 316 378
#     4  10  20  37  61  88 125 162 197 253 315 373
#     4  10  22  40  60  90 124 162 204 255 318 372
#     4  10  21  38  60  95 115 162 204 254 314 369
#     4  11  21  35  59  95 129 154 205 257 318 377
#
# _framework density 20.265425
#
# number of rings (size 3 to 8) (size 9 to 14) (size 15 to 20)
#    0.000    1.846    0.000    4.615    5.385    2.462 
#    8.308    0.000    0.000    0.000    0.000    0.000 
#    0.000    0.000    0.000    0.000    0.000    0.000 
#
# Total GULP energy -322128.943831 kJ/mol
# GULP energy per Si atom -12389.574763 kJ/mol
# Density = 2.021930 g / cm^3
# Si number density = 20.265425 Si / 1000 Ang^3
#
#
#
# Elastic Constant Matrix: (Units=GPa)
#
#
# Indices 1 2 3 4 5 6 
#
# 1 133.3515 52.8169 49.8360 -0.0010 -2.9063 0.0012
# 2 52.8169 75.0426 26.7524 -0.0021 -6.9954 0.0022
# 3 49.8360 26.7524 89.0209 -0.0037 -2.6490 0.0077
# 4 -0.0010 -0.0021 -0.0037 30.5049 0.0027 -8.3109
# 5 -2.9063 -6.9954 -2.6490 0.0027 27.1425 -0.0026
# 6 0.0012 0.0022 0.0077 -8.3109 -0.0026 41.8032
#
#
#
# Elastic Compliance Matrix: (Units=1/GPa)
#
#
# Indices 1 2 3 4 5 6 
#
# 1 0.011916 -0.006816 -0.004650 0.000000 -0.000935 0.000001
# 2 -0.006816 0.019147 -0.001818 0.000001 0.004027 0.000000
# 3 -0.004650 -0.001818 0.014396 0.000001 0.000438 -0.000002
# 4 0.000000 0.000001 0.000001 0.034659 -0.000003 0.006891
# 5 -0.000935 0.004027 0.000438 -0.000003 0.037823 0.000002
# 6 0.000001 0.000000 -0.000002 0.006891 0.000002 0.025292
#
#
# Mechanical properties :
#
#
# Convention : Reuss Voigt Hill
#
# Bulk Modulus (GPa) = 52.93944 61.80284 57.37114
# Shear Modulus (GPa) = 28.39307 31.09078 29.74192
#
# Velocity S-wave (km/s) = 3.74713 3.92111 3.83511
# Velocity P-wave (km/s) = 6.70083 7.14584 6.92691
#
# Compressibility (1/GPa) = 0.01888951
#
# Stress axis : x y z
#
# Youngs Moduli (GPa) = 83.91864 52.22792 69.46277
#
# Poissons Ratio (x) = 0.35600 0.32303
# Poissons Ratio (y) = 0.57201 0.12630
# Poissons Ratio (z) = 0.39026 0.09496
#
# Static dielectric constant tensor:
#      x y z
#    x 3.855700 -0.000010 -0.230470 
#    y -0.000010 3.908100 0.000010 
#    z -0.230470 0.000010 3.698330 
# 
# 
# High freq. dielectric constant tensor:
#      x y z
#    x 1.801420 0.000000 -0.014290 
#    y 0.000000 1.802700 0.000000 
#    z -0.014290 0.000000 1.781930 
# 
# From -- ./inp_files/231273.got.cif
#   From: 2010.06.25/outbox.cif.g09.slc.cpg/sg15_116_cif.got.tgz:231273.got - 2010.06.28 07:06:18.
