data_PCOD8138712
_publ_section_title
;
Structure prediction by ZEFSAII (Michael W. Deem and Ramdas Pophale) SiO2 
 PCOD8138712
Probable space group: C 2/C
;
_chemical_formula_sum "Si O2"
_cell_formula_units_Z 36
_cell_length_a 20.597089
_cell_length_b 7.422230
_cell_length_c 12.568440
_cell_angle_alpha 90.000000
_cell_angle_beta 85.305763
_cell_angle_gamma 90.000000
_cell_volume 1914.971849
_symmetry_space_group_name_H-M "C 2/C"
_symmetry_group_IT_number 15
_symmetry_cell_setting 'monoclinic'
loop_
_space_group_symop_operation_xyz
x,y,z
-x,y,1/2-z
-x,-y,-z
x,-y,1/2+z
1/2+x,1/2+y,z
1/2-x,1/2+y,1/2-z
1/2-x,1/2-y,-z
1/2+x,1/2-y,1/2+z
loop_
_atom_site_type_symbol
_atom_site_label
_atom_site_fract_x
_atom_site_fract_y
_atom_site_fract_z
Si Si1 0.797759 0.083305 0.797292
Si Si2 0.500000 0.513529 0.250000
Si Si3 0.599307 0.695141 0.867429
Si Si4 0.164931 0.536908 0.224688
Si Si5 0.884640 0.800737 0.886690
O O1 0.840381 0.069904 0.682023
O O2 0.807582 0.286666 0.842330
O O3 0.722180 0.055543 0.784617
O O4 0.823868 0.935961 0.877419
O O5 0.468711 0.385820 0.164440
O O6 0.553260 0.639431 0.188698
O O7 0.609831 0.896117 0.816427
O O8 0.596705 0.703201 0.993462
O O9 0.135036 0.400027 0.144488
#
# Coordination Sequence:
#
# PCOD8138712 Si02
#       5
#     8   4   8   8   8
#     4   9  20  37  61  86 125 148 192 240 290 353
#     4  10  22  42  64  80 120 156 200 256 286 330
#     4   9  22  39  62  86 120 152 203 242 285 355
#     4  10  20  38  60  91 120 152 191 241 290 357
#     4  11  20  42  61  85 118 164 191 244 297 337
#
# _framework density 18.799233000000001
#
# number of rings (size 3 to 8) (size 9 to 14) (size 15 to 20)
#    1.333    0.889    2.222    0.667    0.000    4.444 
#    8.000    4.444    0.000    0.000    0.000    0.000 
#    0.000    0.000    0.000    0.000    0.000    0.000 
#
# Total GULP energy -223063.704228 kJ/mol
# GULP energy per Si atom -12392.428013 kJ/mol
# Density = 1.875644 g / cm^3
# Si number density = 18.799233 Si / 1000 Ang^3
#
#
#
# Elastic Constant Matrix: (Units=GPa)
#
#
# Indices 1 2 3 4 5 6 
#
# 1 55.3044 30.1807 10.9323 0.0000 11.4023 0.0000
# 2 30.1807 131.0127 52.1978 0.0000 11.5724 0.0000
# 3 10.9323 52.1978 111.6198 0.0000 19.1451 0.0000
# 4 0.0000 0.0000 0.0000 23.5084 0.0000 1.7864
# 5 11.4023 11.5724 19.1451 0.0000 16.5268 0.0000
# 6 0.0000 0.0000 0.0000 1.7864 0.0000 27.2749
#
#
#
# Elastic Compliance Matrix: (Units=1/GPa)
#
#
# Indices 1 2 3 4 5 6 
#
# 1 0.023633 -0.005165 0.002842 0.000000 -0.015981 0.000000
# 2 -0.005165 0.010555 -0.004709 0.000000 0.001628 0.000000
# 3 0.002842 -0.004709 0.013295 0.000000 -0.014065 0.000000
# 4 0.000000 0.000000 0.000000 0.042751 0.000000 -0.002800
# 5 -0.015981 0.001628 -0.014065 0.000000 0.086686 0.000000
# 6 0.000000 0.000000 0.000000 -0.002800 0.000000 0.036847
#
#
# Mechanical properties :
#
#
# Convention : Reuss Voigt Hill
#
# Bulk Modulus (GPa) = 29.92354 53.83986 41.88170
# Shear Modulus (GPa) = 20.92290 27.10376 24.01333
#
# Velocity S-wave (km/s) = 3.33973 3.80116 3.57789
# Velocity P-wave (km/s) = 5.55191 6.92579 6.27656
#
# Compressibility (1/GPa) = 0.03341850
#
# Stress axis : x y z
#
# Youngs Moduli (GPa) = 42.31308 94.74046 75.21449
#
# Poissons Ratio (x) = 0.48932 -0.21373
# Poissons Ratio (y) = 0.21854 0.35421
# Poissons Ratio (z) = -0.12024 0.44617
#
# Static dielectric constant tensor:
#      x y z
#    x 3.407290 0.000000 0.116300 
#    y 0.000000 3.583830 0.000000 
#    z 0.116300 0.000000 3.077800 
# 
# 
# High freq. dielectric constant tensor:
#      x y z
#    x 1.731430 0.000000 0.013060 
#    y 0.000000 1.734870 0.000000 
#    z 0.013060 0.000000 1.703250 
# 
# From -- ./inp_files/109306.got.cif
#   From: 2010.06.25/outbox.cif.g09.slc.cpg/sg15_55_cif.got.tgz:109306.got - 2010.06.28 07:06:18.
