data_PCOD8138454
_publ_section_title
;
Structure prediction by ZEFSAII (Michael W. Deem and Ramdas Pophale) SiO2 
 PCOD8138454
Probable space group: C 2/C
;
_chemical_formula_sum "Si O2"
_cell_formula_units_Z 64
_cell_length_a 20.499968
_cell_length_b 10.062008
_cell_length_c 21.181215
_cell_angle_alpha 90.000000
_cell_angle_beta 49.003086
_cell_angle_gamma 90.000000
_cell_volume 3297.531142
_symmetry_space_group_name_H-M "C 2/C"
_symmetry_group_IT_number 15
_symmetry_cell_setting 'monoclinic'
loop_
_space_group_symop_operation_xyz
x,y,z
-x,y,1/2-z
-x,-y,-z
x,-y,1/2+z
1/2+x,1/2+y,z
1/2-x,1/2+y,1/2-z
1/2-x,1/2-y,-z
1/2+x,1/2-y,1/2+z
loop_
_atom_site_type_symbol
_atom_site_label
_atom_site_fract_x
_atom_site_fract_y
_atom_site_fract_z
Si Si1 0.119636 0.715491 0.553591
Si Si2 0.372032 0.499145 0.782692
Si Si3 0.941089 0.014020 0.375182
Si Si4 0.720874 0.137426 0.595069
Si Si5 0.270960 0.809582 0.149958
Si Si6 0.096629 0.454926 0.954036
Si Si7 0.793052 0.857127 0.519684
Si Si8 0.755222 0.281320 0.690825
O O1 0.062174 0.848784 0.582732
O O2 0.215143 0.745088 0.467131
O O3 0.127606 0.670989 0.622513
O O4 0.084937 0.593556 0.533764
O O5 0.460014 0.529450 0.689691
O O6 0.395814 0.450675 0.837368
O O7 0.320128 0.636512 0.818336
O O8 0.313928 0.393947 0.782545
O O9 0.891398 0.889491 0.437479
O O10 0.727447 0.150190 0.667067
O O11 0.742060 0.995222 0.551692
O O12 0.295968 0.687042 0.090163
O O13 0.258899 0.760992 0.228656
O O14 0.345519 0.916554 0.092894
O O15 0.145561 0.335168 0.883530
O O16 0.000000 0.500000 0.000000
O O17 0.750000 0.750000 0.500000
#
# Coordination Sequence:
#
# PCOD8138454 Si02
#       8
#     8   8   8   8   8   8   8   8
#     4   9  17  35  60  87 111 149 198 253 288 350
#     4  10  21  39  61  88 117 158 194 252 310 355
#     4  10  20  37  65  89 116 149 207 257 295 360
#     4   9  18  33  60  85 113 149 201 239 292 352
#     4  11  24  39  59  85 124 163 195 242 315 369
#     4  10  23  40  61  87 122 162 201 250 306 356
#     4  11  21  36  59  89 118 157 200 243 301 363
#     4  10  22  40  61  85 124 163 201 246 303 375
#
# _framework density 19.408459000000001
#
# number of rings (size 3 to 8) (size 9 to 14) (size 15 to 20)
#    0.000    2.000    2.500    0.750    8.750    1.000 
#    0.000    0.625    0.000    1.500    0.000    0.000 
#    0.000    0.000    0.000    0.000    0.000    0.000 
#
# Total GULP energy -396427.463256 kJ/mol
# GULP energy per Si atom -12388.358227 kJ/mol
# Density = 1.936428 g / cm^3
# Si number density = 19.408459 Si / 1000 Ang^3
#
#
#
# Elastic Constant Matrix: (Units=GPa)
#
#
# Indices 1 2 3 4 5 6 
#
# 1 106.7918 44.8892 62.4475 0.0000 -3.7021 0.0000
# 2 44.8892 87.3818 40.5177 -0.0001 -6.6934 0.0002
# 3 62.4475 40.5177 111.7227 0.0000 -7.0441 0.0000
# 4 0.0000 -0.0001 0.0000 29.7088 0.0000 14.9874
# 5 -3.7021 -6.6934 -7.0441 0.0000 38.4602 0.0000
# 6 0.0000 0.0002 0.0000 14.9874 0.0000 23.7537
#
#
#
# Elastic Compliance Matrix: (Units=1/GPa)
#
#
# Indices 1 2 3 4 5 6 
#
# 1 0.015380 -0.004741 -0.006916 0.000000 -0.000611 0.000000
# 2 -0.004741 0.015305 -0.002794 0.000000 0.001696 0.000000
# 3 -0.006916 -0.002794 0.013917 0.000000 0.001397 0.000000
# 4 0.000000 0.000000 0.000000 0.049377 0.000000 -0.031154
# 5 -0.000611 0.001696 0.001397 0.000000 0.026493 0.000000
# 6 0.000000 0.000000 0.000000 -0.031154 0.000000 0.061755
#
#
# Mechanical properties :
#
#
# Convention : Reuss Voigt Hill
#
# Bulk Modulus (GPa) = 63.68813 66.84499 65.26656
# Shear Modulus (GPa) = 23.10953 28.92069 26.01511
#
# Velocity S-wave (km/s) = 3.45439 3.86438 3.66512
# Velocity P-wave (km/s) = 6.98543 7.37748 7.18413
#
# Compressibility (1/GPa) = 0.01570151
#
# Stress axis : x y z
#
# Youngs Moduli (GPa) = 65.02126 65.33930 71.85208
#
# Poissons Ratio (x) = 0.30976 0.49690
# Poissons Ratio (y) = 0.30826 0.20073
# Poissons Ratio (z) = 0.44966 0.18254
#
# Static dielectric constant tensor:
#      x y z
#    x 3.535500 0.000000 0.071990 
#    y 0.000000 3.596860 0.000000 
#    z 0.071990 0.000000 3.651640 
# 
# 
# High freq. dielectric constant tensor:
#      x y z
#    x 1.745510 0.000000 0.007210 
#    y 0.000000 1.754490 0.000000 
#    z 0.007210 0.000000 1.749940 
# 
# From -- ./inp_files/279563.got.cif
#   From: 2010.06.25/outbox.cif.g09.slc.cpg/sg15_140_cif.got.tgz:279563.got - 2010.06.28 07:06:18.
