data_PCOD8138643
_publ_section_title
;
Structure prediction by ZEFSAII (Michael W. Deem and Ramdas Pophale) SiO2 
 PCOD8138643
Probable space group: C 2/C
;
_chemical_formula_sum "Si O2"
_cell_formula_units_Z 40
_cell_length_a 18.192177
_cell_length_b 12.149232
_cell_length_c 8.454732
_cell_angle_alpha 90.000000
_cell_angle_beta 102.963294
_cell_angle_gamma 90.000000
_cell_volume 1821.048098
_symmetry_space_group_name_H-M "C 2/C"
_symmetry_group_IT_number 15
_symmetry_cell_setting 'monoclinic'
loop_
_space_group_symop_operation_xyz
x,y,z
-x,y,1/2-z
-x,-y,-z
x,-y,1/2+z
1/2+x,1/2+y,z
1/2-x,1/2+y,1/2-z
1/2-x,1/2-y,-z
1/2+x,1/2-y,1/2+z
loop_
_atom_site_type_symbol
_atom_site_label
_atom_site_fract_x
_atom_site_fract_y
_atom_site_fract_z
Si Si1 0.831617 0.507480 0.336096
Si Si2 0.578663 0.883995 0.874416
Si Si3 0.100383 0.055866 0.664535
Si Si4 0.255915 0.374327 0.448741
Si Si5 0.065333 0.860669 0.464500
O O1 0.902683 0.473028 0.480462
O O2 0.858315 0.606225 0.233048
O O3 0.803638 0.403321 0.219278
O O4 0.761265 0.550106 0.406001
O O5 0.500000 0.907974 0.750000
O O6 0.583579 0.767683 0.966068
O O7 0.160941 0.106158 0.575748
O O8 0.115824 0.076912 0.855909
O O9 0.023739 0.123192 0.594176
O O10 0.091485 0.923208 0.637055
O O11 0.250000 0.250000 0.500000
#
# Coordination Sequence:
#
# PCOD8138643 Si02
#       5
#     8   8   8   8   8
#     4  10  25  40  63  96 117 166 210 246 315 372
#     4  11  21  43  65  88 123 160 207 265 305 357
#     4  10  20  38  59  92 118 157 199 248 298 363
#     4  11  23  41  64  89 133 161 201 253 308 374
#     4  10  21  37  66  86 121 157 204 249 308 350
#
# _framework density 21.965373
#
# number of rings (size 3 to 8) (size 9 to 14) (size 15 to 20)
#    0.000    1.600    2.000    3.000    0.000    3.200 
#    0.000    5.000    0.000    0.000    0.000    0.000 
#    0.000    0.000    0.000    0.000    0.000    0.000 
#
# Total GULP energy -247868.963098 kJ/mol
# GULP energy per Si atom -12393.448155 kJ/mol
# Density = 2.191538 g / cm^3
# Si number density = 21.965373 Si / 1000 Ang^3
#
#
#
# Elastic Constant Matrix: (Units=GPa)
#
#
# Indices 1 2 3 4 5 6 
#
# 1 118.5389 42.2826 23.7908 0.0000 -26.6570 0.0000
# 2 42.2826 126.7770 39.2828 0.0000 -4.6392 0.0000
# 3 23.7908 39.2828 69.0302 0.0000 -12.8101 0.0000
# 4 0.0000 0.0000 0.0000 32.5302 0.0000 -7.8897
# 5 -26.6570 -4.6392 -12.8101 0.0000 24.2032 0.0000
# 6 0.0000 0.0000 0.0000 -7.8897 0.0000 29.2750
#
#
#
# Elastic Compliance Matrix: (Units=1/GPa)
#
#
# Indices 1 2 3 4 5 6 
#
# 1 0.012792 -0.003864 0.000296 0.000000 0.013505 0.000000
# 2 -0.003864 0.010773 -0.005773 0.000000 -0.005246 0.000000
# 3 0.000296 -0.005773 0.019433 0.000000 0.009505 0.000000
# 4 0.000000 0.000000 0.000000 0.032890 0.000000 0.008864
# 5 0.013505 -0.005246 0.009505 0.000000 0.060217 0.000000
# 6 0.000000 0.000000 0.000000 0.008864 0.000000 0.036548
#
#
# Mechanical properties :
#
#
# Convention : Reuss Voigt Hill
#
# Bulk Modulus (GPa) = 41.12169 58.33983 49.73076
# Shear Modulus (GPa) = 25.07028 31.13433 28.10231
#
# Velocity S-wave (km/s) = 3.38206 3.76896 3.58074
# Velocity P-wave (km/s) = 5.83206 6.74964 6.30756
#
# Compressibility (1/GPa) = 0.02431807
#
# Stress axis : x y z
#
# Youngs Moduli (GPa) = 78.17488 92.82226 51.45834
#
# Poissons Ratio (x) = 0.35866 -0.01525
# Poissons Ratio (y) = 0.30207 0.29705
# Poissons Ratio (z) = -0.02317 0.53582
#
# Static dielectric constant tensor:
#      x y z
#    x 4.003880 0.000000 -0.229700 
#    y 0.000000 3.763970 0.000000 
#    z -0.229700 0.000000 4.363460 
# 
# 
# High freq. dielectric constant tensor:
#      x y z
#    x 1.869290 0.000000 -0.015070 
#    y 0.000000 1.850730 0.000000 
#    z -0.015070 0.000000 1.868750 
# 
# From -- ./inp_files/46265.got.cif
#   From: 2010.06.25/outbox.cif.g09.slc.cpg/sg15_24_cif.got.tgz:46265.got - 2010.06.28 07:06:18.
