data_PCOD8138612
_publ_section_title
;
Structure prediction by ZEFSAII (Michael W. Deem and Ramdas Pophale) SiO2 
 PCOD8138612
Probable space group: C 2/C
;
_chemical_formula_sum "Si O2"
_cell_formula_units_Z 48
_cell_length_a 15.672441
_cell_length_b 8.805495
_cell_length_c 16.439504
_cell_angle_alpha 90.000000
_cell_angle_beta 85.684510
_cell_angle_gamma 90.000000
_cell_volume 2262.278560
_symmetry_space_group_name_H-M "C 2/C"
_symmetry_group_IT_number 15
_symmetry_cell_setting 'monoclinic'
loop_
_space_group_symop_operation_xyz
x,y,z
-x,y,1/2-z
-x,-y,-z
x,-y,1/2+z
1/2+x,1/2+y,z
1/2-x,1/2+y,1/2-z
1/2-x,1/2-y,-z
1/2+x,1/2-y,1/2+z
loop_
_atom_site_type_symbol
_atom_site_label
_atom_site_fract_x
_atom_site_fract_y
_atom_site_fract_z
Si Si1 0.825469 0.187054 0.626311
Si Si2 0.440000 0.448026 0.681653
Si Si3 0.859345 0.523880 0.584465
Si Si4 0.516950 0.852025 0.153128
Si Si5 0.769428 0.762438 0.701412
Si Si6 0.682900 0.986122 0.589452
O O1 0.840222 0.345971 0.582575
O O2 0.777551 0.204963 0.715423
O O3 0.768968 0.083611 0.570363
O O4 0.915562 0.097259 0.631801
O O5 0.500000 0.506113 0.750000
O O6 0.494846 0.321877 0.627595
O O7 0.351591 0.366393 0.717793
O O8 0.957469 0.537216 0.604779
O O9 0.798364 0.612380 0.650899
O O10 0.845389 0.587146 0.494282
O O11 0.500000 0.868430 0.250000
O O12 0.613742 0.895954 0.129340
O O13 0.699781 0.851881 0.652364
#
# Coordination Sequence:
#
# PCOD8138612 Si02
#       6
#     8   8   8   8   8   8
#     4  11  21  36  58  85 113 150 195 241 291 355
#     4   9  19  35  55  81 110 144 189 240 288 339
#     4  11  22  37  57  87 119 149 192 249 297 343
#     4  10  20  38  59  79 111 155 196 238 289 353
#     4  10  21  38  61  83 112 155 199 240 290 355
#     4  11  22  38  58  85 117 153 193 244 300 347
#
# _framework density 21.217545999999999
#
# number of rings (size 3 to 8) (size 9 to 14) (size 15 to 20)
#    0.000    1.667    0.000    7.500    0.000    2.000 
#    0.000    0.833    0.000    0.000    0.000    0.000 
#    0.000    0.000    0.000    0.000    0.000    0.000 
#
# Total GULP energy -297573.928678 kJ/mol
# GULP energy per Si atom -12398.913695 kJ/mol
# Density = 2.116925 g / cm^3
# Si number density = 21.217546 Si / 1000 Ang^3
#
#
#
# Elastic Constant Matrix: (Units=GPa)
#
#
# Indices 1 2 3 4 5 6 
#
# 1 96.2610 26.1044 23.2340 0.0000 27.3460 0.0000
# 2 26.1044 77.6666 1.7488 0.0000 13.3781 0.0000
# 3 23.2340 1.7488 75.1755 0.0000 24.9638 0.0000
# 4 0.0000 0.0000 0.0000 20.3634 0.0000 5.9004
# 5 27.3460 13.3781 24.9638 0.0000 30.6305 0.0000
# 6 0.0000 0.0000 0.0000 5.9004 0.0000 36.0738
#
#
#
# Elastic Compliance Matrix: (Units=1/GPa)
#
#
# Indices 1 2 3 4 5 6 
#
# 1 0.014511 -0.002956 -0.000744 0.000000 -0.011057 0.000000
# 2 -0.002956 0.014828 0.002527 0.000000 -0.005897 0.000000
# 3 -0.000744 0.002527 0.018673 0.000000 -0.015658 0.000000
# 4 0.000000 0.000000 0.000000 0.051551 0.000000 -0.008432
# 5 -0.011057 -0.005897 -0.015658 0.000000 0.057855 0.000000
# 6 0.000000 0.000000 0.000000 -0.008432 0.000000 0.029100
#
#
# Mechanical properties :
#
#
# Convention : Reuss Voigt Hill
#
# Bulk Modulus (GPa) = 21.89861 39.03083 30.46472
# Shear Modulus (GPa) = 24.49950 30.61461 27.55705
#
# Velocity S-wave (km/s) = 3.40175 3.80266 3.60778
# Velocity P-wave (km/s) = 5.07667 6.14132 5.63420
#
# Compressibility (1/GPa) = 0.04566499
#
# Stress axis : x y z
#
# Youngs Moduli (GPa) = 68.91416 67.44083 53.55363
#
# Poissons Ratio (x) = 0.19934 0.03985
# Poissons Ratio (y) = 0.20370 -0.13531
# Poissons Ratio (z) = 0.05128 -0.17040
#
# Static dielectric constant tensor:
#      x y z
#    x 3.994070 0.000000 0.307670 
#    y 0.000000 3.956810 0.000000 
#    z 0.307670 0.000000 3.600790 
# 
# 
# High freq. dielectric constant tensor:
#      x y z
#    x 1.837850 0.000000 0.029010 
#    y 0.000000 1.835250 0.000000 
#    z 0.029010 0.000000 1.812900 
# 
# From -- ./inp_files/203001.got.cif
#   From: 2010.06.25/outbox.cif.g09.slc.cpg/sg15_102_cif.got.tgz:203001.got - 2010.06.28 07:06:18.
