data_PCOD8138448
_publ_section_title
;
Structure prediction by ZEFSAII (Michael W. Deem and Ramdas Pophale) SiO2 
 PCOD8138448
Probable space group: C 2/C
;
_chemical_formula_sum "Si O2"
_cell_formula_units_Z 48
_cell_length_a 26.370060
_cell_length_b 9.667679
_cell_length_c 18.156691
_cell_angle_alpha 90.000000
_cell_angle_beta 147.726207
_cell_angle_gamma 90.000000
_cell_volume 2471.629557
_symmetry_space_group_name_H-M "C 2/C"
_symmetry_group_IT_number 15
_symmetry_cell_setting 'monoclinic'
loop_
_space_group_symop_operation_xyz
x,y,z
-x,y,1/2-z
-x,-y,-z
x,-y,1/2+z
1/2+x,1/2+y,z
1/2-x,1/2+y,1/2-z
1/2-x,1/2-y,-z
1/2+x,1/2-y,1/2+z
loop_
_atom_site_type_symbol
_atom_site_label
_atom_site_fract_x
_atom_site_fract_y
_atom_site_fract_z
Si Si1 0.061921 0.084284 0.257862
Si Si2 0.568649 0.150641 0.660852
Si Si3 0.810937 0.640576 0.988360
Si Si4 0.552351 0.107331 0.475998
Si Si5 0.230952 0.407394 0.459916
Si Si6 0.104796 0.799152 0.276852
O O1 0.059042 0.203351 0.192351
O O2 0.162911 0.035502 0.418168
O O3 0.000000 0.136425 0.250000
O O4 0.035286 0.935327 0.190406
O O5 0.583750 0.171368 0.592712
O O6 0.664545 0.075163 0.807103
O O7 0.474289 0.056361 0.555440
O O8 0.858625 0.633765 0.967330
O O9 0.820733 0.488383 0.037042
O O10 0.865819 0.754109 0.104516
O O11 0.699902 0.680909 0.844270
O O12 0.455640 0.178711 0.333000
O O13 0.250000 0.250000 0.500000
#
# Coordination Sequence:
#
# PCOD8138448 Si02
#       6
#     8   8   8   8   8   8
#     4  10  21  37  61  87 117 155 200 249 297 343
#     4  10  23  38  56  92 120 149 204 246 296 369
#     4  10  20  37  65  84 116 160 202 244 298 349
#     4  11  22  39  61  86 123 159 193 247 309 358
#     4   9  19  36  60  87 114 147 201 247 280 359
#     4  10  21  38  60  91 114 155 210 245 285 372
#
# _framework density 19.420385
#
# number of rings (size 3 to 8) (size 9 to 14) (size 15 to 20)
#    0.000    2.000    1.667    1.500    4.667    0.667 
#    3.000    3.333    0.000    0.000    0.000    0.000 
#    0.000    0.000    0.000    0.000    0.000    0.000 
#
# Total GULP energy -297357.866257 kJ/mol
# GULP energy per Si atom -12389.911094 kJ/mol
# Density = 1.937618 g / cm^3
# Si number density = 19.420385 Si / 1000 Ang^3
#
#
#
# Elastic Constant Matrix: (Units=GPa)
#
#
# Indices 1 2 3 4 5 6 
#
# 1 171.4416 51.6831 51.2458 0.0000 -7.3461 0.0000
# 2 51.6831 116.2155 12.6529 0.0000 -4.2755 0.0000
# 3 51.2458 12.6529 51.3783 0.0000 -6.6919 0.0000
# 4 0.0000 0.0000 0.0000 20.2234 0.0000 0.3936
# 5 -7.3461 -4.2755 -6.6919 0.0000 18.0315 0.0000
# 6 0.0000 0.0000 0.0000 0.3936 0.0000 22.0928
#
#
#
# Elastic Compliance Matrix: (Units=1/GPa)
#
#
# Indices 1 2 3 4 5 6 
#
# 1 0.009360 -0.003236 -0.008556 0.000000 -0.000129 0.000000
# 2 -0.003236 0.009992 0.000950 0.000000 0.001403 0.000000
# 3 -0.008556 0.000950 0.028728 0.000000 0.007401 0.000000
# 4 0.000000 0.000000 0.000000 0.049465 0.000000 -0.000881
# 5 -0.000129 0.001403 0.007401 0.000000 0.058485 0.000000
# 6 0.000000 0.000000 0.000000 -0.000881 0.000000 0.045279
#
#
# Mechanical properties :
#
#
# Convention : Reuss Voigt Hill
#
# Bulk Modulus (GPa) = 37.88581 63.35544 50.62062
# Shear Modulus (GPa) = 21.57102 26.96647 24.26874
#
# Velocity S-wave (km/s) = 3.33639 3.73039 3.53888
# Velocity P-wave (km/s) = 5.86452 7.15880 6.54374
#
# Compressibility (1/GPa) = 0.02639511
#
# Stress axis : x y z
#
# Youngs Moduli (GPa) = 106.83313 100.07990 34.80972
#
# Poissons Ratio (x) = 0.32385 0.29784
# Poissons Ratio (y) = 0.34571 -0.03306
# Poissons Ratio (z) = 0.91408 -0.09504
#
# Static dielectric constant tensor:
#      x y z
#    x 3.523860 0.000000 1.204830 
#    y 0.000000 8.265380 0.000000 
#    z 1.204830 0.000000 8.993230 
# 
# 
# High freq. dielectric constant tensor:
#      x y z
#    x 1.735030 0.000000 0.011040 
#    y 0.000000 1.777870 0.000000 
#    z 0.011040 0.000000 1.745480 
# 
# From -- ./inp_files/222341.got.cif
#   From: 2010.06.25/outbox.cif.g09.slc.cpg/sg15_112_cif.got.tgz:222341.got - 2010.06.28 07:06:18.
