data_PCOD8138227
_publ_section_title
;
Structure prediction by ZEFSAII (Michael W. Deem and Ramdas Pophale) SiO2 
 PCOD8138227
Probable space group: C 2/C
;
_chemical_formula_sum "Si O2"
_cell_formula_units_Z 64
_cell_length_a 21.555980
_cell_length_b 17.281370
_cell_length_c 16.918964
_cell_angle_alpha 90.000000
_cell_angle_beta 148.526357
_cell_angle_gamma 90.000000
_cell_volume 3290.626758
_symmetry_space_group_name_H-M "C 2/C"
_symmetry_group_IT_number 15
_symmetry_cell_setting 'monoclinic'
loop_
_space_group_symop_operation_xyz
x,y,z
-x,y,1/2-z
-x,-y,-z
x,-y,1/2+z
1/2+x,1/2+y,z
1/2-x,1/2+y,1/2-z
1/2-x,1/2-y,-z
1/2+x,1/2-y,1/2+z
loop_
_atom_site_type_symbol
_atom_site_label
_atom_site_fract_x
_atom_site_fract_y
_atom_site_fract_z
Si Si1 0.442763 0.918853 0.768325
Si Si2 0.511092 0.165098 0.029931
Si Si3 0.154337 0.070546 0.309983
Si Si4 0.775765 0.980726 0.452379
Si Si5 0.624640 0.963267 0.542509
Si Si6 0.517407 0.542024 0.935179
Si Si7 0.516793 0.662531 0.488800
Si Si8 0.775447 0.404163 0.248749
O O1 0.500000 0.885680 0.750000
O O2 0.435141 0.848442 0.823696
O O3 0.311243 0.952869 0.607133
O O4 0.525649 0.987450 0.890461
O O5 0.560037 0.097706 0.027865
O O6 0.538569 0.246593 0.019794
O O7 0.368170 0.159417 0.880426
O O8 0.162311 0.073318 0.413928
O O9 0.288312 0.080448 0.423645
O O10 0.101502 0.983567 0.240269
O O11 0.070808 0.137021 0.179040
O O12 0.697811 0.922564 0.314221
O O13 0.870434 0.020076 0.496016
O O14 0.711048 0.016446 0.688352
O O15 0.527948 0.632157 0.973049
O O16 0.500000 0.500000 0.000000
O O17 0.643024 0.625539 0.609966
#
# Coordination Sequence:
#
# PCOD8138227 Si02
#       8
#     8   8   8   8   8   8   8   8
#     4  11  22  40  64  95 122 160 219 276 315 366
#     4  11  25  38  65  92 125 174 213 253 324 394
#     4  11  22  35  62  94 120 158 210 266 317 360
#     4  12  20  37  67  91 121 157 216 277 308 356
#     4  11  20  39  66  90 115 166 224 256 301 382
#     4  10  20  37  61  88 119 162 215 253 300 376
#     4  11  24  40  60  92 133 162 208 264 320 391
#     4  11  20  40  63  87 118 165 218 257 301 374
#
# _framework density 19.449182
#
# number of rings (size 3 to 8) (size 9 to 14) (size 15 to 20)
#    0.000    1.000    7.500    1.875    1.750    0.000 
#    0.000    1.875    5.500    3.000    0.000    0.000 
#    0.000    0.000    0.000    0.000    0.000    0.000 
#
# Total GULP energy -396462.797682 kJ/mol
# GULP energy per Si atom -12389.462428 kJ/mol
# Density = 1.940491 g / cm^3
# Si number density = 19.449182 Si / 1000 Ang^3
#
#
#
# Elastic Constant Matrix: (Units=GPa)
#
#
# Indices 1 2 3 4 5 6 
#
# 1 103.5367 11.4552 34.3633 0.0000 -1.6308 0.0000
# 2 11.4552 66.4496 20.2941 0.0001 -4.5322 0.0000
# 3 34.3633 20.2941 79.7750 0.0000 -2.2561 0.0000
# 4 0.0000 0.0001 0.0000 15.3508 0.0000 -5.1723
# 5 -1.6308 -4.5322 -2.2561 0.0000 38.9551 0.0000
# 6 0.0000 0.0000 0.0000 -5.1723 0.0000 18.7502
#
#
#
# Elastic Compliance Matrix: (Units=1/GPa)
#
#
# Indices 1 2 3 4 5 6 
#
# 1 0.011286 -0.000491 -0.004733 0.000000 0.000141 0.000000
# 2 -0.000491 0.016446 -0.003925 0.000000 0.001666 0.000000
# 3 -0.004733 -0.003925 0.015579 0.000000 0.000247 0.000000
# 4 0.000000 0.000000 0.000000 0.071818 0.000000 0.019811
# 5 0.000141 0.001666 0.000247 0.000000 0.025885 0.000000
# 6 0.000000 0.000000 0.000000 0.019811 0.000000 0.058798
#
#
# Mechanical properties :
#
#
# Convention : Reuss Voigt Hill
#
# Bulk Modulus (GPa) = 39.97730 42.44295 41.21013
# Shear Modulus (GPa) = 22.08027 26.85446 24.46737
#
# Velocity S-wave (km/s) = 3.37305 3.71988 3.55070
# Velocity P-wave (km/s) = 5.98074 6.34979 6.16803
#
# Compressibility (1/GPa) = 0.02501420
#
# Stress axis : x y z
#
# Youngs Moduli (GPa) = 88.60841 60.80515 64.18743
#
# Poissons Ratio (x) = 0.02983 0.30377
# Poissons Ratio (y) = 0.04347 0.25196
# Poissons Ratio (z) = 0.41934 0.23868
#
# Static dielectric constant tensor:
#      x y z
#    x 3.838880 0.000000 -0.110820 
#    y 0.000000 3.733420 0.000000 
#    z -0.110820 0.000000 3.808030 
# 
# 
# High freq. dielectric constant tensor:
#      x y z
#    x 1.767850 0.000000 0.008040 
#    y 0.000000 1.710150 0.000000 
#    z 0.008040 0.000000 1.772220 
# 
# From -- ./inp_files/219907.got.cif
#   From: 2010.06.25/outbox.cif.g09.slc.cpg/sg15_110_cif.got.tgz:219907.got - 2010.06.28 07:06:18.
