data_PCOD8138932
_publ_section_title
;
Structure prediction by ZEFSAII (Michael W. Deem and Ramdas Pophale) SiO2 
 PCOD8138932
Probable space group: C 2/C
;
_chemical_formula_sum "Si O2"
_cell_formula_units_Z 60
_cell_length_a 7.990010
_cell_length_b 15.660206
_cell_length_c 22.920670
_cell_angle_alpha 90.000000
_cell_angle_beta 77.560278
_cell_angle_gamma 90.000000
_cell_volume 2800.623026
_symmetry_space_group_name_H-M "C 2/C"
_symmetry_group_IT_number 15
_symmetry_cell_setting 'monoclinic'
loop_
_space_group_symop_operation_xyz
x,y,z
-x,y,1/2-z
-x,-y,-z
x,-y,1/2+z
1/2+x,1/2+y,z
1/2-x,1/2+y,1/2-z
1/2-x,1/2-y,-z
1/2+x,1/2-y,1/2+z
loop_
_atom_site_type_symbol
_atom_site_label
_atom_site_fract_x
_atom_site_fract_y
_atom_site_fract_z
Si Si1 0.500000 0.010367 0.250000
Si Si2 0.824369 0.112715 0.728887
Si Si3 0.620315 0.112151 0.132311
Si Si4 0.472958 0.770393 0.547377
Si Si5 0.476039 0.455715 0.563431
Si Si6 0.067639 0.879906 0.113516
Si Si7 0.293942 0.224567 0.670862
Si Si8 0.583642 0.266497 0.572350
O O1 0.504492 0.063109 0.188594
O O2 0.322252 0.959063 0.260019
O O3 0.885266 0.137041 0.659495
O O4 0.736258 0.200380 0.759553
O O5 0.000000 0.084089 0.750000
O O6 0.515944 0.145961 0.083029
O O7 0.776698 0.054540 0.096683
O O8 0.683665 0.194131 0.162494
O O9 0.579926 0.686195 0.558227
O O10 0.505110 0.785006 0.475503
O O11 0.277145 0.741326 0.567749
O O12 0.500000 0.500000 0.500000
O O13 0.574789 0.520114 0.598901
O O14 0.573240 0.366609 0.558775
O O15 0.229477 0.860698 0.142365
O O16 0.490271 0.241346 0.639474
#
# Coordination Sequence:
#
# PCOD8138932 Si02
#       8
#     4   8   8   8   8   8   8   8
#     4  12  24  42  66  92 132 164 212 264 318 380
#     4  10  23  42  64  93 124 164 212 260 315 384
#     4  10  24  40  62  91 124 168 208 260 320 375
#     4  10  22  39  59  88 126 159 206 260 305 381
#     4  11  21  38  61  89 120 156 205 254 314 375
#     4  10  20  38  63  86 117 161 199 255 313 370
#     4   9  22  39  64  84 121 159 209 251 310 374
#     4  10  22  39  60  91 121 160 210 254 316 374
#
# _framework density 21.423805000000002
#
# number of rings (size 3 to 8) (size 9 to 14) (size 15 to 20)
#    0.000    1.867    2.667    0.000    8.400    3.733 
#    0.000    0.667    0.000    0.000    0.000    0.000 
#    0.000    0.000    0.000    0.000    0.000    0.000 
#
# Total GULP energy -371696.675140 kJ/mol
# GULP energy per Si atom -12389.889171 kJ/mol
# Density = 2.137504 g / cm^3
# Si number density = 21.423805 Si / 1000 Ang^3
#
#
#
# Elastic Constant Matrix: (Units=GPa)
#
#
# Indices 1 2 3 4 5 6 
#
# 1 43.5016 11.0363 -9.7074 0.0000 -4.1482 0.0000
# 2 11.0363 79.8723 23.1380 0.0000 -1.1132 0.0000
# 3 -9.7074 23.1380 57.2359 0.0000 -8.7075 0.0000
# 4 0.0000 0.0000 0.0000 40.0917 0.0000 -5.9724
# 5 -4.1482 -1.1132 -8.7075 0.0000 22.7572 0.0000
# 6 0.0000 0.0000 0.0000 -5.9724 0.0000 25.3926
#
#
#
# Elastic Compliance Matrix: (Units=1/GPa)
#
#
# Indices 1 2 3 4 5 6 
#
# 1 0.027087 -0.006012 0.008209 0.000000 0.007784 0.000000
# 2 -0.006012 0.015570 -0.007820 0.000000 -0.003326 0.000000
# 3 0.008209 -0.007820 0.023566 0.000000 0.010131 0.000000
# 4 0.000000 0.000000 0.000000 0.025848 0.000000 0.006080
# 5 0.007784 -0.003326 0.010131 0.000000 0.049075 0.000000
# 6 0.000000 0.000000 0.000000 0.006080 0.000000 0.040811
#
#
# Mechanical properties :
#
#
# Convention : Reuss Voigt Hill
#
# Bulk Modulus (GPa) = 18.18965 25.50484 21.84724
# Shear Modulus (GPa) = 23.63731 28.05781 25.84756
#
# Velocity S-wave (km/s) = 3.32523 3.62284 3.47722
# Velocity P-wave (km/s) = 4.82200 5.42501 5.13237
#
# Compressibility (1/GPa) = 0.05497633
#
# Stress axis : x y z
#
# Youngs Moduli (GPa) = 36.91800 64.22728 42.43347
#
# Poissons Ratio (x) = 0.38615 -0.34833
# Poissons Ratio (y) = 0.22196 0.33183
# Poissons Ratio (z) = -0.30305 0.50225
#
# Static dielectric constant tensor:
#      x y z
#    x 3.729100 0.000000 -0.104790 
#    y 0.000000 3.974850 0.000000 
#    z -0.104790 0.000000 4.296800 
# 
# 
# High freq. dielectric constant tensor:
#      x y z
#    x 1.827600 0.000000 -0.012470 
#    y 0.000000 1.828900 0.000000 
#    z -0.012470 0.000000 1.855410 
# 
# From -- ./inp_files/264298.got.cif
#   From: 2010.06.25/outbox.cif.g09.slc.cpg/sg15_133_cif.got.tgz:264298.got - 2010.06.28 07:06:18.
