data_PCOD8138778
_publ_section_title
;
Structure prediction by ZEFSAII (Michael W. Deem and Ramdas Pophale) SiO2 
 PCOD8138778
Probable space group: C 2/C
;
_chemical_formula_sum "Si O2"
_cell_formula_units_Z 64
_cell_length_a 8.602056
_cell_length_b 20.632783
_cell_length_c 21.374507
_cell_angle_alpha 90.000000
_cell_angle_beta 125.090716
_cell_angle_gamma 90.000000
_cell_volume 3104.119391
_symmetry_space_group_name_H-M "C 2/C"
_symmetry_group_IT_number 15
_symmetry_cell_setting 'monoclinic'
loop_
_space_group_symop_operation_xyz
x,y,z
-x,y,1/2-z
-x,-y,-z
x,-y,1/2+z
1/2+x,1/2+y,z
1/2-x,1/2+y,1/2-z
1/2-x,1/2-y,-z
1/2+x,1/2-y,1/2+z
loop_
_atom_site_type_symbol
_atom_site_label
_atom_site_fract_x
_atom_site_fract_y
_atom_site_fract_z
Si Si1 0.987010 0.733357 0.953588
Si Si2 0.698150 0.464579 0.052565
Si Si3 0.071443 0.816271 0.859604
Si Si4 0.430643 0.696405 0.670047
Si Si5 0.146138 0.594760 0.030382
Si Si6 0.589886 0.917798 0.907421
Si Si7 0.305904 0.814074 0.794027
Si Si8 0.468797 0.349559 0.042358
O O1 0.779357 0.725019 0.875873
O O2 0.108259 0.766815 0.925966
O O3 0.057813 0.662663 0.987240
O O4 0.993914 0.778485 0.017487
O O5 0.811177 0.455035 0.014256
O O6 0.844427 0.517623 0.116860
O O7 0.655866 0.395461 0.075199
O O8 0.500000 0.500000 0.000000
O O9 0.198084 0.790263 0.831576
O O10 0.851629 0.829081 0.794515
O O11 0.147230 0.887792 0.893733
O O12 0.500000 0.658493 0.750000
O O13 0.572852 0.755708 0.702154
O O14 0.450136 0.652442 0.612872
O O15 0.010393 0.562195 0.050333
O O16 0.440798 0.876562 0.832775
O O17 0.778611 0.877062 0.967086
#
# Coordination Sequence:
#
# PCOD8138778 Si02
#       8
#     8   8   8   8   8   8   8   8
#     4  12  21  36  62  97 125 159 202 257 314 373
#     4  10  23  38  61  87 116 162 208 258 298 350
#     4  10  21  35  56  96 125 162 193 252 317 363
#     4  12  23  37  59  92 126 167 194 252 319 377
#     4  11  21  36  61  92 124 154 208 258 306 363
#     4  10  20  38  61  89 122 160 211 251 291 360
#     4  10  21  36  58  91 131 159 200 251 311 371
#     4  11  21  38  60  94 125 156 209 252 310 368
#
# _framework density 20.617764000000001
#
# number of rings (size 3 to 8) (size 9 to 14) (size 15 to 20)
#    0.000    1.250    5.000    2.625    1.750    0.000 
#    0.000    0.000    0.000    4.500    0.000    0.000 
#    0.000    0.000    0.000    0.000    0.000    0.000 
#
# Total GULP energy -396439.068310 kJ/mol
# GULP energy per Si atom -12388.720885 kJ/mol
# Density = 2.057084 g / cm^3
# Si number density = 20.617764 Si / 1000 Ang^3
#
#
#
# Elastic Constant Matrix: (Units=GPa)
#
#
# Indices 1 2 3 4 5 6 
#
# 1 70.4450 29.0422 12.0224 0.0000 6.7136 0.0000
# 2 29.0422 69.3602 24.9111 0.0000 8.7021 0.0000
# 3 12.0224 24.9111 80.9665 0.0000 2.0544 0.0000
# 4 0.0000 0.0000 0.0000 6.9041 0.0000 12.6765
# 5 6.7136 8.7021 2.0544 0.0000 36.9238 0.0000
# 6 0.0000 0.0000 0.0000 12.6765 0.0000 27.5165
#
#
#
# Elastic Compliance Matrix: (Units=1/GPa)
#
#
# Indices 1 2 3 4 5 6 
#
# 1 0.017247 -0.006890 -0.000403 0.000000 -0.001490 0.000000
# 2 -0.006890 0.019439 -0.004880 0.000000 -0.003057 0.000000
# 3 -0.000403 -0.004880 0.013901 0.000000 0.000450 0.000000
# 4 0.000000 0.000000 0.000000 0.939635 0.000000 -0.432877
# 5 -0.001490 -0.003057 0.000450 0.000000 0.028049 0.000000
# 6 0.000000 0.000000 0.000000 -0.432877 0.000000 0.235763
#
#
# Mechanical properties :
#
#
# Convention : Reuss Voigt Hill
#
# Bulk Modulus (GPa) = 38.11019 39.19146 38.65083
# Shear Modulus (GPa) = 3.88462 24.58862 14.23662
#
# Velocity S-wave (km/s) = 1.37412 3.45714 2.63059
# Velocity P-wave (km/s) = 4.58714 5.91487 5.29280
#
# Compressibility (1/GPa) = 0.02623970
#
# Stress axis : x y z
#
# Youngs Moduli (GPa) = 57.98226 51.44407 71.93862
#
# Poissons Ratio (x) = 0.35443 0.02902
# Poissons Ratio (y) = 0.39948 0.35107
# Poissons Ratio (z) = 0.02339 0.25105
#
# Static dielectric constant tensor:
#      x y z
#    x 4.234280 0.000000 0.202160 
#    y 0.000000 3.681150 0.000000 
#    z 0.202160 0.000000 4.069030 
# 
# 
# High freq. dielectric constant tensor:
#      x y z
#    x 1.834510 0.000000 0.013010 
#    y 0.000000 1.787640 0.000000 
#    z 0.013010 0.000000 1.789900 
# 
# From -- ./inp_files/266145.got.cif
#   From: 2010.06.25/outbox.cif.g09.slc.cpg/sg15_134_cif.got.tgz:266145.got - 2010.06.28 07:06:18.
