data_PCOD8138592
_publ_section_title
;
Structure prediction by ZEFSAII (Michael W. Deem and Ramdas Pophale) SiO2 
 PCOD8138592
Probable space group: C 2/C
;
_chemical_formula_sum "Si O2"
_cell_formula_units_Z 64
_cell_length_a 27.089589
_cell_length_b 8.947226
_cell_length_c 14.108466
_cell_angle_alpha 90.000000
_cell_angle_beta 105.719047
_cell_angle_gamma 90.000000
_cell_volume 3291.677359
_symmetry_space_group_name_H-M "C 2/C"
_symmetry_group_IT_number 15
_symmetry_cell_setting 'monoclinic'
loop_
_space_group_symop_operation_xyz
x,y,z
-x,y,1/2-z
-x,-y,-z
x,-y,1/2+z
1/2+x,1/2+y,z
1/2-x,1/2+y,1/2-z
1/2-x,1/2-y,-z
1/2+x,1/2-y,1/2+z
loop_
_atom_site_type_symbol
_atom_site_label
_atom_site_fract_x
_atom_site_fract_y
_atom_site_fract_z
Si Si1 0.134579 0.133839 0.478432
Si Si2 0.150961 0.490408 0.763075
Si Si3 0.447185 0.088306 0.877202
Si Si4 0.180813 0.818729 0.802854
Si Si5 0.876097 0.836948 0.918000
Si Si6 0.559676 0.097341 0.947714
Si Si7 0.153371 0.596294 0.458682
Si Si8 0.297733 0.861886 0.893286
O O1 0.152379 0.108837 0.378945
O O2 0.086738 0.243926 0.454469
O O3 0.182925 0.198157 0.563963
O O4 0.112338 0.985269 0.516270
O O5 0.091343 0.543178 0.727527
O O6 0.182148 0.639618 0.805057
O O7 0.163441 0.369673 0.852428
O O8 0.165971 0.420943 0.671287
O O9 0.426813 0.241233 0.917797
O O10 0.504523 0.113283 0.866520
O O11 0.449860 0.945674 0.948003
O O12 0.154563 0.879134 0.693262
O O13 0.239551 0.869287 0.831403
O O14 0.840665 0.738215 0.970305
O O15 0.595605 0.968693 0.923720
O O16 0.193735 0.471730 0.513633
#
# Coordination Sequence:
#
# PCOD8138592 Si02
#       8
#     8   8   8   8   8   8   8   8
#     4  11  22  39  59  87 117 159 193 242 297 357
#     4  11  20  39  62  88 116 152 203 245 287 349
#     4   9  18  37  61  89 115 153 191 247 288 347
#     4  11  23  38  61  84 116 161 195 241 298 345
#     4  10  23  39  55  88 129 143 195 249 291 349
#     4   9  17  36  64  85 113 155 197 233 299 343
#     4  10  20  38  58  88 116 155 198 249 282 347
#     4  11  22  38  60  83 115 155 203 241 287 349
#
# _framework density 19.442974
#
# number of rings (size 3 to 8) (size 9 to 14) (size 15 to 20)
#    0.000    1.750    7.500    0.375    1.750    2.000 
#    0.000    1.250    0.000    0.000    6.500    0.000 
#    0.000    0.000    0.000    0.000    0.000    0.000 
#
# Total GULP energy -396573.694107 kJ/mol
# GULP energy per Si atom -12392.927941 kJ/mol
# Density = 1.939872 g / cm^3
# Si number density = 19.442974 Si / 1000 Ang^3
#
#
#
# Elastic Constant Matrix: (Units=GPa)
#
#
# Indices 1 2 3 4 5 6 
#
# 1 92.3548 23.6175 37.5692 0.0000 29.0180 0.0000
# 2 23.6175 58.9399 32.3310 0.0000 -0.8314 0.0000
# 3 37.5692 32.3310 117.9920 0.0000 -5.3440 0.0000
# 4 0.0000 0.0000 0.0000 21.9131 0.0000 -2.8359
# 5 29.0180 -0.8314 -5.3440 0.0000 25.4906 0.0000
# 6 0.0000 0.0000 0.0000 -2.8359 0.0000 16.9845
#
#
#
# Elastic Compliance Matrix: (Units=1/GPa)
#
#
# Indices 1 2 3 4 5 6 
#
# 1 0.025082 -0.006289 -0.007638 0.000000 -0.030359 0.000000
# 2 -0.006289 0.021551 -0.003581 0.000000 0.007111 0.000000
# 3 -0.007638 -0.003581 0.012394 0.000000 0.011177 0.000000
# 4 0.000000 0.000000 0.000000 0.046643 0.000000 0.007788
# 5 -0.030359 0.007111 0.011177 0.000000 0.076365 0.000000
# 6 0.000000 0.000000 0.000000 0.007788 0.000000 0.060178
#
#
# Mechanical properties :
#
#
# Convention : Reuss Voigt Hill
#
# Bulk Modulus (GPa) = 41.64554 50.70244 46.17399
# Shear Modulus (GPa) = 17.52956 24.59558 21.06257
#
# Velocity S-wave (km/s) = 3.00590 3.56056 3.29492
# Velocity P-wave (km/s) = 5.78905 6.56030 6.18671
#
# Compressibility (1/GPa) = 0.02401218
#
# Stress axis : x y z
#
# Youngs Moduli (GPa) = 39.86913 46.40174 80.68113
#
# Poissons Ratio (x) = 0.29182 0.61624
# Poissons Ratio (y) = 0.25074 0.28889
# Poissons Ratio (z) = 0.30452 0.16615
#
# Static dielectric constant tensor:
#      x y z
#    x 3.597100 0.000000 -0.008240 
#    y 0.000000 3.357060 0.000000 
#    z -0.008240 0.000000 3.671390 
# 
# 
# High freq. dielectric constant tensor:
#      x y z
#    x 1.747410 0.000000 -0.001690 
#    y 0.000000 1.729700 0.000000 
#    z -0.001690 0.000000 1.770270 
# 
# From -- ./inp_files/176634.got.cif
#   From: 2010.06.25/outbox.cif.g09.slc.cpg/sg15_89_cif.got.tgz:176634.got - 2010.06.28 07:06:18.
