data_PCOD8138632
_publ_section_title
;
Structure prediction by ZEFSAII (Michael W. Deem and Ramdas Pophale) SiO2 
 PCOD8138632
Probable space group: C 2/C
;
_chemical_formula_sum "Si O2"
_cell_formula_units_Z 64
_cell_length_a 17.045128
_cell_length_b 8.937797
_cell_length_c 21.335864
_cell_angle_alpha 90.000000
_cell_angle_beta 86.640026
_cell_angle_gamma 90.000000
_cell_volume 3244.843830
_symmetry_space_group_name_H-M "C 2/C"
_symmetry_group_IT_number 15
_symmetry_cell_setting 'monoclinic'
loop_
_space_group_symop_operation_xyz
x,y,z
-x,y,1/2-z
-x,-y,-z
x,-y,1/2+z
1/2+x,1/2+y,z
1/2-x,1/2+y,1/2-z
1/2-x,1/2-y,-z
1/2+x,1/2-y,1/2+z
loop_
_atom_site_type_symbol
_atom_site_label
_atom_site_fract_x
_atom_site_fract_y
_atom_site_fract_z
Si Si1 0.661319 0.849323 0.178810
Si Si2 0.424748 0.139985 0.291328
Si Si3 0.749795 0.316407 0.567923
Si Si4 0.805653 0.892889 0.485567
Si Si5 0.827756 0.873931 0.225869
Si Si6 0.427117 0.577091 0.296244
Si Si7 0.874265 0.896391 0.089174
Si Si8 0.953539 0.870504 0.399195
O O1 0.684532 0.769611 0.112442
O O2 0.734398 0.854969 0.223214
O O3 0.590504 0.751938 0.211232
O O4 0.624668 0.012437 0.170500
O O5 0.500000 0.076757 0.250000
O O6 0.366800 0.216679 0.243623
O O7 0.456253 0.252009 0.342758
O O8 0.750000 0.250000 0.500000
O O9 0.735865 0.495070 0.562973
O O10 0.835147 0.270403 0.590671
O O11 0.750000 0.750000 0.500000
O O12 0.885502 0.830891 0.451410
O O13 0.828215 0.983335 0.547832
O O14 0.866041 0.947422 0.161520
O O15 0.847230 0.991001 0.279850
O O16 0.500000 0.526440 0.250000
O O17 0.442851 0.533965 0.368058
O O18 0.964937 0.875830 0.065675
#
# Coordination Sequence:
#
# PCOD8138632 Si02
#       8
#     8   8   8   8   8   8   8   8
#     4  11  22  36  61  89 119 160 199 254 302 354
#     4  11  22  39  59  90 124 159 204 252 304 376
#     4   9  21  40  61  84 120 155 200 246 307 348
#     4  11  24  41  65  93 115 154 218 259 296 364
#     4  10  20  38  59  87 121 161 199 241 317 361
#     4  11  20  38  59  88 123 157 198 247 302 371
#     4  10  20  41  65  82 124 164 196 251 311 365
#     4  11  21  40  62  86 123 163 199 245 317 363
#
# _framework density 19.723600999999999
#
# number of rings (size 3 to 8) (size 9 to 14) (size 15 to 20)
#    0.000    1.500    3.750    2.250    5.250    0.000 
#    0.000    1.875    0.000    0.000    0.000    0.000 
#    0.000    0.000    0.000    0.000    0.000    0.000 
#
# Total GULP energy -396585.056098 kJ/mol
# GULP energy per Si atom -12393.283003 kJ/mol
# Density = 1.967871 g / cm^3
# Si number density = 19.723601 Si / 1000 Ang^3
#
#
#
# Elastic Constant Matrix: (Units=GPa)
#
#
# Indices 1 2 3 4 5 6 
#
# 1 122.9787 58.2673 25.5720 0.0000 -0.4304 0.0000
# 2 58.2673 110.4217 32.0218 0.0000 1.3120 0.0000
# 3 25.5720 32.0218 67.0833 0.0000 -1.6860 0.0000
# 4 0.0000 0.0000 0.0000 22.3071 0.0000 -9.0652
# 5 -0.4304 1.3120 -1.6860 0.0000 30.3473 0.0000
# 6 0.0000 0.0000 0.0000 -9.0652 0.0000 27.6640
#
#
#
# Elastic Compliance Matrix: (Units=1/GPa)
#
#
# Indices 1 2 3 4 5 6 
#
# 1 0.011000 -0.005332 -0.001640 0.000000 0.000295 0.000000
# 2 -0.005332 0.013112 -0.004249 0.000000 -0.000879 0.000000
# 3 -0.001640 -0.004249 0.017589 0.000000 0.001138 0.000000
# 4 0.000000 0.000000 0.000000 0.051716 0.000000 0.016947
# 5 0.000295 -0.000879 0.001138 0.000000 0.033057 0.000000
# 6 0.000000 0.000000 0.000000 0.016947 0.000000 0.041701
#
#
# Mechanical properties :
#
#
# Convention : Reuss Voigt Hill
#
# Bulk Modulus (GPa) = 51.92459 59.13398 55.52928
# Shear Modulus (GPa) = 25.37588 28.37186 26.87387
#
# Velocity S-wave (km/s) = 3.59078 3.79683 3.69524
# Velocity P-wave (km/s) = 6.60112 7.01909 6.81332
#
# Compressibility (1/GPa) = 0.01925870
#
# Stress axis : x y z
#
# Youngs Moduli (GPa) = 90.90844 76.26349 56.85437
#
# Poissons Ratio (x) = 0.40666 0.09327
# Poissons Ratio (y) = 0.48475 0.24155
# Poissons Ratio (z) = 0.14913 0.32401
#
# Static dielectric constant tensor:
#      x y z
#    x 3.275530 0.000000 -0.334740 
#    y 0.000000 3.400290 0.000000 
#    z -0.334740 0.000000 3.200770 
# 
# 
# High freq. dielectric constant tensor:
#      x y z
#    x 1.776340 0.000000 -0.001840 
#    y 0.000000 1.753870 0.000000 
#    z -0.001840 0.000000 1.765680 
# 
# From -- ./inp_files/276304.got.cif
#   From: 2010.06.25/outbox.cif.g09.slc.cpg/sg15_139_cif.got.tgz:276304.got - 2010.06.28 07:06:18.
