data_PCOD8138948
_publ_section_title
;
Structure prediction by ZEFSAII (Michael W. Deem and Ramdas Pophale) SiO2 
 PCOD8138948
Probable space group: C 2/C
;
_chemical_formula_sum "Si O2"
_cell_formula_units_Z 56
_cell_length_a 12.206349
_cell_length_b 14.737415
_cell_length_c 15.135486
_cell_angle_alpha 90.000000
_cell_angle_beta 74.286596
_cell_angle_gamma 90.000000
_cell_volume 2620.970567
_symmetry_space_group_name_H-M "C 2/C"
_symmetry_group_IT_number 15
_symmetry_cell_setting 'monoclinic'
loop_
_space_group_symop_operation_xyz
x,y,z
-x,y,1/2-z
-x,-y,-z
x,-y,1/2+z
1/2+x,1/2+y,z
1/2-x,1/2+y,1/2-z
1/2-x,1/2-y,-z
1/2+x,1/2-y,1/2+z
loop_
_atom_site_type_symbol
_atom_site_label
_atom_site_fract_x
_atom_site_fract_y
_atom_site_fract_z
Si Si1 0.230890 0.894436 0.657089
Si Si2 0.157986 0.091173 0.654828
Si Si3 0.939994 0.305125 0.538778
Si Si4 0.166491 0.080435 0.360672
Si Si5 0.469315 0.280545 0.855370
Si Si6 0.582197 0.378397 0.360240
Si Si7 0.309667 0.155595 0.484701
O O1 0.353406 0.886172 0.583203
O O2 0.244592 0.891369 0.759984
O O3 0.157477 0.816973 0.627267
O O4 0.155014 0.983637 0.661572
O O5 0.139247 0.140846 0.752502
O O6 0.281301 0.115562 0.588044
O O7 0.054681 0.118554 0.613171
O O8 0.961617 0.301031 0.428319
O O9 0.890090 0.207403 0.582893
O O10 0.056522 0.334625 0.561355
O O11 0.249410 0.094997 0.424472
O O12 0.054440 0.143820 0.377997
O O13 0.130273 0.975349 0.381489
O O14 0.500000 0.245114 0.750000
O O15 0.250000 0.250000 0.500000
#
# Coordination Sequence:
#
# PCOD8138948 Si02
#       7
#     8   8   8   8   8   8   8
#     4  10  23  40  62  91 127 165 208 261 311 369
#     4  10  21  39  63  90 128 162 211 258 312 367
#     4  12  25  38  64  98 125 165 208 258 317 372
#     4  10  21  40  64  92 125 162 207 264 315 361
#     4  10  20  38  63  88 122 160 210 261 309 358
#     4  10  21  38  67  95 116 163 218 263 299 366
#     4  12  24  38  61  95 130 168 201 259 319 370
#
# _framework density 21.366129999999998
#
# number of rings (size 3 to 8) (size 9 to 14) (size 15 to 20)
#    0.000    1.429    4.286    0.429    4.000    2.286 
#    0.000    0.000    0.000    0.000    0.000    0.000 
#    0.000    0.000    0.000    0.000    0.000    0.000 
#
# Total GULP energy -346944.054654 kJ/mol
# GULP energy per Si atom -12390.859095 kJ/mol
# Density = 2.131750 g / cm^3
# Si number density = 21.366130 Si / 1000 Ang^3
#
#
#
# Elastic Constant Matrix: (Units=GPa)
#
#
# Indices 1 2 3 4 5 6 
#
# 1 97.1026 9.5500 42.8136 0.0000 -14.4357 0.0000
# 2 9.5500 36.2264 25.3119 0.0000 -1.6814 0.0000
# 3 42.8136 25.3119 106.5384 0.0000 -5.8586 0.0000
# 4 0.0000 0.0000 0.0000 29.0539 0.0000 -8.1689
# 5 -14.4357 -1.6814 -5.8586 0.0000 28.1798 0.0000
# 6 0.0000 0.0000 0.0000 -8.1689 0.0000 26.1339
#
#
#
# Elastic Compliance Matrix: (Units=1/GPa)
#
#
# Indices 1 2 3 4 5 6 
#
# 1 0.013398 0.000331 -0.005143 0.000000 0.005814 0.000000
# 2 0.000331 0.033110 -0.007973 0.000000 0.000488 0.000000
# 3 -0.005143 -0.007973 0.013329 0.000000 -0.000339 0.000000
# 4 0.000000 0.000000 0.000000 0.037735 0.000000 0.011795
# 5 0.005814 0.000488 -0.000339 0.000000 0.038423 0.000000
# 6 0.000000 0.000000 0.000000 0.011795 0.000000 0.041951
#
#
# Mechanical properties :
#
#
# Convention : Reuss Voigt Hill
#
# Bulk Modulus (GPa) = 29.18204 43.91317 36.54760
# Shear Modulus (GPa) = 23.26255 27.48632 25.37443
#
# Velocity S-wave (km/s) = 3.30321 3.59059 3.44990
# Velocity P-wave (km/s) = 5.31376 6.14712 5.74557
#
# Compressibility (1/GPa) = 0.03426765
#
# Stress axis : x y z
#
# Youngs Moduli (GPa) = 74.63955 30.20219 75.02638
#
# Poissons Ratio (x) = -0.01001 0.38587
# Poissons Ratio (y) = -0.02474 0.59817
# Poissons Ratio (z) = 0.38388 0.24080
#
# Static dielectric constant tensor:
#      x y z
#    x 4.160250 0.000000 0.038150 
#    y 0.000000 3.709560 0.000000 
#    z 0.038150 0.000000 4.040580 
# 
# 
# High freq. dielectric constant tensor:
#      x y z
#    x 1.830590 0.000000 -0.008310 
#    y 0.000000 1.815650 0.000000 
#    z -0.008310 0.000000 1.849480 
# 
# From -- ./inp_files/144265.got.cif
#   From: 2010.06.25/outbox.cif.g09.slc.cpg/sg15_73_cif.got.tgz:144265.got - 2010.06.28 07:06:18.
