data_PCOD8138922
_publ_section_title
;
Structure prediction by ZEFSAII (Michael W. Deem and Ramdas Pophale) SiO2 
 PCOD8138922
Probable space group: C 2/C
;
_chemical_formula_sum "Si O2"
_cell_formula_units_Z 56
_cell_length_a 21.902057
_cell_length_b 14.396660
_cell_length_c 9.874594
_cell_angle_alpha 90.000000
_cell_angle_beta 121.355338
_cell_angle_gamma 90.000000
_cell_volume 2658.898345
_symmetry_space_group_name_H-M "C 2/C"
_symmetry_group_IT_number 15
_symmetry_cell_setting 'monoclinic'
loop_
_space_group_symop_operation_xyz
x,y,z
-x,y,1/2-z
-x,-y,-z
x,-y,1/2+z
1/2+x,1/2+y,z
1/2-x,1/2+y,1/2-z
1/2-x,1/2-y,-z
1/2+x,1/2-y,1/2+z
loop_
_atom_site_type_symbol
_atom_site_label
_atom_site_fract_x
_atom_site_fract_y
_atom_site_fract_z
Si Si1 0.383997 0.556394 0.469757
Si Si2 0.228565 0.092977 0.751328
Si Si3 0.321859 0.731207 0.004729
Si Si4 0.919563 0.412060 0.118690
Si Si5 0.238646 0.849687 0.550543
Si Si6 0.429415 0.416382 0.731127
Si Si7 0.146455 0.518328 0.215095
O O1 0.328063 0.479532 0.364253
O O2 0.336671 0.647624 0.453638
O O3 0.425737 0.516690 0.649334
O O4 0.436874 0.574012 0.403360
O O5 0.203016 0.196468 0.674316
O O6 0.305864 0.068676 0.778636
O O7 0.231102 0.080715 0.914985
O O8 0.371737 0.820214 0.060489
O O9 0.360752 0.646537 0.124981
O O10 0.250000 0.750000 0.000000
O O11 0.891522 0.489067 0.190800
O O12 0.000000 0.383931 0.250000
O O13 0.914889 0.458877 0.965490
O O14 0.250000 0.750000 0.500000
O O15 0.305437 0.888099 0.714079
O O16 0.500000 0.366792 0.750000
#
# Coordination Sequence:
#
# PCOD8138922 Si02
#       7
#     8   8   8   8   8   8   8
#     4  10  22  38  65  90 130 168 213 264 327 386
#     4  10  20  38  62  98 125 162 216 273 322 380
#     4  11  24  39  67  96 127 167 219 271 324 380
#     4  12  25  44  65  95 132 175 216 266 326 401
#     4  11  22  36  63  97 131 162 218 277 325 372
#     4  11  23  42  64  94 129 172 212 264 326 395
#     4  11  23  40  67  91 131 172 216 267 330 388
#
# _framework density 21.061354999999999
#
# number of rings (size 3 to 8) (size 9 to 14) (size 15 to 20)
#    0.000    1.143    4.286    2.143    6.000    0.000 
#    0.000    0.000    0.000    0.000    0.000    0.000 
#    0.000    0.000    0.000    0.000    0.000    0.000 
#
# Total GULP energy -347099.211838 kJ/mol
# GULP energy per Si atom -12396.400423 kJ/mol
# Density = 2.101342 g / cm^3
# Si number density = 21.061355 Si / 1000 Ang^3
#
#
#
# Elastic Constant Matrix: (Units=GPa)
#
#
# Indices 1 2 3 4 5 6 
#
# 1 127.2252 37.8120 41.8337 0.0000 -3.5792 0.0000
# 2 37.8120 87.3330 32.5093 0.0000 2.6014 0.0000
# 3 41.8337 32.5093 113.2930 0.0000 -6.4542 0.0000
# 4 0.0000 0.0000 0.0000 18.9913 0.0000 -1.8545
# 5 -3.5792 2.6014 -6.4542 0.0000 43.8112 0.0000
# 6 0.0000 0.0000 0.0000 -1.8545 0.0000 25.2732
#
#
#
# Elastic Compliance Matrix: (Units=1/GPa)
#
#
# Indices 1 2 3 4 5 6 
#
# 1 0.009702 -0.003244 -0.002617 0.000000 0.000600 0.000000
# 2 -0.003244 0.013980 -0.002900 0.000000 -0.001522 0.000000
# 3 -0.002617 -0.002900 0.010713 0.000000 0.001537 0.000000
# 4 0.000000 0.000000 0.000000 0.053036 0.000000 0.003892
# 5 0.000600 -0.001522 0.001537 0.000000 0.023191 0.000000
# 6 0.000000 0.000000 0.000000 0.003892 0.000000 0.039853
#
#
# Mechanical properties :
#
#
# Convention : Reuss Voigt Hill
#
# Bulk Modulus (GPa) = 59.27313 61.35125 60.31219
# Shear Modulus (GPa) = 28.79822 31.99488 30.39655
#
# Velocity S-wave (km/s) = 3.70178 3.90183 3.80312
# Velocity P-wave (km/s) = 6.81726 7.03506 6.92702
#
# Compressibility (1/GPa) = 0.01687105
#
# Stress axis : x y z
#
# Youngs Moduli (GPa) = 103.07441 71.53076 93.34507
#
# Poissons Ratio (x) = 0.23205 0.24432
# Poissons Ratio (y) = 0.33438 0.27074
# Poissons Ratio (z) = 0.26978 0.20747
#
# Static dielectric constant tensor:
#      x y z
#    x 8.436310 0.000000 -4.367480 
#    y 0.000000 3.874830 0.000000 
#    z -4.367480 0.000000 8.331700 
# 
# 
# High freq. dielectric constant tensor:
#      x y z
#    x 1.819510 0.000000 -0.007240 
#    y 0.000000 1.810590 0.000000 
#    z -0.007240 0.000000 1.841130 
# 
# From -- ./inp_files/61802.got.cif
#   From: 2010.06.25/outbox.cif.g09.slc.cpg/sg15_31_cif.got.tgz:61802.got - 2010.06.28 07:06:18.
