data_PCOD8138007
_publ_section_title
;
Structure prediction by ZEFSAII (Michael W. Deem and Ramdas Pophale) SiO2 
 PCOD8138007
Probable space group: C 2/C
;
_chemical_formula_sum "Si O2"
_cell_formula_units_Z 52
_cell_length_a 18.567360
_cell_length_b 19.354142
_cell_length_c 8.607455
_cell_angle_alpha 90.000000
_cell_angle_beta 65.718225
_cell_angle_gamma 90.000000
_cell_volume 2819.497898
_symmetry_space_group_name_H-M "C 2/C"
_symmetry_group_IT_number 15
_symmetry_cell_setting 'monoclinic'
loop_
_space_group_symop_operation_xyz
x,y,z
-x,y,1/2-z
-x,-y,-z
x,-y,1/2+z
1/2+x,1/2+y,z
1/2-x,1/2+y,1/2-z
1/2-x,1/2-y,-z
1/2+x,1/2-y,1/2+z
loop_
_atom_site_type_symbol
_atom_site_label
_atom_site_fract_x
_atom_site_fract_y
_atom_site_fract_z
Si Si1 0.551258 0.177764 0.068087
Si Si2 0.362629 0.591410 0.759503
Si Si3 0.288761 0.075631 0.187613
Si Si4 0.275123 0.828135 0.976632
Si Si5 0.500000 0.688142 0.750000
Si Si6 0.804438 0.974339 0.015919
Si Si7 0.972075 0.431268 0.444836
O O1 0.500000 0.142585 0.250000
O O2 0.641406 0.159322 0.016852
O O3 0.538794 0.261689 0.083178
O O4 0.517837 0.140122 0.946425
O O5 0.436863 0.640427 0.721125
O O6 0.361047 0.568906 0.580549
O O7 0.282193 0.631490 0.859518
O O8 0.364109 0.527216 0.877362
O O9 0.273302 0.145450 0.299794
O O10 0.264633 0.011770 0.321909
O O11 0.235358 0.074522 0.079324
O O12 0.378672 0.074586 0.053290
O O13 0.250000 0.750000 0.000000
O O14 0.000000 0.444991 0.250000
O O15 0.000000 0.500000 0.500000
#
# Coordination Sequence:
#
# PCOD8138007 Si02
#       7
#     8   8   8   8   4   8   8
#     4  10  21  39  57  84 120 151 199 239 281 360
#     4  10  21  37  64  87 115 155 194 249 301 347
#     4  10  20  37  56  84 122 152 197 243 285 352
#     4  11  20  38  63  84 113 162 197 233 299 355
#     4  10  20  40  66  82 114 152 198 242 302 346
#     4   9  21  37  58  88 118 148 201 247 291 354
#     4  12  25  35  57  88 121 163 193 241 295 344
#
# _framework density 18.442999
#
# number of rings (size 3 to 8) (size 9 to 14) (size 15 to 20)
#    0.462    1.231    3.077    1.385    8.615    0.615 
#    0.000    2.308    0.000    0.000    0.000    0.000 
#    0.000    0.000    0.000    0.000    0.000    0.000 
#
# Total GULP energy -322206.527313 kJ/mol
# GULP energy per Si atom -12392.558743 kJ/mol
# Density = 1.840102 g / cm^3
# Si number density = 18.442999 Si / 1000 Ang^3
#
#
#
# Elastic Constant Matrix: (Units=GPa)
#
#
# Indices 1 2 3 4 5 6 
#
# 1 122.9815 61.4211 43.9614 0.0000 14.1875 0.0000
# 2 61.4211 120.1311 53.3054 0.0000 20.8356 0.0000
# 3 43.9614 53.3054 106.3571 0.0000 22.7046 0.0000
# 4 0.0000 0.0000 0.0000 21.0851 0.0000 9.4661
# 5 14.1875 20.8356 22.7046 0.0000 25.1274 0.0000
# 6 0.0000 0.0000 0.0000 9.4661 0.0000 32.3674
#
#
#
# Elastic Compliance Matrix: (Units=1/GPa)
#
#
# Indices 1 2 3 4 5 6 
#
# 1 0.011342 -0.004734 -0.002213 0.000000 -0.000479 0.000000
# 2 -0.004734 0.013211 -0.003589 0.000000 -0.005039 0.000000
# 3 -0.002213 -0.003589 0.013894 0.000000 -0.008329 0.000000
# 4 0.000000 0.000000 0.000000 0.054595 0.000000 -0.015967
# 5 -0.000479 -0.005039 -0.008329 0.000000 0.051771 0.000000
# 6 0.000000 0.000000 0.000000 -0.015967 0.000000 0.035565
#
#
# Mechanical properties :
#
#
# Convention : Reuss Voigt Hill
#
# Bulk Modulus (GPa) = 57.55506 74.09396 65.82451
# Shear Modulus (GPa) = 24.12644 28.43477 26.28060
#
# Velocity S-wave (km/s) = 3.62078 3.93079 3.77896
# Velocity P-wave (km/s) = 6.98246 7.80149 7.40331
#
# Compressibility (1/GPa) = 0.01737467
#
# Stress axis : x y z
#
# Youngs Moduli (GPa) = 88.16834 75.69447 71.97453
#
# Poissons Ratio (x) = 0.35832 0.15930
# Poissons Ratio (y) = 0.41737 0.25831
# Poissons Ratio (z) = 0.19514 0.27166
#
# Static dielectric constant tensor:
#      x y z
#    x 3.537700 0.000000 -0.036290 
#    y 0.000000 3.191230 0.000000 
#    z -0.036290 0.000000 3.460330 
# 
# 
# High freq. dielectric constant tensor:
#      x y z
#    x 1.716970 0.000000 -0.002120 
#    y 0.000000 1.714330 0.000000 
#    z -0.002120 0.000000 1.708390 
# 
# From -- ./inp_files/48510.got.cif
#   From: 2010.06.25/outbox.cif.g09.slc.cpg/sg15_25_cif.got.tgz:48510.got - 2010.06.28 07:06:18.
