data_PCOD8138761
_publ_section_title
;
Structure prediction by ZEFSAII (Michael W. Deem and Ramdas Pophale) SiO2 
 PCOD8138761
Probable space group: C 2/C
;
_chemical_formula_sum "Si O2"
_cell_formula_units_Z 44
_cell_length_a 18.516039
_cell_length_b 18.959211
_cell_length_c 8.355459
_cell_angle_alpha 90.000000
_cell_angle_beta 137.036231
_cell_angle_gamma 90.000000
_cell_volume 1999.066780
_symmetry_space_group_name_H-M "C 2/C"
_symmetry_group_IT_number 15
_symmetry_cell_setting 'monoclinic'
loop_
_space_group_symop_operation_xyz
x,y,z
-x,y,1/2-z
-x,-y,-z
x,-y,1/2+z
1/2+x,1/2+y,z
1/2-x,1/2+y,1/2-z
1/2-x,1/2-y,-z
1/2+x,1/2-y,1/2+z
loop_
_atom_site_type_symbol
_atom_site_label
_atom_site_fract_x
_atom_site_fract_y
_atom_site_fract_z
Si Si1 0.741651 0.643773 0.860994
Si Si2 0.057246 0.362210 0.004075
Si Si3 0.934578 0.799620 0.991865
Si Si4 0.197246 0.702729 0.222037
Si Si5 0.000000 0.640862 0.750000
Si Si6 0.470717 0.573551 0.025214
O O1 0.677993 0.717699 0.750218
O O2 0.653778 0.583409 0.716677
O O3 0.818028 0.630953 0.832372
O O4 0.808791 0.647983 0.136626
O O5 0.026622 0.279872 0.988893
O O6 0.000000 0.391307 0.750000
O O7 0.023859 0.401494 0.118935
O O8 0.000000 0.826302 0.250000
O O9 0.809818 0.801795 0.818833
O O10 0.958689 0.858011 0.899683
O O11 0.106743 0.685935 0.946609
O O12 0.500000 0.559162 0.250000
O O13 0.500000 0.500000 0.000000
#
# Coordination Sequence:
#
# PCOD8138761 Si02
#       6
#     8   8   8   8   4   8
#     4  10  21  40  60  90 134 176 217 274 345 395
#     4  10  21  36  58  97 132 171 207 273 339 397
#     4  10  20  38  61  86 130 169 219 269 333 397
#     4  10  21  35  63  96 130 176 213 277 344 402
#     4  12  22  32  58  92 134 166 214 252 340 410
#     4  12  27  42  63  93 132 183 227 271 328 403
#
# _framework density 22.010269000000001
#
# number of rings (size 3 to 8) (size 9 to 14) (size 15 to 20)
#    0.000    1.455    3.636    1.636    7.636    1.455 
#    0.000    0.000    0.000    0.000    2.364    3.818 
#    0.000    0.000    0.000    0.000    0.000    0.000 
#
# Total GULP energy -272603.326457 kJ/mol
# GULP energy per Si atom -12391.060294 kJ/mol
# Density = 2.196017 g / cm^3
# Si number density = 22.010269 Si / 1000 Ang^3
#
#
#
# Elastic Constant Matrix: (Units=GPa)
#
#
# Indices 1 2 3 4 5 6 
#
# 1 117.6141 26.8626 43.0152 0.0000 -17.0587 0.0000
# 2 26.8626 61.1712 22.9921 0.0000 2.1746 0.0000
# 3 43.0152 22.9921 150.7518 0.0000 -4.3215 0.0000
# 4 0.0000 0.0000 0.0000 37.4931 0.0000 13.5993
# 5 -17.0587 2.1746 -4.3215 0.0000 45.4561 0.0000
# 6 0.0000 0.0000 0.0000 13.5993 0.0000 32.7590
#
#
#
# Elastic Compliance Matrix: (Units=1/GPa)
#
#
# Indices 1 2 3 4 5 6 
#
# 1 0.010878 -0.004029 -0.002373 0.000000 0.004049 0.000000
# 2 -0.004029 0.018887 -0.001805 0.000000 -0.002587 0.000000
# 3 -0.002373 -0.001805 0.007584 0.000000 -0.000083 0.000000
# 4 0.000000 0.000000 0.000000 0.031400 0.000000 -0.013035
# 5 0.004049 -0.002587 -0.000083 0.000000 0.023635 0.000000
# 6 0.000000 0.000000 0.000000 -0.013035 0.000000 0.035937
#
#
# Mechanical properties :
#
#
# Convention : Reuss Voigt Hill
#
# Bulk Modulus (GPa) = 47.76916 57.25298 52.51107
# Shear Modulus (GPa) = 32.95703 38.91944 35.93824
#
# Velocity S-wave (km/s) = 3.87376 4.20961 4.04517
# Velocity P-wave (km/s) = 6.46206 7.04955 6.76219
#
# Compressibility (1/GPa) = 0.02093401
#
# Stress axis : x y z
#
# Youngs Moduli (GPa) = 91.92996 52.94585 131.86432
#
# Poissons Ratio (x) = 0.21331 0.31296
# Poissons Ratio (y) = 0.37036 0.23804
# Poissons Ratio (z) = 0.21818 0.09558
#
# Static dielectric constant tensor:
#      x y z
#    x 4.152880 0.000000 -0.066090 
#    y 0.000000 3.479160 0.000000 
#    z -0.066090 0.000000 4.100000 
# 
# 
# High freq. dielectric constant tensor:
#      x y z
#    x 1.892910 0.000000 0.005380 
#    y 0.000000 1.791750 0.000000 
#    z 0.005380 0.000000 1.879230 
# 
# From -- ./inp_files/49896.got.cif
#   From: 2010.06.25/outbox.cif.g09.slc.cpg/sg15_25_cif.got.tgz:49896.got - 2010.06.28 07:06:18.
