data_PCOD8138338
_publ_section_title
;
Structure prediction by ZEFSAII (Michael W. Deem and Ramdas Pophale) SiO2 
 PCOD8138338
Probable space group: C 2/C
;
_chemical_formula_sum "Si O2"
_cell_formula_units_Z 56
_cell_length_a 22.619640
_cell_length_b 9.481369
_cell_length_c 13.313807
_cell_angle_alpha 90.000000
_cell_angle_beta 114.223801
_cell_angle_gamma 90.000000
_cell_volume 2603.933595
_symmetry_space_group_name_H-M "C 2/C"
_symmetry_group_IT_number 15
_symmetry_cell_setting 'monoclinic'
loop_
_space_group_symop_operation_xyz
x,y,z
-x,y,1/2-z
-x,-y,-z
x,-y,1/2+z
1/2+x,1/2+y,z
1/2-x,1/2+y,1/2-z
1/2-x,1/2-y,-z
1/2+x,1/2-y,1/2+z
loop_
_atom_site_type_symbol
_atom_site_label
_atom_site_fract_x
_atom_site_fract_y
_atom_site_fract_z
Si Si1 0.546625 0.804623 0.017346
Si Si2 0.329339 0.271016 0.434121
Si Si3 0.804647 0.153626 0.127114
Si Si4 0.301537 0.629068 0.529282
Si Si5 0.364300 0.436156 0.874539
Si Si6 0.427644 0.766800 0.681982
Si Si7 0.586861 0.084258 0.125808
O O1 0.566593 0.642274 0.055331
O O2 0.579878 0.915324 0.116584
O O3 0.570201 0.849092 0.922113
O O4 0.469770 0.826431 0.969302
O O5 0.250448 0.265748 0.377705
O O6 0.349065 0.283070 0.566386
O O7 0.363413 0.394813 0.390533
O O8 0.350188 0.126903 0.394359
O O9 0.847733 0.109243 0.250817
O O10 0.771823 0.013393 0.055195
O O11 0.250000 0.750000 0.500000
O O12 0.311836 0.619962 0.417082
O O13 0.370097 0.651997 0.635795
O O14 0.500000 0.698082 0.750000
O O15 0.408921 0.878711 0.754164
#
# Coordination Sequence:
#
# PCOD8138338 Si02
#       7
#     8   8   8   8   8   8   8
#     4   9  21  38  57  93 119 152 212 253 294 382
#     4  10  23  39  58  86 118 158 196 251 305 368
#     4  10  23  40  56  87 125 151 204 254 305 369
#     4  10  22  38  60  92 117 159 211 249 302 379
#     4  10  22  39  59  83 121 158 195 249 311 363
#     4   9  19  37  60  87 123 160 203 254 308 372
#     4  10  20  37  63  85 120 162 201 255 311 354
#
# _framework density 21.505924
#
# number of rings (size 3 to 8) (size 9 to 14) (size 15 to 20)
#    0.000    2.286    0.000    0.857    8.000    1.714 
#    2.571    5.000    0.000    0.000    0.000    0.000 
#    0.000    0.000    0.000    0.000    0.000    0.000 
#
# Total GULP energy -346868.993622 kJ/mol
# GULP energy per Si atom -12388.178344 kJ/mol
# Density = 2.145698 g / cm^3
# Si number density = 21.505924 Si / 1000 Ang^3
#
#
#
# Elastic Constant Matrix: (Units=GPa)
#
#
# Indices 1 2 3 4 5 6 
#
# 1 58.9388 17.1484 20.6284 0.0000 0.7019 0.0000
# 2 17.1484 66.3052 9.0883 0.0000 6.5410 0.0000
# 3 20.6284 9.0883 106.9773 0.0000 -20.0404 0.0000
# 4 0.0000 0.0000 0.0000 24.7006 0.0000 -2.2670
# 5 0.7019 6.5410 -20.0404 0.0000 28.5909 0.0000
# 6 0.0000 0.0000 0.0000 -2.2670 0.0000 37.0856
#
#
#
# Elastic Compliance Matrix: (Units=1/GPa)
#
#
# Indices 1 2 3 4 5 6 
#
# 1 0.019587 -0.004329 -0.003815 0.000000 -0.002164 0.000000
# 2 -0.004329 0.016881 -0.001500 0.000000 -0.004807 0.000000
# 3 -0.003815 -0.001500 0.011848 0.000000 0.008742 0.000000
# 4 0.000000 0.000000 0.000000 0.040713 0.000000 0.002489
# 5 -0.002164 -0.004807 0.008742 0.000000 0.042256 0.000000
# 6 0.000000 0.000000 0.000000 0.002489 0.000000 0.027117
#
#
# Mechanical properties :
#
#
# Convention : Reuss Voigt Hill
#
# Bulk Modulus (GPa) = 34.44814 36.21681 35.33248
# Shear Modulus (GPa) = 26.68552 30.43251 28.55901
#
# Velocity S-wave (km/s) = 3.52638 3.76583 3.64807
# Velocity P-wave (km/s) = 5.71255 5.98211 5.84888
#
# Compressibility (1/GPa) = 0.02902915
#
# Stress axis : x y z
#
# Youngs Moduli (GPa) = 51.05348 59.23722 84.39980
#
# Poissons Ratio (x) = 0.25647 0.32195
# Poissons Ratio (y) = 0.22103 0.12659
# Poissons Ratio (z) = 0.19475 0.08885
#
# Static dielectric constant tensor:
#      x y z
#    x 3.838920 0.000000 -0.171000 
#    y 0.000000 3.783860 0.000000 
#    z -0.171000 0.000000 3.903930 
# 
# 
# High freq. dielectric constant tensor:
#      x y z
#    x 1.839490 0.000000 -0.021350 
#    y 0.000000 1.829620 0.000000 
#    z -0.021350 0.000000 1.841670 
# 
# From -- ./inp_files/172488.got.cif
#   From: 2010.06.25/outbox.cif.g09.slc.cpg/sg15_87_cif.got.tgz:172488.got - 2010.06.28 07:06:18.
