data_PCOD8138390
_publ_section_title
;
Structure prediction by ZEFSAII (Michael W. Deem and Ramdas Pophale) SiO2 
 PCOD8138390
Probable space group: C 2/C
;
_chemical_formula_sum "Si O2"
_cell_formula_units_Z 48
_cell_length_a 20.390203
_cell_length_b 13.649996
_cell_length_c 20.930925
_cell_angle_alpha 90.000000
_cell_angle_beta 154.791944
_cell_angle_gamma 90.000000
_cell_volume 2481.171437
_symmetry_space_group_name_H-M "C 2/C"
_symmetry_group_IT_number 15
_symmetry_cell_setting 'monoclinic'
loop_
_space_group_symop_operation_xyz
x,y,z
-x,y,1/2-z
-x,-y,-z
x,-y,1/2+z
1/2+x,1/2+y,z
1/2-x,1/2+y,1/2-z
1/2-x,1/2-y,-z
1/2+x,1/2-y,1/2+z
loop_
_atom_site_type_symbol
_atom_site_label
_atom_site_fract_x
_atom_site_fract_y
_atom_site_fract_z
Si Si1 0.911404 0.231902 0.609800
Si Si2 0.473472 0.143777 0.651937
Si Si3 0.527326 0.932578 0.700548
Si Si4 0.552770 0.624125 0.102088
Si Si5 0.376151 0.565248 0.476904
Si Si6 0.770117 0.252934 0.876666
O O1 0.750000 0.250000 0.500000
O O2 0.928168 0.147260 0.572504
O O3 0.000000 0.196010 0.750000
O O4 0.969741 0.328873 0.621132
O O5 0.500000 0.160611 0.750000
O O6 0.635861 0.173383 0.764174
O O7 0.330130 0.206274 0.498302
O O8 0.433265 0.030519 0.598814
O O9 0.500000 0.909987 0.750000
O O10 0.701147 0.960332 0.837814
O O11 0.616220 0.601209 0.088608
O O12 0.700782 0.659695 0.272756
O O13 0.483331 0.530521 0.078581
O O14 0.418165 0.704379 0.973676
#
# Coordination Sequence:
#
# PCOD8138390 Si02
#       6
#     8   8   8   8   8   8
#     4  11  22  38  62  93 118 153 202 251 310 368
#     4  10  20  37  64  84 121 155 195 254 308 353
#     4  10  20  38  61  87 122 153 191 255 309 353
#     4  10  24  40  64  85 125 166 201 251 294 367
#     4  11  22  43  61  88 126 163 200 247 313 360
#     4  10  21  41  58  92 115 155 213 244 293 365
#
# _framework density 19.345701999999999
#
# number of rings (size 3 to 8) (size 9 to 14) (size 15 to 20)
#    0.000    1.667    5.000    0.500    2.333    1.333 
#    0.000    1.667    0.000    0.000    0.000    0.000 
#    0.000    0.000    0.000    0.000    0.000    0.000 
#
# Total GULP energy -297328.987272 kJ/mol
# GULP energy per Si atom -12388.707803 kJ/mol
# Density = 1.930167 g / cm^3
# Si number density = 19.345702 Si / 1000 Ang^3
#
#
#
# Elastic Constant Matrix: (Units=GPa)
#
#
# Indices 1 2 3 4 5 6 
#
# 1 91.5500 35.4842 32.2103 -0.0002 2.2796 0.0002
# 2 35.4842 129.2142 42.6022 -0.0016 -9.3572 0.0008
# 3 32.2103 42.6022 102.0299 -0.0019 -1.7848 0.0009
# 4 -0.0002 -0.0016 -0.0019 27.9939 -0.0012 8.6084
# 5 2.2796 -9.3572 -1.7848 -0.0012 23.0720 0.0002
# 6 0.0002 0.0008 0.0009 8.6084 0.0002 16.6378
#
#
#
# Elastic Compliance Matrix: (Units=1/GPa)
#
#
# Indices 1 2 3 4 5 6 
#
# 1 0.013141 -0.002805 -0.003024 -0.000001 -0.002670 0.000000
# 2 -0.002805 0.009840 -0.003153 0.000001 0.004024 -0.000001
# 3 -0.003024 -0.003153 0.012071 0.000001 -0.000046 -0.000001
# 4 -0.000001 0.000001 0.000001 0.042481 0.000003 -0.021980
# 5 -0.002670 0.004024 -0.000046 0.000003 0.045235 -0.000002
# 6 0.000000 -0.000001 -0.000001 -0.021980 -0.000002 0.071476
#
#
# Mechanical properties :
#
#
# Convention : Reuss Voigt Hill
#
# Bulk Modulus (GPa) = 58.51813 60.37640 59.44726
# Shear Modulus (GPa) = 22.94586 27.70723 25.32655
#
# Velocity S-wave (km/s) = 3.44771 3.78857 3.62215
# Velocity P-wave (km/s) = 6.79435 7.10033 6.94902
#
# Compressibility (1/GPa) = 0.01708872
#
# Stress axis : x y z
#
# Youngs Moduli (GPa) = 76.10021 101.62301 82.84082
#
# Poissons Ratio (x) = 0.28505 0.25050
# Poissons Ratio (y) = 0.21346 0.26119
# Poissons Ratio (z) = 0.23012 0.32040
#
# Static dielectric constant tensor:
#      x y z
#    x 3.446170 0.000000 0.084940 
#    y 0.000000 3.882590 0.000000 
#    z 0.084940 0.000000 3.448580 
# 
# 
# High freq. dielectric constant tensor:
#      x y z
#    x 1.748530 0.000000 0.013980 
#    y 0.000000 1.771750 0.000000 
#    z 0.013980 0.000000 1.743900 
# 
# From -- ./inp_files/65229.got.cif
#   From: 2010.06.25/outbox.cif.g09.slc.cpg/sg15_33_cif.got.tgz:65229.got - 2010.06.28 07:06:18.
