data_PCOD8138020
_publ_section_title
;
Structure prediction by ZEFSAII (Michael W. Deem and Ramdas Pophale) SiO2 
 PCOD8138020
Probable space group: C 2/C
;
_chemical_formula_sum "Si O2"
_cell_formula_units_Z 64
_cell_length_a 13.096095
_cell_length_b 9.223367
_cell_length_c 27.259398
_cell_angle_alpha 90.000000
_cell_angle_beta 78.783866
_cell_angle_gamma 90.000000
_cell_volume 3229.776634
_symmetry_space_group_name_H-M "C 2/C"
_symmetry_group_IT_number 15
_symmetry_cell_setting 'monoclinic'
loop_
_space_group_symop_operation_xyz
x,y,z
-x,y,1/2-z
-x,-y,-z
x,-y,1/2+z
1/2+x,1/2+y,z
1/2-x,1/2+y,1/2-z
1/2-x,1/2-y,-z
1/2+x,1/2-y,1/2+z
loop_
_atom_site_type_symbol
_atom_site_label
_atom_site_fract_x
_atom_site_fract_y
_atom_site_fract_z
Si Si1 0.672889 0.396891 0.570211
Si Si2 0.853936 0.584781 0.895025
Si Si3 0.738932 0.588426 0.481736
Si Si4 0.579677 0.813439 0.346730
Si Si5 0.741101 0.936164 0.834223
Si Si6 0.436253 0.572229 0.076067
Si Si7 0.673170 0.627037 0.845092
Si Si8 0.602385 0.431735 0.766465
O O1 0.689227 0.224292 0.570854
O O2 0.752341 0.476156 0.525832
O O3 0.689038 0.460305 0.623562
O O4 0.559200 0.426852 0.559159
O O5 0.828938 0.448008 0.932985
O O6 0.788104 0.572354 0.850979
O O7 0.973907 0.597531 0.867976
O O8 0.750000 0.750000 0.500000
O O9 0.623059 0.572037 0.470103
O O10 0.605432 0.712403 0.390490
O O11 0.570361 0.712634 0.299557
O O12 0.674634 0.921622 0.329497
O O13 0.663141 0.800562 0.846648
O O14 0.814032 0.892879 0.782385
O O15 0.411002 0.425829 0.107690
O O16 0.649493 0.560469 0.794443
O O17 0.500000 0.494309 0.750000
#
# Coordination Sequence:
#
# PCOD8138020 Si02
#       8
#     8   8   8   8   8   8   8   8
#     4  10  20  37  57  79 110 154 192 227 279 342
#     4   9  20  39  58  78 112 154 192 229 281 342
#     4  11  21  34  56  87 117 148 193 243 284 326
#     4  10  21  38  59  82 113 148 186 233 285 339
#     4  11  21  35  57  85 111 141 187 240 283 332
#     4   9  19  37  57  78 112 154 189 227 280 338
#     4   9  19  36  56  80 108 143 186 232 277 333
#     4  11  21  38  60  81 110 150 185 223 286 354
#
# _framework density 19.815612000000002
#
# number of rings (size 3 to 8) (size 9 to 14) (size 15 to 20)
#    0.000    2.000    0.000    5.250    0.000    1.000 
#    0.000   12.500    0.000    0.000    0.000    0.000 
#    0.000    0.000    0.000    0.000    0.000    0.000 
#
# Total GULP energy -396733.437468 kJ/mol
# GULP energy per Si atom -12397.919921 kJ/mol
# Density = 1.977051 g / cm^3
# Si number density = 19.815612 Si / 1000 Ang^3
#
#
#
# Elastic Constant Matrix: (Units=GPa)
#
#
# Indices 1 2 3 4 5 6 
#
# 1 81.8104 37.4365 39.6997 0.0000 4.5114 0.0000
# 2 37.4365 82.3067 40.6138 0.0000 -1.6973 0.0000
# 3 39.6997 40.6138 112.5614 0.0000 11.3982 0.0000
# 4 0.0000 0.0000 0.0000 31.8784 0.0000 -1.4129
# 5 4.5114 -1.6973 11.3982 0.0000 30.3395 0.0000
# 6 0.0000 0.0000 0.0000 -1.4129 0.0000 31.4402
#
#
#
# Elastic Compliance Matrix: (Units=1/GPa)
#
#
# Indices 1 2 3 4 5 6 
#
# 1 0.016751 -0.005847 -0.003652 0.000000 -0.001446 0.000000
# 2 -0.005847 0.017079 -0.004455 0.000000 0.003498 0.000000
# 3 -0.003652 -0.004455 0.012214 0.000000 -0.004295 0.000000
# 4 0.000000 0.000000 0.000000 0.031432 0.000000 0.001413
# 5 -0.001446 0.003498 -0.004295 0.000000 0.034985 0.000000
# 6 0.000000 0.000000 0.000000 0.001413 0.000000 0.031870
#
#
# Mechanical properties :
#
#
# Convention : Reuss Voigt Hill
#
# Bulk Modulus (GPa) = 55.13349 56.90872 56.02110
# Shear Modulus (GPa) = 28.04533 29.32686 28.68610
#
# Velocity S-wave (km/s) = 3.76615 3.85123 3.80893
# Velocity P-wave (km/s) = 6.84072 6.96832 6.90482
#
# Compressibility (1/GPa) = 0.01813780
#
# Stress axis : x y z
#
# Youngs Moduli (GPa) = 59.69905 58.55058 81.87171
#
# Poissons Ratio (x) = 0.34233 0.29898
# Poissons Ratio (y) = 0.34904 0.36471
# Poissons Ratio (z) = 0.21801 0.26082
#
# Static dielectric constant tensor:
#      x y z
#    x 3.592940 0.000000 0.169100 
#    y 0.000000 3.580070 0.000000 
#    z 0.169100 0.000000 3.662290 
# 
# 
# High freq. dielectric constant tensor:
#      x y z
#    x 1.764700 0.000000 0.009660 
#    y 0.000000 1.766340 0.000000 
#    z 0.009660 0.000000 1.780080 
# 
# From -- ./inp_files/295141.got.cif
#   From: 2010.06.25/outbox.cif.g09.slc.cpg/sg15_148_cif.got.tgz:295141.got - 2010.06.28 07:06:18.
