data_PCOD8138076
_publ_section_title
;
Structure prediction by ZEFSAII (Michael W. Deem and Ramdas Pophale) SiO2 
 PCOD8138076
Probable space group: C 2/C
;
_chemical_formula_sum "Si O2"
_cell_formula_units_Z 48
_cell_length_a 22.755596
_cell_length_b 7.069963
_cell_length_c 14.838618
_cell_angle_alpha 90.000000
_cell_angle_beta 107.815131
_cell_angle_gamma 90.000000
_cell_volume 2272.782845
_symmetry_space_group_name_H-M "C 2/C"
_symmetry_group_IT_number 15
_symmetry_cell_setting 'monoclinic'
loop_
_space_group_symop_operation_xyz
x,y,z
-x,y,1/2-z
-x,-y,-z
x,-y,1/2+z
1/2+x,1/2+y,z
1/2-x,1/2+y,1/2-z
1/2-x,1/2-y,-z
1/2+x,1/2-y,1/2+z
loop_
_atom_site_type_symbol
_atom_site_label
_atom_site_fract_x
_atom_site_fract_y
_atom_site_fract_z
Si Si1 0.604063 0.933750 0.303156
Si Si2 0.547111 0.879517 0.462195
Si Si3 0.822464 0.748644 0.422907
Si Si4 0.133503 0.163536 0.736080
Si Si5 0.806711 0.116442 0.100830
Si Si6 0.031824 0.115616 0.174355
O O1 0.560999 0.973598 0.370586
O O2 0.666614 0.824508 0.361927
O O3 0.570014 0.805986 0.213326
O O4 0.619449 0.127707 0.262212
O O5 0.611636 0.858949 0.545250
O O6 0.516980 0.672318 0.426706
O O7 0.500000 0.000000 0.500000
O O8 0.815655 0.836933 0.319874
O O9 0.818065 0.909199 0.498655
O O10 0.765774 0.603319 0.410640
O O11 0.157401 0.049240 0.833059
O O12 0.074276 0.059395 0.663555
O O13 0.000000 0.040719 0.250000
#
# Coordination Sequence:
#
# PCOD8138076 Si02
#       6
#     8   8   8   8   8   8
#     4   9  20  39  61  86 120 161 203 252 303 362
#     4  10  20  37  58  87 128 163 198 252 312 367
#     4  10  22  40  61  87 124 161 199 259 310 357
#     4  11  22  37  67  92 112 165 210 246 306 371
#     4   9  22  44  59  87 128 153 202 265 305 356
#     4   9  20  37  56  86 124 155 194 251 296 351
#
# _framework density 21.119484
#
# number of rings (size 3 to 8) (size 9 to 14) (size 15 to 20)
#    0.000    2.333    0.000    2.000    2.333    5.333 
#    0.000    9.167    0.000    0.000    0.000    0.000 
#    0.000    0.000    0.000    0.000    0.000    0.000 
#
# Total GULP energy -297487.834118 kJ/mol
# GULP energy per Si atom -12395.326422 kJ/mol
# Density = 2.107141 g / cm^3
# Si number density = 21.119484 Si / 1000 Ang^3
#
#
#
# Elastic Constant Matrix: (Units=GPa)
#
#
# Indices 1 2 3 4 5 6 
#
# 1 124.3699 39.3527 25.1070 0.0000 -7.9965 0.0000
# 2 39.3527 99.0494 29.6642 0.0000 -13.2479 0.0000
# 3 25.1070 29.6642 56.5272 0.0000 -14.0231 0.0000
# 4 0.0000 0.0000 0.0000 12.6005 0.0000 -0.4049
# 5 -7.9965 -13.2479 -14.0231 0.0000 45.5510 0.0000
# 6 0.0000 0.0000 0.0000 -0.4049 0.0000 18.1541
#
#
#
# Elastic Compliance Matrix: (Units=1/GPa)
#
#
# Indices 1 2 3 4 5 6 
#
# 1 0.009523 -0.002987 -0.002666 0.000000 -0.000018 0.000000
# 2 -0.002987 0.013035 -0.005092 0.000000 0.001699 0.000000
# 3 -0.002666 -0.005092 0.022805 0.000000 0.005072 0.000000
# 4 0.000000 0.000000 0.000000 0.079419 0.000000 0.001771
# 5 -0.000018 0.001699 0.005072 0.000000 0.024006 0.000000
# 6 0.000000 0.000000 0.000000 0.001771 0.000000 0.055123
#
#
# Mechanical properties :
#
#
# Convention : Reuss Voigt Hill
#
# Bulk Modulus (GPa) = 41.89107 52.02159 46.95633
# Shear Modulus (GPa) = 21.42607 27.64930 24.53768
#
# Velocity S-wave (km/s) = 3.18860 3.62219 3.41229
# Velocity P-wave (km/s) = 5.78226 6.49455 6.14873
#
# Compressibility (1/GPa) = 0.02387143
#
# Stress axis : x y z
#
# Youngs Moduli (GPa) = 105.01004 76.71560 43.84932
#
# Poissons Ratio (x) = 0.22917 0.11692
# Poissons Ratio (y) = 0.31370 0.22329
# Poissons Ratio (z) = 0.28000 0.39065
#
# Static dielectric constant tensor:
#      x y z
#    x 4.043830 0.000000 0.033220 
#    y 0.000000 3.361210 0.000000 
#    z 0.033220 0.000000 4.032010 
# 
# 
# High freq. dielectric constant tensor:
#      x y z
#    x 1.840790 0.000000 -0.000870 
#    y 0.000000 1.787940 0.000000 
#    z -0.000870 0.000000 1.839310 
# 
# From -- ./inp_files/217799.got.cif
#   From: 2010.06.25/outbox.cif.g09.slc.cpg/sg15_109_cif.got.tgz:217799.got - 2010.06.28 07:06:18.
