data_PCOD8138202
_publ_section_title
;
Structure prediction by ZEFSAII (Michael W. Deem and Ramdas Pophale) SiO2 
 PCOD8138202
Probable space group: C 2/C
;
_chemical_formula_sum "Si O2"
_cell_formula_units_Z 64
_cell_length_a 23.672656
_cell_length_b 19.429639
_cell_length_c 14.227883
_cell_angle_alpha 90.000000
_cell_angle_beta 150.250240
_cell_angle_gamma 90.000000
_cell_volume 3247.282151
_symmetry_space_group_name_H-M "C 2/C"
_symmetry_group_IT_number 15
_symmetry_cell_setting 'monoclinic'
loop_
_space_group_symop_operation_xyz
x,y,z
-x,y,1/2-z
-x,-y,-z
x,-y,1/2+z
1/2+x,1/2+y,z
1/2-x,1/2+y,1/2-z
1/2-x,1/2-y,-z
1/2+x,1/2-y,1/2+z
loop_
_atom_site_type_symbol
_atom_site_label
_atom_site_fract_x
_atom_site_fract_y
_atom_site_fract_z
Si Si1 0.838040 0.307823 0.097607
Si Si2 0.277818 0.847187 0.632234
Si Si3 0.875937 0.023585 0.568895
Si Si4 0.334691 0.417321 0.665134
Si Si5 0.088674 0.294498 0.509299
Si Si6 0.623945 0.521950 0.640666
Si Si7 0.086982 0.747861 0.295694
Si Si8 0.954064 0.835401 0.445782
O O1 0.865103 0.299568 0.027812
O O2 0.953715 0.309221 0.324178
O O3 0.750000 0.250000 0.000000
O O4 0.778367 0.380045 0.032625
O O5 0.220825 0.922488 0.537363
O O6 0.184829 0.787227 0.493664
O O7 0.369638 0.825006 0.685267
O O8 0.339805 0.846932 0.822953
O O9 0.851065 0.992021 0.431504
O O10 0.000000 0.061288 0.750000
O O11 0.888625 0.958363 0.656000
O O12 0.290914 0.472777 0.679000
O O13 0.424621 0.362605 0.839517
O O14 0.104662 0.216516 0.566562
O O15 0.500000 0.500000 0.500000
O O16 0.636765 0.601799 0.688205
O O17 0.000000 0.726007 0.250000
O O18 0.033693 0.798478 0.138236
#
# Coordination Sequence:
#
# PCOD8138202 Si02
#       8
#     8   8   8   8   8   8   8   8
#     4  11  23  38  63  90 121 164 205 254 310 366
#     4  10  23  39  59  95 122 167 211 247 323 374
#     4  12  22  37  66  90 130 163 198 266 317 376
#     4  11  23  38  60  94 123 156 209 254 316 363
#     4  10  23  40  62  87 128 161 202 258 303 374
#     4  10  21  33  54  93 125 157 189 249 322 370
#     4  10  22  37  64  90 127 168 208 261 308 376
#     4  10  20  37  60  95 127 150 205 256 317 366
#
# _framework density 19.708788999999999
#
# number of rings (size 3 to 8) (size 9 to 14) (size 15 to 20)
#    0.000    1.500    3.750    1.875    8.750    0.000 
#    0.000    0.625    8.250    0.000    0.000    0.000 
#    0.000    0.000    0.000    0.000    0.000    0.000 
#
# Total GULP energy -396565.011090 kJ/mol
# GULP energy per Si atom -12392.656597 kJ/mol
# Density = 1.966393 g / cm^3
# Si number density = 19.708789 Si / 1000 Ang^3
#
#
#
# Elastic Constant Matrix: (Units=GPa)
#
#
# Indices 1 2 3 4 5 6 
#
# 1 116.0709 40.3048 38.5203 0.0000 -3.9442 0.0000
# 2 40.3048 110.9691 38.2529 0.0000 6.4254 0.0000
# 3 38.5203 38.2529 97.5209 0.0000 -1.7937 0.0000
# 4 0.0000 0.0000 0.0000 27.4621 0.0000 1.4024
# 5 -3.9442 6.4254 -1.7937 0.0000 26.7973 0.0000
# 6 0.0000 0.0000 0.0000 1.4024 0.0000 24.9410
#
#
#
# Elastic Compliance Matrix: (Units=1/GPa)
#
#
# Indices 1 2 3 4 5 6 
#
# 1 0.010724 -0.002971 -0.003032 0.000000 0.002088 0.000000
# 2 -0.002971 0.011454 -0.003382 0.000000 -0.003410 0.000000
# 3 -0.003032 -0.003382 0.012801 0.000000 0.001221 0.000000
# 4 0.000000 0.000000 0.000000 0.036519 0.000000 -0.002053
# 5 0.002088 -0.003410 0.001221 0.000000 0.038524 0.000000
# 6 0.000000 0.000000 0.000000 -0.002053 0.000000 0.040210
#
#
# Mechanical properties :
#
#
# Convention : Reuss Voigt Hill
#
# Bulk Modulus (GPa) = 61.69480 62.07965 61.88722
# Shear Modulus (GPa) = 28.66888 29.67228 29.17058
#
# Velocity S-wave (km/s) = 3.81809 3.88433 3.85135
# Velocity P-wave (km/s) = 7.12799 7.18917 7.15865
#
# Compressibility (1/GPa) = 0.01620882
#
# Stress axis : x y z
#
# Youngs Moduli (GPa) = 93.24641 87.30715 78.11838
#
# Poissons Ratio (x) = 0.25937 0.23688
# Poissons Ratio (y) = 0.27701 0.26420
# Poissons Ratio (z) = 0.28276 0.29528
#
# Static dielectric constant tensor:
#      x y z
#    x 3.600360 0.000000 -0.215600 
#    y 0.000000 3.860620 0.000000 
#    z -0.215600 0.000000 3.901400 
# 
# 
# High freq. dielectric constant tensor:
#      x y z
#    x 1.768080 0.000000 -0.020850 
#    y 0.000000 1.762890 0.000000 
#    z -0.020850 0.000000 1.759080 
# 
# From -- ./inp_files/174246.got.cif
#   From: 2010.06.25/outbox.cif.g09.slc.cpg/sg15_88_cif.got.tgz:174246.got - 2010.06.28 07:06:18.
