data_PCOD8138252
_publ_section_title
;
Structure prediction by ZEFSAII (Michael W. Deem and Ramdas Pophale) SiO2 
 PCOD8138252
Probable space group: C 2/C
;
_chemical_formula_sum "Si O2"
_cell_formula_units_Z 64
_cell_length_a 17.765315
_cell_length_b 14.965931
_cell_length_c 17.083664
_cell_angle_alpha 90.000000
_cell_angle_beta 40.618980
_cell_angle_gamma 90.000000
_cell_volume 2957.030511
_symmetry_space_group_name_H-M "C 2/C"
_symmetry_group_IT_number 15
_symmetry_cell_setting 'monoclinic'
loop_
_space_group_symop_operation_xyz
x,y,z
-x,y,1/2-z
-x,-y,-z
x,-y,1/2+z
1/2+x,1/2+y,z
1/2-x,1/2+y,1/2-z
1/2-x,1/2-y,-z
1/2+x,1/2-y,1/2+z
loop_
_atom_site_type_symbol
_atom_site_label
_atom_site_fract_x
_atom_site_fract_y
_atom_site_fract_z
Si Si1 0.075288 0.736969 0.263744
Si Si2 0.028264 0.912385 0.111623
Si Si3 0.322543 0.524136 0.251939
Si Si4 0.191036 0.824127 0.861363
Si Si5 0.603790 0.049106 0.721608
Si Si6 0.742902 0.522435 0.531013
Si Si7 0.465727 0.907537 0.928198
Si Si8 0.658601 0.874639 0.329806
O O1 0.203607 0.693799 0.160768
O O2 0.000000 0.702150 0.250000
O O3 0.068775 0.843916 0.277374
O O4 0.010004 0.694303 0.389989
O O5 0.124454 0.927186 0.102944
O O6 0.086174 0.869936 0.989526
O O7 0.961600 0.004946 0.143736
O O8 0.282637 0.608896 0.231975
O O9 0.279392 0.541183 0.375676
O O10 0.273740 0.432247 0.253156
O O11 0.165183 0.727839 0.847301
O O12 0.500000 0.082418 0.750000
O O13 0.632729 0.128675 0.757922
O O14 0.715802 0.029204 0.580052
O O15 0.564391 0.968028 0.809829
O O16 0.845275 0.589334 0.474889
O O17 0.441770 0.924609 0.039328
#
# Coordination Sequence:
#
# PCOD8138252 Si02
#       8
#     8   8   8   8   8   8   8   8
#     4  12  23  36  62  96 133 164 209 265 328 390
#     4  12  23  41  66  94 133 173 213 264 330 390
#     4  11  24  44  64  92 133 176 219 267 324 394
#     4  12  26  43  64  99 134 172 219 269 326 396
#     4  10  21  40  63  92 127 173 224 270 327 381
#     4  10  22  40  65  95 128 179 214 270 327 385
#     4  10  20  37  61  97 130 165 209 267 334 383
#     4  11  22  41  64  96 129 170 218 272 329 385
#
# _framework density 21.643332999999998
#
# number of rings (size 3 to 8) (size 9 to 14) (size 15 to 20)
#    0.000    1.000    2.500    6.000    1.750    3.000 
#    0.000    1.875    0.000    0.000    0.000    0.000 
#    0.000    0.000    0.000    0.000    0.000    0.000 
#
# Total GULP energy -396488.152127 kJ/mol
# GULP energy per Si atom -12390.254754 kJ/mol
# Density = 2.159407 g / cm^3
# Si number density = 21.643333 Si / 1000 Ang^3
#
#
#
# Elastic Constant Matrix: (Units=GPa)
#
#
# Indices 1 2 3 4 5 6 
#
# 1 97.5384 41.8226 56.3263 0.0000 17.3479 0.0000
# 2 41.8226 77.4673 38.4385 0.0000 6.9899 0.0000
# 3 56.3263 38.4385 107.6606 0.0000 12.2784 0.0000
# 4 0.0000 0.0000 0.0000 25.8678 0.0000 2.7988
# 5 17.3479 6.9899 12.2784 0.0000 40.0341 0.0000
# 6 0.0000 0.0000 0.0000 2.7988 0.0000 33.5974
#
#
#
# Elastic Compliance Matrix: (Units=1/GPa)
#
#
# Indices 1 2 3 4 5 6 
#
# 1 0.017224 -0.005683 -0.006470 0.000000 -0.004487 0.000000
# 2 -0.005683 0.017607 -0.003361 0.000000 0.000419 0.000000
# 3 -0.006470 -0.003361 0.013976 0.000000 -0.000896 0.000000
# 4 0.000000 0.000000 0.000000 0.039010 0.000000 -0.003250
# 5 -0.004487 0.000419 -0.000896 0.000000 0.027124 0.000000
# 6 0.000000 0.000000 0.000000 -0.003250 0.000000 0.030035
#
#
# Mechanical properties :
#
#
# Convention : Reuss Voigt Hill
#
# Bulk Modulus (GPa) = 56.25078 61.76014 59.00546
# Shear Modulus (GPa) = 27.48320 29.63846 28.56083
#
# Velocity S-wave (km/s) = 3.56732 3.70456 3.63659
# Velocity P-wave (km/s) = 6.55851 6.84804 6.70484
#
# Compressibility (1/GPa) = 0.01777753
#
# Stress axis : x y z
#
# Youngs Moduli (GPa) = 58.05936 56.79699 71.55316
#
# Poissons Ratio (x) = 0.32279 0.46297
# Poissons Ratio (y) = 0.32997 0.24046
# Poissons Ratio (z) = 0.37566 0.19087
#
# Static dielectric constant tensor:
#      x y z
#    x 4.031200 0.000000 0.078660 
#    y 0.000000 3.601130 0.000000 
#    z 0.078660 0.000000 4.184560 
# 
# 
# High freq. dielectric constant tensor:
#      x y z
#    x 1.854170 0.000000 0.003310 
#    y 0.000000 1.813090 0.000000 
#    z 0.003310 0.000000 1.865420 
# 
# From -- ./inp_files/211374.got.cif
#   From: 2010.06.25/outbox.cif.g09.slc.cpg/sg15_106_cif.got.tgz:211374.got - 2010.06.28 07:06:18.
