data_PCOD8138591
_publ_section_title
;
Structure prediction by ZEFSAII (Michael W. Deem and Ramdas Pophale) SiO2 
 PCOD8138591
Probable space group: C 2/C
;
_chemical_formula_sum "Si O2"
_cell_formula_units_Z 48
_cell_length_a 6.513370
_cell_length_b 14.244600
_cell_length_c 26.812459
_cell_angle_alpha 90.000000
_cell_angle_beta 69.573219
_cell_angle_gamma 90.000000
_cell_volume 2331.242100
_symmetry_space_group_name_H-M "C 2/C"
_symmetry_group_IT_number 15
_symmetry_cell_setting 'monoclinic'
loop_
_space_group_symop_operation_xyz
x,y,z
-x,y,1/2-z
-x,-y,-z
x,-y,1/2+z
1/2+x,1/2+y,z
1/2-x,1/2+y,1/2-z
1/2-x,1/2-y,-z
1/2+x,1/2-y,1/2+z
loop_
_atom_site_type_symbol
_atom_site_label
_atom_site_fract_x
_atom_site_fract_y
_atom_site_fract_z
Si Si1 0.149332 0.804142 0.887647
Si Si2 0.888769 0.946060 0.965488
Si Si3 0.937642 0.814239 0.135325
Si Si4 0.414401 0.334319 0.811608
Si Si5 0.650974 0.137583 0.571354
Si Si6 0.259439 0.477985 0.375578
O O1 0.383517 0.767866 0.885323
O O2 0.096938 0.900126 0.920047
O O3 0.124202 0.816835 0.829737
O O4 0.954683 0.738834 0.922876
O O5 0.763975 0.006922 0.934783
O O6 0.709773 0.882273 0.008806
O O7 0.000000 0.000000 0.000000
O O8 0.732541 0.761188 0.178864
O O9 0.867282 0.856369 0.087820
O O10 0.050111 0.901363 0.156089
O O11 0.500000 0.358943 0.750000
O O12 0.280766 0.425318 0.842977
O O13 0.481121 0.065596 0.612774
#
# Coordination Sequence:
#
# PCOD8138591 Si02
#       6
#     8   8   8   8   8   8
#     4   9  22  39  59  85 122 159 201 254 302 372
#     4  11  20  34  59  87 125 165 205 239 307 367
#     4  10  21  41  61  86 126 156 201 256 309 369
#     4  10  23  43  64  89 115 157 208 260 323 366
#     4  10  20  38  58  87 123 165 198 246 302 367
#     4  10  22  40  60  90 124 160 208 257 302 374
#
# _framework density 20.589883
#
# number of rings (size 3 to 8) (size 9 to 14) (size 15 to 20)
#    0.000    2.000    1.667    1.000    2.333    1.333 
#   12.000    0.000    0.000    0.000    0.000    0.000 
#    0.000    0.000    0.000    0.000    0.000    0.000 
#
# Total GULP energy -297380.839755 kJ/mol
# GULP energy per Si atom -12390.868323 kJ/mol
# Density = 2.054302 g / cm^3
# Si number density = 20.589883 Si / 1000 Ang^3
#
#
#
# Elastic Constant Matrix: (Units=GPa)
#
#
# Indices 1 2 3 4 5 6 
#
# 1 110.7084 29.8790 39.9036 0.0000 9.5317 0.0000
# 2 29.8790 76.7988 34.2570 0.0000 9.7990 0.0000
# 3 39.9036 34.2570 116.1638 0.0000 12.5977 0.0000
# 4 0.0000 0.0000 0.0000 21.2858 0.0000 -2.9106
# 5 9.5317 9.7990 12.5977 0.0000 14.9359 0.0000
# 6 0.0000 0.0000 0.0000 -2.9106 0.0000 35.9319
#
#
#
# Elastic Compliance Matrix: (Units=1/GPa)
#
#
# Indices 1 2 3 4 5 6 
#
# 1 0.010975 -0.002707 -0.002647 0.000000 -0.002996 0.000000
# 2 -0.002707 0.016300 -0.003197 0.000000 -0.006270 0.000000
# 3 -0.002647 -0.003197 0.011062 0.000000 -0.005543 0.000000
# 4 0.000000 0.000000 0.000000 0.047506 0.000000 0.003848
# 5 -0.002996 -0.006270 -0.005543 0.000000 0.077653 0.000000
# 6 0.000000 0.000000 0.000000 0.003848 0.000000 0.028142
#
#
# Mechanical properties :
#
#
# Convention : Reuss Voigt Hill
#
# Bulk Modulus (GPa) = 47.09184 56.86113 51.97648
# Shear Modulus (GPa) = 23.16751 27.73950 25.45351
#
# Velocity S-wave (km/s) = 3.35802 3.67446 3.51980
# Velocity P-wave (km/s) = 6.16085 6.75856 6.46662
#
# Compressibility (1/GPa) = 0.02123510
#
# Stress axis : x y z
#
# Youngs Moduli (GPa) = 91.11348 61.34834 90.40121
#
# Poissons Ratio (x) = 0.16608 0.23929
# Poissons Ratio (y) = 0.24665 0.28902
# Poissons Ratio (z) = 0.24117 0.19614
#
# Static dielectric constant tensor:
#      x y z
#    x 3.797440 0.000000 0.029780 
#    y 0.000000 4.063930 0.000000 
#    z 0.029780 0.000000 4.329660 
# 
# 
# High freq. dielectric constant tensor:
#      x y z
#    x 1.807980 0.000000 0.003020 
#    y 0.000000 1.821960 0.000000 
#    z 0.003020 0.000000 1.771830 
# 
# From -- ./inp_files/260846.got.cif
#   From: 2010.06.25/outbox.cif.g09.slc.cpg/sg15_131_cif.got.tgz:260846.got - 2010.06.28 07:06:18.
