data_PCOD8138975
_publ_section_title
;
Structure prediction by ZEFSAII (Michael W. Deem and Ramdas Pophale) SiO2 
 PCOD8138975
Probable space group: C 2/C
;
_chemical_formula_sum "Si O2"
_cell_formula_units_Z 24
_cell_length_a 16.192168
_cell_length_b 14.167903
_cell_length_c 8.753924
_cell_angle_alpha 90.000000
_cell_angle_beta 146.371130
_cell_angle_gamma 90.000000
_cell_volume 1112.179940
_symmetry_space_group_name_H-M "C 2/C"
_symmetry_group_IT_number 15
_symmetry_cell_setting 'monoclinic'
loop_
_space_group_symop_operation_xyz
x,y,z
-x,y,1/2-z
-x,-y,-z
x,-y,1/2+z
1/2+x,1/2+y,z
1/2-x,1/2+y,1/2-z
1/2-x,1/2-y,-z
1/2+x,1/2-y,1/2+z
loop_
_atom_site_type_symbol
_atom_site_label
_atom_site_fract_x
_atom_site_fract_y
_atom_site_fract_z
Si Si1 0.162240 0.235241 0.521515
Si Si2 0.321006 0.377409 0.968087
Si Si3 0.152840 0.952780 0.179530
O O1 0.250000 0.250000 0.500000
O O2 0.247845 0.281037 0.797017
O O3 0.135756 0.125309 0.520449
O O4 0.000000 0.282398 0.250000
O O5 0.260482 0.459400 0.761696
O O6 0.500000 0.365946 0.250000
O O7 0.262582 0.404991 0.047068
O O8 0.000000 0.000000 0.000000
#
# Coordination Sequence:
#
# PCOD8138975 Si02
#       3
#     8   8   8
#     4  12  24  41  65  98 133 171 215 269 325 385
#     4  10  20  38  63  92 124 169 217 265 316 383
#     4  10  20  39  65  92 126 174 218 254 317 402
#
# _framework density 21.579242000000001
#
# number of rings (size 3 to 8) (size 9 to 14) (size 15 to 20)
#    0.000    1.333    0.000   10.000    0.000    0.000 
#    0.000    8.333    0.000    0.000    0.000    0.000 
#    0.000    0.000    0.000    0.000    0.000    0.000 
#
# Total GULP energy -148702.404236 kJ/mol
# GULP energy per Si atom -12391.867020 kJ/mol
# Density = 2.153013 g / cm^3
# Si number density = 21.579242 Si / 1000 Ang^3
#
#
#
# Elastic Constant Matrix: (Units=GPa)
#
#
# Indices 1 2 3 4 5 6 
#
# 1 122.4127 38.3502 32.1205 0.0000 -8.4532 0.0000
# 2 38.3502 118.1039 31.3578 0.0000 2.5222 0.0000
# 3 32.1205 31.3578 84.7976 0.0000 2.0717 0.0000
# 4 0.0000 0.0000 0.0000 40.1986 0.0000 -17.2537
# 5 -8.4532 2.5222 2.0717 0.0000 25.3031 0.0000
# 6 0.0000 0.0000 0.0000 -17.2537 0.0000 48.5514
#
#
#
# Elastic Compliance Matrix: (Units=1/GPa)
#
#
# Indices 1 2 3 4 5 6 
#
# 1 0.010004 -0.002550 -0.002940 0.000000 0.003837 0.000000
# 2 -0.002550 0.010050 -0.002711 0.000000 -0.001632 0.000000
# 3 -0.002940 -0.002711 0.013954 0.000000 -0.001855 0.000000
# 4 0.000000 0.000000 0.000000 0.029354 0.000000 0.010431
# 5 0.003837 -0.001632 -0.001855 0.000000 0.041117 0.000000
# 6 0.000000 0.000000 0.000000 0.010431 0.000000 0.024304
#
#
# Mechanical properties :
#
#
# Convention : Reuss Voigt Hill
#
# Bulk Modulus (GPa) = 56.79673 58.77457 57.78565
# Shear Modulus (GPa) = 33.10082 37.70967 35.40524
#
# Velocity S-wave (km/s) = 3.92078 4.18484 4.05496
# Velocity P-wave (km/s) = 6.84645 7.11662 6.98284
#
# Compressibility (1/GPa) = 0.01760665
#
# Stress axis : x y z
#
# Youngs Moduli (GPa) = 99.95566 99.50613 71.66269
#
# Poissons Ratio (x) = 0.25372 0.21072
# Poissons Ratio (y) = 0.25487 0.19425
# Poissons Ratio (z) = 0.29391 0.26972
#
# Static dielectric constant tensor:
#      x y z
#    x 4.180560 0.000000 -0.579850 
#    y 0.000000 4.095130 0.000000 
#    z -0.579850 0.000000 3.991470 
# 
# 
# High freq. dielectric constant tensor:
#      x y z
#    x 1.844490 0.000000 -0.041560 
#    y 0.000000 1.859600 0.000000 
#    z -0.041560 0.000000 1.824670 
# 
# From -- ./inp_files/21016.got.cif
#   From: 2010.06.25/outbox.cif.g09.slc.cpg/sg15_11_cif.got.tgz:21016.got - 2010.06.28 07:06:18.
