data_PCOD8138620
_publ_section_title
;
Structure prediction by ZEFSAII (Michael W. Deem and Ramdas Pophale) SiO2 
 PCOD8138620
Probable space group: C 2/C
;
_chemical_formula_sum "Si O2"
_cell_formula_units_Z 56
_cell_length_a 9.012603
_cell_length_b 22.921900
_cell_length_c 15.932242
_cell_angle_alpha 90.000000
_cell_angle_beta 125.835756
_cell_angle_gamma 90.000000
_cell_volume 2668.315498
_symmetry_space_group_name_H-M "C 2/C"
_symmetry_group_IT_number 15
_symmetry_cell_setting 'monoclinic'
loop_
_space_group_symop_operation_xyz
x,y,z
-x,y,1/2-z
-x,-y,-z
x,-y,1/2+z
1/2+x,1/2+y,z
1/2-x,1/2+y,1/2-z
1/2-x,1/2-y,-z
1/2+x,1/2-y,1/2+z
loop_
_atom_site_type_symbol
_atom_site_label
_atom_site_fract_x
_atom_site_fract_y
_atom_site_fract_z
Si Si1 0.289986 0.945621 0.689566
Si Si2 0.681634 0.347026 0.765928
Si Si3 0.146109 0.117138 0.980264
Si Si4 0.974218 0.211553 0.441794
Si Si5 0.157431 0.325824 0.514170
Si Si6 0.867607 0.948560 0.279793
Si Si7 0.436067 0.065622 0.950898
O O1 0.500000 0.964694 0.750000
O O2 0.296104 0.901947 0.770650
O O3 0.180049 0.919408 0.575389
O O4 0.164095 0.000506 0.665410
O O5 0.500000 0.372094 0.750000
O O6 0.648964 0.302822 0.679150
O O7 0.789634 0.311585 0.872244
O O8 0.323040 0.102286 0.982891
O O9 0.116946 0.184072 0.003392
O O10 0.963576 0.102339 0.866118
O O11 0.985679 0.281985 0.445114
O O12 0.179723 0.185964 0.497871
O O13 0.112055 0.394501 0.489781
O O14 0.674623 0.933048 0.172949
O O15 0.000000 0.970627 0.250000
O O16 0.500000 0.000000 0.000000
#
# Coordination Sequence:
#
# PCOD8138620 Si02
#       7
#     8   8   8   8   8   8   8
#     4  11  20  33  55  83 110 143 191 233 269 322
#     4   9  18  34  55  78 109 148 184 224 278 334
#     4  10  22  38  56  82 113 146 189 232 278 334
#     4   9  21  37  58  85 111 147 190 230 278 332
#     4  10  20  38  59  82 114 148 186 233 278 330
#     4  10  22  37  53  77 114 152 181 223 285 340
#     4  11  23  39  58  83 114 149 188 230 282 337
#
# _framework density 20.987023000000001
#
# number of rings (size 3 to 8) (size 9 to 14) (size 15 to 20)
#    0.000    2.000    0.000    3.429    0.000    9.714 
#    0.000    1.429    0.000    0.857    0.000    0.000 
#    0.000    0.000    0.000    0.000    0.000    0.000 
#
# Total GULP energy -346917.374453 kJ/mol
# GULP energy per Si atom -12389.906230 kJ/mol
# Density = 2.093926 g / cm^3
# Si number density = 20.987023 Si / 1000 Ang^3
#
#
#
# Elastic Constant Matrix: (Units=GPa)
#
#
# Indices 1 2 3 4 5 6 
#
# 1 51.7311 27.3961 16.8383 0.0000 -5.6841 0.0000
# 2 27.3961 96.2338 11.9424 0.0000 3.7126 0.0000
# 3 16.8383 11.9424 90.7004 0.0000 5.4444 0.0000
# 4 0.0000 0.0000 0.0000 18.2537 0.0000 1.2148
# 5 -5.6841 3.7126 5.4444 0.0000 30.2377 0.0000
# 6 0.0000 0.0000 0.0000 1.2148 0.0000 33.3834
#
#
#
# Elastic Compliance Matrix: (Units=1/GPa)
#
#
# Indices 1 2 3 4 5 6 
#
# 1 0.024984 -0.006844 -0.004114 0.000000 0.006278 0.000000
# 2 -0.006844 0.012472 -0.000205 0.000000 -0.002781 0.000000
# 3 -0.004114 -0.000205 0.011990 0.000000 -0.002907 0.000000
# 4 0.000000 0.000000 0.000000 0.054916 0.000000 -0.001998
# 5 0.006278 -0.002781 -0.002907 0.000000 0.035116 0.000000
# 6 0.000000 0.000000 0.000000 -0.001998 0.000000 0.030028
#
#
# Mechanical properties :
#
#
# Convention : Reuss Voigt Hill
#
# Bulk Modulus (GPa) = 36.87104 39.00208 37.93656
# Shear Modulus (GPa) = 24.89128 28.54087 26.71608
#
# Velocity S-wave (km/s) = 3.44762 3.69172 3.57176
# Velocity P-wave (km/s) = 5.78401 6.06597 5.92667
#
# Compressibility (1/GPa) = 0.02712156
#
# Stress axis : x y z
#
# Youngs Moduli (GPa) = 40.02535 80.17650 83.39940
#
# Poissons Ratio (x) = 0.54875 0.34310
# Poissons Ratio (y) = 0.27394 0.01707
# Poissons Ratio (z) = 0.16466 0.01641
#
# Static dielectric constant tensor:
#      x y z
#    x 3.849840 0.000000 -0.085120 
#    y 0.000000 3.662150 0.000000 
#    z -0.085120 0.000000 4.028610 
# 
# 
# High freq. dielectric constant tensor:
#      x y z
#    x 1.817240 0.000000 -0.003860 
#    y 0.000000 1.802930 0.000000 
#    z -0.003860 0.000000 1.834160 
# 
# From -- ./inp_files/137980.got.cif
#   From: 2010.06.25/outbox.cif.g09.slc.cpg/sg15_69_cif.got.tgz:137980.got - 2010.06.28 07:06:18.
