data_PCOD8138229
_publ_section_title
;
Structure prediction by ZEFSAII (Michael W. Deem and Ramdas Pophale) SiO2 
 PCOD8138229
Probable space group: C 2/C
;
_chemical_formula_sum "Si O2"
_cell_formula_units_Z 40
_cell_length_a 15.179377
_cell_length_b 9.447136
_cell_length_c 14.110292
_cell_angle_alpha 90.000000
_cell_angle_beta 52.682825
_cell_angle_gamma 90.000000
_cell_volume 1609.224431
_symmetry_space_group_name_H-M "C 2/C"
_symmetry_group_IT_number 15
_symmetry_cell_setting 'monoclinic'
loop_
_space_group_symop_operation_xyz
x,y,z
-x,y,1/2-z
-x,-y,-z
x,-y,1/2+z
1/2+x,1/2+y,z
1/2-x,1/2+y,1/2-z
1/2-x,1/2-y,-z
1/2+x,1/2-y,1/2+z
loop_
_atom_site_type_symbol
_atom_site_label
_atom_site_fract_x
_atom_site_fract_y
_atom_site_fract_z
Si Si1 0.726307 0.889238 0.456525
Si Si2 0.489879 0.193435 0.457989
Si Si3 0.548793 0.258999 0.816197
Si Si4 0.789393 0.192401 0.707167
Si Si5 0.393619 0.503724 0.478285
O O1 0.750000 0.750000 0.500000
O O2 0.592353 0.915881 0.542685
O O3 0.763991 0.876871 0.323751
O O4 0.795893 0.011471 0.462862
O O5 0.489837 0.159351 0.570790
O O6 0.615750 0.185990 0.337607
O O7 0.433628 0.348553 0.481191
O O8 0.500000 0.195881 0.750000
O O9 0.682873 0.263663 0.727182
O O10 0.498479 0.415494 0.865400
O O11 0.845133 0.076252 0.603420
#
# Coordination Sequence:
#
# PCOD8138229 Si02
#       5
#     8   8   8   8   8
#     4   9  20  37  62  96 121 161 205 251 305 370
#     4   9  20  38  60  94 121 159 207 255 306 363
#     4  10  21  34  59  86 121 165 203 243 309 362
#     4  10  20  37  61  88 131 155 201 264 291 363
#     4  10  21  35  63  93 119 160 215 238 317 369
#
# _framework density 24.856695999999999
#
# number of rings (size 3 to 8) (size 9 to 14) (size 15 to 20)
#    0.000    2.400    0.000    2.400    5.600    5.600 
#    0.000    0.000   17.600    3.600    0.000    0.000 
#    0.000    0.000    0.000    0.000    0.000    0.000 
#
# Total GULP energy -247787.736888 kJ/mol
# GULP energy per Si atom -12389.386844 kJ/mol
# Density = 2.480012 g / cm^3
# Si number density = 24.856696 Si / 1000 Ang^3
#
#
#
# Elastic Constant Matrix: (Units=GPa)
#
#
# Indices 1 2 3 4 5 6 
#
# 1 227.0436 19.0860 56.6067 0.0000 -18.2471 0.0000
# 2 19.0860 29.7535 2.8168 0.0000 -5.0324 0.0000
# 3 56.6067 2.8168 78.2119 0.0000 -15.5739 0.0000
# 4 0.0000 0.0000 0.0000 14.6330 0.0000 -5.7831
# 5 -18.2471 -5.0324 -15.5739 0.0000 61.7221 0.0000
# 6 0.0000 0.0000 0.0000 -5.7831 0.0000 41.4893
#
#
#
# Elastic Compliance Matrix: (Units=1/GPa)
#
#
# Indices 1 2 3 4 5 6 
#
# 1 0.005684 -0.003203 -0.003912 0.000000 0.000432 0.000000
# 2 -0.003203 0.035921 0.001494 0.000000 0.002359 0.000000
# 3 -0.003912 0.001494 0.016170 0.000000 0.003045 0.000000
# 4 0.000000 0.000000 0.000000 0.072323 0.000000 0.010081
# 5 0.000432 0.002359 0.003045 0.000000 0.017290 0.000000
# 6 0.000000 0.000000 0.000000 0.010081 0.000000 0.025508
#
#
# Mechanical properties :
#
#
# Convention : Reuss Voigt Hill
#
# Bulk Modulus (GPa) = 21.49007 54.66980 38.07993
# Shear Modulus (GPa) = 25.04397 40.66884 32.85640
#
# Velocity S-wave (km/s) = 3.17761 4.04930 3.63965
# Velocity P-wave (km/s) = 4.70397 6.62602 5.74593
#
# Compressibility (1/GPa) = 0.04653313
#
# Stress axis : x y z
#
# Youngs Moduli (GPa) = 175.93832 27.83855 61.84305
#
# Poissons Ratio (x) = 0.08915 0.24195
# Poissons Ratio (y) = 0.56345 -0.09239
# Poissons Ratio (z) = 0.68833 -0.04159
#
# Static dielectric constant tensor:
#      x y z
#    x 7.034950 0.000000 0.061580 
#    y 0.000000 4.099940 0.000000 
#    z 0.061580 0.000000 4.664100 
# 
# 
# High freq. dielectric constant tensor:
#      x y z
#    x 2.032670 0.000000 -0.005380 
#    y 0.000000 1.944800 0.000000 
#    z -0.005380 0.000000 1.984370 
# 
# From -- ./inp_files/151666.got.cif
#   From: 2010.06.25/outbox.cif.g09.slc.cpg/sg15_76_cif.got.tgz:151666.got - 2010.06.28 07:06:18.
