data_PCOD8138430
_publ_section_title
;
Structure prediction by ZEFSAII (Michael W. Deem and Ramdas Pophale) SiO2 
 PCOD8138430
Probable space group: C 2/C
;
_chemical_formula_sum "Si O2"
_cell_formula_units_Z 40
_cell_length_a 18.938966
_cell_length_b 11.938878
_cell_length_c 21.835534
_cell_angle_alpha 90.000000
_cell_angle_beta 22.259993
_cell_angle_gamma 90.000000
_cell_volume 1870.273293
_symmetry_space_group_name_H-M "C 2/C"
_symmetry_group_IT_number 15
_symmetry_cell_setting 'monoclinic'
loop_
_space_group_symop_operation_xyz
x,y,z
-x,y,1/2-z
-x,-y,-z
x,-y,1/2+z
1/2+x,1/2+y,z
1/2-x,1/2+y,1/2-z
1/2-x,1/2-y,-z
1/2+x,1/2-y,1/2+z
loop_
_atom_site_type_symbol
_atom_site_label
_atom_site_fract_x
_atom_site_fract_y
_atom_site_fract_z
Si Si1 0.403534 0.091417 0.212033
Si Si2 0.088651 0.369054 0.241120
Si Si3 0.006693 0.196566 0.409494
Si Si4 0.780993 0.503794 0.193077
Si Si5 0.164696 0.289396 0.406143
O O1 0.287649 0.190668 0.337296
O O2 0.479742 0.999922 0.198612
O O3 0.266937 0.017005 0.277741
O O4 0.557588 0.152785 0.047487
O O5 0.008546 0.302009 0.362989
O O6 0.000000 0.320561 0.250000
O O7 0.311082 0.365322 0.059826
O O8 0.032724 0.239239 0.458471
O O9 0.167217 0.109707 0.257284
O O10 0.700768 0.384478 0.233628
O O11 0.000000 0.500000 0.000000
#
# Coordination Sequence:
#
# PCOD8138430 Si02
#       5
#     8   8   8   8   8
#     4  10  22  36  62  92 126 153 205 251 320 366
#     4  12  26  43  60  88 129 173 216 250 294 377
#     4  11  23  40  67  93 125 163 209 258 322 361
#     4   9  18  35  62  93 124 148 192 260 319 363
#     4  10  20  37  64  95 123 151 194 272 319 367
#
# _framework density 21.387250000000002
#
# number of rings (size 3 to 8) (size 9 to 14) (size 15 to 20)
#    0.000    1.600    2.000    4.200    5.600    1.600 
#    0.000    1.000    0.000    0.000    0.000    0.000 
#    0.000    0.000    0.000    0.000    0.000    0.000 
#
# Total GULP energy -247801.193969 kJ/mol
# GULP energy per Si atom -12390.059698 kJ/mol
# Density = 2.133857 g / cm^3
# Si number density = 21.387250 Si / 1000 Ang^3
#
#
#
# Elastic Constant Matrix: (Units=GPa)
#
#
# Indices 1 2 3 4 5 6 
#
# 1 42.9518 16.1959 22.1302 -0.0175 5.8029 -0.0061
# 2 16.1959 132.8408 46.4001 0.0276 -1.2976 0.0001
# 3 22.1302 46.4001 95.9440 0.0067 7.0498 -0.0024
# 4 -0.0175 0.0276 0.0067 39.9452 0.0124 3.1036
# 5 5.8029 -1.2976 7.0498 0.0124 10.2369 0.0058
# 6 -0.0061 0.0001 -0.0024 3.1036 0.0058 18.3112
#
#
#
# Elastic Compliance Matrix: (Units=1/GPa)
#
#
# Indices 1 2 3 4 5 6 
#
# 1 0.028145 -0.001957 -0.004587 0.000018 -0.013043 0.000010
# 2 -0.001957 0.009385 -0.004483 -0.000008 0.005386 -0.000002
# 3 -0.004587 -0.004483 0.014219 0.000001 -0.007760 0.000003
# 4 0.000018 -0.000008 0.000001 0.025368 -0.000040 -0.004300
# 5 -0.013043 0.005386 -0.007760 -0.000040 0.111107 -0.000034
# 6 0.000010 -0.000002 0.000003 -0.004300 -0.000034 0.055340
#
#
# Mechanical properties :
#
#
# Convention : Reuss Voigt Hill
#
# Bulk Modulus (GPa) = 33.67526 49.02101 41.34814
# Shear Modulus (GPa) = 18.14769 26.16602 22.15685
#
# Velocity S-wave (km/s) = 2.91611 3.50157 3.22216
# Velocity P-wave (km/s) = 5.20749 6.27044 5.76352
#
# Compressibility (1/GPa) = 0.02969539
#
# Stress axis : x y z
#
# Youngs Moduli (GPa) = 35.52970 106.55430 70.32765
#
# Poissons Ratio (x) = 0.20848 0.32262
# Poissons Ratio (y) = 0.06952 0.31529
# Poissons Ratio (z) = 0.16299 0.47770
#
# Static dielectric constant tensor:
#      x y z
#    x 3.471190 0.000010 0.050240 
#    y 0.000010 4.814700 0.000040 
#    z 0.050240 0.000040 3.675840 
# 
# 
# High freq. dielectric constant tensor:
#      x y z
#    x 1.785770 0.000000 0.016330 
#    y 0.000000 1.871120 0.000010 
#    z 0.016330 0.000010 1.826280 
# 
# From -- ./inp_files/46239.got.cif
#   From: 2010.06.25/outbox.cif.g09.slc.cpg/sg15_24_cif.got.tgz:46239.got - 2010.06.28 07:06:18.
