data_PCOD8138009
_publ_section_title
;
Structure prediction by ZEFSAII (Michael W. Deem and Ramdas Pophale) SiO2 
 PCOD8138009
Probable space group: C 2/C
;
_chemical_formula_sum "Si O2"
_cell_formula_units_Z 56
_cell_length_a 24.087456
_cell_length_b 22.227830
_cell_length_c 8.288601
_cell_angle_alpha 90.000000
_cell_angle_beta 41.436343
_cell_angle_gamma 90.000000
_cell_volume 2936.890912
_symmetry_space_group_name_H-M "C 2/C"
_symmetry_group_IT_number 15
_symmetry_cell_setting 'monoclinic'
loop_
_space_group_symop_operation_xyz
x,y,z
-x,y,1/2-z
-x,-y,-z
x,-y,1/2+z
1/2+x,1/2+y,z
1/2-x,1/2+y,1/2-z
1/2-x,1/2-y,-z
1/2+x,1/2-y,1/2+z
loop_
_atom_site_type_symbol
_atom_site_label
_atom_site_fract_x
_atom_site_fract_y
_atom_site_fract_z
Si Si1 0.664822 0.422702 0.987893
Si Si2 0.373262 0.751836 0.587119
Si Si3 0.741544 0.834393 0.513042
Si Si4 0.757642 0.518324 0.002198
Si Si5 0.500000 0.846898 0.750000
Si Si6 0.535825 0.740509 0.433541
Si Si7 0.500000 0.363082 0.250000
Si Si8 0.660571 0.923883 0.469054
O O1 0.700776 0.439291 0.735870
O O2 0.702463 0.359824 0.964765
O O3 0.690675 0.475631 0.055612
O O4 0.565507 0.408927 0.191435
O O5 0.288181 0.717632 0.814293
O O6 0.450706 0.728285 0.521828
O O7 0.389941 0.747837 0.359320
O O8 0.348179 0.818134 0.707366
O O9 0.729132 0.881271 0.398086
O O10 0.831968 0.484435 0.939213
O O11 0.810323 0.562032 0.773879
O O12 0.535314 0.802919 0.533859
O O13 0.570405 0.891769 0.666165
O O14 0.548090 0.681459 0.518748
#
# Coordination Sequence:
#
# PCOD8138009 Si02
#       8
#     8   8   8   8   4   8   4   8
#     4  10  21  39  59  83 114 148 190 241 285 331
#     4  10  20  37  56  85 118 155 191 224 276 352
#     4  10  20  37  60  84 112 159 186 232 278 342
#     4   9  22  41  60  82 110 145 204 239 276 336
#     4  11  22  38  58  88 120 148 182 237 288 336
#     4  10  22  37  54  91 122 147 185 234 272 358
#     4  11  22  38  58  88 120 148 182 237 288 336
#     4  10  21  39  59  83 114 148 190 241 285 331
#
# _framework density 19.067782000000001
#
# number of rings (size 3 to 8) (size 9 to 14) (size 15 to 20)
#    0.000    2.000    2.857    0.000    4.000    1.143 
#    0.000    1.429    0.000    0.000    0.000    0.000 
#    0.000    0.000    0.000    0.000    0.000    0.000 
#
# Total GULP energy -346937.636354 kJ/mol
# GULP energy per Si atom -12390.629870 kJ/mol
# Density = 1.902438 g / cm^3
# Si number density = 19.067782 Si / 1000 Ang^3
#
#
#
# Elastic Constant Matrix: (Units=GPa)
#
#
# Indices 1 2 3 4 5 6 
#
# 1 85.4768 27.4599 41.6013 0.0000 4.7902 0.0000
# 2 27.4599 67.7960 47.3794 0.0000 6.7343 0.0000
# 3 41.6013 47.3794 122.8473 0.0000 21.5392 0.0000
# 4 0.0000 0.0000 0.0000 -0.1623 0.0000 28.7740
# 5 4.7902 6.7343 21.5392 0.0000 37.6236 0.0000
# 6 0.0000 0.0000 0.0000 28.7740 0.0000 -7.2771
#
#
#
# Elastic Compliance Matrix: (Units=1/GPa)
#
#
# Indices 1 2 3 4 5 6 
#
# 1 0.014573 -0.003330 -0.003813 0.000000 0.000923 0.000000
# 2 -0.003330 0.020983 -0.007093 0.000000 0.000729 0.000000
# 3 -0.003813 -0.007093 0.013182 0.000000 -0.005792 0.000000
# 4 0.000000 0.000000 0.000000 0.008802 0.000000 0.034803
# 5 0.000923 0.000729 -0.005792 0.000000 0.029647 0.000000
# 6 0.000000 0.000000 0.000000 0.034803 0.000000 0.000196
#
#
# Mechanical properties :
#
#
# Convention : Reuss Voigt Hill
#
# Bulk Modulus (GPa) = 49.33947 56.55570 52.94758
# Shear Modulus (GPa) = 40.77971 16.68214 28.73093
#
# Velocity S-wave (km/s) = 4.62959 2.96106 3.88594
# Velocity P-wave (km/s) = 7.38306 6.43546 6.92549
#
# Compressibility (1/GPa) = 0.02026775
#
# Stress axis : x y z
#
# Youngs Moduli (GPa) = 68.62195 47.65675 75.85881
#
# Poissons Ratio (x) = 0.15868 0.28922
# Poissons Ratio (y) = 0.22849 0.53807
# Poissons Ratio (z) = 0.26163 0.33803
#
# Static dielectric constant tensor:
#      x y z
#    x 3.609720 0.000000 0.150760 
#    y 0.000000 3.615790 0.000000 
#    z 0.150760 0.000000 3.425100 
# 
# 
# High freq. dielectric constant tensor:
#      x y z
#    x 1.749520 0.000000 0.011010 
#    y 0.000000 1.742980 0.000000 
#    z 0.011010 0.000000 1.729860 
# 
# From -- ./inp_files/41301.got.cif
#   From: 2010.06.25/outbox.cif.g09.slc.cpg/sg15_21_cif.got.tgz:41301.got - 2010.06.28 07:06:18.
