data_PCOD8138925
_publ_section_title
;
Structure prediction by ZEFSAII (Michael W. Deem and Ramdas Pophale) SiO2 
 PCOD8138925
Probable space group: C 2/C
;
_chemical_formula_sum "Si O2"
_cell_formula_units_Z 64
_cell_length_a 25.031749
_cell_length_b 9.176675
_cell_length_c 13.817649
_cell_angle_alpha 90.000000
_cell_angle_beta 111.365522
_cell_angle_gamma 90.000000
_cell_volume 2955.893258
_symmetry_space_group_name_H-M "C 2/C"
_symmetry_group_IT_number 15
_symmetry_cell_setting 'monoclinic'
loop_
_space_group_symop_operation_xyz
x,y,z
-x,y,1/2-z
-x,-y,-z
x,-y,1/2+z
1/2+x,1/2+y,z
1/2-x,1/2+y,1/2-z
1/2-x,1/2-y,-z
1/2+x,1/2-y,1/2+z
loop_
_atom_site_type_symbol
_atom_site_label
_atom_site_fract_x
_atom_site_fract_y
_atom_site_fract_z
Si Si1 0.929171 0.840701 0.868679
Si Si2 0.049888 0.853780 0.207523
Si Si3 0.330042 0.565894 0.430332
Si Si4 0.673716 0.606780 0.856515
Si Si5 0.150842 0.725634 0.036338
Si Si6 0.836707 0.234515 0.172069
Si Si7 0.243001 0.285689 0.747837
Si Si8 0.972414 0.657381 0.479747
O O1 0.883858 0.839882 0.927201
O O2 0.900813 0.752910 0.758983
O O3 0.987748 0.764032 0.933331
O O4 0.945175 0.006408 0.857120
O O5 0.110469 0.826179 0.299359
O O6 0.000000 0.883931 0.250000
O O7 0.034143 0.712026 0.134449
O O8 0.311102 0.630813 0.521050
O O9 0.349772 0.398518 0.445982
O O10 0.276369 0.580969 0.321751
O O11 0.676680 0.436892 0.836663
O O12 0.718615 0.683881 0.815946
O O13 0.193993 0.652893 0.142594
O O14 0.168943 0.692543 0.937323
O O15 0.089118 0.654301 0.009651
O O16 0.788294 0.305154 0.210047
O O17 0.000000 0.500000 0.500000
#
# Coordination Sequence:
#
# PCOD8138925 Si02
#       8
#     8   8   8   8   8   8   8   8
#     4  10  21  41  69 101 128 172 235 283 331 410
#     4  11  22  40  73 102 132 176 231 289 338 407
#     4  10  21  39  69  99 125 170 233 284 337 402
#     4  10  20  38  63 101 129 164 225 287 344 393
#     4  11  22  43  66  93 132 177 229 279 337 404
#     4   9  22  38  66  98 124 173 231 278 332 412
#     4  11  19  38  62  95 137 164 214 287 346 389
#     4  12  26  44  65  96 146 185 216 282 356 413
#
# _framework density 21.651662999999999
#
# number of rings (size 3 to 8) (size 9 to 14) (size 15 to 20)
#    0.000    1.500    2.500    3.375    5.250    0.000 
#   11.250    0.000    8.250    0.000    0.000    0.000 
#    0.000    0.000    0.000    0.000    0.000    0.000 
#
# Total GULP energy -396752.339151 kJ/mol
# GULP energy per Si atom -12398.510598 kJ/mol
# Density = 2.160238 g / cm^3
# Si number density = 21.651663 Si / 1000 Ang^3
#
#
#
# Elastic Constant Matrix: (Units=GPa)
#
#
# Indices 1 2 3 4 5 6 
#
# 1 156.6221 37.4293 73.0662 0.0000 -5.8549 0.0000
# 2 37.4293 48.3131 34.5586 0.0000 2.1392 0.0000
# 3 73.0662 34.5586 161.7582 0.0000 -4.9547 0.0000
# 4 0.0000 0.0000 0.0000 21.9111 0.0000 3.4524
# 5 -5.8549 2.1392 -4.9547 0.0000 44.7606 0.0000
# 6 0.0000 0.0000 0.0000 3.4524 0.0000 30.3139
#
#
#
# Elastic Compliance Matrix: (Units=1/GPa)
#
#
# Indices 1 2 3 4 5 6 
#
# 1 0.008981 -0.004872 -0.002983 0.000000 0.001077 0.000000
# 2 -0.004872 0.027212 -0.003685 0.000000 -0.002346 0.000000
# 3 -0.002983 -0.003685 0.008338 0.000000 0.000709 0.000000
# 4 0.000000 0.000000 0.000000 0.046473 0.000000 -0.005293
# 5 0.001077 -0.002346 0.000709 0.000000 0.022673 0.000000
# 6 0.000000 0.000000 0.000000 -0.005293 0.000000 0.033591
#
#
# Mechanical properties :
#
#
# Convention : Reuss Voigt Hill
#
# Bulk Modulus (GPa) = 46.61483 72.97797 59.79640
# Shear Modulus (GPa) = 28.16932 34.17307 31.17119
#
# Velocity S-wave (km/s) = 3.61088 3.97711 3.79841
# Velocity P-wave (km/s) = 6.24186 7.40733 6.84943
#
# Compressibility (1/GPa) = 0.02145240
#
# Stress axis : x y z
#
# Youngs Moduli (GPa) = 111.34822 36.74800 119.92697
#
# Poissons Ratio (x) = 0.17903 0.35772
# Poissons Ratio (y) = 0.54246 0.44194
# Poissons Ratio (z) = 0.33213 0.13542
#
# Static dielectric constant tensor:
#      x y z
#    x 4.163970 0.000000 -0.012750 
#    y 0.000000 3.524300 0.000000 
#    z -0.012750 0.000000 4.378100 
# 
# 
# High freq. dielectric constant tensor:
#      x y z
#    x 1.864590 0.000000 -0.000830 
#    y 0.000000 1.806450 0.000000 
#    z -0.000830 0.000000 1.871170 
# 
# From -- ./inp_files/176633.got.cif
#   From: 2010.06.25/outbox.cif.g09.slc.cpg/sg15_89_cif.got.tgz:176633.got - 2010.06.28 07:06:18.
