data_PCOD8138535
_publ_section_title
;
Structure prediction by ZEFSAII (Michael W. Deem and Ramdas Pophale) SiO2 
 PCOD8138535
Probable space group: C 2/C
;
_chemical_formula_sum "Si O2"
_cell_formula_units_Z 56
_cell_length_a 18.305122
_cell_length_b 18.073550
_cell_length_c 13.745427
_cell_angle_alpha 90.000000
_cell_angle_beta 140.363230
_cell_angle_gamma 90.000000
_cell_volume 2900.944481
_symmetry_space_group_name_H-M "C 2/C"
_symmetry_group_IT_number 15
_symmetry_cell_setting 'monoclinic'
loop_
_space_group_symop_operation_xyz
x,y,z
-x,y,1/2-z
-x,-y,-z
x,-y,1/2+z
1/2+x,1/2+y,z
1/2-x,1/2+y,1/2-z
1/2-x,1/2-y,-z
1/2+x,1/2-y,1/2+z
loop_
_atom_site_type_symbol
_atom_site_label
_atom_site_fract_x
_atom_site_fract_y
_atom_site_fract_z
Si Si1 0.571857 0.175018 0.179491
Si Si2 0.739362 0.980650 0.544394
Si Si3 0.127036 0.830415 0.175871
Si Si4 0.877679 0.463301 0.887511
Si Si5 0.478483 0.464801 0.337528
Si Si6 0.197273 0.938251 0.097469
Si Si7 0.834620 0.356169 0.525605
O O1 0.569291 0.249774 0.112240
O O2 0.637476 0.112147 0.186860
O O3 0.638781 0.190195 0.349383
O O4 0.443453 0.146778 0.065995
O O5 0.649606 0.943822 0.527350
O O6 0.752327 0.931433 0.459953
O O7 0.862052 0.987576 0.723394
O O8 0.689750 0.060518 0.463562
O O9 0.031904 0.890175 0.110529
O O10 0.173529 0.856274 0.117301
O O11 0.227408 0.823899 0.358360
O O12 0.786985 0.524338 0.761358
O O13 0.000000 0.500000 0.000000
O O14 0.500000 0.438799 0.250000
O O15 0.581306 0.514096 0.483139
#
# Coordination Sequence:
#
# PCOD8138535 Si02
#       7
#     8   8   8   8   8   8   8
#     4  11  23  35  57  85 122 156 190 242 307 354
#     4  10  20  38  61  86 115 147 202 251 281 349
#     4  11  22  37  56  88 125 150 190 242 304 359
#     4  12  22  37  59  86 117 156 206 242 289 356
#     4   9  20  35  58  88 114 148 192 241 296 346
#     4  11  21  38  61  86 117 157 199 244 292 358
#     4  10  20  38  55  88 118 151 192 249 297 355
#
# _framework density 19.304058999999999
#
# number of rings (size 3 to 8) (size 9 to 14) (size 15 to 20)
#    0.000    1.429    5.714    0.857    2.000    1.714 
#    0.000    0.714    0.000    0.000    3.714    0.000 
#    0.000    0.000    0.000    0.000    0.000    0.000 
#
# Total GULP energy -347183.759418 kJ/mol
# GULP energy per Si atom -12399.419979 kJ/mol
# Density = 1.926012 g / cm^3
# Si number density = 19.304059 Si / 1000 Ang^3
#
#
#
# Elastic Constant Matrix: (Units=GPa)
#
#
# Indices 1 2 3 4 5 6 
#
# 1 143.7635 44.8386 34.8276 0.0000 0.2566 0.0000
# 2 44.8386 66.3330 21.5605 0.0000 -6.4940 0.0000
# 3 34.8276 21.5605 75.7835 0.0000 7.4669 0.0000
# 4 0.0000 0.0000 0.0000 14.3220 0.0000 -7.1461
# 5 0.2566 -6.4940 7.4669 0.0000 21.2285 0.0000
# 6 0.0000 0.0000 0.0000 -7.1461 0.0000 29.3183
#
#
#
# Elastic Compliance Matrix: (Units=1/GPa)
#
#
# Indices 1 2 3 4 5 6 
#
# 1 0.009318 -0.005533 -0.002621 0.000000 -0.000883 0.000000
# 2 -0.005533 0.020962 -0.004205 0.000000 0.007958 0.000000
# 3 -0.002621 -0.004205 0.016284 0.000000 -0.006982 0.000000
# 4 0.000000 0.000000 0.000000 0.079490 0.000000 0.019375
# 5 -0.000883 0.007958 -0.006982 0.000000 0.052008 0.000000
# 6 0.000000 0.000000 0.000000 0.019375 0.000000 0.038831
#
#
# Mechanical properties :
#
#
# Convention : Reuss Voigt Hill
#
# Bulk Modulus (GPa) = 45.77552 54.25926 50.01739
# Shear Modulus (GPa) = 20.08895 25.28399 22.68647
#
# Velocity S-wave (km/s) = 3.22942 3.62301 3.43186
# Velocity P-wave (km/s) = 6.13759 6.75798 6.45524
#
# Compressibility (1/GPa) = 0.02184574
#
# Stress axis : x y z
#
# Youngs Moduli (GPa) = 107.31680 47.70632 61.40895
#
# Poissons Ratio (x) = 0.26397 0.16096
# Poissons Ratio (y) = 0.59382 0.25821
# Poissons Ratio (z) = 0.28128 0.20060
#
# Static dielectric constant tensor:
#      x y z
#    x 3.969890 0.000000 0.145300 
#    y 0.000000 3.208370 0.000000 
#    z 0.145300 0.000000 3.529040 
# 
# 
# High freq. dielectric constant tensor:
#      x y z
#    x 1.768230 0.000000 0.007070 
#    y 0.000000 1.713680 0.000000 
#    z 0.007070 0.000000 1.747740 
# 
# From -- ./inp_files/106637.got.cif
#   From: 2010.06.25/outbox.cif.g09.slc.cpg/sg15_54_cif.got.tgz:106637.got - 2010.06.28 07:06:18.
