data_PCOD8138731
_publ_section_title
;
Structure prediction by ZEFSAII (Michael W. Deem and Ramdas Pophale) SiO2 
 PCOD8138731
Probable space group: C 2/C
;
_chemical_formula_sum "Si O2"
_cell_formula_units_Z 60
_cell_length_a 17.548524
_cell_length_b 12.114247
_cell_length_c 16.321137
_cell_angle_alpha 90.000000
_cell_angle_beta 65.447918
_cell_angle_gamma 90.000000
_cell_volume 3155.950706
_symmetry_space_group_name_H-M "C 2/C"
_symmetry_group_IT_number 15
_symmetry_cell_setting 'monoclinic'
loop_
_space_group_symop_operation_xyz
x,y,z
-x,y,1/2-z
-x,-y,-z
x,-y,1/2+z
1/2+x,1/2+y,z
1/2-x,1/2+y,1/2-z
1/2-x,1/2-y,-z
1/2+x,1/2-y,1/2+z
loop_
_atom_site_type_symbol
_atom_site_label
_atom_site_fract_x
_atom_site_fract_y
_atom_site_fract_z
Si Si1 0.275163 0.376427 0.491744
Si Si2 0.295448 0.931498 0.141756
Si Si3 0.585356 0.563149 0.450416
Si Si4 0.874482 0.350432 0.558945
Si Si5 0.953872 0.294539 0.095164
Si Si6 0.701584 0.371634 0.344349
Si Si7 0.834875 0.439059 0.402306
Si Si8 0.000000 0.618028 0.750000
O O1 0.250000 0.250000 0.500000
O O2 0.269502 0.430518 0.404540
O O3 0.368595 0.396059 0.486250
O O4 0.204634 0.438987 0.576874
O O5 0.371530 0.848502 0.094154
O O6 0.240664 0.882576 0.238347
O O7 0.340789 0.051165 0.133467
O O8 0.500000 0.500000 0.500000
O O9 0.559739 0.664479 0.404911
O O10 0.647365 0.481438 0.376683
O O11 0.851912 0.238097 0.615976
O O12 0.834819 0.373281 0.487811
O O13 0.973764 0.343629 0.496568
O O14 0.968464 0.311205 0.186042
O O15 0.777377 0.360614 0.373653
O O16 0.924675 0.456679 0.318543
#
# Coordination Sequence:
#
# PCOD8138731 Si02
#       8
#     8   8   8   8   8   8   8   4
#     4  10  21  40  64  85 123 168 208 244 314 382
#     4  11  23  38  63  93 120 162 209 262 301 373
#     4  11  23  43  63  88 123 171 208 252 318 393
#     4  10  22  38  61  89 123 164 204 252 308 374
#     4  11  21  41  65  88 127 159 210 253 318 370
#     4  11  22  38  60  91 125 160 206 255 311 363
#     4   9  20  36  61  90 120 160 204 253 306 370
#     4  10  20  38  60  98 118 150 204 270 308 346
#
# _framework density 19.011703000000001
#
# number of rings (size 3 to 8) (size 9 to 14) (size 15 to 20)
#    0.000    1.600    4.000    0.800    1.867    0.000 
#    2.400    0.000    0.000    0.000    0.000    0.000 
#    0.000    0.000    0.000    0.000    0.000    0.000 
#
# Total GULP energy -371698.195340 kJ/mol
# GULP energy per Si atom -12389.939845 kJ/mol
# Density = 1.896843 g / cm^3
# Si number density = 19.011703 Si / 1000 Ang^3
#
#
#
# Elastic Constant Matrix: (Units=GPa)
#
#
# Indices 1 2 3 4 5 6 
#
# 1 115.2819 31.4937 44.8115 0.0000 -4.4633 0.0000
# 2 31.4937 102.2041 37.3968 0.0000 0.4770 0.0000
# 3 44.8115 37.3968 114.4789 0.0000 -9.5816 0.0000
# 4 0.0000 0.0000 0.0000 21.8752 0.0000 -4.4594
# 5 -4.4633 0.4770 -9.5816 0.0000 23.8914 0.0000
# 6 0.0000 0.0000 0.0000 -4.4594 0.0000 31.3161
#
#
#
# Elastic Compliance Matrix: (Units=1/GPa)
#
#
# Indices 1 2 3 4 5 6 
#
# 1 0.010582 -0.002008 -0.003433 0.000000 0.000640 0.000000
# 2 -0.002008 0.011564 -0.003148 0.000000 -0.001868 0.000000
# 3 -0.003433 -0.003148 0.011443 0.000000 0.004011 0.000000
# 4 0.000000 0.000000 0.000000 0.047080 0.000000 0.006704
# 5 0.000640 -0.001868 0.004011 0.000000 0.043621 0.000000
# 6 0.000000 0.000000 0.000000 0.006704 0.000000 0.032887
#
#
# Mechanical properties :
#
#
# Convention : Reuss Voigt Hill
#
# Bulk Modulus (GPa) = 60.93213 62.15208 61.54210
# Shear Modulus (GPa) = 27.80479 29.96742 28.88610
#
# Velocity S-wave (km/s) = 3.82843 3.97452 3.90216
# Velocity P-wave (km/s) = 7.18762 7.33655 7.26246
#
# Compressibility (1/GPa) = 0.01641170
#
# Stress axis : x y z
#
# Youngs Moduli (GPa) = 94.49989 86.47840 87.38980
#
# Poissons Ratio (x) = 0.17362 0.29999
# Poissons Ratio (y) = 0.18973 0.27510
# Poissons Ratio (z) = 0.32440 0.27223
#
# Static dielectric constant tensor:
#      x y z
#    x 3.357380 0.000000 0.061370 
#    y 0.000000 3.825850 0.000000 
#    z 0.061370 0.000000 3.439020 
# 
# 
# High freq. dielectric constant tensor:
#      x y z
#    x 1.750770 0.000000 -0.004070 
#    y 0.000000 1.740540 0.000000 
#    z -0.004070 0.000000 1.732170 
# 
# From -- ./inp_files/210604.got.cif
#   From: 2010.06.25/outbox.cif.g09.slc.cpg/sg15_106_cif.got.tgz:210604.got - 2010.06.28 07:06:18.
