data_PCOD8138887
_publ_section_title
;
Structure prediction by ZEFSAII (Michael W. Deem and Ramdas Pophale) SiO2 
 PCOD8138887
Probable space group: C 2/C
;
_chemical_formula_sum "Si O2"
_cell_formula_units_Z 56
_cell_length_a 14.399578
_cell_length_b 18.538705
_cell_length_c 17.462136
_cell_angle_alpha 90.000000
_cell_angle_beta 37.141588
_cell_angle_gamma 90.000000
_cell_volume 2814.557368
_symmetry_space_group_name_H-M "C 2/C"
_symmetry_group_IT_number 15
_symmetry_cell_setting 'monoclinic'
loop_
_space_group_symop_operation_xyz
x,y,z
-x,y,1/2-z
-x,-y,-z
x,-y,1/2+z
1/2+x,1/2+y,z
1/2-x,1/2+y,1/2-z
1/2-x,1/2-y,-z
1/2+x,1/2-y,1/2+z
loop_
_atom_site_type_symbol
_atom_site_label
_atom_site_fract_x
_atom_site_fract_y
_atom_site_fract_z
Si Si1 0.674539 0.043711 0.967175
Si Si2 0.097618 0.875116 0.845582
Si Si3 0.548160 0.504387 0.635773
Si Si4 0.326454 0.007561 0.203327
Si Si5 0.116558 0.894650 0.375592
Si Si6 0.799860 0.746829 0.243066
Si Si7 0.658513 0.786661 0.491682
O O1 0.505175 0.015436 0.094180
O O2 0.726892 0.016572 0.848123
O O3 0.696318 0.129284 0.958499
O O4 0.767184 0.004905 0.975429
O O5 0.179915 0.799318 0.767584
O O6 0.014891 0.922200 0.833622
O O7 0.245319 0.918363 0.780064
O O8 0.970913 0.863355 0.994117
O O9 0.500000 0.536938 0.750000
O O10 0.500894 0.558396 0.598970
O O11 0.257900 0.947200 0.306115
O O12 0.200879 0.829786 0.278292
O O13 0.722027 0.741650 0.377710
O O14 0.975064 0.719204 0.123860
O O15 0.750000 0.750000 0.500000
#
# Coordination Sequence:
#
# PCOD8138887 Si02
#       7
#     8   8   8   8   8   8   8
#     4  11  21  36  65  95 119 161 206 262 308 375
#     4  11  23  40  60  92 124 170 207 255 317 378
#     4  11  20  39  64  92 124 159 211 260 316 374
#     4  10  20  38  62  91 120 160 215 251 312 368
#     4  11  22  41  62  88 127 166 212 255 315 382
#     4  12  23  41  61  89 129 171 207 252 317 387
#     4  12  24  40  61  96 135 162 205 258 324 384
#
# _framework density 19.896557000000001
#
# number of rings (size 3 to 8) (size 9 to 14) (size 15 to 20)
#    0.000    0.857    7.143    3.000    0.000    0.000 
#    0.000    2.857    0.000    3.429    0.000    0.000 
#    0.000    0.000    0.000    0.000    0.000    0.000 
#
# Total GULP energy -346877.119477 kJ/mol
# GULP energy per Si atom -12388.468553 kJ/mol
# Density = 1.985127 g / cm^3
# Si number density = 19.896557 Si / 1000 Ang^3
#
#
#
# Elastic Constant Matrix: (Units=GPa)
#
#
# Indices 1 2 3 4 5 6 
#
# 1 61.3939 44.6144 20.1303 -0.0009 -17.4697 0.0001
# 2 44.6144 90.1987 19.8520 -0.0015 -10.9915 0.0004
# 3 20.1303 19.8520 104.5149 -0.0029 -10.5514 0.0007
# 4 -0.0009 -0.0015 -0.0029 33.9821 0.0013 -4.2309
# 5 -17.4697 -10.9915 -10.5514 0.0013 22.3034 -0.0005
# 6 0.0001 0.0004 0.0007 -4.2309 -0.0005 26.6220
#
#
#
# Elastic Compliance Matrix: (Units=1/GPa)
#
#
# Indices 1 2 3 4 5 6 
#
# 1 0.031161 -0.012920 -0.001813 0.000000 0.017183 0.000000
# 2 -0.012920 0.017460 -0.001030 0.000000 -0.002003 0.000000
# 3 -0.001813 -0.001030 0.010416 0.000001 0.003000 0.000000
# 4 0.000000 0.000000 0.000001 0.030021 -0.000002 0.004771
# 5 0.017183 -0.002003 0.003000 -0.000002 0.058727 0.000001
# 6 0.000000 0.000000 0.000000 0.004771 0.000001 0.038321
#
#
# Mechanical properties :
#
#
# Convention : Reuss Voigt Hill
#
# Bulk Modulus (GPa) = 36.35015 47.25566 41.80290
# Shear Modulus (GPa) = 22.04560 28.01555 25.03058
#
# Velocity S-wave (km/s) = 3.33229 3.75648 3.55073
# Velocity P-wave (km/s) = 5.75454 6.52818 6.15353
#
# Compressibility (1/GPa) = 0.02751021
#
# Stress axis : x y z
#
# Youngs Moduli (GPa) = 32.09144 57.27431 96.00872
#
# Poissons Ratio (x) = 0.73999 0.17407
# Poissons Ratio (y) = 0.41462 0.09890
# Poissons Ratio (z) = 0.05818 0.05900
#
# Static dielectric constant tensor:
#      x y z
#    x 3.605340 0.000000 -0.216510 
#    y 0.000000 3.731990 0.000000 
#    z -0.216510 0.000000 3.852100 
# 
# 
# High freq. dielectric constant tensor:
#      x y z
#    x 1.742530 0.000000 -0.021610 
#    y 0.000000 1.779580 0.000000 
#    z -0.021610 0.000000 1.798920 
# 
# From -- ./inp_files/206242.got.cif
#   From: 2010.06.25/outbox.cif.g09.slc.cpg/sg15_104_cif.got.tgz:206242.got - 2010.06.28 07:06:18.
