data_PCOD8138439
_publ_section_title
;
Structure prediction by ZEFSAII (Michael W. Deem and Ramdas Pophale) SiO2 
 PCOD8138439
Probable space group: C 2/C
;
_chemical_formula_sum "Si O2"
_cell_formula_units_Z 40
_cell_length_a 13.639114
_cell_length_b 17.743853
_cell_length_c 12.380899
_cell_angle_alpha 90.000000
_cell_angle_beta 144.052539
_cell_angle_gamma 90.000000
_cell_volume 1758.961358
_symmetry_space_group_name_H-M "C 2/C"
_symmetry_group_IT_number 15
_symmetry_cell_setting 'monoclinic'
loop_
_space_group_symop_operation_xyz
x,y,z
-x,y,1/2-z
-x,-y,-z
x,-y,1/2+z
1/2+x,1/2+y,z
1/2-x,1/2+y,1/2-z
1/2-x,1/2-y,-z
1/2+x,1/2-y,1/2+z
loop_
_atom_site_type_symbol
_atom_site_label
_atom_site_fract_x
_atom_site_fract_y
_atom_site_fract_z
Si Si1 0.281816 0.970139 0.152102
Si Si2 0.097685 0.171839 0.540009
Si Si3 0.765419 0.804374 0.619939
Si Si4 0.640141 0.971954 0.516412
Si Si5 0.963556 0.942489 0.343886
O O1 0.443790 0.989551 0.373351
O O2 0.332630 0.000524 0.080662
O O3 0.239956 0.881203 0.112598
O O4 0.109336 0.010576 0.032848
O O5 0.954724 0.177352 0.321067
O O6 0.178606 0.253323 0.635808
O O7 0.036532 0.139432 0.600575
O O8 0.750000 0.750000 0.500000
O O9 0.663688 0.882039 0.531155
O O10 0.782623 0.017695 0.710653
O O11 0.000000 0.934720 0.250000
#
# Coordination Sequence:
#
# PCOD8138439 Si02
#       5
#     8   8   8   8   8
#     4  10  20  37  64  97 129 167 216 271 335 394
#     4  12  24  41  63  97 135 177 222 271 338 408
#     4  12  24  38  62  98 137 172 213 271 345 407
#     4  10  21  39  65  97 133 172 213 279 337 393
#     4  10  23  45  67  92 130 178 228 277 326 387
#
# _framework density 22.740693
#
# number of rings (size 3 to 8) (size 9 to 14) (size 15 to 20)
#    0.000    1.200    4.000    2.400    2.800    0.800 
#    3.600    1.000    0.000    0.000    0.000    0.000 
#    0.000    0.000    0.000    0.000    0.000    0.000 
#
# Total GULP energy -247837.881297 kJ/mol
# GULP energy per Si atom -12391.894065 kJ/mol
# Density = 2.268893 g / cm^3
# Si number density = 22.740693 Si / 1000 Ang^3
#
#
#
# Elastic Constant Matrix: (Units=GPa)
#
#
# Indices 1 2 3 4 5 6 
#
# 1 80.2600 26.6318 74.8091 0.0000 18.2056 0.0000
# 2 26.6318 112.3391 56.1833 0.0000 0.1206 0.0000
# 3 74.8091 56.1833 204.2857 0.0000 11.5218 0.0000
# 4 0.0000 0.0000 0.0000 38.7206 0.0000 1.6938
# 5 18.2056 0.1206 11.5218 0.0000 42.7794 0.0000
# 6 0.0000 0.0000 0.0000 1.6938 0.0000 36.0963
#
#
#
# Elastic Compliance Matrix: (Units=1/GPa)
#
#
# Indices 1 2 3 4 5 6 
#
# 1 0.020962 -0.001533 -0.006856 0.000000 -0.007070 0.000000
# 2 -0.001533 0.010457 -0.002386 0.000000 0.001266 0.000000
# 3 -0.006856 -0.002386 0.008019 0.000000 0.000765 0.000000
# 4 0.000000 0.000000 0.000000 0.025879 0.000000 -0.001214
# 5 -0.007070 0.001266 0.000765 0.000000 0.026175 0.000000
# 6 0.000000 0.000000 0.000000 -0.001214 0.000000 0.027761
#
#
# Mechanical properties :
#
#
# Convention : Reuss Voigt Hill
#
# Bulk Modulus (GPa) = 55.90276 79.12590 67.51433
# Shear Modulus (GPa) = 34.06800 39.46997 36.76898
#
# Velocity S-wave (km/s) = 3.87474 4.17064 4.02541
# Velocity P-wave (km/s) = 6.68238 7.61989 7.16648
#
# Compressibility (1/GPa) = 0.01788821
#
# Stress axis : x y z
#
# Youngs Moduli (GPa) = 47.70480 95.63040 124.70714
#
# Poissons Ratio (x) = 0.14661 0.85499
# Poissons Ratio (y) = 0.07313 0.29754
# Poissons Ratio (z) = 0.32706 0.22816
#
# Static dielectric constant tensor:
#      x y z
#    x 4.177700 0.000000 0.230250 
#    y 0.000000 4.062500 0.000000 
#    z 0.230250 0.000000 4.661720 
# 
# 
# High freq. dielectric constant tensor:
#      x y z
#    x 1.923550 0.000000 0.004190 
#    y 0.000000 1.867140 0.000000 
#    z 0.004190 0.000000 1.930550 
# 
# From -- ./inp_files/155619.got.cif
#   From: 2010.06.25/outbox.cif.g09.slc.cpg/sg15_78_cif.got.tgz:155619.got - 2010.06.28 07:06:18.
