data_PCOD8138120
_publ_section_title
;
Structure prediction by ZEFSAII (Michael W. Deem and Ramdas Pophale) SiO2 
 PCOD8138120
Probable space group: C 2/C
;
_chemical_formula_sum "Si O2"
_cell_formula_units_Z 52
_cell_length_a 16.229503
_cell_length_b 20.189372
_cell_length_c 7.084996
_cell_angle_alpha 90.000000
_cell_angle_beta 81.392985
_cell_angle_gamma 90.000000
_cell_volume 2295.349880
_symmetry_space_group_name_H-M "C 2/C"
_symmetry_group_IT_number 15
_symmetry_cell_setting 'monoclinic'
loop_
_space_group_symop_operation_xyz
x,y,z
-x,y,1/2-z
-x,-y,-z
x,-y,1/2+z
1/2+x,1/2+y,z
1/2-x,1/2+y,1/2-z
1/2-x,1/2-y,-z
1/2+x,1/2-y,1/2+z
loop_
_atom_site_type_symbol
_atom_site_label
_atom_site_fract_x
_atom_site_fract_y
_atom_site_fract_z
Si Si1 0.028366 0.342269 0.957911
Si Si2 0.500000 0.397217 0.750000
Si Si3 0.555231 0.696698 0.912618
Si Si4 0.371584 0.088315 0.612967
Si Si5 0.154256 0.558731 0.304453
Si Si6 0.310115 0.600169 0.757780
Si Si7 0.663878 0.458190 0.840038
O O1 0.063084 0.269784 0.001514
O O2 0.104542 0.394088 0.968668
O O3 0.000000 0.346520 0.750000
O O4 0.951010 0.363636 0.121585
O O5 0.506965 0.351730 0.566117
O O6 0.581656 0.441799 0.748560
O O7 0.500000 0.704987 0.750000
O O8 0.644636 0.666778 0.826249
O O9 0.355508 0.088758 0.396838
O O10 0.287550 0.116384 0.737118
O O11 0.387755 0.013701 0.678016
O O12 0.253293 0.556148 0.317335
O O13 0.337570 0.537268 0.620275
O O14 0.333336 0.582230 0.966328
#
# Coordination Sequence:
#
# PCOD8138120 Si02
#       7
#     8   4   8   8   8   8   8
#     4   9  19  38  59  84 118 162 200 238 297 362
#     4  12  24  40  60  86 124 160 204 248 292 358
#     4  11  23  41  59  86 122 164 202 240 297 356
#     4   9  18  35  61  89 118 153 197 245 299 354
#     4   9  18  36  58  89 120 149 196 252 296 350
#     4  10  20  37  59  89 120 156 194 252 301 348
#     4  10  21  35  59  90 117 152 203 249 300 353
#
# _framework density 22.654499000000001
#
# number of rings (size 3 to 8) (size 9 to 14) (size 15 to 20)
#    0.000    2.154    1.538    1.385    1.077    2.462 
#    5.538    3.846    0.000    0.000    0.000    0.000 
#    0.000    0.000    0.000    0.000    0.000    0.000 
#
# Total GULP energy -322326.724705 kJ/mol
# GULP energy per Si atom -12397.181719 kJ/mol
# Density = 2.260294 g / cm^3
# Si number density = 22.654499 Si / 1000 Ang^3
#
#
#
# Elastic Constant Matrix: (Units=GPa)
#
#
# Indices 1 2 3 4 5 6 
#
# 1 162.6635 107.8298 28.6810 0.0000 -23.9301 0.0000
# 2 107.8298 167.5211 19.1113 0.0000 -30.9077 0.0000
# 3 28.6810 19.1113 23.0380 0.0000 -13.4850 0.0000
# 4 0.0000 0.0000 0.0000 57.0824 0.0000 -65.1842
# 5 -23.9301 -30.9077 -13.4850 0.0000 36.1653 0.0000
# 6 0.0000 0.0000 0.0000 -65.1842 0.0000 141.3752
#
#
#
# Elastic Compliance Matrix: (Units=1/GPa)
#
#
# Indices 1 2 3 4 5 6 
#
# 1 0.012526 -0.007180 -0.010717 0.000000 -0.001844 0.000000
# 2 -0.007180 0.011367 0.003089 0.000000 0.006115 0.000000
# 3 -0.010717 0.003089 0.065981 0.000000 0.020151 0.000000
# 4 0.000000 0.000000 0.000000 0.036999 0.000000 0.017059
# 5 -0.001844 0.006115 0.020151 0.000000 0.039170 0.000000
# 6 0.000000 0.000000 0.000000 0.017059 0.000000 0.014939
#
#
# Mechanical properties :
#
#
# Convention : Reuss Voigt Hill
#
# Bulk Modulus (GPa) = 16.59549 73.82966 45.21257
# Shear Modulus (GPa) = 21.67459 60.09795 40.88627
#
# Velocity S-wave (km/s) = 3.09649 5.15613 4.25287
# Velocity P-wave (km/s) = 4.48617 8.25274 6.64204
#
# Compressibility (1/GPa) = 0.06025732
#
# Stress axis : x y z
#
# Youngs Moduli (GPa) = 79.83567 87.97388 15.15580
#
# Poissons Ratio (x) = 0.63167 0.16242
# Poissons Ratio (y) = 0.57324 -0.04681
# Poissons Ratio (z) = 0.85560 -0.27173
#
# Static dielectric constant tensor:
#      x y z
#    x 4.375860 0.000000 -0.268380 
#    y 0.000000 4.151080 0.000000 
#    z -0.268380 0.000000 4.011410 
# 
# 
# High freq. dielectric constant tensor:
#      x y z
#    x 1.898270 0.000000 -0.009940 
#    y 0.000000 1.871140 0.000000 
#    z -0.009940 0.000000 1.902140 
# 
# From -- ./inp_files/40824.got.cif
#   From: 2010.06.25/outbox.cif.g09.slc.cpg/sg15_21_cif.got.tgz:40824.got - 2010.06.28 07:06:18.
