data_PCOD8138452
_publ_section_title
;
Structure prediction by ZEFSAII (Michael W. Deem and Ramdas Pophale) SiO2 
 PCOD8138452
Probable space group: C 2/C
;
_chemical_formula_sum "Si O2"
_cell_formula_units_Z 64
_cell_length_a 16.353623
_cell_length_b 12.385066
_cell_length_c 18.989135
_cell_angle_alpha 90.000000
_cell_angle_beta 128.772840
_cell_angle_gamma 90.000000
_cell_volume 2998.532532
_symmetry_space_group_name_H-M "C 2/C"
_symmetry_group_IT_number 15
_symmetry_cell_setting 'monoclinic'
loop_
_space_group_symop_operation_xyz
x,y,z
-x,y,1/2-z
-x,-y,-z
x,-y,1/2+z
1/2+x,1/2+y,z
1/2-x,1/2+y,1/2-z
1/2-x,1/2-y,-z
1/2+x,1/2-y,1/2+z
loop_
_atom_site_type_symbol
_atom_site_label
_atom_site_fract_x
_atom_site_fract_y
_atom_site_fract_z
Si Si1 0.447483 0.206724 0.647376
Si Si2 0.436840 0.621926 0.028471
Si Si3 0.235349 0.712901 0.860119
Si Si4 0.271857 0.577495 0.228206
Si Si5 0.377619 0.902385 0.326723
Si Si6 0.580529 0.384160 0.477163
Si Si7 0.923591 0.118631 0.772695
Si Si8 0.774329 0.234574 0.358069
O O1 0.500000 0.229390 0.750000
O O2 0.471006 0.314207 0.616333
O O3 0.325717 0.186157 0.599220
O O4 0.502139 0.104786 0.636658
O O5 0.390458 0.506802 0.029210
O O6 0.355315 0.692009 0.940093
O O7 0.536661 0.608568 0.032872
O O8 0.221844 0.838506 0.832647
O O9 0.200438 0.636059 0.777774
O O10 0.156303 0.521407 0.167215
O O11 0.362704 0.487676 0.267381
O O12 0.279651 0.635858 0.306805
O O13 0.361084 0.823580 0.383911
O O14 0.497023 0.336190 0.375951
O O15 0.686968 0.311449 0.544218
O O16 0.841744 0.211519 0.703374
O O17 0.000000 0.087793 0.750000
#
# Coordination Sequence:
#
# PCOD8138452 Si02
#       8
#     8   8   8   8   8   8   8   8
#     4  10  21  35  58  86 127 158 197 262 315 355
#     4  11  21  37  59  97 123 157 218 252 309 383
#     4  10  21  34  59  90 130 158 200 270 316 352
#     4  10  20  37  65  88 122 168 211 248 309 381
#     4   9  18  36  57  86 120 165 207 246 308 374
#     4  11  22  36  68  89 120 171 215 254 308 389
#     4  11  26  41  65  97 127 161 213 268 318 369
#     4  10  20  41  62  90 126 162 209 258 308 377
#
# _framework density 21.343775000000001
#
# number of rings (size 3 to 8) (size 9 to 14) (size 15 to 20)
#    0.000    1.750    1.250    4.875    5.250    0.500 
#    0.000    3.750    2.750    0.000    0.000    0.000 
#    0.000    0.000    0.000    0.000    0.000    0.000 
#
# Total GULP energy -396573.510330 kJ/mol
# GULP energy per Si atom -12392.922198 kJ/mol
# Density = 2.129520 g / cm^3
# Si number density = 21.343775 Si / 1000 Ang^3
#
#
#
# Elastic Constant Matrix: (Units=GPa)
#
#
# Indices 1 2 3 4 5 6 
#
# 1 97.2516 34.4651 10.9253 0.0000 4.1986 0.0000
# 2 34.4651 73.3517 25.6227 0.0000 21.0856 0.0000
# 3 10.9253 25.6227 74.5190 0.0000 17.2036 0.0000
# 4 0.0000 0.0000 0.0000 25.9448 0.0000 1.3025
# 5 4.1986 21.0856 17.2036 0.0000 22.4023 0.0000
# 6 0.0000 0.0000 0.0000 1.3025 0.0000 21.1344
#
#
#
# Elastic Compliance Matrix: (Units=1/GPa)
#
#
# Indices 1 2 3 4 5 6 
#
# 1 0.012663 -0.007134 -0.000493 0.000000 0.004721 0.000000
# 2 -0.007134 0.023230 -0.002677 0.000000 -0.018472 0.000000
# 3 -0.000493 -0.002677 0.016785 0.000000 -0.010278 0.000000
# 4 0.000000 0.000000 0.000000 0.038663 0.000000 -0.002383
# 5 0.004721 -0.018472 -0.010278 0.000000 0.069033 0.000000
# 6 0.000000 0.000000 0.000000 -0.002383 0.000000 0.047463
#
#
# Mechanical properties :
#
#
# Convention : Reuss Voigt Hill
#
# Bulk Modulus (GPa) = 31.18329 43.01650 37.09990
# Shear Modulus (GPa) = 20.90872 25.50358 23.20615
#
# Velocity S-wave (km/s) = 3.13328 3.46048 3.30093
# Velocity P-wave (km/s) = 5.26608 6.01368 5.65226
#
# Compressibility (1/GPa) = 0.03206845
#
# Stress axis : x y z
#
# Youngs Moduli (GPa) = 78.97305 43.04761 59.57730
#
# Poissons Ratio (x) = 0.30712 0.02938
# Poissons Ratio (y) = 0.56342 0.15949
# Poissons Ratio (z) = 0.03895 0.11524
#
# Static dielectric constant tensor:
#      x y z
#    x 4.347690 0.000000 0.109420 
#    y 0.000000 3.852120 0.000000 
#    z 0.109420 0.000000 3.782680 
# 
# 
# High freq. dielectric constant tensor:
#      x y z
#    x 1.829290 0.000000 0.004810 
#    y 0.000000 1.821820 0.000000 
#    z 0.004810 0.000000 1.832600 
# 
# From -- ./inp_files/248638.got.cif
#   From: 2010.06.25/outbox.cif.g09.slc.cpg/sg15_125_cif.got.tgz:248638.got - 2010.06.28 07:06:18.
