data_PCOD8138404
_publ_section_title
;
Structure prediction by ZEFSAII (Michael W. Deem and Ramdas Pophale) SiO2 
 PCOD8138404
Probable space group: C 2/C
;
_chemical_formula_sum "Si O2"
_cell_formula_units_Z 60
_cell_length_a 17.162959
_cell_length_b 8.734172
_cell_length_c 26.672041
_cell_angle_alpha 90.000000
_cell_angle_beta 132.548115
_cell_angle_gamma 90.000000
_cell_volume 2945.551137
_symmetry_space_group_name_H-M "C 2/C"
_symmetry_group_IT_number 15
_symmetry_cell_setting 'monoclinic'
loop_
_space_group_symop_operation_xyz
x,y,z
-x,y,1/2-z
-x,-y,-z
x,-y,1/2+z
1/2+x,1/2+y,z
1/2-x,1/2+y,1/2-z
1/2-x,1/2-y,-z
1/2+x,1/2-y,1/2+z
loop_
_atom_site_type_symbol
_atom_site_label
_atom_site_fract_x
_atom_site_fract_y
_atom_site_fract_z
Si Si1 0.094836 0.923171 0.370491
Si Si2 0.824754 0.813954 0.463457
Si Si3 0.167926 0.826045 0.146248
Si Si4 0.000000 0.877677 0.750000
Si Si5 0.471438 0.608751 0.399331
Si Si6 0.107712 0.670559 0.713132
Si Si7 0.791267 0.506078 0.508311
Si Si8 0.994701 0.631478 0.363603
O O1 0.031984 0.763023 0.341195
O O2 0.086466 0.009980 0.313614
O O3 0.215018 0.895137 0.441941
O O4 0.043415 0.036340 0.388010
O O5 0.792184 0.785242 0.391925
O O6 0.797697 0.662442 0.481264
O O7 0.756620 0.954905 0.457308
O O8 0.951116 0.844767 0.521487
O O9 0.266572 0.838827 0.226491
O O10 0.088100 0.697809 0.132134
O O11 0.115814 0.992536 0.118912
O O12 0.940394 0.772080 0.763592
O O13 0.414735 0.757676 0.351275
O O14 0.057351 0.501507 0.692392
O O15 0.904638 0.427515 0.561531
#
# Coordination Sequence:
#
# PCOD8138404 Si02
#       8
#     8   8   8   4   8   8   8   8
#     4   9  20  38  61  88 125 158 198 255 318 360
#     4  10  20  37  64  89 117 163 214 247 303 379
#     4  11  23  37  61  88 122 162 209 261 304 369
#     4  10  22  40  64  90 122 164 206 256 302 380
#     4   9  19  39  57  81 122 164 202 250 315 365
#     4  11  22  39  62  87 121 169 206 249 313 380
#     4  10  20  38  64  91 121 163 199 258 315 367
#     4  11  23  39  63  90 128 159 205 260 314 362
#
# _framework density 20.369700999999999
#
# number of rings (size 3 to 8) (size 9 to 14) (size 15 to 20)
#    0.000    1.867    1.333    2.400    3.733    1.067 
#    0.000    0.000    0.000    0.000    0.000    0.000 
#    0.000    0.000    0.000    0.000    0.000    0.000 
#
# Total GULP energy -372007.182479 kJ/mol
# GULP energy per Si atom -12400.239416 kJ/mol
# Density = 2.032334 g / cm^3
# Si number density = 20.369701 Si / 1000 Ang^3
#
#
#
# Elastic Constant Matrix: (Units=GPa)
#
#
# Indices 1 2 3 4 5 6 
#
# 1 71.1317 37.3062 42.6690 0.0000 10.8301 0.0000
# 2 37.3062 98.4206 46.7108 0.0000 -3.2009 0.0000
# 3 42.6690 46.7108 126.3931 0.0000 22.1509 0.0000
# 4 0.0000 0.0000 0.0000 0.0688 0.0000 3.7784
# 5 10.8301 -3.2009 22.1509 0.0000 32.8472 0.0000
# 6 0.0000 0.0000 0.0000 3.7784 0.0000 25.9508
#
#
#
# Elastic Compliance Matrix: (Units=1/GPa)
#
#
# Indices 1 2 3 4 5 6 
#
# 1 0.020191 -0.006018 -0.003768 0.000000 -0.004703 0.000000
# 2 -0.006018 0.014835 -0.004595 0.000000 0.006528 0.000000
# 3 -0.003768 -0.004595 0.012183 0.000000 -0.007421 0.000000
# 4 0.000000 0.000000 0.000000 -2.077362 0.000000 0.302462
# 5 -0.004703 0.006528 -0.007421 0.000000 0.037635 0.000000
# 6 0.000000 0.000000 0.000000 0.302462 0.000000 -0.005504
#
#
# Mechanical properties :
#
#
# Convention : Reuss Voigt Hill
#
# Bulk Modulus (GPa) = 54.21160 61.03528 57.62344
# Shear Modulus (GPa) = -2.54698 23.05731 10.25517
#
# Velocity S-wave (km/s) = -1.11941 3.36808 2.24621
# Velocity P-wave (km/s) = 5.00008 6.71968 5.92262
#
# Compressibility (1/GPa) = 0.01844624
#
# Stress axis : x y z
#
# Youngs Moduli (GPa) = 49.52719 67.40959 82.08449
#
# Poissons Ratio (x) = 0.40567 0.30930
# Poissons Ratio (y) = 0.29805 0.37718
# Poissons Ratio (z) = 0.18662 0.30974
#
# Static dielectric constant tensor:
#      x y z
#    x 3.474600 0.000000 0.183940 
#    y 0.000000 3.781840 0.000000 
#    z 0.183940 0.000000 3.930300 
# 
# 
# High freq. dielectric constant tensor:
#      x y z
#    x 1.774460 0.000000 0.014650 
#    y 0.000000 1.799170 0.000000 
#    z 0.014650 0.000000 1.806330 
# 
# From -- ./inp_files/317291.got.cif
#   From: 2010.06.25/outbox.cif.g09.slc.cpg/sg15_159_cif.got.tgz:317291.got - 2010.06.28 07:06:18.
