data_PCOD8138206
_publ_section_title
;
Structure prediction by ZEFSAII (Michael W. Deem and Ramdas Pophale) SiO2 
 PCOD8138206
Probable space group: C 2/C
;
_chemical_formula_sum "Si O2"
_cell_formula_units_Z 48
_cell_length_a 18.688768
_cell_length_b 7.719888
_cell_length_c 14.872833
_cell_angle_alpha 90.000000
_cell_angle_beta 80.518203
_cell_angle_gamma 90.000000
_cell_volume 2116.465209
_symmetry_space_group_name_H-M "C 2/C"
_symmetry_group_IT_number 15
_symmetry_cell_setting 'monoclinic'
loop_
_space_group_symop_operation_xyz
x,y,z
-x,y,1/2-z
-x,-y,-z
x,-y,1/2+z
1/2+x,1/2+y,z
1/2-x,1/2+y,1/2-z
1/2-x,1/2-y,-z
1/2+x,1/2-y,1/2+z
loop_
_atom_site_type_symbol
_atom_site_label
_atom_site_fract_x
_atom_site_fract_y
_atom_site_fract_z
Si Si1 0.081433 0.943217 0.468515
Si Si2 0.419519 0.936935 0.530847
Si Si3 0.155445 0.891093 0.270486
Si Si4 0.083908 0.438862 0.757817
Si Si5 0.689078 0.236948 0.746294
Si Si6 0.323833 0.245636 0.536243
O O1 0.093181 0.752767 0.509924
O O2 0.097144 0.938235 0.358943
O O3 0.132947 0.083842 0.504464
O O4 0.000000 0.000000 0.500000
O O5 0.403999 0.926023 0.639007
O O6 0.500000 0.000000 0.500000
O O7 0.366524 0.074214 0.494669
O O8 0.119289 0.742148 0.213445
O O9 0.230286 0.820513 0.299924
O O10 0.172417 0.068908 0.212218
O O11 0.129751 0.605751 0.715389
O O12 0.000000 0.460817 0.750000
O O13 0.687487 0.242471 0.854712
O O14 0.250000 0.250000 0.500000
#
# Coordination Sequence:
#
# PCOD8138206 Si02
#       6
#     8   8   8   8   8   8
#     4  10  20  38  60  83 116 158 196 237 299 354
#     4  10  20  38  61  81 118 158 191 241 301 346
#     4  10  20  37  61  83 115 158 191 242 300 350
#     4  10  22  38  59  88 117 153 200 246 295 354
#     4  10  20  39  61  83 121 154 196 244 303 353
#     4  10  22  38  60  87 117 154 198 245 293 354
#
# _framework density 22.679324999999999
#
# number of rings (size 3 to 8) (size 9 to 14) (size 15 to 20)
#    0.000    2.000    3.333    0.000    0.000    2.667 
#    0.000    1.667    0.000    0.000    0.000    0.000 
#    0.000    0.000    0.000    0.000    0.000    0.000 
#
# Total GULP energy -297503.127585 kJ/mol
# GULP energy per Si atom -12395.963649 kJ/mol
# Density = 2.262771 g / cm^3
# Si number density = 22.679325 Si / 1000 Ang^3
#
#
#
# Elastic Constant Matrix: (Units=GPa)
#
#
# Indices 1 2 3 4 5 6 
#
# 1 196.3952 98.1434 17.1820 0.0000 4.1195 0.0000
# 2 98.1434 243.8110 21.2468 0.0000 9.4150 0.0000
# 3 17.1820 21.2468 11.1900 0.0000 -4.8077 0.0000
# 4 0.0000 0.0000 0.0000 16.8961 0.0000 -4.9616
# 5 4.1195 9.4150 -4.8077 0.0000 34.5094 0.0000
# 6 0.0000 0.0000 0.0000 -4.9616 0.0000 51.4410
#
#
#
# Elastic Compliance Matrix: (Units=1/GPa)
#
#
# Indices 1 2 3 4 5 6 
#
# 1 0.006760 -0.002066 -0.006980 0.000000 -0.001216 0.000000
# 2 -0.002066 0.005816 -0.008985 0.000000 -0.002592 0.000000
# 3 -0.006980 -0.008985 0.126100 0.000000 0.020852 0.000000
# 4 0.000000 0.000000 0.000000 0.060910 0.000000 0.005875
# 5 -0.001216 -0.002592 0.020852 0.000000 0.032735 0.000000
# 6 0.000000 0.000000 0.000000 0.005875 0.000000 0.020006
#
#
# Mechanical properties :
#
#
# Convention : Reuss Voigt Hill
#
# Bulk Modulus (GPa) = 9.74505 80.50452 45.12478
# Shear Modulus (GPa) = 15.49931 41.55758 28.52845
#
# Velocity S-wave (km/s) = 2.61705 4.28530 3.55054
# Velocity P-wave (km/s) = 3.66581 7.74977 6.06206
#
# Compressibility (1/GPa) = 0.10261624
#
# Stress axis : x y z
#
# Youngs Moduli (GPa) = 147.92028 171.93098 7.93019
#
# Poissons Ratio (x) = 0.35523 0.05535
# Poissons Ratio (y) = 0.30562 0.07125
# Poissons Ratio (z) = 1.03243 1.54473
#
# Static dielectric constant tensor:
#      x y z
#    x 4.607810 0.000000 -1.056880 
#    y 0.000000 4.958830 0.000000 
#    z -1.056880 0.000000 4.471600 
# 
# 
# High freq. dielectric constant tensor:
#      x y z
#    x 1.899960 0.000000 -0.030260 
#    y 0.000000 1.929710 0.000000 
#    z -0.030260 0.000000 1.842650 
# 
# From -- ./inp_files/242004.got.cif
#   From: 2010.06.25/outbox.cif.g09.slc.cpg/sg15_122_cif.got.tgz:242004.got - 2010.06.28 07:06:18.
