data_PCOD8138054
_publ_section_title
;
Structure prediction by ZEFSAII (Michael W. Deem and Ramdas Pophale) SiO2 
 PCOD8138054
Probable space group: C 2/C
;
_chemical_formula_sum "Si O2"
_cell_formula_units_Z 64
_cell_length_a 24.997272
_cell_length_b 25.455235
_cell_length_c 5.180428
_cell_angle_alpha 90.000000
_cell_angle_beta 100.028701
_cell_angle_gamma 90.000000
_cell_volume 3245.999223
_symmetry_space_group_name_H-M "C 2/C"
_symmetry_group_IT_number 15
_symmetry_cell_setting 'monoclinic'
loop_
_space_group_symop_operation_xyz
x,y,z
-x,y,1/2-z
-x,-y,-z
x,-y,1/2+z
1/2+x,1/2+y,z
1/2-x,1/2+y,1/2-z
1/2-x,1/2-y,-z
1/2+x,1/2-y,1/2+z
loop_
_atom_site_type_symbol
_atom_site_label
_atom_site_fract_x
_atom_site_fract_y
_atom_site_fract_z
Si Si1 0.709017 0.859130 0.682160
Si Si2 0.294194 0.282820 0.888486
Si Si3 0.376576 0.642911 0.725366
Si Si4 0.057700 0.166975 0.209008
Si Si5 0.965838 0.285971 0.459593
Si Si6 0.848238 0.680339 0.848271
Si Si7 0.658548 0.525520 0.767454
Si Si8 0.778494 0.520317 0.330366
O O1 0.762683 0.823384 0.672864
O O2 0.681044 0.842507 0.925009
O O3 0.730239 0.918268 0.719887
O O4 0.666917 0.854410 0.412210
O O5 0.250000 0.250000 0.000000
O O6 0.331159 0.314454 0.119911
O O7 0.331234 0.240778 0.767748
O O8 0.419402 0.637020 0.524494
O O9 0.347408 0.587770 0.748002
O O10 0.402480 0.662472 0.014031
O O11 0.050963 0.227004 0.121787
O O12 0.000000 0.142521 0.250000
O O13 0.912608 0.321825 0.449976
O O14 0.000000 0.309739 0.250000
O O15 0.000000 0.287378 0.750000
O O16 0.629732 0.499139 0.495594
O O17 0.721877 0.510318 0.835274
O O18 0.811136 0.493223 0.121039
#
# Coordination Sequence:
#
# PCOD8138054 Si02
#       8
#     8   8   8   8   8   8   8   8
#     4  11  23  38  57  85 125 165 194 243 293 351
#     4  10  23  35  54  82 126 162 196 228 289 361
#     4  12  23  39  62  87 117 156 204 255 302 358
#     4  11  24  39  63  86 115 151 209 258 306 352
#     4  11  22  39  63  86 120 160 202 249 294 348
#     4  11  23  38  57  87 127 158 197 235 298 363
#     4  10  21  37  58  83 110 146 205 250 295 346
#     4  10  20  37  58  81 115 153 205 244 283 339
#
# _framework density 19.71658
#
# number of rings (size 3 to 8) (size 9 to 14) (size 15 to 20)
#    0.000    1.250    1.250    6.000    3.500    6.000 
#    0.000    0.000    0.000    7.500    0.000    0.000 
#    0.000   35.000    0.000    0.000    0.000    0.000 
#
# Total GULP energy -396675.056604 kJ/mol
# GULP energy per Si atom -12396.095519 kJ/mol
# Density = 1.967170 g / cm^3
# Si number density = 19.716580 Si / 1000 Ang^3
#
#
#
# Elastic Constant Matrix: (Units=GPa)
#
#
# Indices 1 2 3 4 5 6 
#
# 1 80.5768 38.8542 33.1110 0.0000 4.9275 0.0000
# 2 38.8542 92.1351 36.3661 0.0000 5.9650 0.0000
# 3 33.1110 36.3661 151.2558 0.0000 -10.4656 0.0000
# 4 0.0000 0.0000 0.0000 24.1286 0.0000 -3.9775
# 5 4.9275 5.9650 -10.4656 0.0000 30.6263 0.0000
# 6 0.0000 0.0000 0.0000 -3.9775 0.0000 22.8629
#
#
#
# Elastic Compliance Matrix: (Units=1/GPa)
#
#
# Indices 1 2 3 4 5 6 
#
# 1 0.016310 -0.005809 -0.002332 0.000000 -0.002290 0.000000
# 2 -0.005809 0.014417 -0.002380 0.000000 -0.002687 0.000000
# 3 -0.002332 -0.002380 0.007940 0.000000 0.003552 0.000000
# 4 0.000000 0.000000 0.000000 0.042668 0.000000 0.007423
# 5 -0.002290 -0.002687 0.003552 0.000000 0.034757 0.000000
# 6 0.000000 0.000000 0.000000 0.007423 0.000000 0.045030
#
#
# Mechanical properties :
#
#
# Convention : Reuss Voigt Hill
#
# Bulk Modulus (GPa) = 56.74327 60.07001 58.40664
# Shear Modulus (GPa) = 26.58992 29.89931 28.24462
#
# Velocity S-wave (km/s) = 3.67632 3.89839 3.78899
# Velocity P-wave (km/s) = 6.84561 7.12714 6.98780
#
# Compressibility (1/GPa) = 0.01762324
#
# Stress axis : x y z
#
# Youngs Moduli (GPa) = 61.31148 69.36250 125.94582
#
# Poissons Ratio (x) = 0.40296 0.29372
# Poissons Ratio (y) = 0.35618 0.29980
# Poissons Ratio (z) = 0.14298 0.16511
#
# Static dielectric constant tensor:
#      x y z
#    x 3.511610 0.000000 -0.187340 
#    y 0.000000 3.505470 0.000000 
#    z -0.187340 0.000000 4.463220 
# 
# 
# High freq. dielectric constant tensor:
#      x y z
#    x 1.746370 0.000000 -0.012840 
#    y 0.000000 1.751710 0.000000 
#    z -0.012840 0.000000 1.791610 
# 
# From -- ./inp_files/16235.got.cif
#   From: 2010.06.25/outbox.cif.g09.slc.cpg/sg15_9_cif.got.tgz:16235.got - 2010.06.28 07:06:18.
