data_PCOD8138666
_publ_section_title
;
Structure prediction by ZEFSAII (Michael W. Deem and Ramdas Pophale) SiO2 
 PCOD8138666
Probable space group: C 2/C
;
_chemical_formula_sum "Si O2"
_cell_formula_units_Z 48
_cell_length_a 10.246519
_cell_length_b 9.323286
_cell_length_c 24.670949
_cell_angle_alpha 90.000000
_cell_angle_beta 88.427452
_cell_angle_gamma 90.000000
_cell_volume 2355.958393
_symmetry_space_group_name_H-M "C 2/C"
_symmetry_group_IT_number 15
_symmetry_cell_setting 'monoclinic'
loop_
_space_group_symop_operation_xyz
x,y,z
-x,y,1/2-z
-x,-y,-z
x,-y,1/2+z
1/2+x,1/2+y,z
1/2-x,1/2+y,1/2-z
1/2-x,1/2-y,-z
1/2+x,1/2-y,1/2+z
loop_
_atom_site_type_symbol
_atom_site_label
_atom_site_fract_x
_atom_site_fract_y
_atom_site_fract_z
Si Si1 0.420197 0.521296 0.100493
Si Si2 0.374319 0.417761 0.220859
Si Si3 0.865672 0.392216 0.769044
Si Si4 0.137187 0.430932 0.608344
Si Si5 0.371545 0.245915 0.923267
Si Si6 0.919894 0.265603 0.546448
O O1 0.393963 0.439182 0.156986
O O2 0.284358 0.598641 0.084150
O O3 0.537411 0.633660 0.104651
O O4 0.457133 0.400730 0.055989
O O5 0.500000 0.479155 0.250000
O O6 0.251804 0.504542 0.245033
O O7 0.350731 0.251930 0.234351
O O8 0.873553 0.357052 0.832843
O O9 0.000000 0.469730 0.750000
O O10 0.117114 0.602982 0.613277
O O11 0.030054 0.366627 0.569946
O O12 0.222156 0.302285 0.926509
O O13 0.420421 0.206447 0.982629
#
# Coordination Sequence:
#
# PCOD8138666 Si02
#       6
#     8   8   8   8   8   8
#     4  10  22  38  56  85 116 146 191 235 280 343
#     4  10  22  38  57  82 111 145 188 233 283 339
#     4  10  22  39  58  83 113 147 189 236 285 339
#     4  10  22  38  57  85 116 146 191 237 279 341
#     4  10  22  37  58  87 116 152 192 233 283 337
#     4  10  20  38  60  84 118 153 188 233 283 338
#
# _framework density 20.373873
#
# number of rings (size 3 to 8) (size 9 to 14) (size 15 to 20)
#    0.000    2.000    0.000    3.000    0.000   10.667 
#    0.000    0.000    0.000    0.000    0.000    0.000 
#    0.000    0.000    0.000    0.000    0.000    0.000 
#
# Total GULP energy -297618.569288 kJ/mol
# GULP energy per Si atom -12400.773720 kJ/mol
# Density = 2.032750 g / cm^3
# Si number density = 20.373873 Si / 1000 Ang^3
#
#
#
# Elastic Constant Matrix: (Units=GPa)
#
#
# Indices 1 2 3 4 5 6 
#
# 1 134.0254 51.1049 23.7117 0.0000 2.0136 0.0000
# 2 51.1049 73.4730 24.0152 0.0000 -13.4799 0.0000
# 3 23.7117 24.0152 55.1799 0.0000 -1.1613 0.0000
# 4 0.0000 0.0000 0.0000 30.6256 0.0000 1.6813
# 5 2.0136 -13.4799 -1.1613 0.0000 31.8521 0.0000
# 6 0.0000 0.0000 0.0000 1.6813 0.0000 35.6143
#
#
#
# Elastic Compliance Matrix: (Units=1/GPa)
#
#
# Indices 1 2 3 4 5 6 
#
# 1 0.010711 -0.007757 -0.001311 0.000000 -0.004008 0.000000
# 2 -0.007757 0.022939 -0.006440 0.000000 0.009963 0.000000
# 3 -0.001311 -0.006440 0.021450 0.000000 -0.001861 0.000000
# 4 0.000000 0.000000 0.000000 0.032737 0.000000 -0.001545
# 5 -0.004008 0.009963 -0.001861 0.000000 0.035797 0.000000
# 6 0.000000 0.000000 0.000000 -0.001545 0.000000 0.028152
#
#
# Mechanical properties :
#
#
# Convention : Reuss Voigt Hill
#
# Bulk Modulus (GPa) = 41.52344 51.14911 46.33627
# Shear Modulus (GPa) = 26.20120 30.54151 28.37136
#
# Velocity S-wave (km/s) = 3.59000 3.87596 3.73572
# Velocity P-wave (km/s) = 6.13263 6.72239 6.43427
#
# Compressibility (1/GPa) = 0.02408278
#
# Stress axis : x y z
#
# Youngs Moduli (GPa) = 93.35946 43.59386 46.62052
#
# Poissons Ratio (x) = 0.33816 0.06113
# Poissons Ratio (y) = 0.72420 0.30026
# Poissons Ratio (z) = 0.12241 0.28076
#
# Static dielectric constant tensor:
#      x y z
#    x 4.158460 0.000000 0.063400 
#    y 0.000000 3.452630 0.000000 
#    z 0.063400 0.000000 3.581270 
# 
# 
# High freq. dielectric constant tensor:
#      x y z
#    x 1.816980 0.000000 0.007210 
#    y 0.000000 1.781560 0.000000 
#    z 0.007210 0.000000 1.793950 
# 
# From -- ./inp_files/267620.got.cif
#   From: 2010.06.25/outbox.cif.g09.slc.cpg/sg15_134_cif.got.tgz:267620.got - 2010.06.28 07:06:18.
