data_PCOD8138236
_publ_section_title
;
Structure prediction by ZEFSAII (Michael W. Deem and Ramdas Pophale) SiO2 
 PCOD8138236
Probable space group: C 2/C
;
_chemical_formula_sum "Si O2"
_cell_formula_units_Z 52
_cell_length_a 18.729925
_cell_length_b 20.374165
_cell_length_c 8.190676
_cell_angle_alpha 90.000000
_cell_angle_beta 125.200426
_cell_angle_gamma 90.000000
_cell_volume 2554.067671
_symmetry_space_group_name_H-M "C 2/C"
_symmetry_group_IT_number 15
_symmetry_cell_setting 'monoclinic'
loop_
_space_group_symop_operation_xyz
x,y,z
-x,y,1/2-z
-x,-y,-z
x,-y,1/2+z
1/2+x,1/2+y,z
1/2-x,1/2+y,1/2-z
1/2-x,1/2-y,-z
1/2+x,1/2-y,1/2+z
loop_
_atom_site_type_symbol
_atom_site_label
_atom_site_fract_x
_atom_site_fract_y
_atom_site_fract_z
Si Si1 0.308562 0.840880 0.456120
Si Si2 0.195375 0.951678 0.158109
Si Si3 0.170387 0.914876 0.752604
Si Si4 0.452076 0.248832 0.523612
Si Si5 0.000000 0.311440 0.750000
Si Si6 0.020421 0.900112 0.954981
Si Si7 0.257631 0.792403 0.729280
O O1 0.273258 0.907282 0.330072
O O2 0.411241 0.854400 0.627255
O O3 0.252084 0.824357 0.542376
O O4 0.296574 0.775750 0.328092
O O5 0.218379 0.028787 0.208644
O O6 0.180454 0.934240 0.952468
O O7 0.103650 0.939988 0.137070
O O8 0.215085 0.844280 0.795734
O O9 0.068845 0.907723 0.559285
O O10 0.500000 0.222451 0.750000
O O11 0.499205 0.230953 0.415290
O O12 0.444889 0.326501 0.516274
O O13 0.356832 0.218140 0.410486
O O14 0.000000 0.928707 0.750000
#
# Coordination Sequence:
#
# PCOD8138236 Si02
#       7
#     8   8   8   8   4   8   8
#     4  10  21  39  61  85 125 151 208 253 308 356
#     4  11  22  39  59  84 125 162 201 255 301 372
#     4  11  23  37  61  88 123 163 206 241 313 365
#     4  10  20  37  61  90 129 154 206 253 308 363
#     4  10  22  36  58  92 116 164 200 258 306 364
#     4   9  19  37  56  88 121 162 199 245 301 371
#     4  10  21  38  60  91 118 160 200 259 302 366
#
# _framework density 20.359677999999999
#
# number of rings (size 3 to 8) (size 9 to 14) (size 15 to 20)
#    0.000    1.846    1.538    2.308    2.154    0.615 
#    2.769    0.000    1.692    2.769    0.000    0.000 
#    0.000    0.000    0.000    0.000    0.000    0.000 
#
# Total GULP energy -322278.734647 kJ/mol
# GULP energy per Si atom -12395.335948 kJ/mol
# Density = 2.031334 g / cm^3
# Si number density = 20.359678 Si / 1000 Ang^3
#
#
#
# Elastic Constant Matrix: (Units=GPa)
#
#
# Indices 1 2 3 4 5 6 
#
# 1 73.4807 30.7519 27.0019 0.0000 8.8320 0.0000
# 2 30.7519 111.1823 33.2939 0.0000 10.8912 0.0000
# 3 27.0019 33.2939 91.1466 0.0000 6.3592 0.0000
# 4 0.0000 0.0000 0.0000 25.8871 0.0000 -3.1851
# 5 8.8320 10.8912 6.3592 0.0000 32.8028 0.0000
# 6 0.0000 0.0000 0.0000 -3.1851 0.0000 25.9686
#
#
#
# Elastic Compliance Matrix: (Units=1/GPa)
#
#
# Indices 1 2 3 4 5 6 
#
# 1 0.016600 -0.003268 -0.003536 0.000000 -0.002699 0.000000
# 2 -0.003268 0.010979 -0.002888 0.000000 -0.002205 0.000000
# 3 -0.003536 -0.002888 0.013118 0.000000 -0.000632 0.000000
# 4 0.000000 0.000000 0.000000 0.039221 0.000000 0.004811
# 5 -0.002699 -0.002205 -0.000632 0.000000 0.032067 0.000000
# 6 0.000000 0.000000 0.000000 0.004811 0.000000 0.039098
#
#
# Mechanical properties :
#
#
# Convention : Reuss Voigt Hill
#
# Bulk Modulus (GPa) = 46.92010 50.87833 48.89921
# Shear Modulus (GPa) = 28.15751 29.24918 28.70334
#
# Velocity S-wave (km/s) = 3.72291 3.79439 3.75882
# Velocity P-wave (km/s) = 6.44792 6.65136 6.55043
#
# Compressibility (1/GPa) = 0.02131283
#
# Stress axis : x y z
#
# Youngs Moduli (GPa) = 60.23920 91.08141 76.23162
#
# Poissons Ratio (x) = 0.29769 0.26953
# Poissons Ratio (y) = 0.19688 0.22018
# Poissons Ratio (z) = 0.21299 0.26307
#
# Static dielectric constant tensor:
#      x y z
#    x 3.682820 0.000000 0.063610 
#    y 0.000000 3.599640 0.000000 
#    z 0.063610 0.000000 3.805240 
# 
# 
# High freq. dielectric constant tensor:
#      x y z
#    x 1.786490 0.000000 0.005070 
#    y 0.000000 1.781550 0.000000 
#    z 0.005070 0.000000 1.799390 
# 
# From -- ./inp_files/48648.got.cif
#   From: 2010.06.25/outbox.cif.g09.slc.cpg/sg15_25_cif.got.tgz:48648.got - 2010.06.28 07:06:18.
