data_PCOD8138997
_publ_section_title
;
Structure prediction by ZEFSAII (Michael W. Deem and Ramdas Pophale) SiO2 
 PCOD8138997
Probable space group: C 2/C
;
_chemical_formula_sum "Si O2"
_cell_formula_units_Z 40
_cell_length_a 11.655293
_cell_length_b 18.968274
_cell_length_c 7.642366
_cell_angle_alpha 90.000000
_cell_angle_beta 113.021226
_cell_angle_gamma 90.000000
_cell_volume 1555.022210
_symmetry_space_group_name_H-M "C 2/C"
_symmetry_group_IT_number 15
_symmetry_cell_setting 'monoclinic'
loop_
_space_group_symop_operation_xyz
x,y,z
-x,y,1/2-z
-x,-y,-z
x,-y,1/2+z
1/2+x,1/2+y,z
1/2-x,1/2+y,1/2-z
1/2-x,1/2-y,-z
1/2+x,1/2-y,1/2+z
loop_
_atom_site_type_symbol
_atom_site_label
_atom_site_fract_x
_atom_site_fract_y
_atom_site_fract_z
Si Si1 0.500000 0.811313 0.250000
Si Si2 0.273471 0.879169 0.735985
Si Si3 0.407802 0.252768 0.347055
Si Si4 0.500000 0.954871 0.750000
Si Si5 0.192955 0.430464 0.396249
Si Si6 0.863531 0.091227 0.703255
O O1 0.524607 0.759696 0.427599
O O2 0.618719 0.861622 0.285189
O O3 0.281049 0.793981 0.752302
O O4 0.420360 0.904480 0.831194
O O5 0.200883 0.904737 0.523687
O O6 0.218721 0.910581 0.884785
O O7 0.500000 0.228833 0.250000
O O8 0.373147 0.334097 0.306258
O O9 0.397768 0.005541 0.596294
O O10 0.281460 0.456421 0.287782
O O11 0.000000 0.058396 0.750000
#
# Coordination Sequence:
#
# PCOD8138997 Si02
#       6
#     4   8   8   4   8   8
#     4   9  20  36  64 100 132 166 219 284 344 371
#     4  11  23  40  70 102 130 171 221 287 338 376
#     4  10  20  38  63  98 136 175 217 273 330 399
#     4  11  24  44  78 106 126 160 227 300 344 365
#     4  10  24  41  66 104 132 169 222 282 336 390
#     4  11  26  42  62  93 142 187 221 252 326 413
#
# _framework density 25.723105
#
# number of rings (size 3 to 8) (size 9 to 14) (size 15 to 20)
#    0.000    1.600    1.000    2.400    8.400    8.800 
#    0.000    1.000    0.000    0.000    0.000    0.000 
#    0.000    0.000    0.000    0.000    0.000    0.000 
#
# Total GULP energy -247884.781389 kJ/mol
# GULP energy per Si atom -12394.239069 kJ/mol
# Density = 2.566456 g / cm^3
# Si number density = 25.723105 Si / 1000 Ang^3
#
#
#
# Elastic Constant Matrix: (Units=GPa)
#
#
# Indices 1 2 3 4 5 6 
#
# 1 114.1930 0.3313 52.5369 0.0000 0.7520 0.0000
# 2 0.3313 46.7157 15.2403 0.0000 9.1441 0.0000
# 3 52.5369 15.2403 174.5919 0.0000 -9.2419 0.0000
# 4 0.0000 0.0000 0.0000 18.9742 0.0000 14.9423
# 5 0.7520 9.1441 -9.2419 0.0000 27.0602 0.0000
# 6 0.0000 0.0000 0.0000 14.9423 0.0000 7.1724
#
#
#
# Elastic Compliance Matrix: (Units=1/GPa)
#
#
# Indices 1 2 3 4 5 6 
#
# 1 0.010292 0.001378 -0.003317 0.000000 -0.001884 0.000000
# 2 0.001378 0.024189 -0.003015 0.000000 -0.009242 0.000000
# 3 -0.003317 -0.003015 0.007178 0.000000 0.003562 0.000000
# 4 0.000000 0.000000 0.000000 -0.082270 0.000000 0.171394
# 5 -0.001884 -0.009242 0.003562 0.000000 0.041347 0.000000
# 6 0.000000 0.000000 0.000000 0.171394 0.000000 -0.217642
#
#
# Mechanical properties :
#
#
# Convention : Reuss Voigt Hill
#
# Bulk Modulus (GPa) = 31.49649 52.41306 41.95477
# Shear Modulus (GPa) = -25.45621 28.46751 1.50565
#
# Velocity S-wave (km/s) = -3.14924 3.33030 0.76590
# Velocity P-wave (km/s) = 0.97602 5.93363 4.13856
#
# Compressibility (1/GPa) = 0.03174957
#
# Stress axis : x y z
#
# Youngs Moduli (GPa) = 97.16732 41.34099 139.32378
#
# Poissons Ratio (x) = -0.05697 0.46212
# Poissons Ratio (y) = -0.13389 0.42011
# Poissons Ratio (z) = 0.32229 0.12466
#
# Static dielectric constant tensor:
#      x y z
#    x 4.778010 0.000000 -0.050520 
#    y 0.000000 4.784330 0.000000 
#    z -0.050520 0.000000 4.445570 
# 
# 
# High freq. dielectric constant tensor:
#      x y z
#    x 2.007350 0.000000 -0.017340 
#    y 0.000000 2.034640 0.000000 
#    z -0.017340 0.000000 2.029690 
# 
# From -- ./inp_files/32314.got.cif
#   From: 2010.06.25/outbox.cif.g09.slc.cpg/sg15_17_cif.got.tgz:32314.got - 2010.06.28 07:06:18.
