data_PCOD8138896
_publ_section_title
;
Structure prediction by ZEFSAII (Michael W. Deem and Ramdas Pophale) SiO2 
 PCOD8138896
Probable space group: C 2/C
;
_chemical_formula_sum "Si O2"
_cell_formula_units_Z 56
_cell_length_a 17.874680
_cell_length_b 8.517901
_cell_length_c 25.286304
_cell_angle_alpha 90.000000
_cell_angle_beta 45.018170
_cell_angle_gamma 90.000000
_cell_volume 2723.196018
_symmetry_space_group_name_H-M "C 2/C"
_symmetry_group_IT_number 15
_symmetry_cell_setting 'monoclinic'
loop_
_space_group_symop_operation_xyz
x,y,z
-x,y,1/2-z
-x,-y,-z
x,-y,1/2+z
1/2+x,1/2+y,z
1/2-x,1/2+y,1/2-z
1/2-x,1/2-y,-z
1/2+x,1/2-y,1/2+z
loop_
_atom_site_type_symbol
_atom_site_label
_atom_site_fract_x
_atom_site_fract_y
_atom_site_fract_z
Si Si1 0.500000 0.702697 0.250000
Si Si2 0.874884 0.952823 0.375115
Si Si3 0.350585 0.635474 0.598543
Si Si4 0.372586 0.949050 0.250001
Si Si5 0.348515 0.979247 0.556503
Si Si6 0.547661 0.864533 0.401458
Si Si7 0.000000 0.699163 0.250000
Si Si8 0.038478 0.979241 0.556506
O O1 0.424974 0.605781 0.325018
O O2 0.424626 0.798986 0.249991
O O3 0.924791 0.798652 0.325220
O O4 0.750713 0.957739 0.426397
O O5 0.896471 0.957769 0.426409
O O6 0.252529 0.554064 0.677002
O O7 0.328342 0.818853 0.599307
O O8 0.454897 0.614872 0.582641
O O9 0.372558 0.546089 0.532562
O O10 0.393467 0.945954 0.177001
O O11 0.423579 0.102457 0.250008
O O12 0.437665 0.953906 0.467436
O O13 0.379850 0.114873 0.582623
O O14 0.526955 0.681152 0.400688
#
# Coordination Sequence:
#
# PCOD8138896 Si02
#       8
#     4   8   8   8   8   8   4   8
#     4  10  20  38  62  92 126 152 214 266 300 380
#     4  11  22  43  64  92 127 171 206 267 315 375
#     4  10  23  41  68  95 128 167 215 260 315 386
#     4  11  22  42  62  94 127 173 205 268 319 375
#     4  10  23  43  67  96 128 166 216 259 315 387
#     4  10  23  41  68  95 128 167 215 260 315 386
#     4  10  28  38  60 100 138 154 222 270 318 372
#     4  10  23  43  67  96 128 166 216 259 315 387
#
# _framework density 20.564071999999999
#
# number of rings (size 3 to 8) (size 9 to 14) (size 15 to 20)
#    0.000    1.714    2.857    0.000    4.000    8.000 
#    0.000    1.429    0.000    0.000    0.000    0.000 
#    0.000    0.000    0.000    0.000    0.000    0.000 
#
# Total GULP energy -347265.014995 kJ/mol
# GULP energy per Si atom -12402.321964 kJ/mol
# Density = 2.051727 g / cm^3
# Si number density = 20.564072 Si / 1000 Ang^3
#
#
#
# Elastic Constant Matrix: (Units=GPa)
#
#
# Indices 1 2 3 4 5 6 
#
# 1 139.3882 32.5282 65.3017 0.0001 0.6850 0.0004
# 2 32.5282 77.1601 34.5438 0.0003 -0.1496 0.0009
# 3 65.3017 34.5438 149.1254 0.0000 -1.4204 0.0001
# 4 0.0001 0.0003 0.0000 26.7377 0.0000 1.7223
# 5 0.6850 -0.1496 -1.4204 0.0000 32.1930 0.0001
# 6 0.0004 0.0009 0.0001 1.7223 0.0001 50.9936
#
#
#
# Elastic Compliance Matrix: (Units=1/GPa)
#
#
# Indices 1 2 3 4 5 6 
#
# 1 0.009402 -0.002365 -0.003573 0.000000 -0.000369 0.000000
# 2 -0.002365 0.015055 -0.002452 0.000000 0.000012 0.000000
# 3 -0.003573 -0.002452 0.008842 0.000000 0.000455 0.000000
# 4 0.000000 0.000000 0.000000 0.037482 0.000000 -0.001266
# 5 -0.000369 0.000012 0.000455 0.000000 0.031091 0.000000
# 6 0.000000 0.000000 0.000000 -0.001266 0.000000 0.019653
#
#
# Mechanical properties :
#
#
# Convention : Reuss Voigt Hill
#
# Bulk Modulus (GPa) = 60.53066 70.04679 65.28872
# Shear Modulus (GPa) = 34.76827 37.53818 36.15322
#
# Velocity S-wave (km/s) = 4.11631 4.27713 4.19749
# Velocity P-wave (km/s) = 7.21741 7.65039 7.43705
#
# Compressibility (1/GPa) = 0.01652055
#
# Stress axis : x y z
#
# Youngs Moduli (GPa) = 106.36469 66.42513 113.09031
#
# Poissons Ratio (x) = 0.15707 0.40404
# Poissons Ratio (y) = 0.25152 0.27726
# Poissons Ratio (z) = 0.38001 0.16285
#
# Static dielectric constant tensor:
#      x y z
#    x 3.656610 0.000000 -0.006930 
#    y 0.000000 3.702840 0.000000 
#    z -0.006930 0.000000 3.753970 
# 
# 
# High freq. dielectric constant tensor:
#      x y z
#    x 1.806770 0.000000 -0.000260 
#    y 0.000000 1.804670 0.000000 
#    z -0.000260 0.000000 1.810440 
# 
# From -- ./inp_files/276548.got.cif
#   From: 2010.06.25/outbox.cif.g09.slc.cpg/sg15_139_cif.got.tgz:276548.got - 2010.06.28 07:06:18.
