data_PCOD8138982
_publ_section_title
;
Structure prediction by ZEFSAII (Michael W. Deem and Ramdas Pophale) SiO2 
 PCOD8138982
Probable space group: C 2/C
;
_chemical_formula_sum "Si O2"
_cell_formula_units_Z 60
_cell_length_a 16.681204
_cell_length_b 9.011066
_cell_length_c 18.709140
_cell_angle_alpha 90.000000
_cell_angle_beta 67.073842
_cell_angle_gamma 90.000000
_cell_volume 2590.124441
_symmetry_space_group_name_H-M "C 2/C"
_symmetry_group_IT_number 15
_symmetry_cell_setting 'monoclinic'
loop_
_space_group_symop_operation_xyz
x,y,z
-x,y,1/2-z
-x,-y,-z
x,-y,1/2+z
1/2+x,1/2+y,z
1/2-x,1/2+y,1/2-z
1/2-x,1/2-y,-z
1/2+x,1/2-y,1/2+z
loop_
_atom_site_type_symbol
_atom_site_label
_atom_site_fract_x
_atom_site_fract_y
_atom_site_fract_z
Si Si1 0.000000 0.394908 0.250000
Si Si2 0.055469 0.796891 0.605524
Si Si3 0.176980 0.137483 0.781487
Si Si4 0.917464 0.059211 0.072447
Si Si5 0.259232 0.142720 0.424472
Si Si6 0.191521 0.618856 0.492663
Si Si7 0.663124 0.952135 0.749421
Si Si8 0.176846 0.043750 0.624652
O O1 0.941734 0.293792 0.321927
O O2 0.935866 0.497407 0.226379
O O3 0.096588 0.695499 0.526647
O O4 0.956307 0.821685 0.615220
O O5 0.104819 0.953890 0.603527
O O6 0.164819 0.311733 0.802387
O O7 0.140949 0.083904 0.715666
O O8 0.125657 0.068095 0.865043
O O9 0.278773 0.091282 0.745530
O O10 0.846308 0.130053 0.043973
O O11 0.000000 0.000000 0.000000
O O12 0.294487 0.124771 0.333183
O O13 0.292561 0.310616 0.434272
O O14 0.306628 0.017177 0.453094
O O15 0.250000 0.750000 0.500000
O O16 0.234300 0.559084 0.403300
#
# Coordination Sequence:
#
# PCOD8138982 Si02
#       8
#     4   8   8   8   8   8   8   8
#     4  12  24  42  66  98 140 162 218 278 328 390
#     4  11  24  39  65  98 129 174 218 272 330 384
#     4  10  24  42  69  95 127 172 224 261 336 398
#     4  11  24  43  65  97 136 171 215 275 331 386
#     4  10  21  43  64  91 129 177 221 266 330 394
#     4  10  20  38  63  93 127 173 219 264 325 391
#     4  10  24  41  68  92 129 172 215 272 326 392
#     4  10  22  39  67  94 125 171 224 269 324 391
#
# _framework density 23.164911
#
# number of rings (size 3 to 8) (size 9 to 14) (size 15 to 20)
#    0.000    1.600    1.333    2.800    7.467    4.267 
#    2.400    0.667    0.000    0.000    0.000    0.000 
#    0.000    0.000    0.000    0.000    0.000    0.000 
#
# Total GULP energy -371684.377025 kJ/mol
# GULP energy per Si atom -12389.479234 kJ/mol
# Density = 2.311219 g / cm^3
# Si number density = 23.164911 Si / 1000 Ang^3
#
#
#
# Elastic Constant Matrix: (Units=GPa)
#
#
# Indices 1 2 3 4 5 6 
#
# 1 117.4191 54.0113 11.2739 0.0000 -12.4374 0.0000
# 2 54.0113 145.0435 27.0823 0.0000 -4.0864 0.0000
# 3 11.2739 27.0823 69.3944 0.0000 -15.3852 0.0000
# 4 0.0000 0.0000 0.0000 30.4012 0.0000 -1.4244
# 5 -12.4374 -4.0864 -15.3852 0.0000 27.7822 0.0000
# 6 0.0000 0.0000 0.0000 -1.4244 0.0000 35.6535
#
#
#
# Elastic Compliance Matrix: (Units=1/GPa)
#
#
# Indices 1 2 3 4 5 6 
#
# 1 0.010796 -0.004050 0.000873 0.000000 0.004721 0.000000
# 2 -0.004050 0.008964 -0.003363 0.000000 -0.002357 0.000000
# 3 0.000873 -0.003363 0.017735 0.000000 0.009718 0.000000
# 4 0.000000 0.000000 0.000000 0.032955 0.000000 0.001317
# 5 0.004721 -0.002357 0.009718 0.000000 0.043143 0.000000
# 6 0.000000 0.000000 0.000000 0.001317 0.000000 0.028100
#
#
# Mechanical properties :
#
#
# Convention : Reuss Voigt Hill
#
# Bulk Modulus (GPa) = 40.95694 57.39912 49.17803
# Shear Modulus (GPa) = 30.69151 34.73336 32.71243
#
# Velocity S-wave (km/s) = 3.64389 3.87640 3.76194
# Velocity P-wave (km/s) = 5.95171 6.69833 6.33603
#
# Compressibility (1/GPa) = 0.02441589
#
# Stress axis : x y z
#
# Youngs Moduli (GPa) = 92.62914 111.55455 56.38424
#
# Poissons Ratio (x) = 0.45182 -0.04925
# Poissons Ratio (y) = 0.37517 0.18962
# Poissons Ratio (z) = -0.08091 0.37516
#
# Static dielectric constant tensor:
#      x y z
#    x 4.197930 0.000000 -0.023930 
#    y 0.000000 4.313270 0.000000 
#    z -0.023930 0.000000 4.467960 
# 
# 
# High freq. dielectric constant tensor:
#      x y z
#    x 1.889490 0.000000 -0.004370 
#    y 0.000000 1.930810 0.000000 
#    z -0.004370 0.000000 1.930780 
# 
# From -- ./inp_files/247802.got.cif
#   From: 2010.06.25/outbox.cif.g09.slc.cpg/sg15_124_cif.got.tgz:247802.got - 2010.06.28 07:06:18.
