data_PCOD8138738
_publ_section_title
;
Structure prediction by ZEFSAII (Michael W. Deem and Ramdas Pophale) SiO2 
 PCOD8138738
Probable space group: C 2/C
;
_chemical_formula_sum "Si O2"
_cell_formula_units_Z 56
_cell_length_a 23.379240
_cell_length_b 12.283408
_cell_length_c 13.236361
_cell_angle_alpha 90.000000
_cell_angle_beta 132.459811
_cell_angle_gamma 90.000000
_cell_volume 2804.320827
_symmetry_space_group_name_H-M "C 2/C"
_symmetry_group_IT_number 15
_symmetry_cell_setting 'monoclinic'
loop_
_space_group_symop_operation_xyz
x,y,z
-x,y,1/2-z
-x,-y,-z
x,-y,1/2+z
1/2+x,1/2+y,z
1/2-x,1/2+y,1/2-z
1/2-x,1/2-y,-z
1/2+x,1/2-y,1/2+z
loop_
_atom_site_type_symbol
_atom_site_label
_atom_site_fract_x
_atom_site_fract_y
_atom_site_fract_z
Si Si1 0.119854 0.223349 0.811494
Si Si2 0.544217 0.053026 0.959850
Si Si3 0.007075 0.120805 0.541260
Si Si4 0.113798 0.147989 0.492091
Si Si5 0.500000 0.889462 0.750000
Si Si6 0.500000 0.222676 0.750000
Si Si7 0.648876 0.392577 0.547235
Si Si8 0.191228 0.683622 0.203033
O O1 0.067598 0.125267 0.705555
O O2 0.060019 0.320321 0.757347
O O3 0.181885 0.267303 0.804677
O O4 0.161389 0.174542 0.959060
O O5 0.495245 0.148505 0.845510
O O6 0.555110 0.959060 0.889672
O O7 0.627334 0.094125 0.097482
O O8 0.500000 0.000000 0.000000
O O9 0.045778 0.182237 0.492533
O O10 0.922493 0.162406 0.476491
O O11 0.000000 0.000000 0.500000
O O12 0.077109 0.198649 0.345636
O O13 0.188955 0.216383 0.619026
O O14 0.133226 0.020567 0.506365
O O15 0.726085 0.376903 0.705361
#
# Coordination Sequence:
#
# PCOD8138738 Si02
#       8
#     8   8   8   8   4   4   8   8
#     4  11  20  35  57  91 113 148 202 240 284 357
#     4  10  20  38  61  82 115 157 199 237 287 350
#     4   9  19  34  57  84 112 153 194 232 284 355
#     4   9  21  38  59  84 115 154 196 240 288 350
#     4  11  20  33  62  90 106 153 208 239 278 346
#     4   9  20  35  64  86 110 149 200 247 280 334
#     4  11  21  35  59  88 119 152 189 244 303 346
#     4  10  22  40  57  86 122 154 190 240 305 350
#
# _framework density 19.969185
#
# number of rings (size 3 to 8) (size 9 to 14) (size 15 to 20)
#    0.000    2.000    2.857    0.429    4.000    1.143 
#    0.000    1.429    0.000    2.571    0.000    0.000 
#    0.000    0.000    0.000    0.000    0.000    0.000 
#
# Total GULP energy -346897.762891 kJ/mol
# GULP energy per Si atom -12389.205818 kJ/mol
# Density = 1.992373 g / cm^3
# Si number density = 19.969185 Si / 1000 Ang^3
#
#
#
# Elastic Constant Matrix: (Units=GPa)
#
#
# Indices 1 2 3 4 5 6 
#
# 1 46.6366 10.7721 36.6159 0.0000 6.0427 0.0000
# 2 10.7721 92.6900 45.8609 0.0000 1.0047 0.0000
# 3 36.6159 45.8609 124.2095 0.0000 11.3259 0.0000
# 4 0.0000 0.0000 0.0000 36.6723 0.0000 -2.3851
# 5 6.0427 1.0047 11.3259 0.0000 27.9512 0.0000
# 6 0.0000 0.0000 0.0000 -2.3851 0.0000 23.3308
#
#
#
# Elastic Compliance Matrix: (Units=1/GPa)
#
#
# Indices 1 2 3 4 5 6 
#
# 1 0.028175 0.000908 -0.008392 0.000000 -0.002723 0.000000
# 2 0.000908 0.013295 -0.005311 0.000000 0.001478 0.000000
# 3 -0.008392 -0.005311 0.012775 0.000000 -0.003171 0.000000
# 4 0.000000 0.000000 0.000000 0.027451 0.000000 0.002806
# 5 -0.002723 0.001478 -0.003171 0.000000 0.037597 0.000000
# 6 0.000000 0.000000 0.000000 0.002806 0.000000 0.043149
#
#
# Mechanical properties :
#
#
# Convention : Reuss Voigt Hill
#
# Bulk Modulus (GPa) = 34.90058 50.00375 42.45217
# Shear Modulus (GPa) = 25.30558 28.94333 27.12445
#
# Velocity S-wave (km/s) = 3.56368 3.81123 3.68953
# Velocity P-wave (km/s) = 5.86926 6.66799 6.28134
#
# Compressibility (1/GPa) = 0.02865282
#
# Stress axis : x y z
#
# Youngs Moduli (GPa) = 35.49269 75.21638 78.27730
#
# Poissons Ratio (x) = -0.06826 0.65694
# Poissons Ratio (y) = -0.03221 0.41574
# Poissons Ratio (z) = 0.29787 0.39948
#
# Static dielectric constant tensor:
#      x y z
#    x 1.974510 0.000000 -0.678630 
#    y 0.000000 0.036640 0.000000 
#    z -0.678630 0.000000 3.470170 
# 
# 
# High freq. dielectric constant tensor:
#      x y z
#    x 1.744760 0.000000 -0.014440 
#    y 0.000000 1.791820 0.000000 
#    z -0.014440 0.000000 1.787990 
# 
# From -- ./inp_files/177653.got.cif
#   From: 2010.06.25/outbox.cif.g09.slc.cpg/sg15_89_cif.got.tgz:177653.got - 2010.06.28 07:06:18.
