data_PCOD8138472
_publ_section_title
;
Structure prediction by ZEFSAII (Michael W. Deem and Ramdas Pophale) SiO2 
 PCOD8138472
Probable space group: C 2/C
;
_chemical_formula_sum "Si O2"
_cell_formula_units_Z 56
_cell_length_a 10.858965
_cell_length_b 9.034549
_cell_length_c 27.976035
_cell_angle_alpha 90.000000
_cell_angle_beta 104.364992
_cell_angle_gamma 90.000000
_cell_volume 2658.802226
_symmetry_space_group_name_H-M "C 2/C"
_symmetry_group_IT_number 15
_symmetry_cell_setting 'monoclinic'
loop_
_space_group_symop_operation_xyz
x,y,z
-x,y,1/2-z
-x,-y,-z
x,-y,1/2+z
1/2+x,1/2+y,z
1/2-x,1/2+y,1/2-z
1/2-x,1/2-y,-z
1/2+x,1/2-y,1/2+z
loop_
_atom_site_type_symbol
_atom_site_label
_atom_site_fract_x
_atom_site_fract_y
_atom_site_fract_z
Si Si1 0.455155 0.665034 0.642790
Si Si2 0.929126 0.895215 0.894076
Si Si3 0.107353 0.279416 0.472152
Si Si4 0.503402 0.954869 0.695228
Si Si5 0.414122 0.177392 0.425138
Si Si6 0.796493 0.424062 0.104334
Si Si7 0.829365 0.411349 0.361209
O O1 0.539194 0.517228 0.643479
O O2 0.499967 0.775891 0.689152
O O3 0.467020 0.761272 0.594865
O O4 0.317484 0.610637 0.643784
O O5 0.902015 0.743559 0.864575
O O6 0.042931 0.867494 0.942934
O O7 0.804510 0.943394 0.911832
O O8 0.250000 0.250000 0.500000
O O9 0.038468 0.318813 0.515329
O O10 0.111118 0.412454 0.433277
O O11 0.500000 0.998042 0.750000
O O12 0.384763 0.039045 0.658458
O O13 0.638116 0.007200 0.685635
O O14 0.285604 0.271595 0.399512
O O15 0.383487 0.007613 0.410316
#
# Coordination Sequence:
#
# PCOD8138472 Si02
#       7
#     8   8   8   8   8   8   8
#     4  10  22  43  63  92 129 169 210 271 323 380
#     4  11  22  39  67  91 133 168 216 259 319 383
#     4  10  20  37  65  97 134 179 217 253 322 390
#     4  11  24  46  66  92 124 162 221 278 337 395
#     4   9  22  38  64  96 136 175 211 260 320 387
#     4  10  20  41  65  89 132 172 211 276 320 380
#     4  11  22  42  67  95 129 170 211 267 329 386
#
# _framework density 21.062116
#
# number of rings (size 3 to 8) (size 9 to 14) (size 15 to 20)
#    0.000    1.714    2.857    1.714    0.000    6.857 
#    7.714    2.143    0.000    0.000    0.000    0.000 
#    0.000    0.000    0.000    0.000    0.000    0.000 
#
# Total GULP energy -346921.505693 kJ/mol
# GULP energy per Si atom -12390.053775 kJ/mol
# Density = 2.101418 g / cm^3
# Si number density = 21.062116 Si / 1000 Ang^3
#
#
#
# Elastic Constant Matrix: (Units=GPa)
#
#
# Indices 1 2 3 4 5 6 
#
# 1 132.5313 40.3507 50.9895 0.0000 -13.4000 0.0000
# 2 40.3507 130.4482 37.2109 0.0000 -4.3455 0.0000
# 3 50.9895 37.2109 130.5621 0.0000 -18.7078 0.0000
# 4 0.0000 0.0000 0.0000 20.4942 0.0000 -2.3464
# 5 -13.4000 -4.3455 -18.7078 0.0000 24.5274 0.0000
# 6 0.0000 0.0000 0.0000 -2.3464 0.0000 39.6090
#
#
#
# Elastic Compliance Matrix: (Units=1/GPa)
#
#
# Indices 1 2 3 4 5 6 
#
# 1 0.009503 -0.002070 -0.002728 0.000000 0.002744 0.000000
# 2 -0.002070 0.008798 -0.001839 0.000000 -0.000975 0.000000
# 3 -0.002728 -0.001839 0.010091 0.000000 0.005881 0.000000
# 4 0.000000 0.000000 0.000000 0.049128 0.000000 0.002910
# 5 0.002744 -0.000975 0.005881 0.000000 0.046583 0.000000
# 6 0.000000 0.000000 0.000000 0.002910 0.000000 0.025419
#
#
# Mechanical properties :
#
#
# Convention : Reuss Voigt Hill
#
# Bulk Modulus (GPa) = 66.14300 72.29374 69.21837
# Shear Modulus (GPa) = 29.79127 34.59216 32.19171
#
# Velocity S-wave (km/s) = 3.76500 4.05703 3.91374
# Velocity P-wave (km/s) = 7.09734 7.50631 7.30468
#
# Compressibility (1/GPa) = 0.01511876
#
# Stress axis : x y z
#
# Youngs Moduli (GPa) = 105.23470 113.65988 99.09531
#
# Poissons Ratio (x) = 0.23525 0.27033
# Poissons Ratio (y) = 0.21781 0.18222
# Poissons Ratio (z) = 0.28708 0.20900
#
# Static dielectric constant tensor:
#      x y z
#    x 4.164230 0.000000 -0.266700 
#    y 0.000000 4.063560 0.000000 
#    z -0.266700 0.000000 3.826820 
# 
# 
# High freq. dielectric constant tensor:
#      x y z
#    x 1.844340 0.000000 -0.013350 
#    y 0.000000 1.837070 0.000000 
#    z -0.013350 0.000000 1.782410 
# 
# From -- ./inp_files/310054.got.cif
#   From: 2010.06.25/outbox.cif.g09.slc.cpg/sg15_156_cif.got.tgz:310054.got - 2010.06.28 07:06:18.
