data_PCOD8138499
_publ_section_title
;
Structure prediction by ZEFSAII (Michael W. Deem and Ramdas Pophale) SiO2 
 PCOD8138499
Probable space group: C 2/C
;
_chemical_formula_sum "Si O2"
_cell_formula_units_Z 48
_cell_length_a 13.075657
_cell_length_b 29.179576
_cell_length_c 8.973726
_cell_angle_alpha 90.000000
_cell_angle_beta 137.702548
_cell_angle_gamma 90.000000
_cell_volume 2304.184307
_symmetry_space_group_name_H-M "C 2/C"
_symmetry_group_IT_number 15
_symmetry_cell_setting 'monoclinic'
loop_
_space_group_symop_operation_xyz
x,y,z
-x,y,1/2-z
-x,-y,-z
x,-y,1/2+z
1/2+x,1/2+y,z
1/2-x,1/2+y,1/2-z
1/2-x,1/2-y,-z
1/2+x,1/2-y,1/2+z
loop_
_atom_site_type_symbol
_atom_site_label
_atom_site_fract_x
_atom_site_fract_y
_atom_site_fract_z
Si Si1 0.773769 0.140867 0.637839
Si Si2 0.552979 0.786165 0.974558
Si Si3 0.226163 0.807803 0.676622
Si Si4 0.828551 0.458361 0.530904
Si Si5 0.660259 0.476620 0.647030
Si Si6 0.059984 0.881837 0.648466
O O1 0.679493 0.174977 0.644925
O O2 0.802687 0.167041 0.512850
O O3 0.674825 0.095475 0.507756
O O4 0.929151 0.125722 0.884225
O O5 0.500000 0.792382 0.750000
O O6 0.399205 0.793794 0.902531
O O7 0.619710 0.736324 0.072210
O O8 0.178790 0.840621 0.760515
O O9 0.703420 0.469418 0.521888
O O10 0.788675 0.489882 0.348009
O O11 0.000000 0.472031 0.750000
O O12 0.500000 0.500000 0.500000
O O13 0.654808 0.427854 0.722270
O O14 0.000000 0.882909 0.750000
#
# Coordination Sequence:
#
# PCOD8138499 Si02
#       6
#     8   8   8   8   8   8
#     4  11  22  40  68  95 128 168 214 266 324 386
#     4  10  20  37  67 102 128 158 214 271 322 386
#     4  11  21  40  66  98 127 166 212 268 325 386
#     4  12  25  44  68 100 135 170 217 271 331 388
#     4  12  25  44  67  97 130 174 221 269 323 389
#     4  12  25  42  62  92 129 174 220 267 322 385
#
# _framework density 20.831665000000001
#
# number of rings (size 3 to 8) (size 9 to 14) (size 15 to 20)
#    0.000    0.667    3.333    8.000    0.000    0.000 
#    0.000    4.167    0.000    0.000    0.000    0.000 
#    0.000    0.000    0.000    0.000    0.000    0.000 
#
# Total GULP energy -297606.104730 kJ/mol
# GULP energy per Si atom -12400.254364 kJ/mol
# Density = 2.078425 g / cm^3
# Si number density = 20.831665 Si / 1000 Ang^3
#
#
#
# Elastic Constant Matrix: (Units=GPa)
#
#
# Indices 1 2 3 4 5 6 
#
# 1 56.8291 9.5976 3.8684 0.0000 6.1228 0.0000
# 2 9.5976 139.4238 29.8317 0.0000 6.1070 0.0000
# 3 3.8684 29.8317 37.1560 0.0000 13.3054 0.0000
# 4 0.0000 0.0000 0.0000 18.6359 0.0000 7.2610
# 5 6.1228 6.1070 13.3054 0.0000 37.3318 0.0000
# 6 0.0000 0.0000 0.0000 7.2610 0.0000 36.2782
#
#
#
# Elastic Compliance Matrix: (Units=1/GPa)
#
#
# Indices 1 2 3 4 5 6 
#
# 1 0.018086 -0.001127 0.000021 0.000000 -0.002789 0.000000
# 2 -0.001127 0.008779 -0.007431 0.000000 0.001397 0.000000
# 3 0.000021 -0.007431 0.037190 0.000000 -0.012043 0.000000
# 4 0.000000 0.000000 0.000000 0.058198 0.000000 -0.011648
# 5 -0.002789 0.001397 -0.012043 0.000000 0.031308 0.000000
# 6 0.000000 0.000000 0.000000 -0.011648 0.000000 0.029896
#
#
# Mechanical properties :
#
#
# Convention : Reuss Voigt Hill
#
# Bulk Modulus (GPa) = 21.28573 35.55605 28.42089
# Shear Modulus (GPa) = 23.12749 31.12325 27.12537
#
# Velocity S-wave (km/s) = 3.33559 3.86947 3.61241
# Velocity P-wave (km/s) = 5.00750 6.08844 5.57423
#
# Compressibility (1/GPa) = 0.04697984
#
# Stress axis : x y z
#
# Youngs Moduli (GPa) = 55.29102 113.91058 26.88871
#
# Poissons Ratio (x) = 0.12841 -0.00056
# Poissons Ratio (y) = 0.06233 0.19982
# Poissons Ratio (z) = -0.00116 0.84651
#
# Static dielectric constant tensor:
#      x y z
#    x 4.190040 0.000000 0.460290 
#    y 0.000000 4.238500 0.000000 
#    z 0.460290 0.000000 3.740110 
# 
# 
# High freq. dielectric constant tensor:
#      x y z
#    x 1.817920 0.000000 0.025520 
#    y 0.000000 1.841780 0.000000 
#    z 0.025520 0.000000 1.791540 
# 
# From -- ./inp_files/43927.got.cif
#   From: 2010.06.25/outbox.cif.g09.slc.cpg/sg15_22_cif.got.tgz:43927.got - 2010.06.28 07:06:18.
