data_PCOD8138572
_publ_section_title
;
Structure prediction by ZEFSAII (Michael W. Deem and Ramdas Pophale) SiO2 
 PCOD8138572
Probable space group: C 2/C
;
_chemical_formula_sum "Si O2"
_cell_formula_units_Z 48
_cell_length_a 32.529465
_cell_length_b 15.026488
_cell_length_c 16.674245
_cell_angle_alpha 90.000000
_cell_angle_beta 17.011897
_cell_angle_gamma 90.000000
_cell_volume 2384.573847
_symmetry_space_group_name_H-M "C 2/C"
_symmetry_group_IT_number 15
_symmetry_cell_setting 'monoclinic'
loop_
_space_group_symop_operation_xyz
x,y,z
-x,y,1/2-z
-x,-y,-z
x,-y,1/2+z
1/2+x,1/2+y,z
1/2-x,1/2+y,1/2-z
1/2-x,1/2-y,-z
1/2+x,1/2-y,1/2+z
loop_
_atom_site_type_symbol
_atom_site_label
_atom_site_fract_x
_atom_site_fract_y
_atom_site_fract_z
Si Si1 0.559637 0.790202 0.553896
Si Si2 0.038410 0.532046 0.015889
Si Si3 0.808282 0.411535 0.492959
Si Si4 0.627326 0.276445 0.572887
Si Si5 0.330650 0.548511 0.417948
Si Si6 0.963647 0.910191 0.408754
O O1 0.500000 0.821492 0.750000
O O2 0.499526 0.693148 0.642486
O O3 0.507730 0.862440 0.585184
O O4 0.728444 0.787963 0.245556
O O5 0.944907 0.474193 0.252030
O O6 0.206220 0.518167 0.711540
O O7 0.000000 0.500000 0.000000
O O8 0.860679 0.309822 0.392363
O O9 0.729132 0.434335 0.558522
O O10 0.700964 0.427978 0.766757
O O11 0.500000 0.262859 0.750000
O O12 0.596623 0.361350 0.686112
O O13 0.444269 0.469872 0.202952
O O14 0.000000 0.937215 0.250000
#
# Coordination Sequence:
#
# PCOD8138572 Si02
#       6
#     8   8   8   8   8   8
#     4   9  20  37  56  80 114 149 183 231 286 334
#     4   9  20  37  56  80 110 146 186 228 279 335
#     4  10  21  37  57  83 113 150 187 231 287 339
#     4  10  21  36  57  84 112 148 192 234 280 338
#     4  10  20  38  58  82 115 149 189 237 284 339
#     4  10  21  37  57  83 114 150 191 237 284 339
#
# _framework density 20.129383000000001
#
# number of rings (size 3 to 8) (size 9 to 14) (size 15 to 20)
#    0.000    2.333    0.000    1.500    0.000   10.000 
#    0.000    3.333    0.000    0.000    0.000    0.000 
#    0.000    0.000    0.000    0.000    0.000    0.000 
#
# Total GULP energy -297508.741677 kJ/mol
# GULP energy per Si atom -12396.197570 kJ/mol
# Density = 2.008357 g / cm^3
# Si number density = 20.129383 Si / 1000 Ang^3
#
#
#
# Elastic Constant Matrix: (Units=GPa)
#
#
# Indices 1 2 3 4 5 6 
#
# 1 76.5400 48.3451 28.7127 -0.0001 -3.5285 0.0001
# 2 48.3451 142.6102 65.6840 -0.0002 -9.7303 0.0002
# 3 28.7127 65.6840 101.2279 -0.0003 7.3228 0.0003
# 4 -0.0001 -0.0002 -0.0003 33.0353 0.0002 -2.2196
# 5 -3.5285 -9.7303 7.3228 0.0002 27.9374 -0.0001
# 6 0.0001 0.0002 0.0003 -2.2196 -0.0001 38.6844
#
#
#
# Elastic Compliance Matrix: (Units=1/GPa)
#
#
# Indices 1 2 3 4 5 6 
#
# 1 0.016807 -0.004869 -0.001670 0.000000 0.000865 0.000000
# 2 -0.004869 0.012241 -0.006957 0.000000 0.005472 0.000000
# 3 -0.001670 -0.006957 0.015348 0.000000 -0.006657 0.000000
# 4 0.000000 0.000000 0.000000 0.030388 0.000000 0.001744
# 5 0.000865 0.005472 -0.006657 0.000000 0.039554 0.000000
# 6 0.000000 0.000000 0.000000 0.001744 0.000000 0.025950
#
#
# Mechanical properties :
#
#
# Convention : Reuss Voigt Hill
#
# Bulk Modulus (GPa) = 57.46312 67.31797 62.39055
# Shear Modulus (GPa) = 28.88792 31.77383 30.33087
#
# Velocity S-wave (km/s) = 3.79240 3.97732 3.88596
# Velocity P-wave (km/s) = 6.91269 7.38968 7.15516
#
# Compressibility (1/GPa) = 0.01740247
#
# Stress axis : x y z
#
# Youngs Moduli (GPa) = 59.49861 81.69549 65.15358
#
# Poissons Ratio (x) = 0.39781 0.10882
# Poissons Ratio (y) = 0.28972 0.45329
# Poissons Ratio (z) = 0.09937 0.56837
#
# Static dielectric constant tensor:
#      x y z
#    x 3.258450 0.000000 0.135380 
#    y 0.000000 3.941650 0.000000 
#    z 0.135380 0.000000 4.245480 
# 
# 
# High freq. dielectric constant tensor:
#      x y z
#    x 1.755940 0.000000 0.008690 
#    y 0.000000 1.798440 0.000000 
#    z 0.008690 0.000000 1.797570 
# 
# From -- ./inp_files/143439.got.cif
#   From: 2010.06.25/outbox.cif.g09.slc.cpg/sg15_72_cif.got.tgz:143439.got - 2010.06.28 07:06:18.
