data_PCOD8138219
_publ_section_title
;
Structure prediction by ZEFSAII (Michael W. Deem and Ramdas Pophale) SiO2 
 PCOD8138219
Probable space group: C 2/C
;
_chemical_formula_sum "Si O2"
_cell_formula_units_Z 64
_cell_length_a 16.272157
_cell_length_b 17.865846
_cell_length_c 26.284177
_cell_angle_alpha 90.000000
_cell_angle_beta 155.717435
_cell_angle_gamma 90.000000
_cell_volume 3142.355230
_symmetry_space_group_name_H-M "C 2/C"
_symmetry_group_IT_number 15
_symmetry_cell_setting 'monoclinic'
loop_
_space_group_symop_operation_xyz
x,y,z
-x,y,1/2-z
-x,-y,-z
x,-y,1/2+z
1/2+x,1/2+y,z
1/2-x,1/2+y,1/2-z
1/2-x,1/2-y,-z
1/2+x,1/2-y,1/2+z
loop_
_atom_site_type_symbol
_atom_site_label
_atom_site_fract_x
_atom_site_fract_y
_atom_site_fract_z
Si Si1 0.179582 0.825386 0.314749
Si Si2 0.286213 0.485272 0.924892
Si Si3 0.528494 0.034731 0.179397
Si Si4 0.333836 0.810088 0.761029
Si Si5 0.223445 0.924616 0.855591
Si Si6 0.390504 0.780333 0.906617
Si Si7 0.626591 0.039629 0.635177
Si Si8 0.471303 0.372145 0.493836
O O1 0.086341 0.755818 0.230829
O O2 0.372531 0.800475 0.456851
O O3 0.251649 0.887747 0.314729
O O4 0.000000 0.855124 0.250000
O O5 0.145184 0.468208 0.797755
O O6 0.346912 0.571624 0.958189
O O7 0.199111 0.480044 0.932607
O O8 0.454833 0.421488 0.013199
O O9 0.519060 0.118985 0.152279
O O10 0.622289 0.973841 0.193561
O O11 0.308725 0.778943 0.803343
O O12 0.128413 0.838652 0.621923
O O13 0.259973 0.836777 0.867131
O O14 0.000000 0.938669 0.750000
O O15 0.259344 0.967505 0.822865
O O16 0.391274 0.957813 0.988212
O O17 0.344481 0.697266 0.901194
#
# Coordination Sequence:
#
# PCOD8138219 Si02
#       8
#     8   8   8   8   8   8   8   8
#     4  10  23  39  60  88 124 159 201 259 304 362
#     4   9  20  38  61  87 118 159 203 255 307 358
#     4  10  20  37  61  87 117 158 195 255 312 362
#     4  10  21  37  60  84 122 158 196 248 320 359
#     4  10  21  40  61  85 125 166 198 253 310 359
#     4  10  21  39  58  88 122 159 201 252 305 371
#     4  10  21  40  60  91 122 154 215 253 295 372
#     4   9  20  39  58  86 122 156 204 255 298 368
#
# _framework density 20.366889
#
# number of rings (size 3 to 8) (size 9 to 14) (size 15 to 20)
#    0.000    2.250    1.250    0.375    7.000    1.500 
#    4.500    0.000    0.000    4.500    0.000    0.000 
#    0.000    0.000    0.000    0.000    0.000    0.000 
#
# Total GULP energy -396489.323687 kJ/mol
# GULP energy per Si atom -12390.291365 kJ/mol
# Density = 2.032053 g / cm^3
# Si number density = 20.366889 Si / 1000 Ang^3
#
#
#
# Elastic Constant Matrix: (Units=GPa)
#
#
# Indices 1 2 3 4 5 6 
#
# 1 127.0526 58.3850 38.4179 -0.0013 6.5697 -0.0010
# 2 58.3850 154.2954 29.9773 0.0082 3.7394 0.0013
# 3 38.4179 29.9773 41.2568 0.0197 10.1276 0.0060
# 4 -0.0013 0.0082 0.0197 24.3286 0.0021 -0.0143
# 5 6.5697 3.7394 10.1276 0.0021 33.0755 -0.0005
# 6 -0.0010 0.0013 0.0060 -0.0143 -0.0005 20.4882
#
#
#
# Elastic Compliance Matrix: (Units=1/GPa)
#
#
# Indices 1 2 3 4 5 6 
#
# 1 0.011885 -0.002711 -0.009292 0.000009 0.000791 0.000004
# 2 -0.002711 0.008189 -0.003601 0.000000 0.000715 0.000000
# 3 -0.009292 -0.003601 0.037795 -0.000029 -0.009320 -0.000011
# 4 0.000009 0.000000 -0.000029 0.041104 0.000005 0.000029
# 5 0.000791 0.000715 -0.009320 0.000005 0.032850 0.000004
# 6 0.000004 0.000000 -0.000011 0.000029 0.000004 0.048808
#
#
# Mechanical properties :
#
#
# Convention : Reuss Voigt Hill
#
# Bulk Modulus (GPa) = 37.50716 64.01835 50.76275
# Shear Modulus (GPa) = 22.65234 28.63345 25.64289
#
# Velocity S-wave (km/s) = 3.33861 3.75358 3.55216
# Velocity P-wave (km/s) = 5.77213 7.09130 6.46545
#
# Compressibility (1/GPa) = 0.02666158
#
# Stress axis : x y z
#
# Youngs Moduli (GPa) = 84.13679 122.10947 26.45833
#
# Poissons Ratio (x) = 0.33108 0.24584
# Poissons Ratio (y) = 0.22812 0.09528
# Poissons Ratio (z) = 0.78177 0.43975
#
# Static dielectric constant tensor:
#      x y z
#    x 3.921790 0.000020 0.169840 
#    y 0.000020 4.057260 -0.000020 
#    z 0.169840 -0.000020 3.572130 
# 
# 
# High freq. dielectric constant tensor:
#      x y z
#    x 1.785980 0.000000 -0.004970 
#    y 0.000000 1.810050 0.000000 
#    z -0.004970 0.000000 1.776110 
# 
# From -- ./inp_files/274864.got.cif
#   From: 2010.06.25/outbox.cif.g09.slc.cpg/sg15_138_cif.got.tgz:274864.got - 2010.06.28 07:06:18.
