data_PCOD8138989
_publ_section_title
;
Structure prediction by ZEFSAII (Michael W. Deem and Ramdas Pophale) SiO2 
 PCOD8138989
Probable space group: C 2/C
;
_chemical_formula_sum "Si O2"
_cell_formula_units_Z 64
_cell_length_a 23.844510
_cell_length_b 14.219323
_cell_length_c 18.172934
_cell_angle_alpha 90.000000
_cell_angle_beta 31.019470
_cell_angle_gamma 90.000000
_cell_volume 3175.244900
_symmetry_space_group_name_H-M "C 2/C"
_symmetry_group_IT_number 15
_symmetry_cell_setting 'monoclinic'
loop_
_space_group_symop_operation_xyz
x,y,z
-x,y,1/2-z
-x,-y,-z
x,-y,1/2+z
1/2+x,1/2+y,z
1/2-x,1/2+y,1/2-z
1/2-x,1/2-y,-z
1/2+x,1/2-y,1/2+z
loop_
_atom_site_type_symbol
_atom_site_label
_atom_site_fract_x
_atom_site_fract_y
_atom_site_fract_z
Si Si1 0.289158 0.918575 0.862504
Si Si2 0.103731 0.061688 0.685471
Si Si3 0.849332 0.780559 0.255115
Si Si4 0.336153 0.876210 0.109648
Si Si5 0.498257 0.977415 0.088033
Si Si6 0.993122 0.721938 0.545592
Si Si7 0.336401 0.506947 0.129278
Si Si8 0.063488 0.913807 0.840855
O O1 0.349507 0.818222 0.797232
O O2 0.382298 0.999171 0.755825
O O3 0.212529 0.923378 0.876890
O O4 0.216966 0.926657 0.016042
O O5 0.089152 0.141114 0.765196
O O6 0.000000 0.069622 0.750000
O O7 0.114351 0.958155 0.709914
O O8 0.725300 0.814418 0.382263
O O9 0.906247 0.768518 0.111505
O O10 0.407970 0.808203 0.079084
O O11 0.249705 0.925089 0.260166
O O12 0.407137 0.955411 0.985584
O O13 0.525222 0.865934 0.062627
O O14 0.500000 0.000000 0.000000
O O15 0.945504 0.801022 0.654027
O O16 0.358455 0.564975 0.178223
O O17 0.446324 0.461785 0.977020
#
# Coordination Sequence:
#
# PCOD8138989 Si02
#       8
#     8   8   8   8   8   8   8   8
#     4  12  23  41  63  93 132 172 207 260 331 391
#     4  12  27  42  60  90 139 175 207 260 332 390
#     4  12  23  40  62  99 127 165 217 261 326 396
#     4  11  20  37  65  98 129 158 208 279 329 365
#     4  10  20  38  63  95 128 159 210 268 322 376
#     4  11  21  38  69 101 123 162 223 273 315 376
#     4  11  19  38  67  89 125 167 212 270 314 362
#     4  11  22  40  60  97 126 164 222 266 309 379
#
# _framework density 20.155923999999999
#
# number of rings (size 3 to 8) (size 9 to 14) (size 15 to 20)
#    0.000    0.750    8.750    1.875    1.750    0.000 
#    0.000    1.250    0.000    1.500    0.000    0.000 
#    0.000    0.000    0.000    0.000    0.000    0.000 
#
# Total GULP energy -396750.405549 kJ/mol
# GULP energy per Si atom -12398.450173 kJ/mol
# Density = 2.011005 g / cm^3
# Si number density = 20.155924 Si / 1000 Ang^3
#
#
#
# Elastic Constant Matrix: (Units=GPa)
#
#
# Indices 1 2 3 4 5 6 
#
# 1 60.3388 39.4594 16.9526 0.0000 -13.3717 0.0000
# 2 39.4594 149.0079 39.2881 0.0000 6.6291 0.0000
# 3 16.9526 39.2881 88.4654 0.0000 2.5924 0.0000
# 4 0.0000 0.0000 0.0000 36.6684 0.0000 -4.9519
# 5 -13.3717 6.6291 2.5924 0.0000 22.7156 0.0000
# 6 0.0000 0.0000 0.0000 -4.9519 0.0000 23.7758
#
#
#
# Elastic Compliance Matrix: (Units=1/GPa)
#
#
# Indices 1 2 3 4 5 6 
#
# 1 0.025619 -0.006941 -0.002336 0.000000 0.017373 0.000000
# 2 -0.006941 0.009559 -0.002723 0.000000 -0.006565 0.000000
# 3 -0.002336 -0.002723 0.013021 0.000000 -0.002066 0.000000
# 4 0.000000 0.000000 0.000000 0.028061 0.000000 0.005844
# 5 0.017373 -0.006565 -0.002066 0.000000 0.056401 0.000000
# 6 0.000000 0.000000 0.000000 0.005844 0.000000 0.043277
#
#
# Mechanical properties :
#
#
# Convention : Reuss Voigt Hill
#
# Bulk Modulus (GPa) = 41.32311 54.35691 47.84001
# Shear Modulus (GPa) = 24.03805 30.10608 27.07206
#
# Velocity S-wave (km/s) = 3.45716 3.86898 3.66885
# Velocity P-wave (km/s) = 6.04004 6.85459 6.46017
#
# Compressibility (1/GPa) = 0.02419953
#
# Stress axis : x y z
#
# Youngs Moduli (GPa) = 39.03406 104.61196 76.79777
#
# Poissons Ratio (x) = 0.72613 0.17938
# Poissons Ratio (y) = 0.27094 0.20910
# Poissons Ratio (z) = 0.09117 0.28483
#
# Static dielectric constant tensor:
#      x y z
#    x 3.557870 0.000000 -0.287260 
#    y 0.000000 4.074740 0.000000 
#    z -0.287260 0.000000 3.851130 
# 
# 
# High freq. dielectric constant tensor:
#      x y z
#    x 1.758710 0.000000 -0.024670 
#    y 0.000000 1.796390 0.000000 
#    z -0.024670 0.000000 1.783950 
# 
# From -- ./inp_files/219704.got.cif
#   From: 2010.06.25/outbox.cif.g09.slc.cpg/sg15_110_cif.got.tgz:219704.got - 2010.06.28 07:06:18.
