data_PCOD8138304
_publ_section_title
;
Structure prediction by ZEFSAII (Michael W. Deem and Ramdas Pophale) SiO2 
 PCOD8138304
Probable space group: C 2/C
;
_chemical_formula_sum "Si O2"
_cell_formula_units_Z 56
_cell_length_a 30.222339
_cell_length_b 5.037590
_cell_length_c 20.916895
_cell_angle_alpha 90.000000
_cell_angle_beta 118.361104
_cell_angle_gamma 90.000000
_cell_volume 2802.312684
_symmetry_space_group_name_H-M "C 2/C"
_symmetry_group_IT_number 15
_symmetry_cell_setting 'monoclinic'
loop_
_space_group_symop_operation_xyz
x,y,z
-x,y,1/2-z
-x,-y,-z
x,-y,1/2+z
1/2+x,1/2+y,z
1/2-x,1/2+y,1/2-z
1/2-x,1/2-y,-z
1/2+x,1/2-y,1/2+z
loop_
_atom_site_type_symbol
_atom_site_label
_atom_site_fract_x
_atom_site_fract_y
_atom_site_fract_z
Si Si1 0.466741 0.411882 0.917641
Si Si2 0.414178 0.307696 0.273418
Si Si3 0.435152 0.740787 0.068634
Si Si4 0.896205 0.264263 0.471739
Si Si5 0.800427 0.259811 0.336392
Si Si6 0.943005 0.302639 0.217050
Si Si7 0.810090 0.759529 0.258774
O O1 0.444506 0.657939 0.861215
O O2 0.503718 0.235686 0.897842
O O3 0.420479 0.250728 0.916871
O O4 0.500000 0.500000 0.000000
O O5 0.412369 0.593973 0.238420
O O6 0.357165 0.211124 0.244756
O O7 0.441198 0.093405 0.247153
O O8 0.419257 0.806284 0.129900
O O9 0.418418 0.444190 0.037708
O O10 0.406491 0.941406 0.003050
O O11 0.836338 0.218786 0.422557
O O12 0.810722 0.553554 0.317316
O O13 0.741993 0.226962 0.316958
O O14 0.814061 0.053020 0.290210
O O15 0.000000 0.204318 0.250000
#
# Coordination Sequence:
#
# PCOD8138304 Si02
#       7
#     8   8   8   8   8   8   8
#     4  10  23  36  59  89 123 154 190 244 303 366
#     4  12  24  40  63  86 124 162 199 254 293 353
#     4  11  24  40  56  87 120 163 206 240 288 363
#     4  11  22  38  63  86 124 154 192 250 312 358
#     4  10  20  37  62  91 123 153 190 247 313 371
#     4  12  26  41  61  82 120 169 214 240 284 344
#     4  10  21  37  60  93 122 152 196 246 307 365
#
# _framework density 19.983492999999999
#
# number of rings (size 3 to 8) (size 9 to 14) (size 15 to 20)
#    0.000    1.143    2.857    3.429    6.000    0.000 
#    0.000    0.000    0.000    5.143    0.000    0.000 
#    0.000    0.000    0.000    0.000    0.000    0.000 
#
# Total GULP energy -347229.546946 kJ/mol
# GULP energy per Si atom -12401.055248 kJ/mol
# Density = 1.993801 g / cm^3
# Si number density = 19.983493 Si / 1000 Ang^3
#
#
#
# Elastic Constant Matrix: (Units=GPa)
#
#
# Indices 1 2 3 4 5 6 
#
# 1 94.5812 16.4490 53.5103 0.0016 12.7925 -0.0005
# 2 16.4490 75.9777 23.6750 -0.0004 -1.1480 -0.0013
# 3 53.5103 23.6750 98.5838 -0.0011 1.3361 0.0004
# 4 0.0016 -0.0004 -0.0011 35.7179 0.0021 -3.2801
# 5 12.7925 -1.1480 1.3361 0.0021 31.4254 -0.0007
# 6 -0.0005 -0.0013 0.0004 -3.2801 -0.0007 27.0601
#
#
#
# Elastic Compliance Matrix: (Units=1/GPa)
#
#
# Indices 1 2 3 4 5 6 
#
# 1 0.016487 -0.000977 -0.008628 -0.000001 -0.006380 0.000000
# 2 -0.000977 0.014298 -0.002917 0.000000 0.001044 0.000001
# 3 -0.008628 -0.002917 0.015490 0.000001 0.002747 0.000000
# 4 -0.000001 0.000000 0.000001 0.028312 -0.000002 0.003432
# 5 -0.006380 0.001044 0.002747 -0.000002 0.034340 0.000001
# 6 0.000000 0.000001 0.000000 0.003432 0.000001 0.037371
#
#
# Mechanical properties :
#
#
# Convention : Reuss Voigt Hill
#
# Bulk Modulus (GPa) = 47.10250 50.71237 48.90743
# Shear Modulus (GPa) = 28.02365 30.54125 29.28245
#
# Velocity S-wave (km/s) = 3.74885 3.91362 3.83212
# Velocity P-wave (km/s) = 6.50848 6.77157 6.64133
#
# Compressibility (1/GPa) = 0.02123030
#
# Stress axis : x y z
#
# Youngs Moduli (GPa) = 60.65314 69.93889 64.55703
#
# Poissons Ratio (x) = 0.06836 0.55699
# Poissons Ratio (y) = 0.05928 0.18834
# Poissons Ratio (z) = 0.52331 0.20404
#
# Static dielectric constant tensor:
#      x y z
#    x 3.893990 -0.000010 0.071910 
#    y -0.000010 3.540620 0.000010 
#    z 0.071910 0.000010 3.594390 
# 
# 
# High freq. dielectric constant tensor:
#      x y z
#    x 1.766990 0.000000 0.013100 
#    y 0.000000 1.788470 0.000000 
#    z 0.013100 0.000000 1.768990 
# 
# From -- ./inp_files/221291.got.cif
#   From: 2010.06.25/outbox.cif.g09.slc.cpg/sg15_111_cif.got.tgz:221291.got - 2010.06.28 07:06:18.
