data_PCOD8138302
_publ_section_title
;
Structure prediction by ZEFSAII (Michael W. Deem and Ramdas Pophale) SiO2 
 PCOD8138302
Probable space group: C 2/C
;
_chemical_formula_sum "Si O2"
_cell_formula_units_Z 52
_cell_length_a 11.404714
_cell_length_b 8.645884
_cell_length_c 24.594872
_cell_angle_alpha 90.000000
_cell_angle_beta 93.708406
_cell_angle_gamma 90.000000
_cell_volume 2420.070761
_symmetry_space_group_name_H-M "C 2/C"
_symmetry_group_IT_number 15
_symmetry_cell_setting 'monoclinic'
loop_
_space_group_symop_operation_xyz
x,y,z
-x,y,1/2-z
-x,-y,-z
x,-y,1/2+z
1/2+x,1/2+y,z
1/2-x,1/2+y,1/2-z
1/2-x,1/2-y,-z
1/2+x,1/2-y,1/2+z
loop_
_atom_site_type_symbol
_atom_site_label
_atom_site_fract_x
_atom_site_fract_y
_atom_site_fract_z
Si Si1 0.070643 0.853515 0.482740
Si Si2 0.799007 0.071881 0.778603
Si Si3 0.793130 0.337613 0.422276
Si Si4 0.020352 0.436365 0.560320
Si Si5 0.000000 0.704222 0.250000
Si Si6 0.915328 0.543461 0.662659
Si Si7 0.145401 0.732442 0.690066
O O1 0.131253 0.768111 0.534921
O O2 0.169607 0.892940 0.441791
O O3 0.978240 0.747839 0.446882
O O4 0.000000 0.000000 0.500000
O O5 0.716896 0.104242 0.829312
O O6 0.850092 0.897120 0.779147
O O7 0.712493 0.097467 0.724691
O O8 0.906585 0.190770 0.779743
O O9 0.785963 0.246780 0.365257
O O10 0.857601 0.501076 0.412472
O O11 0.918766 0.489909 0.599620
O O12 0.000000 0.500000 0.500000
O O13 0.934889 0.602924 0.202800
O O14 0.010132 0.679365 0.677656
#
# Coordination Sequence:
#
# PCOD8138302 Si02
#       7
#     8   8   8   8   4   8   8
#     4  10  20  37  62  91 122 161 206 251 307 372
#     4  12  24  40  62  91 125 164 212 259 312 381
#     4   9  21  40  59  88 124 160 203 257 309 367
#     4   9  20  40  65  88 121 162 199 254 314 361
#     4  12  26  38  62  94 120 172 212 254 324 374
#     4  11  22  44  64  89 129 164 208 264 314 375
#     4  11  22  42  64  88 129 167 208 266 319 370
#
# _framework density 21.486975000000001
#
# number of rings (size 3 to 8) (size 9 to 14) (size 15 to 20)
#    0.000    1.538    3.077    0.923    2.154    1.846 
#    0.000    9.231    0.000    0.000    0.000    0.000 
#    0.000    0.000    0.000    0.000    0.000    0.000 
#
# Total GULP energy -322266.031681 kJ/mol
# GULP energy per Si atom -12394.847372 kJ/mol
# Density = 2.143807 g / cm^3
# Si number density = 21.486975 Si / 1000 Ang^3
#
#
#
# Elastic Constant Matrix: (Units=GPa)
#
#
# Indices 1 2 3 4 5 6 
#
# 1 106.2304 60.0032 28.8447 0.0000 -38.7421 0.0000
# 2 60.0032 95.9213 29.4079 0.0000 -25.8633 0.0000
# 3 28.8447 29.4079 109.3705 0.0000 -30.9982 0.0000
# 4 0.0000 0.0000 0.0000 26.3716 0.0000 -5.1405
# 5 -38.7421 -25.8633 -30.9982 0.0000 35.6552 0.0000
# 6 0.0000 0.0000 0.0000 -5.1405 0.0000 28.7972
#
#
#
# Elastic Compliance Matrix: (Units=1/GPa)
#
#
# Indices 1 2 3 4 5 6 
#
# 1 0.019912 -0.008400 0.001874 0.000000 0.017172 0.000000
# 2 -0.008400 0.016602 -0.001887 0.000000 0.001274 0.000000
# 3 0.001874 -0.001887 0.012401 0.000000 0.011449 0.000000
# 4 0.000000 0.000000 0.000000 0.039287 0.000000 0.007013
# 5 0.017172 0.001274 0.011449 0.000000 0.057583 0.000000
# 6 0.000000 0.000000 0.000000 0.007013 0.000000 0.035977
#
#
# Mechanical properties :
#
#
# Convention : Reuss Voigt Hill
#
# Bulk Modulus (GPa) = 31.16403 60.89265 46.02834
# Shear Modulus (GPa) = 23.89075 31.04924 27.47000
#
# Velocity S-wave (km/s) = 3.33809 3.80547 3.57942
# Velocity P-wave (km/s) = 5.42147 6.90722 6.20895
#
# Compressibility (1/GPa) = 0.03208827
#
# Stress axis : x y z
#
# Youngs Moduli (GPa) = 50.22076 60.23258 80.63647
#
# Poissons Ratio (x) = 0.50598 -0.15113
# Poissons Ratio (y) = 0.42188 0.15220
# Poissons Ratio (z) = -0.09412 0.11369
#
# Static dielectric constant tensor:
#      x y z
#    x 4.050920 0.000000 -0.205030 
#    y 0.000000 4.004000 0.000000 
#    z -0.205030 0.000000 4.092020 
# 
# 
# High freq. dielectric constant tensor:
#      x y z
#    x 1.842240 0.000000 -0.020990 
#    y 0.000000 1.837000 0.000000 
#    z -0.020990 0.000000 1.849900 
# 
# From -- ./inp_files/291195.got.cif
#   From: 2010.06.25/outbox.cif.g09.slc.cpg/sg15_146_cif.got.tgz:291195.got - 2010.06.28 07:06:18.
