data_PCOD8138683
_publ_section_title
;
Structure prediction by ZEFSAII (Michael W. Deem and Ramdas Pophale) SiO2 
 PCOD8138683
Probable space group: C 2/C
;
_chemical_formula_sum "Si O2"
_cell_formula_units_Z 44
_cell_length_a 6.409833
_cell_length_b 22.729959
_cell_length_c 15.095693
_cell_angle_alpha 90.000000
_cell_angle_beta 109.512695
_cell_angle_gamma 90.000000
_cell_volume 2073.055294
_symmetry_space_group_name_H-M "C 2/C"
_symmetry_group_IT_number 15
_symmetry_cell_setting 'monoclinic'
loop_
_space_group_symop_operation_xyz
x,y,z
-x,y,1/2-z
-x,-y,-z
x,-y,1/2+z
1/2+x,1/2+y,z
1/2-x,1/2+y,1/2-z
1/2-x,1/2-y,-z
1/2+x,1/2-y,1/2+z
loop_
_atom_site_type_symbol
_atom_site_label
_atom_site_fract_x
_atom_site_fract_y
_atom_site_fract_z
Si Si1 0.921271 0.559486 0.591453
Si Si2 0.008163 0.135950 0.496905
Si Si3 0.085854 0.214004 0.663344
Si Si4 0.500000 0.860209 0.250000
Si Si5 0.209139 0.834966 0.843967
Si Si6 0.064277 0.427852 0.915103
O O1 0.669031 0.583789 0.554200
O O2 0.072977 0.597405 0.679922
O O3 0.916586 0.492290 0.625478
O O4 0.047637 0.564634 0.517621
O O5 0.785397 0.108409 0.425297
O O6 0.940816 0.182461 0.565482
O O7 0.127835 0.170415 0.433684
O O8 0.317901 0.182527 0.686021
O O9 0.116799 0.282754 0.649116
O O10 0.000000 0.203257 0.750000
O O11 0.347296 0.894839 0.846204
O O12 0.000000 0.832496 0.750000
#
# Coordination Sequence:
#
# PCOD8138683 Si02
#       6
#     8   8   8   4   8   8
#     4   9  20  38  60  92 119 158 196 252 296 362
#     4  10  22  40  64  89 119 160 201 249 308 356
#     4  11  23  40  63  88 118 159 206 251 299 363
#     4  10  20  38  60  86 122 154 202 248 300 350
#     4  11  25  40  58  89 124 160 202 249 303 361
#     4  10  21  39  62  86 124 156 203 245 306 361
#
# _framework density 21.224710999999999
#
# number of rings (size 3 to 8) (size 9 to 14) (size 15 to 20)
#    0.000    1.818    0.909    2.182    2.545    2.182 
#    0.000    4.545    0.000    0.000    0.000    0.000 
#    0.000    0.000    0.000    0.000    0.000    0.000 
#
# Total GULP energy -272776.892953 kJ/mol
# GULP energy per Si atom -12398.949680 kJ/mol
# Density = 2.117640 g / cm^3
# Si number density = 21.224711 Si / 1000 Ang^3
#
#
#
# Elastic Constant Matrix: (Units=GPa)
#
#
# Indices 1 2 3 4 5 6 
#
# 1 50.2887 17.5688 1.5258 0.0000 -7.2939 0.0000
# 2 17.5688 123.9559 34.6639 0.0000 -3.9807 0.0000
# 3 1.5258 34.6639 63.5644 0.0000 -10.2042 0.0000
# 4 0.0000 0.0000 0.0000 29.5514 0.0000 -5.4323
# 5 -7.2939 -3.9807 -10.2042 0.0000 30.3539 0.0000
# 6 0.0000 0.0000 0.0000 -5.4323 0.0000 25.3813
#
#
#
# Elastic Compliance Matrix: (Units=1/GPa)
#
#
# Indices 1 2 3 4 5 6 
#
# 1 0.021869 -0.003568 0.002314 0.000000 0.005565 0.000000
# 2 -0.003568 0.010109 -0.005657 0.000000 -0.001433 0.000000
# 3 0.002314 -0.005657 0.019800 0.000000 0.006471 0.000000
# 4 0.000000 0.000000 0.000000 0.035225 0.000000 0.007539
# 5 0.005565 -0.001433 0.006471 0.000000 0.036269 0.000000
# 6 0.000000 0.000000 0.000000 0.007539 0.000000 0.041013
#
#
# Mechanical properties :
#
#
# Convention : Reuss Voigt Hill
#
# Bulk Modulus (GPa) = 26.34643 38.36956 32.35799
# Shear Modulus (GPa) = 26.21104 29.32737 27.76921
#
# Velocity S-wave (km/s) = 3.51797 3.72123 3.62103
# Velocity P-wave (km/s) = 5.37973 6.04818 5.72372
#
# Compressibility (1/GPa) = 0.03795581
#
# Stress axis : x y z
#
# Youngs Moduli (GPa) = 45.72769 98.92084 50.50409
#
# Poissons Ratio (x) = 0.35294 -0.11687
# Poissons Ratio (y) = 0.16315 0.28572
# Poissons Ratio (z) = -0.10582 0.55963
#
# Static dielectric constant tensor:
#      x y z
#    x 3.566940 0.000000 -0.014060 
#    y 0.000000 4.066660 0.000000 
#    z -0.014060 0.000000 3.980370 
# 
# 
# High freq. dielectric constant tensor:
#      x y z
#    x 1.816870 0.000000 -0.003600 
#    y 0.000000 1.843640 0.000000 
#    z -0.003600 0.000000 1.833730 
# 
# From -- ./inp_files/129451.got.cif
#   From: 2010.06.25/outbox.cif.g09.slc.cpg/sg15_65_cif.got.tgz:129451.got - 2010.06.28 07:06:18.
