data_PCOD8138931
_publ_section_title
;
Structure prediction by ZEFSAII (Michael W. Deem and Ramdas Pophale) SiO2 
 PCOD8138931
Probable space group: C 2/C
;
_chemical_formula_sum "Si O2"
_cell_formula_units_Z 48
_cell_length_a 15.160381
_cell_length_b 11.933345
_cell_length_c 24.379077
_cell_angle_alpha 90.000000
_cell_angle_beta 30.364015
_cell_angle_gamma 90.000000
_cell_volume 2229.481234
_symmetry_space_group_name_H-M "C 2/C"
_symmetry_group_IT_number 15
_symmetry_cell_setting 'monoclinic'
loop_
_space_group_symop_operation_xyz
x,y,z
-x,y,1/2-z
-x,-y,-z
x,-y,1/2+z
1/2+x,1/2+y,z
1/2-x,1/2+y,1/2-z
1/2-x,1/2-y,-z
1/2+x,1/2-y,1/2+z
loop_
_atom_site_type_symbol
_atom_site_label
_atom_site_fract_x
_atom_site_fract_y
_atom_site_fract_z
Si Si1 0.433009 0.365902 0.202845
Si Si2 0.437015 0.721653 0.522481
Si Si3 0.605182 0.077803 0.537392
Si Si4 0.276452 0.854213 0.077518
Si Si5 0.684705 0.797226 0.251730
Si Si6 0.967264 0.094948 0.399925
O O1 0.621772 0.316576 0.118990
O O2 0.315742 0.399695 0.317944
O O3 0.332535 0.275368 0.219335
O O4 0.451554 0.474757 0.154825
O O5 0.390672 0.834154 0.514514
O O6 0.600389 0.748053 0.475382
O O7 0.271621 0.680690 0.646334
O O8 0.485788 0.622074 0.454631
O O9 0.431172 0.095515 0.667347
O O10 0.766560 0.099777 0.490557
O O11 0.608212 0.953577 0.510445
O O12 0.567495 0.686886 0.309935
#
# Coordination Sequence:
#
# PCOD8138931 Si02
#       6
#     8   8   8   8   8   8
#     4  10  21  38  61  89 117 155 204 245 302 354
#     4  11  21  35  60  87 120 157 195 248 304 356
#     4  10  21  37  58  89 118 152 202 252 295 348
#     4  10  20  38  63  86 116 156 207 251 285 358
#     4  11  22  34  60  88 116 159 196 245 307 360
#     4  10  22  38  57  89 124 151 197 257 297 351
#
# _framework density 21.529672000000001
#
# number of rings (size 3 to 8) (size 9 to 14) (size 15 to 20)
#    0.000    1.667    3.333    3.500    2.333    5.333 
#    0.000    0.000    0.000    0.000    0.000    0.000 
#    0.000    0.000    0.000    0.000    0.000    0.000 
#
# Total GULP energy -297595.668298 kJ/mol
# GULP energy per Si atom -12399.819512 kJ/mol
# Density = 2.148067 g / cm^3
# Si number density = 21.529672 Si / 1000 Ang^3
#
#
#
# Elastic Constant Matrix: (Units=GPa)
#
#
# Indices 1 2 3 4 5 6 
#
# 1 90.8283 29.8996 38.6171 0.0007 -14.7038 -0.0001
# 2 29.8996 26.8791 24.9778 -0.0005 -3.9073 0.0001
# 3 38.6171 24.9778 145.4969 -0.0033 10.2977 0.0011
# 4 0.0007 -0.0005 -0.0033 15.2765 0.0004 -0.3162
# 5 -14.7038 -3.9073 10.2977 0.0004 32.1972 -0.0001
# 6 -0.0001 0.0001 0.0011 -0.3162 -0.0001 37.2949
#
#
#
# Elastic Compliance Matrix: (Units=1/GPa)
#
#
# Indices 1 2 3 4 5 6 
#
# 1 0.019180 -0.017898 -0.002542 -0.000002 0.007400 0.000000
# 2 -0.017898 0.063067 -0.006180 0.000001 0.001456 0.000000
# 3 -0.002542 -0.006180 0.008946 0.000002 -0.004772 0.000000
# 4 -0.000002 0.000001 0.000002 0.065472 -0.000002 0.000555
# 5 0.007400 0.001456 -0.004772 -0.000002 0.036141 0.000000
# 6 0.000000 0.000000 0.000000 0.000555 0.000000 0.026818
#
#
# Mechanical properties :
#
#
# Convention : Reuss Voigt Hill
#
# Bulk Modulus (GPa) = 26.34713 50.02147 38.18430
# Shear Modulus (GPa) = 17.51228 28.26771 22.88999
#
# Velocity S-wave (km/s) = 2.85511 3.62742 3.26419
# Velocity P-wave (km/s) = 4.80968 6.38971 5.65515
#
# Compressibility (1/GPa) = 0.03795480
#
# Stress axis : x y z
#
# Youngs Moduli (GPa) = 52.13698 15.85622 111.77836
#
# Poissons Ratio (x) = 0.28379 0.28413
# Poissons Ratio (y) = 0.93313 0.69074
# Poissons Ratio (z) = 0.13253 0.09798
#
# Static dielectric constant tensor:
#      x y z
#    x 4.103190 0.000000 -0.156000 
#    y 0.000000 3.463560 0.000000 
#    z -0.156000 0.000000 4.070140 
# 
# 
# High freq. dielectric constant tensor:
#      x y z
#    x 1.855150 0.000000 -0.007690 
#    y 0.000000 1.806830 0.000000 
#    z -0.007690 0.000000 1.858610 
# 
# From -- ./inp_files/154094.got.cif
#   From: 2010.06.25/outbox.cif.g09.slc.cpg/sg15_78_cif.got.tgz:154094.got - 2010.06.28 07:06:18.
