data_PCOD8138169
_publ_section_title
;
Structure prediction by ZEFSAII (Michael W. Deem and Ramdas Pophale) SiO2 
 PCOD8138169
Probable space group: C 2/C
;
_chemical_formula_sum "Si O2"
_cell_formula_units_Z 48
_cell_length_a 10.860675
_cell_length_b 22.852241
_cell_length_c 19.017992
_cell_angle_alpha 90.000000
_cell_angle_beta 31.913488
_cell_angle_gamma 90.000000
_cell_volume 2495.219737
_symmetry_space_group_name_H-M "C 2/C"
_symmetry_group_IT_number 15
_symmetry_cell_setting 'monoclinic'
loop_
_space_group_symop_operation_xyz
x,y,z
-x,y,1/2-z
-x,-y,-z
x,-y,1/2+z
1/2+x,1/2+y,z
1/2-x,1/2+y,1/2-z
1/2-x,1/2-y,-z
1/2+x,1/2-y,1/2+z
loop_
_atom_site_type_symbol
_atom_site_label
_atom_site_fract_x
_atom_site_fract_y
_atom_site_fract_z
Si Si1 0.629163 0.666486 0.757041
Si Si2 0.218160 0.656237 0.059107
Si Si3 0.003222 0.874682 0.667417
Si Si4 0.537434 0.941798 0.889365
Si Si5 0.502466 0.926334 0.070291
Si Si6 0.756292 0.794711 0.692481
O O1 0.500000 0.644209 0.750000
O O2 0.773139 0.725691 0.668718
O O3 0.809901 0.617411 0.695009
O O4 0.443512 0.678152 0.908192
O O5 0.269959 0.664964 0.116305
O O6 0.151461 0.589290 0.070378
O O7 0.992156 0.694967 0.148178
O O8 0.798522 0.920049 0.747388
O O9 0.965676 0.814886 0.641690
O O10 0.000000 0.856750 0.750000
O O11 0.244637 0.904152 0.529246
O O12 0.532900 0.010767 0.876944
O O13 0.468624 0.928409 0.002977
#
# Coordination Sequence:
#
# PCOD8138169 Si02
#       6
#     8   8   8   8   8   8
#     4  12  22  34  61  93 118 149 202 252 290 344
#     4  10  20  37  60  88 116 154 199 247 296 339
#     4   9  20  38  59  83 113 160 198 234 300 357
#     4   9  19  35  59  81 118 151 196 248 288 348
#     4  10  21  34  56  89 115 152 196 244 295 345
#     4  10  22  38  61  85 121 158 196 245 294 360
#
# _framework density 19.236784
#
# number of rings (size 3 to 8) (size 9 to 14) (size 15 to 20)
#    0.000    2.000    3.333    0.500    2.333    1.333 
#    0.000    1.667    7.333    0.000    0.000    0.000 
#    0.000    0.000    0.000    0.000    0.000    0.000 
#
# Total GULP energy -297589.034022 kJ/mol
# GULP energy per Si atom -12399.543084 kJ/mol
# Density = 1.919300 g / cm^3
# Si number density = 19.236784 Si / 1000 Ang^3
#
#
#
# Elastic Constant Matrix: (Units=GPa)
#
#
# Indices 1 2 3 4 5 6 
#
# 1 92.1413 53.3237 33.6150 -0.0161 -11.6793 0.0362
# 2 53.3237 129.9751 32.8703 0.0014 -7.5724 0.0047
# 3 33.6150 32.8703 90.4995 0.0483 -1.4535 -0.0117
# 4 -0.0161 0.0014 0.0483 22.4694 -0.0126 -1.7429
# 5 -11.6793 -7.5724 -1.4535 -0.0126 19.6479 -0.0051
# 6 0.0362 0.0047 -0.0117 -1.7429 -0.0051 25.4804
#
#
#
# Elastic Compliance Matrix: (Units=1/GPa)
#
#
# Indices 1 2 3 4 5 6 
#
# 1 0.016285 -0.005233 -0.004030 0.000023 0.007365 -0.000021
# 2 -0.005233 0.010339 -0.001800 0.000000 0.000741 0.000005
# 3 -0.004030 -0.001800 0.013166 -0.000032 -0.002115 0.000010
# 4 0.000023 0.000000 -0.000032 0.044742 0.000041 0.003060
# 5 0.007365 0.000741 -0.002115 0.000041 0.055403 0.000002
# 6 -0.000021 0.000005 0.000010 0.003060 0.000002 0.039455
#
#
# Mechanical properties :
#
#
# Convention : Reuss Voigt Hill
#
# Bulk Modulus (GPa) = 56.60775 61.35933 58.98354
# Shear Modulus (GPa) = 24.10744 26.37333 25.24039
#
# Velocity S-wave (km/s) = 3.54389 3.70670 3.62621
# Velocity P-wave (km/s) = 6.79972 7.09123 6.94701
#
# Compressibility (1/GPa) = 0.01766543
#
# Stress axis : x y z
#
# Youngs Moduli (GPa) = 61.40599 96.72213 75.95115
#
# Poissons Ratio (x) = 0.50613 0.30608
# Poissons Ratio (y) = 0.32133 0.13668
# Poissons Ratio (z) = 0.24747 0.17406
#
# Static dielectric constant tensor:
#      x y z
#    x 3.356570 -0.000020 -0.097630 
#    y -0.000020 3.543580 0.000050 
#    z -0.097630 0.000050 3.461570 
# 
# 
# High freq. dielectric constant tensor:
#      x y z
#    x 1.727830 0.000000 -0.009170 
#    y 0.000000 1.746540 0.000010 
#    z -0.009170 0.000010 1.741400 
# 
# From -- ./inp_files/114185.got.cif
#   From: 2010.06.25/outbox.cif.g09.slc.cpg/sg15_58_cif.got.tgz:114185.got - 2010.06.28 07:06:18.
