data_PCOD8138781
_publ_section_title
;
Structure prediction by ZEFSAII (Michael W. Deem and Ramdas Pophale) SiO2 
 PCOD8138781
Probable space group: C 2/C
;
_chemical_formula_sum "Si O2"
_cell_formula_units_Z 64
_cell_length_a 8.859493
_cell_length_b 26.557892
_cell_length_c 13.625223
_cell_angle_alpha 90.000000
_cell_angle_beta 99.548806
_cell_angle_gamma 90.000000
_cell_volume 3161.452875
_symmetry_space_group_name_H-M "C 2/C"
_symmetry_group_IT_number 15
_symmetry_cell_setting 'monoclinic'
loop_
_space_group_symop_operation_xyz
x,y,z
-x,y,1/2-z
-x,-y,-z
x,-y,1/2+z
1/2+x,1/2+y,z
1/2-x,1/2+y,1/2-z
1/2-x,1/2-y,-z
1/2+x,1/2-y,1/2+z
loop_
_atom_site_type_symbol
_atom_site_label
_atom_site_fract_x
_atom_site_fract_y
_atom_site_fract_z
Si Si1 0.341445 0.623886 0.628405
Si Si2 0.633215 0.919589 0.387849
Si Si3 0.583396 0.772071 0.658211
Si Si4 0.180962 0.460255 0.194553
Si Si5 0.661083 0.337769 0.158321
Si Si6 0.362535 0.069875 0.388999
Si Si7 0.360814 0.855263 0.577831
Si Si8 0.179762 0.148814 0.256840
O O1 0.325220 0.564111 0.653376
O O2 0.314870 0.659059 0.721448
O O3 0.513460 0.630076 0.608774
O O4 0.222755 0.641116 0.533790
O O5 0.709773 0.957048 0.315107
O O6 0.451849 0.920444 0.350363
O O7 0.693498 0.862267 0.381029
O O8 0.675267 0.938305 0.500882
O O9 0.500000 0.759321 0.750000
O O10 0.635135 0.719126 0.616664
O O11 0.460832 0.804023 0.581822
O O12 0.738400 0.803343 0.686641
O O13 0.129870 0.515326 0.158960
O O14 0.524084 0.098025 0.390114
O O15 0.224874 0.098967 0.321663
O O16 0.234830 0.855816 0.650271
O O17 0.000000 0.156742 0.250000
#
# Coordination Sequence:
#
# PCOD8138781 Si02
#       8
#     8   8   8   8   8   8   8   8
#     4  10  20  38  61  89 124 161 205 251 309 365
#     4  10  22  37  62  91 123 155 211 250 300 363
#     4   9  18  42  63  85 121 167 203 250 310 364
#     4  10  22  39  62  90 123 161 208 252 297 368
#     4  10  21  40  60  88 134 158 195 265 313 351
#     4  11  22  42  65  88 126 165 202 253 309 364
#     4  10  22  38  67  88 118 165 215 247 304 379
#     4  10  24  42  59  93 124 154 209 261 303 368
#
# _framework density 20.243856000000001
#
# number of rings (size 3 to 8) (size 9 to 14) (size 15 to 20)
#    0.000    2.000    2.500    1.500    5.250    0.500 
#    9.000    3.125    0.000    0.000    0.000    0.000 
#    0.000    0.000    0.000    0.000    0.000    0.000 
#
# Total GULP energy -396634.578068 kJ/mol
# GULP energy per Si atom -12394.830565 kJ/mol
# Density = 2.019778 g / cm^3
# Si number density = 20.243856 Si / 1000 Ang^3
#
#
#
# Elastic Constant Matrix: (Units=GPa)
#
#
# Indices 1 2 3 4 5 6 
#
# 1 114.6445 58.1720 26.9719 0.0000 4.1512 0.0000
# 2 58.1720 143.2603 31.5792 0.0000 -2.8917 0.0000
# 3 26.9719 31.5792 86.5994 0.0000 -2.3631 0.0000
# 4 0.0000 0.0000 0.0000 18.4961 0.0000 0.4159
# 5 4.1512 -2.8917 -2.3631 0.0000 25.1269 0.0000
# 6 0.0000 0.0000 0.0000 0.4159 0.0000 19.0625
#
#
#
# Elastic Compliance Matrix: (Units=1/GPa)
#
#
# Indices 1 2 3 4 5 6 
#
# 1 0.011462 -0.004245 -0.002092 0.000000 -0.002579 0.000000
# 2 -0.004245 0.009172 -0.001980 0.000000 0.001571 0.000000
# 3 -0.002092 -0.001980 0.012957 0.000000 0.001336 0.000000
# 4 0.000000 0.000000 0.000000 0.054092 0.000000 -0.001180
# 5 -0.002579 0.001571 0.001336 0.000000 0.040530 0.000000
# 6 0.000000 0.000000 0.000000 -0.001180 0.000000 0.052485
#
#
# Mechanical properties :
#
#
# Convention : Reuss Voigt Hill
#
# Bulk Modulus (GPa) = 58.97072 64.21672 61.59372
# Shear Modulus (GPa) = 24.63221 27.72250 26.17736
#
# Velocity S-wave (km/s) = 3.49201 3.70459 3.59987
# Velocity P-wave (km/s) = 6.74183 7.07737 6.91164
#
# Compressibility (1/GPa) = 0.01695757
#
# Stress axis : x y z
#
# Youngs Moduli (GPa) = 87.24233 109.02530 77.17566
#
# Poissons Ratio (x) = 0.46284 0.16148
# Poissons Ratio (y) = 0.37036 0.15278
# Poissons Ratio (z) = 0.18254 0.21583
#
# Static dielectric constant tensor:
#      x y z
#    x 3.684380 0.000000 0.028560 
#    y 0.000000 3.639430 0.000000 
#    z 0.028560 0.000000 3.703520 
# 
# 
# High freq. dielectric constant tensor:
#      x y z
#    x 1.784410 0.000000 0.003170 
#    y 0.000000 1.782210 0.000000 
#    z 0.003170 0.000000 1.789370 
# 
# From -- ./inp_files/138622.got.cif
#   From: 2010.06.25/outbox.cif.g09.slc.cpg/sg15_70_cif.got.tgz:138622.got - 2010.06.28 07:06:18.
