data_PCOD8138977
_publ_section_title
;
Structure prediction by ZEFSAII (Michael W. Deem and Ramdas Pophale) SiO2 
 PCOD8138977
Probable space group: C 2/C
;
_chemical_formula_sum "Si O2"
_cell_formula_units_Z 64
_cell_length_a 16.275920
_cell_length_b 10.665772
_cell_length_c 20.296567
_cell_angle_alpha 90.000000
_cell_angle_beta 62.213599
_cell_angle_gamma 90.000000
_cell_volume 3117.111627
_symmetry_space_group_name_H-M "C 2/C"
_symmetry_group_IT_number 15
_symmetry_cell_setting 'monoclinic'
loop_
_space_group_symop_operation_xyz
x,y,z
-x,y,1/2-z
-x,-y,-z
x,-y,1/2+z
1/2+x,1/2+y,z
1/2-x,1/2+y,1/2-z
1/2-x,1/2-y,-z
1/2+x,1/2-y,1/2+z
loop_
_atom_site_type_symbol
_atom_site_label
_atom_site_fract_x
_atom_site_fract_y
_atom_site_fract_z
Si Si1 0.773508 0.100348 0.426106
Si Si2 0.882897 0.918297 0.128614
Si Si3 0.679434 0.020051 0.747135
Si Si4 0.082554 0.813453 0.885415
Si Si5 0.728583 0.866092 0.366332
Si Si6 0.093411 0.250828 0.756457
Si Si7 0.604554 0.266099 0.729996
Si Si8 0.616023 0.712374 0.007765
O O1 0.820295 0.166965 0.344951
O O2 0.682834 0.169043 0.487577
O O3 0.847415 0.100794 0.458176
O O4 0.739277 0.960164 0.423496
O O5 0.781230 0.976324 0.178104
O O6 0.923267 0.840067 0.174945
O O7 0.942086 0.042020 0.088270
O O8 0.887374 0.825951 0.066276
O O9 0.684671 0.061164 0.820878
O O10 0.618070 0.115932 0.725847
O O11 0.631796 0.885047 0.764510
O O12 0.156829 0.748308 0.907365
O O13 0.125373 0.814359 0.795769
O O14 0.984466 0.741449 0.928561
O O15 0.831016 0.813571 0.317784
O O16 0.000000 0.266128 0.750000
O O17 0.500000 0.302575 0.750000
#
# Coordination Sequence:
#
# PCOD8138977 Si02
#       8
#     8   8   8   8   8   8   8   8
#     4  11  23  41  63  93 124 163 213 262 313 370
#     4  11  22  40  63  86 129 168 206 258 315 384
#     4  10  20  38  63  92 126 161 206 258 324 367
#     4  11  23  40  63  93 121 167 212 255 321 378
#     4  10  23  39  64  91 127 161 211 265 306 377
#     4  11  23  39  65 100 127 162 210 268 318 373
#     4  11  20  37  66  93 121 158 212 271 304 371
#     4  11  24  41  64  89 125 168 212 255 319 385
#
# _framework density 20.531828999999998
#
# number of rings (size 3 to 8) (size 9 to 14) (size 15 to 20)
#    0.000    1.250    3.750    3.000    3.500    1.500 
#    0.000    1.875    0.000    0.000    0.000    0.000 
#    0.000    0.000    0.000    0.000    0.000    0.000 
#
# Total GULP energy -396739.784959 kJ/mol
# GULP energy per Si atom -12398.118280 kJ/mol
# Density = 2.048510 g / cm^3
# Si number density = 20.531829 Si / 1000 Ang^3
#
#
#
# Elastic Constant Matrix: (Units=GPa)
#
#
# Indices 1 2 3 4 5 6 
#
# 1 89.5889 12.0076 23.1322 0.0000 -1.5339 0.0000
# 2 12.0076 85.2694 2.1499 0.0000 4.8316 0.0000
# 3 23.1322 2.1499 55.4943 0.0000 -9.2080 0.0000
# 4 0.0000 0.0000 0.0000 26.1091 0.0000 5.4895
# 5 -1.5339 4.8316 -9.2080 0.0000 19.0637 0.0000
# 6 0.0000 0.0000 0.0000 5.4895 0.0000 29.6840
#
#
#
# Elastic Compliance Matrix: (Units=1/GPa)
#
#
# Indices 1 2 3 4 5 6 
#
# 1 0.012764 -0.001591 -0.005459 0.000000 -0.001206 0.000000
# 2 -0.001591 0.012153 -0.000369 0.000000 -0.003387 0.000000
# 3 -0.005459 -0.000369 0.022017 0.000000 0.010289 0.000000
# 4 0.000000 0.000000 0.000000 0.039850 0.000000 -0.007370
# 5 -0.001206 -0.003387 0.010289 0.000000 0.058187 0.000000
# 6 0.000000 0.000000 0.000000 -0.007370 0.000000 0.035051
#
#
# Mechanical properties :
#
#
# Convention : Reuss Voigt Hill
#
# Bulk Modulus (GPa) = 31.15836 33.88135 32.51986
# Shear Modulus (GPa) = 24.32378 27.84222 26.08300
#
# Velocity S-wave (km/s) = 3.44566 3.68646 3.56809
# Velocity P-wave (km/s) = 5.57124 5.88707 5.73133
#
# Compressibility (1/GPa) = 0.03209412
#
# Stress axis : x y z
#
# Youngs Moduli (GPa) = 78.34332 82.28519 45.41949
#
# Poissons Ratio (x) = 0.13095 0.24795
# Poissons Ratio (y) = 0.12468 0.01678
# Poissons Ratio (z) = 0.42769 0.03039
#
# Static dielectric constant tensor:
#      x y z
#    x 3.798480 0.000000 -0.074400 
#    y 0.000000 3.823770 0.000000 
#    z -0.074400 0.000000 3.623110 
# 
# 
# High freq. dielectric constant tensor:
#      x y z
#    x 1.810280 0.000000 -0.006670 
#    y 0.000000 1.802320 0.000000 
#    z -0.006670 0.000000 1.788400 
# 
# From -- ./inp_files/243713.got.cif
#   From: 2010.06.25/outbox.cif.g09.slc.cpg/sg15_122_cif.got.tgz:243713.got - 2010.06.28 07:06:18.
