data_PCOD8138581
_publ_section_title
;
Structure prediction by ZEFSAII (Michael W. Deem and Ramdas Pophale) SiO2 
 PCOD8138581
Probable space group: C 2/C
;
_chemical_formula_sum "Si O2"
_cell_formula_units_Z 36
_cell_length_a 16.360888
_cell_length_b 8.855262
_cell_length_c 13.340946
_cell_angle_alpha 90.000000
_cell_angle_beta 113.184956
_cell_angle_gamma 90.000000
_cell_volume 1776.737357
_symmetry_space_group_name_H-M "C 2/C"
_symmetry_group_IT_number 15
_symmetry_cell_setting 'monoclinic'
loop_
_space_group_symop_operation_xyz
x,y,z
-x,y,1/2-z
-x,-y,-z
x,-y,1/2+z
1/2+x,1/2+y,z
1/2-x,1/2+y,1/2-z
1/2-x,1/2-y,-z
1/2+x,1/2-y,1/2+z
loop_
_atom_site_type_symbol
_atom_site_label
_atom_site_fract_x
_atom_site_fract_y
_atom_site_fract_z
Si Si1 0.231319 0.998680 0.504303
Si Si2 0.029840 0.350169 0.129952
Si Si3 0.618877 0.225556 0.474061
Si Si4 0.853724 0.262310 0.146825
Si Si5 0.000000 0.621735 0.250000
O O1 0.299012 0.888062 0.481229
O O2 0.152785 0.895548 0.514588
O O3 0.191240 0.103759 0.398463
O O4 0.280144 0.102972 0.610661
O O5 0.100765 0.244432 0.222644
O O6 0.044660 0.516495 0.185453
O O7 0.928182 0.300570 0.098745
O O8 0.048239 0.336038 0.021224
O O9 0.573321 0.224626 0.341515
#
# Coordination Sequence:
#
# PCOD8138581 Si02
#       5
#     8   8   8   8   4
#     4  10  21  38  56  88 117 146 181 256 274 336
#     4  10  20  38  62  82 110 164 187 227 287 359
#     4  11  22  37  62  84 116 146 202 232 287 332
#     4   9  20  40  59  81 123 147 192 227 296 339
#     4  10  20  38  58  84 116 156 192 242 278 350
#
# _framework density 20.261859999999999
#
# number of rings (size 3 to 8) (size 9 to 14) (size 15 to 20)
#    0.000    2.222    4.444    0.667    0.000    4.444 
#    0.000    0.000    0.000    0.000    0.000    0.000 
#    0.000    0.000    0.000    0.000    0.000    0.000 
#
# Total GULP energy -223094.998682 kJ/mol
# GULP energy per Si atom -12394.166593 kJ/mol
# Density = 2.021574 g / cm^3
# Si number density = 20.261860 Si / 1000 Ang^3
#
#
#
# Elastic Constant Matrix: (Units=GPa)
#
#
# Indices 1 2 3 4 5 6 
#
# 1 72.3811 35.4391 45.4496 0.0000 5.9938 0.0000
# 2 35.4391 110.1086 39.9630 0.0000 11.8869 0.0000
# 3 45.4496 39.9630 101.6140 0.0000 14.5686 0.0000
# 4 0.0000 0.0000 0.0000 10.5125 0.0000 0.9865
# 5 5.9938 11.8869 14.5686 0.0000 37.0506 0.0000
# 6 0.0000 0.0000 0.0000 0.9865 0.0000 20.1894
#
#
#
# Elastic Compliance Matrix: (Units=1/GPa)
#
#
# Indices 1 2 3 4 5 6 
#
# 1 0.020532 -0.003885 -0.007798 0.000000 0.000991 0.000000
# 2 -0.003885 0.011452 -0.002469 0.000000 -0.002075 0.000000
# 3 -0.007798 -0.002469 0.014842 0.000000 -0.003783 0.000000
# 4 0.000000 0.000000 0.000000 0.095563 0.000000 -0.004669
# 5 0.000991 -0.002075 -0.003783 0.000000 0.028983 0.000000
# 6 0.000000 0.000000 0.000000 -0.004669 0.000000 0.049759
#
#
# Mechanical properties :
#
#
# Convention : Reuss Voigt Hill
#
# Bulk Modulus (GPa) = 53.98580 58.42302 56.20441
# Shear Modulus (GPa) = 19.56105 24.43396 21.99750
#
# Velocity S-wave (km/s) = 3.11048 3.47639 3.29851
# Velocity P-wave (km/s) = 6.29301 6.70897 6.50432
#
# Compressibility (1/GPa) = 0.01852339
#
# Stress axis : x y z
#
# Youngs Moduli (GPa) = 48.70364 87.31735 67.37582
#
# Poissons Ratio (x) = 0.33926 0.52538
# Poissons Ratio (y) = 0.18923 0.16633
# Poissons Ratio (z) = 0.37978 0.21556
#
# Static dielectric constant tensor:
#      x y z
#    x 3.575460 0.000000 0.345760 
#    y 0.000000 3.705640 0.000000 
#    z 0.345760 0.000000 3.659410 
# 
# 
# High freq. dielectric constant tensor:
#      x y z
#    x 1.774080 0.000000 0.031120 
#    y 0.000000 1.785020 0.000000 
#    z 0.031120 0.000000 1.786220 
# 
# From -- ./inp_files/150405.got.cif
#   From: 2010.06.25/outbox.cif.g09.slc.cpg/sg15_76_cif.got.tgz:150405.got - 2010.06.28 07:06:18.
