data_PCOD8138295
_publ_section_title
;
Structure prediction by ZEFSAII (Michael W. Deem and Ramdas Pophale) SiO2 
 PCOD8138295
Probable space group: C 2/C
;
_chemical_formula_sum "Si O2"
_cell_formula_units_Z 28
_cell_length_a 11.798816
_cell_length_b 12.620833
_cell_length_c 9.948446
_cell_angle_alpha 90.000000
_cell_angle_beta 63.034093
_cell_angle_gamma 90.000000
_cell_volume 1320.365459
_symmetry_space_group_name_H-M "C 2/C"
_symmetry_group_IT_number 15
_symmetry_cell_setting 'monoclinic'
loop_
_space_group_symop_operation_xyz
x,y,z
-x,y,1/2-z
-x,-y,-z
x,-y,1/2+z
1/2+x,1/2+y,z
1/2-x,1/2+y,1/2-z
1/2-x,1/2-y,-z
1/2+x,1/2-y,1/2+z
loop_
_atom_site_type_symbol
_atom_site_label
_atom_site_fract_x
_atom_site_fract_y
_atom_site_fract_z
Si Si1 0.000000 0.434502 0.250000
Si Si2 0.061320 0.821070 0.087310
Si Si3 0.631997 0.785740 0.974586
Si Si4 0.182239 0.622820 0.165695
O O1 0.034770 0.363795 0.102822
O O2 0.122502 0.506913 0.210154
O O3 0.101884 0.701309 0.112045
O O4 0.000000 0.879574 0.250000
O O5 0.178035 0.890380 0.972373
O O6 0.956451 0.812182 0.025613
O O7 0.750000 0.750000 0.000000
O O8 0.695679 0.835105 0.808766
#
# Coordination Sequence:
#
# PCOD8138295 Si02
#       4
#     4   8   8   8
#     4  12  22  38  64  92 118 158 214 248 296 364
#     4   9  19  39  62  87 123 160 198 245 310 360
#     4  11  22  38  60  92 126 160 197 254 313 362
#     4  10  20  37  62  91 117 160 209 245 294 363
#
# _framework density 21.206247999999999
#
# number of rings (size 3 to 8) (size 9 to 14) (size 15 to 20)
#    0.000    1.714    4.286    2.571    0.000    0.000 
#    0.000    1.429    3.143    0.000    0.000    0.000 
#    0.000    0.000    0.000    0.000    0.000    0.000 
#
# Total GULP energy -173550.241982 kJ/mol
# GULP energy per Si atom -12396.445856 kJ/mol
# Density = 2.115798 g / cm^3
# Si number density = 21.206248 Si / 1000 Ang^3
#
#
#
# Elastic Constant Matrix: (Units=GPa)
#
#
# Indices 1 2 3 4 5 6 
#
# 1 169.6038 37.9449 82.0235 0.0000 -4.5395 0.0000
# 2 37.9449 52.0893 39.6971 0.0000 -7.6098 0.0000
# 3 82.0235 39.6971 156.4023 0.0000 -27.7148 0.0000
# 4 0.0000 0.0000 0.0000 25.0418 0.0000 -18.5413
# 5 -4.5395 -7.6098 -27.7148 0.0000 54.4388 0.0000
# 6 0.0000 0.0000 0.0000 -18.5413 0.0000 23.1301
#
#
#
# Elastic Compliance Matrix: (Units=1/GPa)
#
#
# Indices 1 2 3 4 5 6 
#
# 1 0.008511 -0.003494 -0.003888 0.000000 -0.001758 0.000000
# 2 -0.003494 0.025240 -0.004397 0.000000 0.000998 0.000000
# 3 -0.003888 -0.004397 0.010313 0.000000 0.004311 0.000000
# 4 0.000000 0.000000 0.000000 0.098242 0.000000 0.078752
# 5 -0.001758 0.000998 0.004311 0.000000 0.020557 0.000000
# 6 0.000000 0.000000 0.000000 0.078752 0.000000 0.106362
#
#
# Mechanical properties :
#
#
# Convention : Reuss Voigt Hill
#
# Bulk Modulus (GPa) = 48.76715 77.49183 63.12949
# Shear Modulus (GPa) = 16.68791 35.08414 25.88603
#
# Velocity S-wave (km/s) = 2.80828 4.07187 3.49761
# Velocity P-wave (km/s) = 5.79325 7.66343 6.79301
#
# Compressibility (1/GPa) = 0.02050561
#
# Stress axis : x y z
#
# Youngs Moduli (GPa) = 117.49295 39.62041 96.96437
#
# Poissons Ratio (x) = 0.13841 0.37704
# Poissons Ratio (y) = 0.41046 0.42636
# Poissons Ratio (z) = 0.45686 0.17422
#
# Static dielectric constant tensor:
#      x y z
#    x 3.842040 0.000000 -0.223210 
#    y 0.000000 3.360450 0.000000 
#    z -0.223210 0.000000 4.259780 
# 
# 
# High freq. dielectric constant tensor:
#      x y z
#    x 1.838300 0.000000 -0.011920 
#    y 0.000000 1.780760 0.000000 
#    z -0.011920 0.000000 1.859000 
# 
# From -- ./inp_files/27547.got.cif
#   From: 2010.06.25/outbox.cif.g09.slc.cpg/sg15_14_cif.got.tgz:27547.got - 2010.06.28 07:06:18.
