data_PCOD8138515
_publ_section_title
;
Structure prediction by ZEFSAII (Michael W. Deem and Ramdas Pophale) SiO2 
 PCOD8138515
Probable space group: C 2/C
;
_chemical_formula_sum "Si O2"
_cell_formula_units_Z 40
_cell_length_a 15.969606
_cell_length_b 10.555018
_cell_length_c 9.671520
_cell_angle_alpha 90.000000
_cell_angle_beta 90.449570
_cell_angle_gamma 90.000000
_cell_volume 1630.176186
_symmetry_space_group_name_H-M "C 2/C"
_symmetry_group_IT_number 15
_symmetry_cell_setting 'monoclinic'
loop_
_space_group_symop_operation_xyz
x,y,z
-x,y,1/2-z
-x,-y,-z
x,-y,1/2+z
1/2+x,1/2+y,z
1/2-x,1/2+y,1/2-z
1/2-x,1/2-y,-z
1/2+x,1/2-y,1/2+z
loop_
_atom_site_type_symbol
_atom_site_label
_atom_site_fract_x
_atom_site_fract_y
_atom_site_fract_z
Si Si1 0.198495 0.904978 0.965592
Si Si2 0.548830 0.436970 0.378724
Si Si3 0.249865 0.294793 0.271076
Si Si4 0.865447 0.487763 0.391668
Si Si5 0.901170 0.660606 0.151633
O O1 0.185207 0.788045 0.861810
O O2 0.298082 0.927063 0.969398
O O3 0.145883 0.022940 0.903436
O O4 0.181504 0.868017 0.127158
O O5 0.500000 0.498596 0.250000
O O6 0.500000 0.500000 0.500000
O O7 0.541539 0.284925 0.366894
O O8 0.187640 0.386876 0.193929
O O9 0.303717 0.205529 0.167410
O O10 0.923005 0.574910 0.289382
O O11 0.918585 0.419684 0.512461
#
# Coordination Sequence:
#
# PCOD8138515 Si02
#       5
#     8   8   8   8   8
#     4  10  22  39  65 104 135 171 221 285 345 397
#     4  12  28  46  67  95 141 189 232 266 322 420
#     4  10  20  37  68 102 139 161 217 296 352 394
#     4  11  21  39  70 104 132 170 216 305 354 385
#     4  11  24  41  67 103 138 171 231 278 349 400
#
# _framework density 24.537224999999999
#
# number of rings (size 3 to 8) (size 9 to 14) (size 15 to 20)
#    0.000    1.200    4.000    1.800    2.800    0.000 
#    0.000    1.000    0.000    0.000    0.000    0.000 
#    0.000    0.000    0.000    0.000    0.000    0.000 
#
# Total GULP energy -247813.699280 kJ/mol
# GULP energy per Si atom -12390.684964 kJ/mol
# Density = 2.448138 g / cm^3
# Si number density = 24.537225 Si / 1000 Ang^3
#
#
#
# Elastic Constant Matrix: (Units=GPa)
#
#
# Indices 1 2 3 4 5 6 
#
# 1 42.6091 16.2352 29.7258 0.0000 -3.2239 0.0000
# 2 16.2352 132.1270 76.9595 0.0000 -3.8708 0.0000
# 3 29.7258 76.9595 166.5321 0.0000 1.3838 0.0000
# 4 0.0000 0.0000 0.0000 50.2849 0.0000 -8.0926
# 5 -3.2239 -3.8708 1.3838 0.0000 27.7930 0.0000
# 6 0.0000 0.0000 0.0000 -8.0926 0.0000 27.9521
#
#
#
# Elastic Compliance Matrix: (Units=1/GPa)
#
#
# Indices 1 2 3 4 5 6 
#
# 1 0.027151 -0.000548 -0.004621 0.000000 0.003303 0.000000
# 2 -0.000548 0.010446 -0.004743 0.000000 0.001627 0.000000
# 3 -0.004621 -0.004743 0.009035 0.000000 -0.001646 0.000000
# 4 0.000000 0.000000 0.000000 0.020859 0.000000 0.006039
# 5 0.003303 0.001627 -0.001646 0.000000 0.036672 0.000000
# 6 0.000000 0.000000 0.000000 0.006039 0.000000 0.037524
#
#
# Mechanical properties :
#
#
# Convention : Reuss Voigt Hill
#
# Bulk Modulus (GPa) = 37.30082 65.23436 51.26759
# Shear Modulus (GPa) = 29.33450 35.76252 32.54851
#
# Velocity S-wave (km/s) = 3.46137 3.82184 3.64606
# Velocity P-wave (km/s) = 5.58654 6.79109 6.21805
#
# Compressibility (1/GPa) = 0.02680906
#
# Stress axis : x y z
#
# Youngs Moduli (GPa) = 36.83043 95.72795 110.67700
#
# Poissons Ratio (x) = 0.05247 0.51140
# Poissons Ratio (y) = 0.02019 0.52497
# Poissons Ratio (z) = 0.17018 0.45406
#
# Static dielectric constant tensor:
#      x y z
#    x 4.919430 0.000000 -0.162450 
#    y 0.000000 8.127440 0.000000 
#    z -0.162450 0.000000 4.576320 
# 
# 
# High freq. dielectric constant tensor:
#      x y z
#    x 1.942230 0.000000 -0.007490 
#    y 0.000000 1.988320 0.000000 
#    z -0.007490 0.000000 1.992260 
# 
# From -- ./inp_files/46268.got.cif
#   From: 2010.06.25/outbox.cif.g09.slc.cpg/sg15_24_cif.got.tgz:46268.got - 2010.06.28 07:06:18.
