data_PCOD8138912
_publ_section_title
;
Structure prediction by ZEFSAII (Michael W. Deem and Ramdas Pophale) SiO2 
 PCOD8138912
Probable space group: C 2/C
;
_chemical_formula_sum "Si O2"
_cell_formula_units_Z 60
_cell_length_a 11.592428
_cell_length_b 14.704104
_cell_length_c 16.719437
_cell_angle_alpha 90.000000
_cell_angle_beta 94.872918
_cell_angle_gamma 90.000000
_cell_volume 2839.631902
_symmetry_space_group_name_H-M "C 2/C"
_symmetry_group_IT_number 15
_symmetry_cell_setting 'monoclinic'
loop_
_space_group_symop_operation_xyz
x,y,z
-x,y,1/2-z
-x,-y,-z
x,-y,1/2+z
1/2+x,1/2+y,z
1/2-x,1/2+y,1/2-z
1/2-x,1/2-y,-z
1/2+x,1/2-y,1/2+z
loop_
_atom_site_type_symbol
_atom_site_label
_atom_site_fract_x
_atom_site_fract_y
_atom_site_fract_z
Si Si1 0.652076 0.407389 0.515479
Si Si2 0.853567 0.162879 0.871336
Si Si3 0.500000 0.857594 0.250000
Si Si4 0.228668 0.542843 0.750424
Si Si5 0.151921 0.215941 0.319776
Si Si6 0.114623 0.168390 0.848074
Si Si7 0.258662 0.151581 0.182537
Si Si8 0.605614 0.406981 0.960054
O O1 0.647728 0.333068 0.444445
O O2 0.738089 0.374537 0.589456
O O3 0.529909 0.429374 0.550061
O O4 0.686054 0.504107 0.477528
O O5 0.776656 0.076086 0.839552
O O6 0.783686 0.253037 0.844458
O O7 0.975820 0.158424 0.831573
O O8 0.868818 0.164395 0.967716
O O9 0.397123 0.917625 0.281176
O O10 0.556348 0.795451 0.324379
O O11 0.321002 0.582826 0.691275
O O12 0.207287 0.434870 0.759283
O O13 0.146221 0.189060 0.224525
O O14 0.131845 0.131207 0.374854
O O15 0.148192 0.266289 0.813202
#
# Coordination Sequence:
#
# PCOD8138912 Si02
#       8
#     8   8   4   8   8   8   8   8
#     4  10  22  38  60  94 129 164 208 269 313 369
#     4  10  21  41  63  90 127 164 212 261 313 373
#     4  10  22  42  58  92 128 156 208 260 316 358
#     4  11  23  41  64  91 125 167 203 265 307 381
#     4  11  22  38  66  92 121 170 211 262 310 382
#     4  11  23  42  65  92 126 166 213 264 308 382
#     4  12  23  40  65  93 127 168 210 253 326 373
#     4  10  20  38  62  94 127 161 216 265 316 366
#
# _framework density 21.1295
#
# number of rings (size 3 to 8) (size 9 to 14) (size 15 to 20)
#    0.000    1.333    4.000    2.800    0.000    1.067 
#    4.800    0.000    0.000    1.600    0.000    0.000 
#    0.000    0.000    0.000    0.000    0.000    0.000 
#
# Total GULP energy -371654.835675 kJ/mol
# GULP energy per Si atom -12388.494523 kJ/mol
# Density = 2.108141 g / cm^3
# Si number density = 21.129500 Si / 1000 Ang^3
#
#
#
# Elastic Constant Matrix: (Units=GPa)
#
#
# Indices 1 2 3 4 5 6 
#
# 1 103.7241 42.6855 29.3829 0.0000 -0.0395 0.0000
# 2 42.6855 131.0980 31.8979 0.0000 -8.0216 0.0000
# 3 29.3829 31.8979 67.7827 0.0000 -3.4373 0.0000
# 4 0.0000 0.0000 0.0000 35.9898 0.0000 -2.8867
# 5 -0.0395 -8.0216 -3.4373 0.0000 24.6644 0.0000
# 6 0.0000 0.0000 0.0000 -2.8867 0.0000 19.6465
#
#
#
# Elastic Compliance Matrix: (Units=1/GPa)
#
#
# Indices 1 2 3 4 5 6 
#
# 1 0.011986 -0.003063 -0.003831 0.000000 -0.001511 0.000000
# 2 -0.003063 0.009523 -0.003018 0.000000 0.002672 0.000000
# 3 -0.003831 -0.003018 0.017911 0.000000 0.001508 0.000000
# 4 0.000000 0.000000 0.000000 0.028117 0.000000 0.004131
# 5 -0.001511 0.002672 0.001508 0.000000 0.041621 0.000000
# 6 0.000000 0.000000 0.000000 0.004131 0.000000 0.051507
#
#
# Mechanical properties :
#
#
# Convention : Reuss Voigt Hill
#
# Bulk Modulus (GPa) = 51.03272 56.72638 53.87955
# Shear Modulus (GPa) = 26.73504 29.30272 28.01888
#
# Velocity S-wave (km/s) = 3.56096 3.72804 3.64545
# Velocity P-wave (km/s) = 6.41186 6.74065 6.57831
#
# Compressibility (1/GPa) = 0.01959527
#
# Stress axis : x y z
#
# Youngs Moduli (GPa) = 83.42963 105.00857 55.83305
#
# Poissons Ratio (x) = 0.32164 0.21390
# Poissons Ratio (y) = 0.25554 0.16852
# Poissons Ratio (z) = 0.31962 0.31694
#
# Static dielectric constant tensor:
#      x y z
#    x 3.673130 0.000000 -0.045940 
#    y 0.000000 3.874730 0.000000 
#    z -0.045940 0.000000 3.835170 
# 
# 
# High freq. dielectric constant tensor:
#      x y z
#    x 1.809190 0.000000 -0.002050 
#    y 0.000000 1.829780 0.000000 
#    z -0.002050 0.000000 1.831080 
# 
# From -- ./inp_files/197868.got.cif
#   From: 2010.06.25/outbox.cif.g09.slc.cpg/sg15_99_cif.got.tgz:197868.got - 2010.06.28 07:06:18.
