data_PCOD8138041
_publ_section_title
;
Structure prediction by ZEFSAII (Michael W. Deem and Ramdas Pophale) SiO2 
 PCOD8138041
Probable space group: C 2/C
;
_chemical_formula_sum "Si O2"
_cell_formula_units_Z 56
_cell_length_a 28.630492
_cell_length_b 20.273327
_cell_length_c 8.923513
_cell_angle_alpha 90.000000
_cell_angle_beta 34.146687
_cell_angle_gamma 90.000000
_cell_volume 2907.335965
_symmetry_space_group_name_H-M "C 2/C"
_symmetry_group_IT_number 15
_symmetry_cell_setting 'monoclinic'
loop_
_space_group_symop_operation_xyz
x,y,z
-x,y,1/2-z
-x,-y,-z
x,-y,1/2+z
1/2+x,1/2+y,z
1/2-x,1/2+y,1/2-z
1/2-x,1/2-y,-z
1/2+x,1/2-y,1/2+z
loop_
_atom_site_type_symbol
_atom_site_label
_atom_site_fract_x
_atom_site_fract_y
_atom_site_fract_z
Si Si1 0.673050 0.552439 0.211171
Si Si2 0.403366 0.082234 0.031235
Si Si3 0.919406 0.044235 0.739292
Si Si4 0.676061 0.790059 0.623667
Si Si5 0.715077 0.625193 0.835990
Si Si6 0.179468 0.501194 0.514062
Si Si7 0.081490 0.169141 0.944671
O O1 0.603519 0.553225 0.525459
O O2 0.656256 0.488621 0.150850
O O3 0.669065 0.620254 0.120185
O O4 0.767045 0.549779 0.022734
O O5 0.500000 0.097358 0.750000
O O6 0.362441 0.045641 0.000135
O O7 0.354732 0.150906 0.186449
O O8 0.394264 0.034567 0.198812
O O9 0.939769 0.116016 0.623792
O O10 0.000000 0.000000 0.500000
O O11 0.750000 0.750000 0.500000
O O12 0.710309 0.820742 0.375189
O O13 0.604702 0.735724 0.791801
O O14 0.754569 0.552501 0.718613
O O15 0.650823 0.640224 0.873378
O O16 0.000000 0.188402 0.250000
#
# Coordination Sequence:
#
# PCOD8138041 Si02
#       7
#     8   8   8   8   8   8   8
#     4  12  20  35  57  85 125 156 190 251 305 357
#     4  11  22  38  60  91 116 149 193 252 308 356
#     4  12  23  34  56  94 126 156 199 250 309 357
#     4   9  22  38  62  82 114 158 211 241 285 367
#     4  10  20  37  57  89 115 155 202 242 290 362
#     4  11  20  35  59  86 121 146 192 245 307 359
#     4  11  21  39  60  85 120 162 200 246 299 358
#
# _framework density 19.261619
#
# number of rings (size 3 to 8) (size 9 to 14) (size 15 to 20)
#    0.000    1.143    4.286    3.000    4.000    0.000 
#    0.000    0.714    0.000    0.000    3.714    0.000 
#    0.000    0.000    0.000    0.000    0.000    0.000 
#
# Total GULP energy -346976.432937 kJ/mol
# GULP energy per Si atom -12392.015462 kJ/mol
# Density = 1.921778 g / cm^3
# Si number density = 19.261619 Si / 1000 Ang^3
#
#
#
# Elastic Constant Matrix: (Units=GPa)
#
#
# Indices 1 2 3 4 5 6 
#
# 1 73.1696 45.6220 38.1039 0.0000 6.7484 0.0000
# 2 45.6220 135.7333 67.4006 0.0000 8.1099 0.0000
# 3 38.1039 67.4006 146.1726 0.0000 14.0395 0.0000
# 4 0.0000 0.0000 0.0000 41.0475 0.0000 -2.1834
# 5 6.7484 8.1099 14.0395 0.0000 35.9216 0.0000
# 6 0.0000 0.0000 0.0000 -2.1834 0.0000 23.9577
#
#
#
# Elastic Compliance Matrix: (Units=1/GPa)
#
#
# Indices 1 2 3 4 5 6 
#
# 1 0.018013 -0.004807 -0.002347 0.000000 -0.001382 0.000000
# 2 -0.004807 0.010845 -0.003740 0.000000 -0.000084 0.000000
# 3 -0.002347 -0.003740 0.009407 0.000000 -0.002391 0.000000
# 4 0.000000 0.000000 0.000000 0.024481 0.000000 0.002231
# 5 -0.001382 -0.000084 -0.002391 0.000000 0.029052 0.000000
# 6 0.000000 0.000000 0.000000 0.002231 0.000000 0.041944
#
#
# Mechanical properties :
#
#
# Convention : Reuss Voigt Hill
#
# Bulk Modulus (GPa) = 60.68152 73.03650 66.85901
# Shear Modulus (GPa) = 31.05201 33.78197 32.41699
#
# Velocity S-wave (km/s) = 4.01948 4.19244 4.10687
# Velocity P-wave (km/s) = 7.28792 7.83810 7.56802
#
# Compressibility (1/GPa) = 0.01647948
#
# Stress axis : x y z
#
# Youngs Moduli (GPa) = 55.51425 92.20856 106.30446
#
# Poissons Ratio (x) = 0.44323 0.24945
# Poissons Ratio (y) = 0.26685 0.39753
# Poissons Ratio (z) = 0.13027 0.34482
#
# Static dielectric constant tensor:
#      x y z
#    x 3.618310 0.000000 -0.194690 
#    y 0.000000 3.825150 0.000000 
#    z -0.194690 0.000000 4.402030 
# 
# 
# High freq. dielectric constant tensor:
#      x y z
#    x 1.723770 0.000000 0.000530 
#    y 0.000000 1.739920 0.000000 
#    z 0.000530 0.000000 1.773240 
# 
# From -- ./inp_files/49703.got.cif
#   From: 2010.06.25/outbox.cif.g09.slc.cpg/sg15_25_cif.got.tgz:49703.got - 2010.06.28 07:06:18.
