data_PCOD8138091
_publ_section_title
;
Structure prediction by ZEFSAII (Michael W. Deem and Ramdas Pophale) SiO2 
 PCOD8138091
Probable space group: C 2/C
;
_chemical_formula_sum "Si O2"
_cell_formula_units_Z 52
_cell_length_a 25.724689
_cell_length_b 8.271090
_cell_length_c 11.541748
_cell_angle_alpha 90.000000
_cell_angle_beta 92.193404
_cell_angle_gamma 90.000000
_cell_volume 2453.952521
_symmetry_space_group_name_H-M "C 2/C"
_symmetry_group_IT_number 15
_symmetry_cell_setting 'monoclinic'
loop_
_space_group_symop_operation_xyz
x,y,z
-x,y,1/2-z
-x,-y,-z
x,-y,1/2+z
1/2+x,1/2+y,z
1/2-x,1/2+y,1/2-z
1/2-x,1/2-y,-z
1/2+x,1/2-y,1/2+z
loop_
_atom_site_type_symbol
_atom_site_label
_atom_site_fract_x
_atom_site_fract_y
_atom_site_fract_z
Si Si1 0.500000 0.835119 0.250000
Si Si2 0.705561 0.812469 0.246472
Si Si3 0.458109 0.635165 0.029165
Si Si4 0.243648 0.959426 0.586375
Si Si5 0.341646 0.639778 0.047022
Si Si6 0.951196 0.544612 0.420751
Si Si7 0.661945 0.021263 0.054874
O O1 0.475630 0.724298 0.148179
O O2 0.455868 0.956941 0.296754
O O3 0.752209 0.890272 0.324620
O O4 0.729933 0.706167 0.147241
O O5 0.667828 0.703858 0.323168
O O6 0.674009 0.961489 0.186230
O O7 0.399958 0.564855 0.045113
O O8 0.500000 0.500000 0.000000
O O9 0.452437 0.759141 0.919716
O O10 0.199481 0.999728 0.487442
O O11 0.299775 0.932387 0.531562
O O12 0.331547 0.785378 0.955195
O O13 0.898377 0.480883 0.477694
O O14 0.000000 0.500000 0.500000
#
# Coordination Sequence:
#
# PCOD8138091 Si02
#       7
#     4   8   8   8   8   8   8
#     4  10  20  40  62  84 116 158 194 242 304 362
#     4  11  21  37  60  87 117 158 196 238 294 350
#     4  10  22  39  61  89 119 154 199 251 301 354
#     4  11  22  37  57  86 119 154 195 241 289 346
#     4  10  22  39  57  85 121 152 191 243 293 347
#     4   9  20  38  59  84 113 152 197 240 294 358
#     4  10  20  37  59  81 113 151 192 238 285 345
#
# _framework density 21.190304000000001
#
# number of rings (size 3 to 8) (size 9 to 14) (size 15 to 20)
#    0.000    1.846    0.000    5.077    0.000    5.538 
#    0.000    1.538    0.000    0.000    0.000    0.000 
#    0.000    0.000    0.000    0.000    0.000    0.000 
#
# Total GULP energy -322196.068800 kJ/mol
# GULP energy per Si atom -12392.156492 kJ/mol
# Density = 2.114207 g / cm^3
# Si number density = 21.190304 Si / 1000 Ang^3
#
#
#
# Elastic Constant Matrix: (Units=GPa)
#
#
# Indices 1 2 3 4 5 6 
#
# 1 171.0096 56.6862 51.7225 0.0000 -14.0858 0.0000
# 2 56.6862 80.8325 50.2168 0.0000 -12.8404 0.0000
# 3 51.7225 50.2168 100.4793 0.0000 -4.5271 0.0000
# 4 0.0000 0.0000 0.0000 47.6195 0.0000 -6.9979
# 5 -14.0858 -12.8404 -4.5271 0.0000 26.4686 0.0000
# 6 0.0000 0.0000 0.0000 -6.9979 0.0000 25.2109
#
#
#
# Elastic Compliance Matrix: (Units=1/GPa)
#
#
# Indices 1 2 3 4 5 6 
#
# 1 0.007944 -0.004028 -0.001989 0.000000 0.001933 0.000000
# 2 -0.004028 0.021469 -0.008348 0.000000 0.006844 0.000000
# 3 -0.001989 -0.008348 0.015034 0.000000 -0.002537 0.000000
# 4 0.000000 0.000000 0.000000 0.021893 0.000000 0.006077
# 5 0.001933 0.006844 -0.002537 0.000000 0.041695 0.000000
# 6 0.000000 0.000000 0.000000 0.006077 0.000000 0.041352
#
#
# Mechanical properties :
#
#
# Convention : Reuss Voigt Hill
#
# Bulk Modulus (GPa) = 63.62501 74.39694 69.01097
# Shear Modulus (GPa) = 27.26938 32.77287 30.02113
#
# Velocity S-wave (km/s) = 3.59120 3.93695 3.76804
# Velocity P-wave (km/s) = 6.87651 7.47337 7.18114
#
# Compressibility (1/GPa) = 0.01571709
#
# Stress axis : x y z
#
# Youngs Moduli (GPa) = 125.88759 46.57815 66.51663
#
# Poissons Ratio (x) = 0.18762 0.13229
# Poissons Ratio (y) = 0.50708 0.55528
# Poissons Ratio (z) = 0.25037 0.38883
#
# Static dielectric constant tensor:
#      x y z
#    x 4.064960 0.000000 -0.171710 
#    y 0.000000 3.864530 0.000000 
#    z -0.171710 0.000000 4.064620 
# 
# 
# High freq. dielectric constant tensor:
#      x y z
#    x 1.840970 0.000000 -0.004350 
#    y 0.000000 1.818520 0.000000 
#    z -0.004350 0.000000 1.822670 
# 
# From -- ./inp_files/121518.got.cif
#   From: 2010.06.25/outbox.cif.g09.slc.cpg/sg15_61_cif.got.tgz:121518.got - 2010.06.28 07:06:18.
