data_PCOD8138863
_publ_section_title
;
Structure prediction by ZEFSAII (Michael W. Deem and Ramdas Pophale) SiO2 
 PCOD8138863
Probable space group: C 2/C
;
_chemical_formula_sum "Si O2"
_cell_formula_units_Z 52
_cell_length_a 25.938992
_cell_length_b 18.425833
_cell_length_c 15.226450
_cell_angle_alpha 90.000000
_cell_angle_beta 20.790827
_cell_angle_gamma 90.000000
_cell_volume 2583.181909
_symmetry_space_group_name_H-M "C 2/C"
_symmetry_group_IT_number 15
_symmetry_cell_setting 'monoclinic'
loop_
_space_group_symop_operation_xyz
x,y,z
-x,y,1/2-z
-x,-y,-z
x,-y,1/2+z
1/2+x,1/2+y,z
1/2-x,1/2+y,1/2-z
1/2-x,1/2-y,-z
1/2+x,1/2-y,1/2+z
loop_
_atom_site_type_symbol
_atom_site_label
_atom_site_fract_x
_atom_site_fract_y
_atom_site_fract_z
Si Si1 0.449129 0.536149 0.992740
Si Si2 0.293405 0.873473 0.234259
Si Si3 0.335608 0.214084 0.502215
Si Si4 0.046979 0.581710 0.435598
Si Si5 0.000000 0.068860 0.250000
Si Si6 0.628694 0.973367 0.977412
Si Si7 0.313766 0.354095 0.427568
O O1 0.483660 0.480179 0.861056
O O2 0.531378 0.610706 0.839629
O O3 0.500000 0.500000 0.000000
O O4 0.279915 0.555491 0.276155
O O5 0.426494 0.860413 0.091941
O O6 0.143802 0.881032 0.526972
O O7 0.336935 0.947344 0.115862
O O8 0.270005 0.806843 0.202503
O O9 0.500000 0.185580 0.250000
O O10 0.331932 0.298487 0.480431
O O11 0.244130 0.176480 0.571752
O O12 0.077449 0.589129 0.490671
O O13 0.197521 0.586961 0.143379
O O14 0.000000 0.500000 0.500000
O O15 0.500000 0.983471 0.250000
#
# Coordination Sequence:
#
# PCOD8138863 Si02
#       7
#     8   8   8   8   4   8   8
#     4  11  23  37  62  97 134 163 202 272 342 383
#     4  10  20  38  62  88 124 169 216 257 324 386
#     4  11  23  39  63  88 123 172 213 262 306 386
#     4  10  21  35  62  89 125 163 205 266 327 379
#     4  10  22  38  62  96 126 166 212 276 324 394
#     4  10  22  35  58  91 128 162 205 266 329 392
#     4  11  23  39  62  94 125 160 217 263 315 384
#
# _framework density 20.130213000000001
#
# number of rings (size 3 to 8) (size 9 to 14) (size 15 to 20)
#    0.000    1.538    1.538    5.077   11.846    0.000 
#    0.000    0.000    1.692    0.923    0.000    0.000 
#    0.000    0.000    0.000    0.000    0.000    0.000 
#
# Total GULP energy -322164.211223 kJ/mol
# GULP energy per Si atom -12390.931201 kJ/mol
# Density = 2.008440 g / cm^3
# Si number density = 20.130213 Si / 1000 Ang^3
#
#
#
# Elastic Constant Matrix: (Units=GPa)
#
#
# Indices 1 2 3 4 5 6 
#
# 1 139.8471 32.9696 52.7214 -0.0003 -11.0978 0.0000
# 2 32.9696 68.9676 37.4129 -0.0008 -2.2319 0.0000
# 3 52.7214 37.4129 173.5730 -0.0018 -14.9261 0.0004
# 4 -0.0003 -0.0008 -0.0018 18.9366 0.0003 6.1459
# 5 -11.0978 -2.2319 -14.9261 0.0003 35.7185 -0.0002
# 6 0.0000 0.0000 0.0004 6.1459 -0.0002 31.8093
#
#
#
# Elastic Compliance Matrix: (Units=1/GPa)
#
#
# Indices 1 2 3 4 5 6 
#
# 1 0.008712 -0.003119 -0.001824 0.000000 0.001750 0.000000
# 2 -0.003119 0.017544 -0.002928 0.000000 -0.001097 0.000000
# 3 -0.001824 -0.002928 0.007138 0.000001 0.002233 0.000000
# 4 0.000000 0.000000 0.000001 0.056341 0.000000 -0.010886
# 5 0.001750 -0.001097 0.002233 0.000000 0.029405 0.000000
# 6 0.000000 0.000000 0.000000 -0.010886 0.000000 0.033541
#
#
# Mechanical properties :
#
#
# Convention : Reuss Voigt Hill
#
# Bulk Modulus (GPa) = 56.64908 69.84394 63.24651
# Shear Modulus (GPa) = 28.68499 34.57844 31.63172
#
# Velocity S-wave (km/s) = 3.77898 4.14906 3.96833
# Velocity P-wave (km/s) = 6.87338 7.59765 7.24457
#
# Compressibility (1/GPa) = 0.01765254
#
# Stress axis : x y z
#
# Youngs Moduli (GPa) = 114.77986 57.00061 140.08742
#
# Poissons Ratio (x) = 0.17779 0.25545
# Poissons Ratio (y) = 0.35800 0.41023
# Poissons Ratio (z) = 0.20930 0.16692
#
# Static dielectric constant tensor:
#      x y z
#    x 4.878050 0.000000 -0.616030 
#    y 0.000000 3.427620 0.000000 
#    z -0.616030 0.000000 4.034910 
# 
# 
# High freq. dielectric constant tensor:
#      x y z
#    x 1.804960 0.000000 -0.017480 
#    y 0.000000 1.745220 0.000000 
#    z -0.017480 0.000000 1.791190 
# 
# From -- ./inp_files/179016.got.cif
#   From: 2010.06.25/outbox.cif.g09.slc.cpg/sg15_90_cif.got.tgz:179016.got - 2010.06.28 07:06:18.
