data_PCOD8138532
_publ_section_title
;
Structure prediction by ZEFSAII (Michael W. Deem and Ramdas Pophale) SiO2 
 PCOD8138532
Probable space group: C 2/C
;
_chemical_formula_sum "Si O2"
_cell_formula_units_Z 64
_cell_length_a 9.554577
_cell_length_b 15.040422
_cell_length_c 22.870985
_cell_angle_alpha 90.000000
_cell_angle_beta 84.002047
_cell_angle_gamma 90.000000
_cell_volume 3268.679468
_symmetry_space_group_name_H-M "C 2/C"
_symmetry_group_IT_number 15
_symmetry_cell_setting 'monoclinic'
loop_
_space_group_symop_operation_xyz
x,y,z
-x,y,1/2-z
-x,-y,-z
x,-y,1/2+z
1/2+x,1/2+y,z
1/2-x,1/2+y,1/2-z
1/2-x,1/2-y,-z
1/2+x,1/2-y,1/2+z
loop_
_atom_site_type_symbol
_atom_site_label
_atom_site_fract_x
_atom_site_fract_y
_atom_site_fract_z
Si Si1 0.754866 0.946679 0.633606
Si Si2 0.400217 0.641628 0.885041
Si Si3 0.269270 0.640027 0.606098
Si Si4 0.646284 0.598544 0.490744
Si Si5 0.544392 0.188234 0.183198
Si Si6 0.840977 0.106083 0.480692
Si Si7 0.045822 0.971947 0.683705
Si Si8 0.749500 0.330905 0.638579
O O1 0.746743 0.900503 0.569081
O O2 0.650494 0.894853 0.681033
O O3 0.701602 0.049260 0.634111
O O4 0.913864 0.942832 0.650057
O O5 0.564451 0.634808 0.891965
O O6 0.370632 0.728791 0.847940
O O7 0.365339 0.552519 0.849436
O O8 0.311029 0.649154 0.950205
O O9 0.245753 0.646320 0.537229
O O10 0.203781 0.726545 0.640515
O O11 0.500632 0.643066 0.474475
O O12 0.634515 0.498136 0.513260
O O13 0.500000 0.215430 0.250000
O O14 0.409849 0.159925 0.151502
O O15 0.759082 0.128794 0.425608
O O16 0.000000 0.002775 0.750000
O O17 0.146968 0.885940 0.685576
#
# Coordination Sequence:
#
# PCOD8138532 Si02
#       8
#     8   8   8   8   8   8   8   8
#     4  10  20  38  55  78 112 147 177 224 285 317
#     4   9  18  35  58  80 104 143 186 222 274 332
#     4   8  18  31  55  81 110 142 174 217 273 334
#     4   9  15  31  58  86 109 133 175 237 279 312
#     4  11  24  39  52  75 115 152 180 220 277 333
#     4   9  14  29  56  85 109 135 176 223 269 326
#     4  11  20  34  59  83 103 139 195 235 259 316
#     4  11  19  34  56  82 105 140 192 218 262 325
#
# _framework density 19.579774
#
# number of rings (size 3 to 8) (size 9 to 14) (size 15 to 20)
#    0.000    2.250    2.500    3.000    0.000    0.500 
#    0.000    4.375    0.000    0.000    0.000    0.000 
#    0.000    0.000    0.000    0.000    0.000    0.000 
#
# Total GULP energy -396541.771402 kJ/mol
# GULP energy per Si atom -12391.930356 kJ/mol
# Density = 1.953521 g / cm^3
# Si number density = 19.579774 Si / 1000 Ang^3
#
#
#
# Elastic Constant Matrix: (Units=GPa)
#
#
# Indices 1 2 3 4 5 6 
#
# 1 37.3984 33.4528 1.4406 0.0000 3.7954 0.0000
# 2 33.4528 86.7865 24.5972 0.0000 0.5624 0.0000
# 3 1.4406 24.5972 78.9323 0.0000 1.2805 0.0000
# 4 0.0000 0.0000 0.0000 30.6807 0.0000 -5.1411
# 5 3.7954 0.5624 1.2805 0.0000 17.2819 0.0000
# 6 0.0000 0.0000 0.0000 -5.1411 0.0000 24.0281
#
#
#
# Elastic Compliance Matrix: (Units=1/GPa)
#
#
# Indices 1 2 3 4 5 6 
#
# 1 0.043840 -0.018267 0.005045 0.000000 -0.009407 0.000000
# 2 -0.018267 0.020251 -0.006039 0.000000 0.003800 0.000000
# 3 0.005045 -0.006039 0.014491 0.000000 -0.001985 0.000000
# 4 0.000000 0.000000 0.000000 0.033806 0.000000 0.007233
# 5 -0.009407 0.003800 -0.001985 0.000000 0.059954 0.000000
# 6 0.000000 0.000000 0.000000 0.007233 0.000000 0.043166
#
#
# Mechanical properties :
#
#
# Convention : Reuss Voigt Hill
#
# Bulk Modulus (GPa) = 24.96312 35.78869 30.37591
# Shear Modulus (GPa) = 18.69985 23.97325 21.33655
#
# Velocity S-wave (km/s) = 3.09376 3.50292 3.30468
# Velocity P-wave (km/s) = 5.05360 5.88886 5.48715
#
# Compressibility (1/GPa) = 0.04005909
#
# Stress axis : x y z
#
# Youngs Moduli (GPa) = 22.81043 49.38070 69.00796
#
# Poissons Ratio (x) = 0.90206 -0.34815
# Poissons Ratio (y) = 0.41669 0.41673
# Poissons Ratio (z) = -0.11508 0.29821
#
# Static dielectric constant tensor:
#      x y z
#    x 3.081790 0.000000 0.059110 
#    y 0.000000 3.714450 0.000000 
#    z 0.059110 0.000000 3.766870 
# 
# 
# High freq. dielectric constant tensor:
#      x y z
#    x 1.707350 0.000000 0.006520 
#    y 0.000000 1.763010 0.000000 
#    z 0.006520 0.000000 1.773420 
# 
# From -- ./inp_files/264710.got.cif
#   From: 2010.06.25/outbox.cif.g09.slc.cpg/sg15_133_cif.got.tgz:264710.got - 2010.06.28 07:06:18.
