data_PCOD8138301
_publ_section_title
;
Structure prediction by ZEFSAII (Michael W. Deem and Ramdas Pophale) SiO2 
 PCOD8138301
Probable space group: C 2/C
;
_chemical_formula_sum "Si O2"
_cell_formula_units_Z 56
_cell_length_a 13.080378
_cell_length_b 13.985373
_cell_length_c 16.201847
_cell_angle_alpha 90.000000
_cell_angle_beta 70.500109
_cell_angle_gamma 90.000000
_cell_volume 2793.866943
_symmetry_space_group_name_H-M "C 2/C"
_symmetry_group_IT_number 15
_symmetry_cell_setting 'monoclinic'
loop_
_space_group_symop_operation_xyz
x,y,z
-x,y,1/2-z
-x,-y,-z
x,-y,1/2+z
1/2+x,1/2+y,z
1/2-x,1/2+y,1/2-z
1/2-x,1/2-y,-z
1/2+x,1/2-y,1/2+z
loop_
_atom_site_type_symbol
_atom_site_label
_atom_site_fract_x
_atom_site_fract_y
_atom_site_fract_z
Si Si1 0.097838 0.244672 0.162314
Si Si2 0.626283 0.984370 0.458108
Si Si3 0.425605 0.299336 0.019289
Si Si4 0.631465 0.211183 0.026033
Si Si5 0.882328 0.398735 0.803350
Si Si6 0.231962 0.431204 0.091021
Si Si7 0.699538 0.853648 0.840882
O O1 0.161828 0.342893 0.139908
O O2 0.172991 0.163444 0.183331
O O3 0.000000 0.261147 0.250000
O O4 0.061231 0.210663 0.082132
O O5 0.639413 0.870028 0.452850
O O6 0.500000 0.000000 0.500000
O O7 0.695727 0.035054 0.510908
O O8 0.670325 0.033964 0.362883
O O9 0.547121 0.296136 0.024977
O O10 0.359095 0.397425 0.057452
O O11 0.362751 0.208350 0.073312
O O12 0.596074 0.164727 0.121763
O O13 0.750000 0.250000 0.000000
O O14 0.791246 0.480597 0.841230
O O15 0.838371 0.330082 0.742080
O O16 0.000000 0.443903 0.750000
#
# Coordination Sequence:
#
# PCOD8138301 Si02
#       7
#     8   8   8   8   8   8   8
#     4  11  22  35  62  96 125 154 208 268 319 363
#     4  11  18  38  65  89 116 164 214 256 304 373
#     4  11  20  42  64  89 128 166 204 265 327 371
#     4  11  25  40  62  95 130 169 207 255 326 392
#     4  11  22  40  62  94 126 164 219 261 310 372
#     4  10  20  37  62  91 120 164 211 259 319 372
#     4  11  20  39  62  89 124 161 209 267 306 366
#
# _framework density 20.043903
#
# number of rings (size 3 to 8) (size 9 to 14) (size 15 to 20)
#    0.000    1.143    5.714    2.143    2.000    1.143 
#    2.571    4.286    0.000    0.000    0.000    0.000 
#    0.000    0.000    0.000    0.000    0.000    0.000 
#
# Total GULP energy -347068.066293 kJ/mol
# GULP energy per Si atom -12395.288082 kJ/mol
# Density = 1.999828 g / cm^3
# Si number density = 20.043903 Si / 1000 Ang^3
#
#
#
# Elastic Constant Matrix: (Units=GPa)
#
#
# Indices 1 2 3 4 5 6 
#
# 1 147.9283 46.3058 26.8752 0.0000 -9.8974 0.0000
# 2 46.3058 58.6487 11.6485 0.0000 -5.5019 0.0000
# 3 26.8752 11.6485 76.5498 0.0000 2.9381 0.0000
# 4 0.0000 0.0000 0.0000 14.6025 0.0000 -1.4318
# 5 -9.8974 -5.5019 2.9381 0.0000 33.4735 0.0000
# 6 0.0000 0.0000 0.0000 -1.4318 0.0000 39.9152
#
#
#
# Elastic Compliance Matrix: (Units=1/GPa)
#
#
# Indices 1 2 3 4 5 6 
#
# 1 0.009446 -0.006815 -0.002352 0.000000 0.001879 0.000000
# 2 -0.006815 0.022833 -0.001152 0.000000 0.001839 0.000000
# 3 -0.002352 -0.001152 0.014146 0.000000 -0.002126 0.000000
# 4 0.000000 0.000000 0.000000 0.068723 0.000000 0.002465
# 5 0.001879 0.001839 -0.002126 0.000000 0.030919 0.000000
# 6 0.000000 0.000000 0.000000 0.002465 0.000000 0.025142
#
#
# Mechanical properties :
#
#
# Convention : Reuss Voigt Hill
#
# Bulk Modulus (GPa) = 38.77889 50.30955 44.54422
# Shear Modulus (GPa) = 24.94488 30.81806 27.88147
#
# Velocity S-wave (km/s) = 3.53159 3.92539 3.73368
# Velocity P-wave (km/s) = 6.00154 6.76011 6.39209
#
# Compressibility (1/GPa) = 0.02578723
#
# Stress axis : x y z
#
# Youngs Moduli (GPa) = 105.86217 43.79675 70.69161
#
# Poissons Ratio (x) = 0.29847 0.16623
# Poissons Ratio (y) = 0.72144 0.08147
# Poissons Ratio (z) = 0.24894 0.05047
#
# Static dielectric constant tensor:
#      x y z
#    x 3.712430 0.000000 -0.299850 
#    y 0.000000 3.750740 0.000000 
#    z -0.299850 0.000000 2.904360 
# 
# 
# High freq. dielectric constant tensor:
#      x y z
#    x 1.787490 0.000000 0.005010 
#    y 0.000000 1.759910 0.000000 
#    z 0.005010 0.000000 1.781780 
# 
# From -- ./inp_files/197769.got.cif
#   From: 2010.06.25/outbox.cif.g09.slc.cpg/sg15_99_cif.got.tgz:197769.got - 2010.06.28 07:06:18.
