data_PCOD8138216
_publ_section_title
;
Structure prediction by ZEFSAII (Michael W. Deem and Ramdas Pophale) SiO2 
 PCOD8138216
Probable space group: C 2/C
;
_chemical_formula_sum "Si O2"
_cell_formula_units_Z 40
_cell_length_a 7.191583
_cell_length_b 17.337646
_cell_length_c 16.647197
_cell_angle_alpha 90.000000
_cell_angle_beta 64.975095
_cell_angle_gamma 90.000000
_cell_volume 1880.803312
_symmetry_space_group_name_H-M "C 2/C"
_symmetry_group_IT_number 15
_symmetry_cell_setting 'monoclinic'
loop_
_space_group_symop_operation_xyz
x,y,z
-x,y,1/2-z
-x,-y,-z
x,-y,1/2+z
1/2+x,1/2+y,z
1/2-x,1/2+y,1/2-z
1/2-x,1/2-y,-z
1/2+x,1/2-y,1/2+z
loop_
_atom_site_type_symbol
_atom_site_label
_atom_site_fract_x
_atom_site_fract_y
_atom_site_fract_z
Si Si1 0.667288 0.726351 0.324687
Si Si2 0.035627 0.915448 0.576424
Si Si3 0.042833 0.663040 0.524649
Si Si4 0.635367 0.581399 0.562165
Si Si5 0.453051 0.261586 0.135352
O O1 0.563861 0.641946 0.340393
O O2 0.501960 0.789411 0.385488
O O3 0.740608 0.745933 0.221188
O O4 0.857217 0.724226 0.351767
O O5 0.246460 0.881516 0.502404
O O6 0.878907 0.924668 0.531333
O O7 0.073927 0.998435 0.611293
O O8 0.053745 0.725500 0.451390
O O9 0.869287 0.599612 0.541100
O O10 0.484803 0.646537 0.624985
#
# Coordination Sequence:
#
# PCOD8138216 Si02
#       5
#     8   8   8   8   8
#     4  10  20  37  61  86 113 153 198 232 282 346
#     4  11  21  36  62  88 115 149 193 239 287 336
#     4  11  20  39  59  85 115 155 196 228 286 348
#     4  10  21  39  58  86 120 151 184 241 293 331
#     4  10  20  38  62  81 116 158 191 232 286 346
#
# _framework density 21.267509
#
# number of rings (size 3 to 8) (size 9 to 14) (size 15 to 20)
#    0.000    1.600    4.000    2.400    0.000    0.800 
#    0.000   10.000    0.000    0.000    0.000    0.000 
#    0.000    0.000    0.000    0.000    0.000    0.000 
#
# Total GULP energy -248064.106849 kJ/mol
# GULP energy per Si atom -12403.205342 kJ/mol
# Density = 2.121910 g / cm^3
# Si number density = 21.267509 Si / 1000 Ang^3
#
#
#
# Elastic Constant Matrix: (Units=GPa)
#
#
# Indices 1 2 3 4 5 6 
#
# 1 28.7378 34.7870 6.8152 0.0000 -5.7141 0.0000
# 2 34.7870 176.1404 50.7551 0.0000 -26.9868 0.0000
# 3 6.8152 50.7551 107.0412 0.0000 -18.6800 0.0000
# 4 0.0000 0.0000 0.0000 19.0874 0.0000 -8.7498
# 5 -5.7141 -26.9868 -18.6800 0.0000 25.3445 0.0000
# 6 0.0000 0.0000 0.0000 -8.7498 0.0000 31.9536
#
#
#
# Elastic Compliance Matrix: (Units=1/GPa)
#
#
# Indices 1 2 3 4 5 6 
#
# 1 0.046026 -0.009340 0.001806 0.000000 0.001762 0.000000
# 2 -0.009340 0.009185 -0.002778 0.000000 0.005626 0.000000
# 3 0.001806 -0.002778 0.011590 0.000000 0.005991 0.000000
# 4 0.000000 0.000000 0.000000 0.059911 0.000000 0.016405
# 5 0.001762 0.005626 0.005991 0.000000 0.050260 0.000000
# 6 0.000000 0.000000 0.000000 0.016405 0.000000 0.035788
#
#
# Mechanical properties :
#
#
# Convention : Reuss Voigt Hill
#
# Bulk Modulus (GPa) = 21.65672 55.18156 38.41914
# Shear Modulus (GPa) = 20.09838 29.91457 25.00648
#
# Velocity S-wave (km/s) = 3.07747 3.75452 3.43272
# Velocity P-wave (km/s) = 4.77837 6.69313 5.81510
#
# Compressibility (1/GPa) = 0.04617505
#
# Stress axis : x y z
#
# Youngs Moduli (GPa) = 21.72688 108.87851 86.27986
#
# Poissons Ratio (x) = 1.01696 -0.15582
# Poissons Ratio (y) = 0.20294 0.23973
# Poissons Ratio (z) = -0.03924 0.30252
#
# Static dielectric constant tensor:
#      x y z
#    x 3.929710 0.000000 -0.225530 
#    y 0.000000 4.008690 0.000000 
#    z -0.225530 0.000000 3.763930 
# 
# 
# High freq. dielectric constant tensor:
#      x y z
#    x 1.844040 0.000000 -0.010600 
#    y 0.000000 1.836130 0.000000 
#    z -0.010600 0.000000 1.811070 
# 
# From -- ./inp_files/133263.got.cif
#   From: 2010.06.25/outbox.cif.g09.slc.cpg/sg15_67_cif.got.tgz:133263.got - 2010.06.28 07:06:18.
