data_PCOD8138918
_publ_section_title
;
Structure prediction by ZEFSAII (Michael W. Deem and Ramdas Pophale) SiO2 
 PCOD8138918
Probable space group: C 2/C
;
_chemical_formula_sum "Si O2"
_cell_formula_units_Z 44
_cell_length_a 25.822705
_cell_length_b 5.997630
_cell_length_c 13.304563
_cell_angle_alpha 90.000000
_cell_angle_beta 95.640849
_cell_angle_gamma 90.000000
_cell_volume 2050.566564
_symmetry_space_group_name_H-M "C 2/C"
_symmetry_group_IT_number 15
_symmetry_cell_setting 'monoclinic'
loop_
_space_group_symop_operation_xyz
x,y,z
-x,y,1/2-z
-x,-y,-z
x,-y,1/2+z
1/2+x,1/2+y,z
1/2-x,1/2+y,1/2-z
1/2-x,1/2-y,-z
1/2+x,1/2-y,1/2+z
loop_
_atom_site_type_symbol
_atom_site_label
_atom_site_fract_x
_atom_site_fract_y
_atom_site_fract_z
Si Si1 0.086958 0.801937 0.227037
Si Si2 0.315269 0.052428 0.247575
Si Si3 0.500000 0.598145 0.250000
Si Si4 0.540027 0.078813 0.590391
Si Si5 0.139821 0.174057 0.111740
Si Si6 0.229165 0.120069 0.591862
O O1 0.134118 0.673999 0.292074
O O2 0.050787 0.628110 0.163093
O O3 0.049493 0.944812 0.292801
O O4 0.110860 0.963621 0.150018
O O5 0.331855 0.813800 0.295127
O O6 0.275740 0.021351 0.149160
O O7 0.291339 0.201840 0.331608
O O8 0.487530 0.735515 0.347010
O O9 0.594814 0.171107 0.551885
O O10 0.500000 0.000000 0.500000
O O11 0.184812 0.062189 0.050183
O O12 0.250000 0.250000 0.500000
#
# Coordination Sequence:
#
# PCOD8138918 Si02
#       6
#     8   8   4   8   8   8
#     4   9  20  39  63  89 123 168 210 260 327 377
#     4  10  20  41  64  89 131 164 207 280 315 372
#     4  10  20  38  62  96 126 164 220 256 322 392
#     4  10  21  40  65  90 130 168 209 271 328 384
#     4   9  20  40  60  90 127 163 212 270 318 381
#     4  11  22  39  66  93 126 175 218 259 336 394
#
# _framework density 21.457484000000001
#
# number of rings (size 3 to 8) (size 9 to 14) (size 15 to 20)
#    0.000    2.182    1.818    0.545    0.000    3.636 
#    0.000   30.909    0.000    0.000    0.000    0.000 
#    0.000    0.000    0.000    0.000    0.000    0.000 
#
# Total GULP energy -272559.481300 kJ/mol
# GULP energy per Si atom -12389.067332 kJ/mol
# Density = 2.140865 g / cm^3
# Si number density = 21.457484 Si / 1000 Ang^3
#
#
#
# Elastic Constant Matrix: (Units=GPa)
#
#
# Indices 1 2 3 4 5 6 
#
# 1 176.8014 79.6494 72.9066 0.0000 16.6604 0.0000
# 2 79.6494 120.9369 40.4690 0.0000 4.9813 0.0000
# 3 72.9066 40.4690 77.4905 0.0000 10.8483 0.0000
# 4 0.0000 0.0000 0.0000 16.6031 0.0000 -4.7008
# 5 16.6604 4.9813 10.8483 0.0000 24.0379 0.0000
# 6 0.0000 0.0000 0.0000 -4.7008 0.0000 61.3456
#
#
#
# Elastic Compliance Matrix: (Units=1/GPa)
#
#
# Indices 1 2 3 4 5 6 
#
# 1 0.011252 -0.004710 -0.007655 0.000000 -0.003368 0.000000
# 2 -0.004710 0.011994 -0.002072 0.000000 0.001714 0.000000
# 3 -0.007655 -0.002072 0.021761 0.000000 -0.004086 0.000000
# 4 0.000000 0.000000 0.000000 0.061566 0.000000 0.004718
# 5 -0.003368 0.001714 -0.004086 0.000000 0.045424 0.000000
# 6 0.000000 0.000000 0.000000 0.004718 0.000000 0.016663
#
#
# Mechanical properties :
#
#
# Convention : Reuss Voigt Hill
#
# Bulk Modulus (GPa) = 61.98773 84.58653 73.28713
# Shear Modulus (GPa) = 24.64131 32.54423 28.59277
#
# Velocity S-wave (km/s) = 3.39245 3.89869 3.65435
# Velocity P-wave (km/s) = 6.65555 7.73127 7.21349
#
# Compressibility (1/GPa) = 0.01613223
#
# Stress axis : x y z
#
# Youngs Moduli (GPa) = 88.87211 83.37675 45.95354
#
# Poissons Ratio (x) = 0.39273 0.35178
# Poissons Ratio (y) = 0.41862 0.09521
# Poissons Ratio (z) = 0.68032 0.17275
#
# Static dielectric constant tensor:
#      x y z
#    x 4.698960 0.000000 0.138810 
#    y 0.000000 4.253660 0.000000 
#    z 0.138810 0.000000 3.150540 
# 
# 
# High freq. dielectric constant tensor:
#      x y z
#    x 1.877020 0.000000 0.009070 
#    y 0.000000 1.873110 0.000000 
#    z 0.009070 0.000000 1.773780 
# 
# From -- ./inp_files/170880.got.cif
#   From: 2010.06.25/outbox.cif.g09.slc.cpg/sg15_86_cif.got.tgz:170880.got - 2010.06.28 07:06:18.
