data_PCOD8138794
_publ_section_title
;
Structure prediction by ZEFSAII (Michael W. Deem and Ramdas Pophale) SiO2 
 PCOD8138794
Probable space group: C 2/C
;
_chemical_formula_sum "Si O2"
_cell_formula_units_Z 44
_cell_length_a 11.854213
_cell_length_b 13.977440
_cell_length_c 20.101446
_cell_angle_alpha 90.000000
_cell_angle_beta 141.494399
_cell_angle_gamma 90.000000
_cell_volume 2073.626802
_symmetry_space_group_name_H-M "C 2/C"
_symmetry_group_IT_number 15
_symmetry_cell_setting 'monoclinic'
loop_
_space_group_symop_operation_xyz
x,y,z
-x,y,1/2-z
-x,-y,-z
x,-y,1/2+z
1/2+x,1/2+y,z
1/2-x,1/2+y,1/2-z
1/2-x,1/2-y,-z
1/2+x,1/2-y,1/2+z
loop_
_atom_site_type_symbol
_atom_site_label
_atom_site_fract_x
_atom_site_fract_y
_atom_site_fract_z
Si Si1 0.415829 0.413354 0.502153
Si Si2 0.361631 0.770656 0.366009
Si Si3 0.500000 0.653897 0.750000
Si Si4 0.080416 0.384478 0.571601
Si Si5 0.820556 0.284475 0.202161
Si Si6 0.734866 0.481620 0.439798
O O1 0.500000 0.500000 0.500000
O O2 0.569966 0.339002 0.596909
O O3 0.270255 0.364246 0.386159
O O4 0.319285 0.451345 0.524070
O O5 0.157453 0.775673 0.298317
O O6 0.494379 0.838454 0.466834
O O7 0.374927 0.820789 0.299901
O O8 0.428640 0.590130 0.654704
O O9 0.189242 0.303628 0.660797
O O10 0.220241 0.463561 0.608627
O O11 0.921149 0.425561 0.545587
O O12 0.000000 0.244322 0.250000
#
# Coordination Sequence:
#
# PCOD8138794 Si02
#       6
#     8   8   4   8   8   8
#     4  11  24  41  61  92 130 161 206 262 306 360
#     4  10  22  41  60  88 128 163 208 250 312 375
#     4  10  22  38  64  90 122 174 206 246 308 378
#     4   9  21  38  61  90 121 162 200 260 307 359
#     4  11  22  39  64  91 122 167 205 249 319 367
#     4  10  20  38  61  91 124 155 212 253 302 365
#
# _framework density 21.218861
#
# number of rings (size 3 to 8) (size 9 to 14) (size 15 to 20)
#    0.000    1.818    0.000    3.273    3.818    4.364 
#    8.182    5.455    0.000    0.000    0.000    0.000 
#    0.000    0.000    0.000    0.000    0.000    0.000 
#
# Total GULP energy -272725.383781 kJ/mol
# GULP energy per Si atom -12396.608354 kJ/mol
# Density = 2.117057 g / cm^3
# Si number density = 21.218861 Si / 1000 Ang^3
#
#
#
# Elastic Constant Matrix: (Units=GPa)
#
#
# Indices 1 2 3 4 5 6 
#
# 1 100.0086 46.1464 45.1908 -0.0001 7.5670 0.0000
# 2 46.1464 110.3385 41.3313 -0.0001 12.2983 0.0000
# 3 45.1908 41.3313 90.7287 -0.0004 6.3276 -0.0001
# 4 -0.0001 -0.0001 -0.0004 15.6203 0.0000 6.7547
# 5 7.5670 12.2983 6.3276 0.0000 32.6898 0.0000
# 6 0.0000 0.0000 -0.0001 6.7547 0.0000 45.9887
#
#
#
# Elastic Compliance Matrix: (Units=1/GPa)
#
#
# Indices 1 2 3 4 5 6 
#
# 1 0.014233 -0.003892 -0.005260 0.000000 -0.000812 0.000000
# 2 -0.003892 0.012330 -0.003465 0.000000 -0.003067 0.000000
# 3 -0.005260 -0.003465 0.015250 0.000000 -0.000431 0.000000
# 4 0.000000 0.000000 0.000000 0.068361 0.000000 -0.010041
# 5 -0.000812 -0.003067 -0.000431 0.000000 0.032016 0.000000
# 6 0.000000 0.000000 0.000000 -0.010041 0.000000 0.023219
#
#
# Mechanical properties :
#
#
# Convention : Reuss Voigt Hill
#
# Bulk Modulus (GPa) = 60.30998 62.93474 61.62236
# Shear Modulus (GPa) = 25.48815 30.08690 27.78753
#
# Velocity S-wave (km/s) = 3.46960 3.76963 3.62272
# Velocity P-wave (km/s) = 6.67348 6.97646 6.82665
#
# Compressibility (1/GPa) = 0.01658100
#
# Stress axis : x y z
#
# Youngs Moduli (GPa) = 70.25861 81.10030 65.57349
#
# Poissons Ratio (x) = 0.31563 0.34490
# Poissons Ratio (y) = 0.27344 0.22719
# Poissons Ratio (z) = 0.36954 0.28099
#
# Static dielectric constant tensor:
#      x y z
#    x 3.781120 0.000000 0.239340 
#    y 0.000000 3.990030 0.000000 
#    z 0.239340 0.000000 4.229330 
# 
# 
# High freq. dielectric constant tensor:
#      x y z
#    x 1.830810 0.000000 0.012370 
#    y 0.000000 1.832270 0.000000 
#    z 0.012370 0.000000 1.840420 
# 
# From -- ./inp_files/86051.got.cif
#   From: 2010.06.25/outbox.cif.g09.slc.cpg/sg15_44_cif.got.tgz:86051.got - 2010.06.28 07:06:18.
