data_PCOD8138511
_publ_section_title
;
Structure prediction by ZEFSAII (Michael W. Deem and Ramdas Pophale) SiO2 
 PCOD8138511
Probable space group: C 2/C
;
_chemical_formula_sum "Si O2"
_cell_formula_units_Z 60
_cell_length_a 8.414446
_cell_length_b 25.255565
_cell_length_c 17.793362
_cell_angle_alpha 90.000000
_cell_angle_beta 130.972108
_cell_angle_gamma 90.000000
_cell_volume 2854.987335
_symmetry_space_group_name_H-M "C 2/C"
_symmetry_group_IT_number 15
_symmetry_cell_setting 'monoclinic'
loop_
_space_group_symop_operation_xyz
x,y,z
-x,y,1/2-z
-x,-y,-z
x,-y,1/2+z
1/2+x,1/2+y,z
1/2-x,1/2+y,1/2-z
1/2-x,1/2-y,-z
1/2+x,1/2-y,1/2+z
loop_
_atom_site_type_symbol
_atom_site_label
_atom_site_fract_x
_atom_site_fract_y
_atom_site_fract_z
Si Si1 0.674327 0.161020 0.516114
Si Si2 0.149011 0.166547 0.659547
Si Si3 0.936877 0.489059 0.066858
Si Si4 0.872510 0.898416 0.496536
Si Si5 0.000000 0.753351 0.750000
Si Si6 0.268052 0.408403 0.181941
Si Si7 0.854401 0.405703 0.633328
Si Si8 0.759672 0.299775 0.950351
O O1 0.686678 0.110317 0.575151
O O2 0.614671 0.143059 0.413817
O O3 0.490371 0.201375 0.483091
O O4 0.907631 0.187479 0.590210
O O5 0.168113 0.121128 0.601600
O O6 0.292356 0.217605 0.692621
O O7 0.232862 0.141461 0.762607
O O8 0.913143 0.541809 0.106683
O O9 0.120314 0.455445 0.164351
O O10 0.725347 0.454912 0.011818
O O11 0.000000 0.500000 0.000000
O O12 0.763958 0.854978 0.515111
O O13 0.116728 0.906188 0.589060
O O14 0.056281 0.793587 0.834017
O O15 0.500000 0.433073 0.250000
O O16 0.000000 0.396983 0.750000
O O17 0.750000 0.250000 0.000000
#
# Coordination Sequence:
#
# PCOD8138511 Si02
#       8
#     8   8   8   8   4   8   8   8
#     4  10  22  46  65  93 139 174 213 278 334 387
#     4  10  22  42  69  97 129 170 225 280 328 386
#     4  12  23  42  67  94 132 174 217 274 334 397
#     4  11  24  45  66  91 139 172 213 284 329 387
#     4  12  24  38  68 102 124 170 230 258 332 398
#     4  10  20  37  67  95 124 165 215 272 331 377
#     4  11  26  43  65  98 131 179 226 265 333 404
#     4  12  24  44  69  99 133 174 222 273 336 397
#
# _framework density 21.015854000000001
#
# number of rings (size 3 to 8) (size 9 to 14) (size 15 to 20)
#    0.000    1.067    4.000    2.000    3.733    1.600 
#    0.000    0.000    0.000    0.000    0.000    0.000 
#    0.000    0.000    0.000    0.000    0.000    0.000 
#
# Total GULP energy -371935.840785 kJ/mol
# GULP energy per Si atom -12397.861359 kJ/mol
# Density = 2.096802 g / cm^3
# Si number density = 21.015854 Si / 1000 Ang^3
#
#
#
# Elastic Constant Matrix: (Units=GPa)
#
#
# Indices 1 2 3 4 5 6 
#
# 1 135.7848 34.5780 50.9547 0.0000 18.4129 0.0000
# 2 34.5780 42.2378 20.1182 0.0000 10.8440 0.0000
# 3 50.9547 20.1182 135.7614 0.0000 2.5985 0.0000
# 4 0.0000 0.0000 0.0000 25.2397 0.0000 1.1963
# 5 18.4129 10.8440 2.5985 0.0000 37.3816 0.0000
# 6 0.0000 0.0000 0.0000 1.1963 0.0000 30.6101
#
#
#
# Elastic Compliance Matrix: (Units=1/GPa)
#
#
# Indices 1 2 3 4 5 6 
#
# 1 0.010524 -0.006415 -0.002940 0.000000 -0.003119 0.000000
# 2 -0.006415 0.031438 -0.002140 0.000000 -0.005811 0.000000
# 3 -0.002940 -0.002140 0.008758 0.000000 0.001460 0.000000
# 4 0.000000 0.000000 0.000000 0.039694 0.000000 -0.001551
# 5 -0.003119 -0.005811 0.001460 0.000000 0.029872 0.000000
# 6 0.000000 0.000000 0.000000 -0.001551 0.000000 0.032730
#
#
# Mechanical properties :
#
#
# Convention : Reuss Voigt Hill
#
# Bulk Modulus (GPa) = 36.05945 58.34286 47.20115
# Shear Modulus (GPa) = 26.99081 32.52182 29.75632
#
# Velocity S-wave (km/s) = 3.58761 3.93808 3.76692
# Velocity P-wave (km/s) = 5.86146 6.96417 6.43647
#
# Compressibility (1/GPa) = 0.02773198
#
# Stress axis : x y z
#
# Youngs Moduli (GPa) = 95.01921 31.80850 114.17635
#
# Poissons Ratio (x) = 0.20404 0.33565
# Poissons Ratio (y) = 0.60952 0.24433
# Poissons Ratio (z) = 0.27933 0.06807
#
# Static dielectric constant tensor:
#      x y z
#    x 4.146290 0.000000 -0.048190 
#    y 0.000000 3.524430 0.000000 
#    z -0.048190 0.000000 4.047360 
# 
# 
# High freq. dielectric constant tensor:
#      x y z
#    x 1.841310 0.000000 0.005320 
#    y 0.000000 1.811370 0.000000 
#    z 0.005320 0.000000 1.829920 
# 
# From -- ./inp_files/193732.got.cif
#   From: 2010.06.25/outbox.cif.g09.slc.cpg/sg15_97_cif.got.tgz:193732.got - 2010.06.28 07:06:18.
