data_PCOD8138821
_publ_section_title
;
Structure prediction by ZEFSAII (Michael W. Deem and Ramdas Pophale) SiO2 
 PCOD8138821
Probable space group: C 2/C
;
_chemical_formula_sum "Si O2"
_cell_formula_units_Z 44
_cell_length_a 25.417071
_cell_length_b 6.434944
_cell_length_c 14.974705
_cell_angle_alpha 90.000000
_cell_angle_beta 119.705462
_cell_angle_gamma 90.000000
_cell_volume 2127.357672
_symmetry_space_group_name_H-M "C 2/C"
_symmetry_group_IT_number 15
_symmetry_cell_setting 'monoclinic'
loop_
_space_group_symop_operation_xyz
x,y,z
-x,y,1/2-z
-x,-y,-z
x,-y,1/2+z
1/2+x,1/2+y,z
1/2-x,1/2+y,1/2-z
1/2-x,1/2-y,-z
1/2+x,1/2-y,1/2+z
loop_
_atom_site_type_symbol
_atom_site_label
_atom_site_fract_x
_atom_site_fract_y
_atom_site_fract_z
Si Si1 0.500000 0.274093 0.750000
Si Si2 0.316374 0.319051 0.981873
Si Si3 0.986357 0.301765 0.045362
Si Si4 0.708332 0.064870 0.932804
Si Si5 0.099142 0.017082 0.098470
Si Si6 0.372497 0.418651 0.686248
O O1 0.513919 0.135587 0.849780
O O2 0.442925 0.423508 0.718731
O O3 0.337891 0.432701 0.089864
O O4 0.314720 0.072569 0.001964
O O5 0.249023 0.412181 0.903756
O O6 0.360158 0.354049 0.935976
O O7 0.039403 0.141425 0.072405
O O8 0.000000 0.500000 0.000000
O O9 0.921496 0.201705 0.962882
O O10 0.651964 0.177730 0.835666
O O11 0.750000 0.250000 0.000000
O O12 0.136351 0.986132 0.221702
#
# Coordination Sequence:
#
# PCOD8138821 Si02
#       6
#     4   8   8   8   8   8
#     4  10  20  38  62  84 130 164 204 264 310 380
#     4  10  20  41  65  84 123 169 202 262 319 376
#     4  10  22  39  58  94 127 161 209 259 313 380
#     4   9  21  40  60  89 121 160 210 255 317 378
#     4  10  22  39  61  93 122 159 212 256 309 383
#     4  10  21  39  60  90 125 157 209 259 314 382
#
# _framework density 20.682935000000001
#
# number of rings (size 3 to 8) (size 9 to 14) (size 15 to 20)
#    0.000    2.182    1.818    0.000    2.545    2.909 
#    9.818    0.909    0.000    0.000    0.000    0.000 
#    0.000    0.000    0.000    0.000    0.000    0.000 
#
# Total GULP energy -272641.956152 kJ/mol
# GULP energy per Si atom -12392.816189 kJ/mol
# Density = 2.063586 g / cm^3
# Si number density = 20.682935 Si / 1000 Ang^3
#
#
#
# Elastic Constant Matrix: (Units=GPa)
#
#
# Indices 1 2 3 4 5 6 
#
# 1 100.8207 29.7365 51.0989 0.0000 -11.3156 0.0000
# 2 29.7365 97.9097 46.1142 0.0000 -7.1124 0.0000
# 3 51.0989 46.1142 129.9186 0.0000 -29.1526 0.0000
# 4 0.0000 0.0000 0.0000 17.4829 0.0000 -5.7532
# 5 -11.3156 -7.1124 -29.1526 0.0000 39.0667 0.0000
# 6 0.0000 0.0000 0.0000 -5.7532 0.0000 31.7698
#
#
#
# Elastic Compliance Matrix: (Units=1/GPa)
#
#
# Indices 1 2 3 4 5 6 
#
# 1 0.012647 -0.001804 -0.004307 0.000000 0.000121 0.000000
# 2 -0.001804 0.012570 -0.004031 0.000000 -0.001242 0.000000
# 3 -0.004307 -0.004031 0.012464 0.000000 0.007320 0.000000
# 4 0.000000 0.000000 0.000000 0.060823 0.000000 0.011014
# 5 0.000121 -0.001242 0.007320 0.000000 0.030868 0.000000
# 6 0.000000 0.000000 0.000000 0.011014 0.000000 0.033471
#
#
# Mechanical properties :
#
#
# Convention : Reuss Voigt Hill
#
# Bulk Modulus (GPa) = 57.47781 64.72761 61.10271
# Shear Modulus (GPa) = 26.46544 31.11052 28.78798
#
# Velocity S-wave (km/s) = 3.58100 3.88256 3.73483
# Velocity P-wave (km/s) = 6.70436 7.17371 6.94300
#
# Compressibility (1/GPa) = 0.01739802
#
# Stress axis : x y z
#
# Youngs Moduli (GPa) = 79.06981 79.55745 80.22920
#
# Poissons Ratio (x) = 0.14351 0.34554
# Poissons Ratio (y) = 0.14263 0.32338
# Poissons Ratio (z) = 0.34055 0.32067
#
# Static dielectric constant tensor:
#      x y z
#    x 4.065930 0.000000 0.140530 
#    y 0.000000 4.097780 0.000000 
#    z 0.140530 0.000000 4.235670 
# 
# 
# High freq. dielectric constant tensor:
#      x y z
#    x 1.820350 0.000000 0.005030 
#    y 0.000000 1.792160 0.000000 
#    z 0.005030 0.000000 1.801620 
# 
# From -- ./inp_files/179826.got.cif
#   From: 2010.06.25/outbox.cif.g09.slc.cpg/sg15_90_cif.got.tgz:179826.got - 2010.06.28 07:06:18.
