data_PCOD8138996
_publ_section_title
;
Structure prediction by ZEFSAII (Michael W. Deem and Ramdas Pophale) SiO2 
 PCOD8138996
Probable space group: C 2/C
;
_chemical_formula_sum "Si O2"
_cell_formula_units_Z 56
_cell_length_a 6.436055
_cell_length_b 24.789146
_cell_length_c 17.317620
_cell_angle_alpha 90.000000
_cell_angle_beta 122.907318
_cell_angle_gamma 90.000000
_cell_volume 2319.617267
_symmetry_space_group_name_H-M "C 2/C"
_symmetry_group_IT_number 15
_symmetry_cell_setting 'monoclinic'
loop_
_space_group_symop_operation_xyz
x,y,z
-x,y,1/2-z
-x,-y,-z
x,-y,1/2+z
1/2+x,1/2+y,z
1/2-x,1/2+y,1/2-z
1/2-x,1/2-y,-z
1/2+x,1/2-y,1/2+z
loop_
_atom_site_type_symbol
_atom_site_label
_atom_site_fract_x
_atom_site_fract_y
_atom_site_fract_z
Si Si1 0.328681 0.168256 0.530552
Si Si2 0.500000 0.399225 0.250000
Si Si3 0.788781 0.415748 0.809580
Si Si4 0.500000 0.173724 0.250000
Si Si5 0.556847 0.932975 0.013589
Si Si6 0.964776 0.473721 0.339821
Si Si7 0.000217 0.770761 0.844264
Si Si8 0.584651 0.401364 0.103858
O O1 0.539823 0.124720 0.556576
O O2 0.457352 0.211887 0.612234
O O3 0.116963 0.139927 0.540514
O O4 0.208623 0.191027 0.426536
O O5 0.559904 0.368397 0.181232
O O6 0.729776 0.437715 0.312614
O O7 0.500000 0.404178 0.750000
O O8 0.934051 0.363954 0.808966
O O9 0.844161 0.426286 0.908848
O O10 0.883262 0.469959 0.783753
O O11 0.268255 0.210556 0.180243
O O12 0.455511 0.980977 0.052334
O O13 0.837442 0.936285 0.037422
O O14 0.185302 0.444253 0.336876
O O15 0.000000 0.771836 0.750000
#
# Coordination Sequence:
#
# PCOD8138996 Si02
#       8
#     8   4   8   4   8   8   8   8
#     4  10  23  45  70  96 135 178 223 281 347 406
#     4  10  20  38  63  96 140 172 225 278 326 392
#     4  12  25  42  67  94 134 180 221 274 336 399
#     4  12  26  40  67  98 132 172 229 274 334 402
#     4  10  22  41  65  98 131 169 222 278 334 401
#     4  10  22  39  64  93 135 175 221 271 332 400
#     4  11  25  46  69  98 135 176 225 285 343 411
#     4  10  22  39  66  99 135 176 224 280 335 400
#
# _framework density 24.141912999999999
#
# number of rings (size 3 to 8) (size 9 to 14) (size 15 to 20)
#    0.000    1.429    0.714    3.857    2.000    6.286 
#    0.000    6.429    0.000    0.000    0.000    0.000 
#    0.000    0.000    0.000    0.000    0.000    0.000 
#
# Total GULP energy -346876.126741 kJ/mol
# GULP energy per Si atom -12388.433098 kJ/mol
# Density = 2.408696 g / cm^3
# Si number density = 24.141913 Si / 1000 Ang^3
#
#
#
# Elastic Constant Matrix: (Units=GPa)
#
#
# Indices 1 2 3 4 5 6 
#
# 1 150.4314 46.9557 54.8211 0.0000 8.4164 0.0000
# 2 46.9557 92.8779 16.5015 0.0000 10.9222 0.0000
# 3 54.8211 16.5015 111.7031 0.0000 -2.7210 0.0000
# 4 0.0000 0.0000 0.0000 27.4190 0.0000 6.5992
# 5 8.4164 10.9222 -2.7210 0.0000 50.6832 0.0000
# 6 0.0000 0.0000 0.0000 6.5992 0.0000 12.1536
#
#
#
# Elastic Compliance Matrix: (Units=1/GPa)
#
#
# Indices 1 2 3 4 5 6 
#
# 1 0.009403 -0.003923 -0.004058 0.000000 -0.000934 0.000000
# 2 -0.003923 0.013012 -0.000049 0.000000 -0.002155 0.000000
# 3 -0.004058 -0.000049 0.010982 0.000000 0.001274 0.000000
# 4 0.000000 0.000000 0.000000 0.041954 0.000000 -0.022780
# 5 -0.000934 -0.002155 0.001274 0.000000 0.020418 0.000000
# 6 0.000000 0.000000 0.000000 -0.022780 0.000000 0.094650
#
#
# Mechanical properties :
#
#
# Convention : Reuss Voigt Hill
#
# Bulk Modulus (GPa) = 57.68107 65.72990 61.70548
# Shear Modulus (GPa) = 23.55601 33.83344 28.69472
#
# Velocity S-wave (km/s) = 3.12706 3.74764 3.45133
# Velocity P-wave (km/s) = 6.08131 6.78321 6.44183
#
# Compressibility (1/GPa) = 0.01733671
#
# Stress axis : x y z
#
# Youngs Moduli (GPa) = 106.34651 76.84945 91.05613
#
# Poissons Ratio (x) = 0.30149 0.36951
# Poissons Ratio (y) = 0.41721 0.00450
# Poissons Ratio (z) = 0.43156 0.00380
#
# Static dielectric constant tensor:
#      x y z
#    x 4.408670 0.000000 -0.179860 
#    y 0.000000 4.582380 0.000000 
#    z -0.179860 0.000000 5.275840 
# 
# 
# High freq. dielectric constant tensor:
#      x y z
#    x 1.965210 0.000000 -0.007710 
#    y 0.000000 1.950860 0.000000 
#    z -0.007710 0.000000 1.987430 
# 
# From -- ./inp_files/186818.got.cif
#   From: 2010.06.25/outbox.cif.g09.slc.cpg/sg15_94_cif.got.tgz:186818.got - 2010.06.28 07:06:18.
