data_PCOD8138770
_publ_section_title
;
Structure prediction by ZEFSAII (Michael W. Deem and Ramdas Pophale) SiO2 
 PCOD8138770
Probable space group: C 2/C
;
_chemical_formula_sum "Si O2"
_cell_formula_units_Z 40
_cell_length_a 12.004725
_cell_length_b 13.962775
_cell_length_c 19.331508
_cell_angle_alpha 90.000000
_cell_angle_beta 36.702607
_cell_angle_gamma 90.000000
_cell_volume 1936.622897
_symmetry_space_group_name_H-M "C 2/C"
_symmetry_group_IT_number 15
_symmetry_cell_setting 'monoclinic'
loop_
_space_group_symop_operation_xyz
x,y,z
-x,y,1/2-z
-x,-y,-z
x,-y,1/2+z
1/2+x,1/2+y,z
1/2-x,1/2+y,1/2-z
1/2-x,1/2-y,-z
1/2+x,1/2-y,1/2+z
loop_
_atom_site_type_symbol
_atom_site_label
_atom_site_fract_x
_atom_site_fract_y
_atom_site_fract_z
Si Si1 0.208388 0.992827 0.134036
Si Si2 0.264904 0.912373 0.746042
Si Si3 0.162107 0.854518 0.541760
Si Si4 0.153403 0.350710 0.542951
Si Si5 0.286063 0.503044 0.089474
O O1 0.000000 0.957272 0.250000
O O2 0.292852 0.018136 0.166521
O O3 0.217786 0.088681 0.082956
O O4 0.314700 0.903924 0.046354
O O5 0.430917 0.834494 0.661959
O O6 0.315814 0.980631 0.786610
O O7 0.065587 0.858177 0.850170
O O8 0.250000 0.750000 0.500000
O O9 0.259683 0.903109 0.426168
O O10 0.250000 0.250000 0.500000
O O11 0.244574 0.410736 0.558743
O O12 0.500000 0.500000 0.000000
#
# Coordination Sequence:
#
# PCOD8138770 Si02
#       5
#     8   8   8   8   8
#     4   9  20  40  61  83 116 157 200 246 294 352
#     4  10  20  38  61  88 122 157 196 246 299 351
#     4   9  19  39  63  89 120 155 200 246 294 355
#     4  11  23  39  59  88 122 158 198 244 299 356
#     4   9  20  40  61  84 119 157 197 246 297 352
#
# _framework density 20.654510999999999
#
# number of rings (size 3 to 8) (size 9 to 14) (size 15 to 20)
#    0.000    2.400    0.000    2.400    0.000    4.800 
#    0.000   32.000    0.000    0.000    0.000    0.000 
#    0.000    0.000    0.000    0.000    0.000    0.000 
#
# Total GULP energy -247825.746453 kJ/mol
# GULP energy per Si atom -12391.287323 kJ/mol
# Density = 2.060750 g / cm^3
# Si number density = 20.654511 Si / 1000 Ang^3
#
#
#
# Elastic Constant Matrix: (Units=GPa)
#
#
# Indices 1 2 3 4 5 6 
#
# 1 112.1571 63.2693 58.9652 0.0002 22.1117 0.0000
# 2 63.2693 161.4016 75.6366 -0.0004 3.4710 0.0000
# 3 58.9652 75.6366 127.4378 -0.0020 6.0128 0.0002
# 4 0.0002 -0.0004 -0.0020 22.9309 -0.0001 -7.9699
# 5 22.1117 3.4710 6.0128 -0.0001 43.7307 0.0000
# 6 0.0000 0.0000 0.0002 -7.9699 0.0000 16.8082
#
#
#
# Elastic Compliance Matrix: (Units=1/GPa)
#
#
# Indices 1 2 3 4 5 6 
#
# 1 0.014411 -0.003502 -0.004286 -0.000001 -0.006419 0.000000
# 2 -0.003502 0.009434 -0.004053 0.000000 0.001579 0.000000
# 3 -0.004286 -0.004053 0.012198 0.000001 0.000812 0.000000
# 4 -0.000001 0.000000 0.000001 0.052214 0.000000 0.024758
# 5 -0.006419 0.001579 0.000812 0.000000 0.025876 0.000000
# 6 0.000000 0.000000 0.000000 0.024758 0.000000 0.071234
#
#
# Mechanical properties :
#
#
# Convention : Reuss Voigt Hill
#
# Bulk Modulus (GPa) = 80.91466 88.52653 84.72059
# Shear Modulus (GPa) = 23.45541 30.23566 26.84554
#
# Velocity S-wave (km/s) = 3.37353 3.83022 3.60910
# Velocity P-wave (km/s) = 7.37798 7.90661 7.64686
#
# Compressibility (1/GPa) = 0.01235870
#
# Stress axis : x y z
#
# Youngs Moduli (GPa) = 69.39262 105.99785 81.98306
#
# Poissons Ratio (x) = 0.37124 0.35140
# Poissons Ratio (y) = 0.24303 0.33231
# Poissons Ratio (z) = 0.29744 0.42965
#
# Static dielectric constant tensor:
#      x y z
#    x 0.444780 0.000040 -0.570600 
#    y 0.000040 3.443380 0.000010 
#    z -0.570600 0.000010 3.981810 
# 
# 
# High freq. dielectric constant tensor:
#      x y z
#    x 1.829390 0.000000 0.003790 
#    y 0.000000 1.773120 0.000000 
#    z 0.003790 0.000000 1.821330 
# 
# From -- ./inp_files/118683.got.cif
#   From: 2010.06.25/outbox.cif.g09.slc.cpg/sg15_60_cif.got.tgz:118683.got - 2010.06.28 07:06:18.
