data_PCOD8138534
_publ_section_title
;
Structure prediction by ZEFSAII (Michael W. Deem and Ramdas Pophale) SiO2 
 PCOD8138534
Probable space group: C 2/C
;
_chemical_formula_sum "Si O2"
_cell_formula_units_Z 48
_cell_length_a 9.281351
_cell_length_b 24.772192
_cell_length_c 14.813075
_cell_angle_alpha 90.000000
_cell_angle_beta 42.589340
_cell_angle_gamma 90.000000
_cell_volume 2304.846807
_symmetry_space_group_name_H-M "C 2/C"
_symmetry_group_IT_number 15
_symmetry_cell_setting 'monoclinic'
loop_
_space_group_symop_operation_xyz
x,y,z
-x,y,1/2-z
-x,-y,-z
x,-y,1/2+z
1/2+x,1/2+y,z
1/2-x,1/2+y,1/2-z
1/2-x,1/2-y,-z
1/2+x,1/2-y,1/2+z
loop_
_atom_site_type_symbol
_atom_site_label
_atom_site_fract_x
_atom_site_fract_y
_atom_site_fract_z
Si Si1 0.271810 0.836704 0.377024
Si Si2 0.000000 0.371009 0.750000
Si Si3 0.216975 0.058652 0.257785
Si Si4 0.000000 0.875524 0.250000
Si Si5 0.760989 0.911298 0.961314
Si Si6 0.311704 0.936053 0.226180
Si Si7 0.852515 0.194396 0.983374
O O1 0.500000 0.808244 0.250000
O O2 0.264078 0.849151 0.489099
O O3 0.263997 0.895917 0.331648
O O4 0.077036 0.798709 0.434345
O O5 0.096115 0.408873 0.781661
O O6 0.185900 0.334356 0.624874
O O7 0.232369 0.078922 0.147917
O O8 0.983033 0.070963 0.403743
O O9 0.231279 0.996190 0.276061
O O10 0.193658 0.912509 0.193164
O O11 0.102468 0.839215 0.126137
O O12 0.561641 0.944104 0.092248
O O13 0.750000 0.250000 0.000000
#
# Coordination Sequence:
#
# PCOD8138534 Si02
#       7
#     8   4   8   4   8   8   8
#     4   9  20  39  64  90 126 167 220 261 317 398
#     4  12  25  40  64 106 132 164 217 284 328 382
#     4  11  23  35  60  92 135 169 211 261 330 379
#     4  10  21  42  64  94 128 172 229 258 320 412
#     4  10  20  38  55  86 129 172 209 258 314 383
#     4  10  21  36  59  89 126 180 211 257 315 401
#     4  11  23  43  69  93 128 171 221 282 332 376
#
# _framework density 20.825679999999998
#
# number of rings (size 3 to 8) (size 9 to 14) (size 15 to 20)
#    0.000    1.667    1.667    3.000    3.500    3.333 
#    0.000    0.000    7.333    7.000    0.000    0.000 
#    0.000    0.000    0.000    0.000    0.000    0.000 
#
# Total GULP energy -297351.811706 kJ/mol
# GULP energy per Si atom -12389.658821 kJ/mol
# Density = 2.077828 g / cm^3
# Si number density = 20.825680 Si / 1000 Ang^3
#
#
#
# Elastic Constant Matrix: (Units=GPa)
#
#
# Indices 1 2 3 4 5 6 
#
# 1 101.7247 31.2622 25.4720 0.0000 -27.4850 0.0000
# 2 31.2622 78.8727 23.3937 0.0000 -13.5089 0.0000
# 3 25.4720 23.3937 106.9608 0.0000 -25.8243 0.0000
# 4 0.0000 0.0000 0.0000 18.1809 0.0000 -18.5127
# 5 -27.4850 -13.5089 -25.8243 0.0000 44.6669 0.0000
# 6 0.0000 0.0000 0.0000 -18.5127 0.0000 57.7303
#
#
#
# Elastic Compliance Matrix: (Units=1/GPa)
#
#
# Indices 1 2 3 4 5 6 
#
# 1 0.012902 -0.003814 -0.000697 0.000000 0.006382 0.000000
# 2 -0.003814 0.014988 -0.002141 0.000000 0.000948 0.000000
# 3 -0.000697 -0.002141 0.011301 0.000000 0.005457 0.000000
# 4 0.000000 0.000000 0.000000 0.081670 0.000000 0.026190
# 5 0.006382 0.000948 0.005457 0.000000 0.029757 0.000000
# 6 0.000000 0.000000 0.000000 0.026190 0.000000 0.025720
#
#
# Mechanical properties :
#
#
# Convention : Reuss Voigt Hill
#
# Bulk Modulus (GPa) = 38.63041 49.75712 44.19377
# Shear Modulus (GPa) = 25.21805 37.94430 31.58118
#
# Velocity S-wave (km/s) = 3.48359 4.27312 3.89839
# Velocity P-wave (km/s) = 5.89663 6.94911 6.44439
#
# Compressibility (1/GPa) = 0.02588634
#
# Stress axis : x y z
#
# Youngs Moduli (GPa) = 77.51037 66.72143 88.48705
#
# Poissons Ratio (x) = 0.25446 0.06171
# Poissons Ratio (y) = 0.29560 0.18943
# Poissons Ratio (z) = 0.05406 0.14284
#
# Static dielectric constant tensor:
#      x y z
#    x 4.259590 0.000000 -0.238340 
#    y 0.000000 1.770200 0.000000 
#    z -0.238340 0.000000 4.009020 
# 
# 
# High freq. dielectric constant tensor:
#      x y z
#    x 1.838860 0.000000 -0.013980 
#    y 0.000000 1.777810 0.000000 
#    z -0.013980 0.000000 1.833980 
# 
# From -- ./inp_files/138948.got.cif
#   From: 2010.06.25/outbox.cif.g09.slc.cpg/sg15_70_cif.got.tgz:138948.got - 2010.06.28 07:06:18.
