data_PCOD8138320
_publ_section_title
;
Structure prediction by ZEFSAII (Michael W. Deem and Ramdas Pophale) SiO2 
 PCOD8138320
Probable space group: C 2/C
;
_chemical_formula_sum "Si O2"
_cell_formula_units_Z 60
_cell_length_a 21.170507
_cell_length_b 17.992570
_cell_length_c 12.503711
_cell_angle_alpha 90.000000
_cell_angle_beta 143.401839
_cell_angle_gamma 90.000000
_cell_volume 2839.583920
_symmetry_space_group_name_H-M "C 2/C"
_symmetry_group_IT_number 15
_symmetry_cell_setting 'monoclinic'
loop_
_space_group_symop_operation_xyz
x,y,z
-x,y,1/2-z
-x,-y,-z
x,-y,1/2+z
1/2+x,1/2+y,z
1/2-x,1/2+y,1/2-z
1/2-x,1/2-y,-z
1/2+x,1/2-y,1/2+z
loop_
_atom_site_type_symbol
_atom_site_label
_atom_site_fract_x
_atom_site_fract_y
_atom_site_fract_z
Si Si1 0.878884 0.183930 0.397892
Si Si2 0.577264 0.902406 0.732069
Si Si3 0.643200 0.025613 0.525640
Si Si4 0.978168 0.778187 0.597868
Si Si5 0.492200 0.452207 0.119539
Si Si6 0.149054 0.363811 0.602962
Si Si7 0.000000 0.732104 0.250000
Si Si8 0.133543 0.081612 0.629951
O O1 0.908777 0.097199 0.439816
O O2 0.752572 0.187055 0.228132
O O3 0.919209 0.218298 0.340353
O O4 0.927763 0.220562 0.571183
O O5 0.460494 0.938957 0.558380
O O6 0.641118 0.898454 0.710016
O O7 0.573248 0.819538 0.775280
O O8 0.645874 0.952791 0.904834
O O9 0.744396 0.060531 0.724649
O O10 0.644273 0.936187 0.521939
O O11 0.946165 0.691806 0.552380
O O12 0.886668 0.831655 0.423919
O O13 0.000000 0.801916 0.750000
O O14 0.500000 0.423414 0.250000
O O15 0.605289 0.440433 0.214625
O O16 0.447163 0.535781 0.056007
#
# Coordination Sequence:
#
# PCOD8138320 Si02
#       8
#     8   8   8   8   8   8   4   8
#     4  11  23  41  66 105 131 172 228 275 339 399
#     4  10  25  43  67  97 135 173 221 286 334 394
#     4  10  23  43  66  99 131 175 226 275 335 399
#     4  11  27  45  66  95 143 179 219 278 336 405
#     4  10  20  37  62  94 135 169 219 278 328 397
#     4  12  25  44  70  98 131 182 228 273 338 410
#     4  10  20  42  66 100 136 162 216 286 336 390
#     4  10  22  40  62  97 131 176 220 272 340 395
#
# _framework density 21.129856
#
# number of rings (size 3 to 8) (size 9 to 14) (size 15 to 20)
#    0.000    1.600    3.333    0.800    7.467    1.067 
#    2.400    0.000    0.000    0.000    0.000    0.000 
#    0.000    0.000    0.000    0.000    0.000    0.000 
#
# Total GULP energy -371915.759815 kJ/mol
# GULP energy per Si atom -12397.191994 kJ/mol
# Density = 2.108176 g / cm^3
# Si number density = 21.129856 Si / 1000 Ang^3
#
#
#
# Elastic Constant Matrix: (Units=GPa)
#
#
# Indices 1 2 3 4 5 6 
#
# 1 107.7493 35.4464 61.0408 0.0000 -0.1826 0.0000
# 2 35.4464 120.7009 39.1112 0.0000 2.7987 0.0000
# 3 61.0408 39.1112 78.1582 0.0000 -2.2238 0.0000
# 4 0.0000 0.0000 0.0000 22.4935 0.0000 -2.6340
# 5 -0.1826 2.7987 -2.2238 0.0000 29.8144 0.0000
# 6 0.0000 0.0000 0.0000 -2.6340 0.0000 22.8487
#
#
#
# Elastic Compliance Matrix: (Units=1/GPa)
#
#
# Indices 1 2 3 4 5 6 
#
# 1 0.016729 -0.000781 -0.012696 0.000000 -0.000771 0.000000
# 2 -0.000781 0.009975 -0.004418 0.000000 -0.001271 0.000000
# 3 -0.012696 -0.004418 0.024984 0.000000 0.002200 0.000000
# 4 0.000000 0.000000 0.000000 0.045066 0.000000 0.005195
# 5 -0.000771 -0.001271 0.002200 0.000000 0.033819 0.000000
# 6 0.000000 0.000000 0.000000 0.005195 0.000000 0.044365
#
#
# Mechanical properties :
#
#
# Convention : Reuss Voigt Hill
#
# Bulk Modulus (GPa) = 62.90309 64.20058 63.55184
# Shear Modulus (GPa) = 23.14516 26.43200 24.78858
#
# Velocity S-wave (km/s) = 3.31324 3.54069 3.42885
# Velocity P-wave (km/s) = 6.66867 6.86768 6.76891
#
# Compressibility (1/GPa) = 0.01589747
#
# Stress axis : x y z
#
# Youngs Moduli (GPa) = 59.77651 100.24736 40.02601
#
# Poissons Ratio (x) = 0.07828 0.50818
# Poissons Ratio (y) = 0.04668 0.17684
# Poissons Ratio (z) = 0.75894 0.44290
#
# Static dielectric constant tensor:
#      x y z
#    x 3.841930 0.000000 -0.030370 
#    y 0.000000 3.874280 0.000000 
#    z -0.030370 0.000000 3.505870 
# 
# 
# High freq. dielectric constant tensor:
#      x y z
#    x 1.825410 0.000000 -0.002770 
#    y 0.000000 1.843090 0.000000 
#    z -0.002770 0.000000 1.807570 
# 
# From -- ./inp_files/113816.got.cif
#   From: 2010.06.25/outbox.cif.g09.slc.cpg/sg15_57_cif.got.tgz:113816.got - 2010.06.28 07:06:18.
