data_PCOD8138626
_publ_section_title
;
Structure prediction by ZEFSAII (Michael W. Deem and Ramdas Pophale) SiO2 
 PCOD8138626
Probable space group: C 2/C
;
_chemical_formula_sum "Si O2"
_cell_formula_units_Z 56
_cell_length_a 26.299625
_cell_length_b 13.104530
_cell_length_c 20.765199
_cell_angle_alpha 90.000000
_cell_angle_beta 22.842502
_cell_angle_gamma 90.000000
_cell_volume 2778.189532
_symmetry_space_group_name_H-M "C 2/C"
_symmetry_group_IT_number 15
_symmetry_cell_setting 'monoclinic'
loop_
_space_group_symop_operation_xyz
x,y,z
-x,y,1/2-z
-x,-y,-z
x,-y,1/2+z
1/2+x,1/2+y,z
1/2-x,1/2+y,1/2-z
1/2-x,1/2-y,-z
1/2+x,1/2-y,1/2+z
loop_
_atom_site_type_symbol
_atom_site_label
_atom_site_fract_x
_atom_site_fract_y
_atom_site_fract_z
Si Si1 0.580277 0.261933 0.777811
Si Si2 0.500000 0.927195 0.250000
Si Si3 0.793057 0.382785 0.585371
Si Si4 0.783013 0.452373 0.411454
Si Si5 0.620176 0.095488 0.308160
Si Si6 0.164929 0.554946 0.872858
Si Si7 0.000000 0.871491 0.750000
Si Si8 0.159331 0.241731 0.856884
O O1 0.683222 0.356369 0.661365
O O2 0.661693 0.156804 0.677007
O O3 0.493150 0.294397 0.818268
O O4 0.493180 0.260860 0.944241
O O5 0.437862 0.865240 0.383776
O O6 0.372178 0.986447 0.370030
O O7 0.786156 0.498752 0.619261
O O8 0.766566 0.305333 0.674765
O O9 0.793273 0.543092 0.347709
O O10 0.628608 0.442861 0.604285
O O11 0.472651 0.111595 0.453416
O O12 0.672348 0.206477 0.270705
O O13 0.629378 0.027957 0.361217
O O14 0.279291 0.629773 0.716870
#
# Coordination Sequence:
#
# PCOD8138626 Si02
#       8
#     8   4   8   8   8   8   4   8
#     4  12  22  34  54  91 131 156 189 240 307 364
#     4  12  21  40  60  89 118 160 205 236 300 373
#     4  11  22  36  59  87 117 158 198 241 292 363
#     4  12  23  38  61  87 126 160 197 246 297 367
#     4  10  20  38  60  84 115 161 198 242 300 353
#     4  10  20  38  59  84 117 157 204 243 291 355
#     4  12  25  34  56  95 130 158 191 246 310 355
#     4  11  22  36  59  89 118 154 199 250 294 353
#
# _framework density 20.157012999999999
#
# number of rings (size 3 to 8) (size 9 to 14) (size 15 to 20)
#    0.000    0.857    4.286    6.000    0.000    0.571 
#    0.000    1.429    0.000    1.714    0.000    0.000 
#    0.000    0.000    0.000    0.000    0.000    0.000 
#
# Total GULP energy -346925.190121 kJ/mol
# GULP energy per Si atom -12390.185361 kJ/mol
# Density = 2.011113 g / cm^3
# Si number density = 20.157013 Si / 1000 Ang^3
#
#
#
# Elastic Constant Matrix: (Units=GPa)
#
#
# Indices 1 2 3 4 5 6 
#
# 1 92.5857 31.7281 33.6684 -0.0003 -5.9089 0.0001
# 2 31.7281 56.2888 31.6956 -0.0003 2.7368 0.0002
# 3 33.6684 31.6956 114.7631 -0.0010 -8.2989 0.0007
# 4 -0.0003 -0.0003 -0.0010 22.0788 0.0005 5.4076
# 5 -5.9089 2.7368 -8.2989 0.0005 32.8618 -0.0003
# 6 0.0001 0.0002 0.0007 5.4076 -0.0003 16.0251
#
#
#
# Elastic Compliance Matrix: (Units=1/GPa)
#
#
# Indices 1 2 3 4 5 6 
#
# 1 0.014075 -0.006916 -0.002032 0.000000 0.002594 0.000000
# 2 -0.006916 0.024788 -0.005150 0.000000 -0.004609 0.000000
# 3 -0.002032 -0.005150 0.010936 0.000000 0.002825 -0.000001
# 4 0.000000 0.000000 0.000000 0.049373 -0.000001 -0.016660
# 5 0.002594 -0.004609 0.002825 -0.000001 0.031994 0.000001
# 6 0.000000 0.000000 -0.000001 -0.016660 0.000001 0.068024
#
#
# Mechanical properties :
#
#
# Convention : Reuss Voigt Hill
#
# Bulk Modulus (GPa) = 46.28812 50.86908 48.57860
# Shear Modulus (GPa) = 21.31404 25.29619 23.30511
#
# Velocity S-wave (km/s) = 3.25530 3.54638 3.40395
# Velocity P-wave (km/s) = 6.09450 6.48539 6.29298
#
# Compressibility (1/GPa) = 0.02160381
#
# Stress axis : x y z
#
# Youngs Moduli (GPa) = 71.04746 40.34224 91.43774
#
# Poissons Ratio (x) = 0.27900 0.18577
# Poissons Ratio (y) = 0.49135 0.47094
# Poissons Ratio (z) = 0.14435 0.20778
#
# Static dielectric constant tensor:
#      x y z
#    x 3.985270 0.000000 -0.143770 
#    y 0.000000 3.320770 0.000000 
#    z -0.143770 0.000000 3.583010 
# 
# 
# High freq. dielectric constant tensor:
#      x y z
#    x 1.795900 0.000000 -0.014200 
#    y 0.000000 1.741270 0.000000 
#    z -0.014200 0.000000 1.784180 
# 
# From -- ./inp_files/249265.got.cif
#   From: 2010.06.25/outbox.cif.g09.slc.cpg/sg15_125_cif.got.tgz:249265.got - 2010.06.28 07:06:18.
