data_PCOD8138701
_publ_section_title
;
Structure prediction by ZEFSAII (Michael W. Deem and Ramdas Pophale) SiO2 
 PCOD8138701
Probable space group: C 2/C
;
_chemical_formula_sum "Si O2"
_cell_formula_units_Z 56
_cell_length_a 18.480601
_cell_length_b 9.271256
_cell_length_c 27.457016
_cell_angle_alpha 90.000000
_cell_angle_beta 142.585682
_cell_angle_gamma 90.000000
_cell_volume 2858.297475
_symmetry_space_group_name_H-M "C 2/C"
_symmetry_group_IT_number 15
_symmetry_cell_setting 'monoclinic'
loop_
_space_group_symop_operation_xyz
x,y,z
-x,y,1/2-z
-x,-y,-z
x,-y,1/2+z
1/2+x,1/2+y,z
1/2-x,1/2+y,1/2-z
1/2-x,1/2-y,-z
1/2+x,1/2-y,1/2+z
loop_
_atom_site_type_symbol
_atom_site_label
_atom_site_fract_x
_atom_site_fract_y
_atom_site_fract_z
Si Si1 0.034173 0.665647 0.322289
Si Si2 0.381946 0.654998 0.033311
Si Si3 0.160847 0.530942 0.966626
Si Si4 0.798242 0.174291 0.725645
Si Si5 0.650104 0.573274 0.176052
Si Si6 0.765069 0.307047 0.415992
Si Si7 0.362346 0.510397 0.435547
O O1 0.086444 0.533805 0.381814
O O2 0.135691 0.787077 0.371177
O O3 0.000000 0.606189 0.250000
O O4 0.922699 0.739616 0.289154
O O5 0.405880 0.824126 0.052547
O O6 0.508026 0.575779 0.103554
O O7 0.295283 0.581524 0.026418
O O8 0.323711 0.624790 0.948596
O O9 0.161265 0.417871 0.011342
O O10 0.706572 0.267857 0.708995
O O11 0.747182 0.133971 0.645319
O O12 0.805911 0.022052 0.756114
O O13 0.699306 0.508881 0.150474
O O14 0.832916 0.154605 0.450498
O O15 0.500000 0.500000 0.500000
#
# Coordination Sequence:
#
# PCOD8138701 Si02
#       7
#     8   8   8   8   8   8   8
#     4  10  21  37  61  87 115 151 199 239 290 355
#     4  10  22  39  56  92 118 149 198 248 292 349
#     4  11  22  36  65  88 118 150 195 249 297 343
#     4  10  23  38  59  86 119 156 198 242 290 355
#     4  10  22  40  58  81 121 159 195 238 298 343
#     4  10  20  38  60  89 110 151 205 240 286 353
#     4   9  19  36  57  79 115 153 190 237 286 343
#
# _framework density 19.592081
#
# number of rings (size 3 to 8) (size 9 to 14) (size 15 to 20)
#    0.000    2.000    1.429    1.286    6.000    1.143 
#    0.000    9.286    0.000    0.000    0.000    0.000 
#    0.000    0.000    0.000    0.000    0.000    0.000 
#
# Total GULP energy -347069.433953 kJ/mol
# GULP energy per Si atom -12395.336927 kJ/mol
# Density = 1.954749 g / cm^3
# Si number density = 19.592081 Si / 1000 Ang^3
#
#
#
# Elastic Constant Matrix: (Units=GPa)
#
#
# Indices 1 2 3 4 5 6 
#
# 1 74.2964 36.0584 26.5190 0.0000 -8.9822 0.0000
# 2 36.0584 87.6201 49.8679 0.0000 -36.1218 0.0000
# 3 26.5190 49.8679 85.4981 0.0000 -21.4198 0.0000
# 4 0.0000 0.0000 0.0000 32.9692 0.0000 -5.9262
# 5 -8.9822 -36.1218 -21.4198 0.0000 34.5184 0.0000
# 6 0.0000 0.0000 0.0000 -5.9262 0.0000 29.0693
#
#
#
# Elastic Compliance Matrix: (Units=1/GPa)
#
#
# Indices 1 2 3 4 5 6 
#
# 1 0.017541 -0.008327 -0.001922 0.000000 -0.005342 0.000000
# 2 -0.008327 0.029345 -0.008742 0.000000 0.023117 0.000000
# 3 -0.001922 -0.008742 0.017730 0.000000 0.001354 0.000000
# 4 0.000000 0.000000 0.000000 0.031485 0.000000 0.006419
# 5 -0.005342 0.023117 0.001354 0.000000 0.052611 0.000000
# 6 0.000000 0.000000 0.000000 0.006419 0.000000 0.035709
#
#
# Mechanical properties :
#
#
# Convention : Reuss Voigt Hill
#
# Bulk Modulus (GPa) = 37.54507 52.47835 45.01171
# Shear Modulus (GPa) = 21.61867 28.30933 24.96400
#
# Velocity S-wave (km/s) = 3.32541 3.80536 3.57345
# Velocity P-wave (km/s) = 5.82662 6.79347 6.32854
#
# Compressibility (1/GPa) = 0.02663466
#
# Stress axis : x y z
#
# Youngs Moduli (GPa) = 57.00841 34.07755 56.40047
#
# Poissons Ratio (x) = 0.28377 0.10842
# Poissons Ratio (y) = 0.47471 0.49303
# Poissons Ratio (z) = 0.10959 0.29789
#
# Static dielectric constant tensor:
#      x y z
#    x 4.288120 0.000000 -0.690820 
#    y 0.000000 3.377160 0.000000 
#    z -0.690820 0.000000 4.331750 
# 
# 
# High freq. dielectric constant tensor:
#      x y z
#    x 1.776470 0.000000 -0.001730 
#    y 0.000000 1.746440 0.000000 
#    z -0.001730 0.000000 1.757710 
# 
# From -- ./inp_files/276528.got.cif
#   From: 2010.06.25/outbox.cif.g09.slc.cpg/sg15_139_cif.got.tgz:276528.got - 2010.06.28 07:06:18.
