data_PCOD8138186
_publ_section_title
;
Structure prediction by ZEFSAII (Michael W. Deem and Ramdas Pophale) SiO2 
 PCOD8138186
Probable space group: C 2/C
;
_chemical_formula_sum "Si O2"
_cell_formula_units_Z 48
_cell_length_a 28.298362
_cell_length_b 8.996936
_cell_length_c 17.796793
_cell_angle_alpha 90.000000
_cell_angle_beta 27.323498
_cell_angle_gamma 90.000000
_cell_volume 2079.809539
_symmetry_space_group_name_H-M "C 2/C"
_symmetry_group_IT_number 15
_symmetry_cell_setting 'monoclinic'
loop_
_space_group_symop_operation_xyz
x,y,z
-x,y,1/2-z
-x,-y,-z
x,-y,1/2+z
1/2+x,1/2+y,z
1/2-x,1/2+y,1/2-z
1/2-x,1/2-y,-z
1/2+x,1/2-y,1/2+z
loop_
_atom_site_type_symbol
_atom_site_label
_atom_site_fract_x
_atom_site_fract_y
_atom_site_fract_z
Si Si1 0.420254 0.906566 0.662402
Si Si2 0.846872 0.838263 0.075411
Si Si3 0.483149 0.661752 0.051380
Si Si4 0.321411 0.139564 0.446755
Si Si5 0.785280 0.843421 0.624396
Si Si6 0.253249 0.320400 0.914312
O O1 0.459742 0.740545 0.598153
O O2 0.413000 0.927578 0.763832
O O3 0.306402 0.927644 0.790213
O O4 0.500000 0.000000 0.500000
O O5 0.756042 0.770696 0.254903
O O6 0.834269 0.761284 0.011887
O O7 0.846494 0.018854 0.074061
O O8 0.958465 0.798853 0.952631
O O9 0.366042 0.714871 0.222378
O O10 0.500000 0.500000 0.000000
O O11 0.250000 0.250000 0.500000
O O12 0.356632 0.242437 0.467711
O O13 0.260179 0.998029 0.565820
O O14 0.250000 0.250000 0.000000
#
# Coordination Sequence:
#
# PCOD8138186 Si02
#       6
#     8   8   8   8   8   8
#     4  10  20  37  62  90 122 164 210 263 328 392
#     4  11  23  39  66  97 131 175 223 275 341 407
#     4  11  23  41  67  95 127 169 220 273 332 401
#     4  10  20  38  64  92 125 169 216 268 333 399
#     4  10  20  37  60  90 126 165 211 267 325 393
#     4  12  24  42  66  94 131 174 219 276 335 398
#
# _framework density 23.079035999999999
#
# number of rings (size 3 to 8) (size 9 to 14) (size 15 to 20)
#    0.000    1.333    0.000    9.000    0.000    0.667 
#    0.000    0.000    0.000   30.000    0.000    0.000 
#    0.000    0.000    0.000    0.000    0.000    0.000 
#
# Total GULP energy -297350.625465 kJ/mol
# GULP energy per Si atom -12389.609394 kJ/mol
# Density = 2.302651 g / cm^3
# Si number density = 23.079036 Si / 1000 Ang^3
#
#
#
# Elastic Constant Matrix: (Units=GPa)
#
#
# Indices 1 2 3 4 5 6 
#
# 1 96.3236 30.7703 34.0945 -0.0012 17.6577 0.0003
# 2 30.7703 111.0084 8.7990 -0.0027 8.3676 0.0017
# 3 34.0945 8.7990 84.2516 -0.0051 9.6105 0.0025
# 4 -0.0012 -0.0027 -0.0051 40.4681 0.0014 13.0312
# 5 17.6577 8.3676 9.6105 0.0014 37.4685 -0.0004
# 6 0.0003 0.0017 0.0025 13.0312 -0.0004 43.9035
#
#
#
# Elastic Compliance Matrix: (Units=1/GPa)
#
#
# Indices 1 2 3 4 5 6 
#
# 1 0.013923 -0.003131 -0.004778 0.000000 -0.004637 0.000000
# 2 -0.003131 0.009912 0.000326 0.000001 -0.000822 -0.000001
# 3 -0.004778 0.000326 0.013928 0.000002 -0.001393 -0.000001
# 4 0.000000 0.000001 0.000002 0.027322 -0.000002 -0.008110
# 5 -0.004637 -0.000822 -0.001393 -0.000002 0.029415 0.000001
# 6 0.000000 -0.000001 -0.000001 -0.008110 0.000001 0.025184
#
#
# Mechanical properties :
#
#
# Convention : Reuss Voigt Hill
#
# Bulk Modulus (GPa) = 44.25668 48.76791 46.51230
# Shear Modulus (GPa) = 35.11607 38.89599 37.00603
#
# Velocity S-wave (km/s) = 3.90495 4.10974 4.00865
# Velocity P-wave (km/s) = 6.28882 6.61035 6.45159
#
# Compressibility (1/GPa) = 0.02259546
#
# Stress axis : x y z
#
# Youngs Moduli (GPa) = 71.82222 100.88414 71.79846
#
# Poissons Ratio (x) = 0.31588 0.34309
# Poissons Ratio (y) = 0.22488 -0.02338
# Poissons Ratio (z) = 0.34320 -0.03285
#
# Static dielectric constant tensor:
#      x y z
#    x 5.695000 0.000500 0.399260 
#    y 0.000500 16.390320 0.000150 
#    z 0.399260 0.000150 3.635580 
# 
# 
# High freq. dielectric constant tensor:
#      x y z
#    x 1.903940 0.000000 0.023540 
#    y 0.000000 1.934250 0.000000 
#    z 0.023540 0.000000 1.895730 
# 
# From -- ./inp_files/224510.got.cif
#   From: 2010.06.25/outbox.cif.g09.slc.cpg/sg15_113_cif.got.tgz:224510.got - 2010.06.28 07:06:18.
