data_PCOD8138662
_publ_section_title
;
Structure prediction by ZEFSAII (Michael W. Deem and Ramdas Pophale) SiO2 
 PCOD8138662
Probable space group: C 2/C
;
_chemical_formula_sum "Si O2"
_cell_formula_units_Z 52
_cell_length_a 15.946654
_cell_length_b 9.611941
_cell_length_c 24.567167
_cell_angle_alpha 90.000000
_cell_angle_beta 45.045339
_cell_angle_gamma 90.000000
_cell_volume 2664.797055
_symmetry_space_group_name_H-M "C 2/C"
_symmetry_group_IT_number 15
_symmetry_cell_setting 'monoclinic'
loop_
_space_group_symop_operation_xyz
x,y,z
-x,y,1/2-z
-x,-y,-z
x,-y,1/2+z
1/2+x,1/2+y,z
1/2-x,1/2+y,1/2-z
1/2-x,1/2-y,-z
1/2+x,1/2-y,1/2+z
loop_
_atom_site_type_symbol
_atom_site_label
_atom_site_fract_x
_atom_site_fract_y
_atom_site_fract_z
Si Si1 0.640507 0.937820 0.753243
Si Si2 0.312361 0.807451 0.191894
Si Si3 0.057793 0.227184 0.108053
Si Si4 0.261933 0.970109 0.500297
Si Si5 0.373401 0.130870 0.360851
Si Si6 0.000000 0.130760 0.250000
Si Si7 0.796703 0.076356 0.861717
O O1 0.710952 0.808165 0.748029
O O2 0.662234 0.949246 0.678396
O O3 0.500904 0.912460 0.826516
O O4 0.684456 0.081012 0.760400
O O5 0.439197 0.732721 0.126934
O O6 0.294675 0.883815 0.142967
O O7 0.140603 0.358286 0.060687
O O8 0.017830 0.228120 0.189519
O O9 0.127794 0.088199 0.058634
O O10 0.274433 0.096125 0.451716
O O11 0.283133 0.017648 0.552463
O O12 0.374805 0.294936 0.348051
O O13 0.115810 0.036331 0.204498
#
# Coordination Sequence:
#
# PCOD8138662 Si02
#       7
#     8   8   8   8   8   4   8
#     4  10  22  37  62  87 119 150 205 240 298 344
#     4  11  21  38  55  91 117 151 190 260 290 342
#     4  10  22  36  60  84 119 148 202 239 289 346
#     4  10  21  39  57  87 114 161 194 233 290 363
#     4  10  20  40  62  84 114 158 198 242 281 358
#     4  10  20  38  60  84 110 162 196 242 278 360
#     4  10  21  37  60  84 120 150 197 238 302 346
#
# _framework density 19.513681999999999
#
# number of rings (size 3 to 8) (size 9 to 14) (size 15 to 20)
#    0.000    1.846    1.538    3.231    2.154    1.846 
#    2.769    3.077    0.000    0.000    0.000    0.000 
#    0.000    0.000    0.000    0.000    0.000    0.000 
#
# Total GULP energy -322397.351151 kJ/mol
# GULP energy per Si atom -12399.898121 kJ/mol
# Density = 1.946927 g / cm^3
# Si number density = 19.513682 Si / 1000 Ang^3
#
#
#
# Elastic Constant Matrix: (Units=GPa)
#
#
# Indices 1 2 3 4 5 6 
#
# 1 127.2375 47.9410 53.0170 0.0000 -9.5599 0.0000
# 2 47.9410 67.1707 36.6002 0.0000 -1.9678 0.0001
# 3 53.0170 36.6002 128.6169 0.0000 9.6893 0.0000
# 4 0.0000 0.0000 0.0000 31.0804 0.0000 2.7104
# 5 -9.5599 -1.9678 9.6893 0.0000 18.0041 0.0000
# 6 0.0000 0.0001 0.0000 2.7104 0.0000 36.8920
#
#
#
# Elastic Compliance Matrix: (Units=1/GPa)
#
#
# Indices 1 2 3 4 5 6 
#
# 1 0.012589 -0.006616 -0.003915 0.000000 0.008068 0.000000
# 2 -0.006616 0.021507 -0.003445 0.000000 0.000692 0.000000
# 3 -0.003915 -0.003445 0.011000 0.000000 -0.008375 0.000000
# 4 0.000000 0.000000 0.000000 0.032382 0.000000 -0.002379
# 5 0.008068 0.000692 -0.008375 0.000000 0.064410 0.000000
# 6 0.000000 0.000000 0.000000 -0.002379 0.000000 0.027281
#
#
# Mechanical properties :
#
#
# Convention : Reuss Voigt Hill
#
# Bulk Modulus (GPa) = 58.32648 66.46016 62.39332
# Shear Modulus (GPa) = 24.65052 29.55977 27.10515
#
# Velocity S-wave (km/s) = 3.55807 3.89630 3.73102
# Velocity P-wave (km/s) = 6.84359 7.37385 7.11366
#
# Compressibility (1/GPa) = 0.01714487
#
# Stress axis : x y z
#
# Youngs Moduli (GPa) = 79.43153 46.49695 90.90936
#
# Poissons Ratio (x) = 0.30762 0.35588
# Poissons Ratio (y) = 0.52551 0.31319
# Poissons Ratio (z) = 0.31095 0.16019
#
# Static dielectric constant tensor:
#      x y z
#    x 3.521670 0.000000 0.019860 
#    y 0.000000 3.698250 0.000000 
#    z 0.019860 0.000000 3.662740 
# 
# 
# High freq. dielectric constant tensor:
#      x y z
#    x 1.752180 0.000000 0.002100 
#    y 0.000000 1.769460 0.000000 
#    z 0.002100 0.000000 1.759780 
# 
# From -- ./inp_files/298355.got.cif
#   From: 2010.06.25/outbox.cif.g09.slc.cpg/sg15_150_cif.got.tgz:298355.got - 2010.06.28 07:06:18.
