data_PCOD8138130
_publ_section_title
;
Structure prediction by ZEFSAII (Michael W. Deem and Ramdas Pophale) SiO2 
 PCOD8138130
Probable space group: C 2/C
;
_chemical_formula_sum "Si O2"
_cell_formula_units_Z 56
_cell_length_a 10.638530
_cell_length_b 15.072883
_cell_length_c 18.880764
_cell_angle_alpha 90.000000
_cell_angle_beta 114.020944
_cell_angle_gamma 90.000000
_cell_volume 2765.393648
_symmetry_space_group_name_H-M "C 2/C"
_symmetry_group_IT_number 15
_symmetry_cell_setting 'monoclinic'
loop_
_space_group_symop_operation_xyz
x,y,z
-x,y,1/2-z
-x,-y,-z
x,-y,1/2+z
1/2+x,1/2+y,z
1/2-x,1/2+y,1/2-z
1/2-x,1/2-y,-z
1/2+x,1/2-y,1/2+z
loop_
_atom_site_type_symbol
_atom_site_label
_atom_site_fract_x
_atom_site_fract_y
_atom_site_fract_z
Si Si1 0.801683 0.849471 0.005033
Si Si2 0.605310 0.024811 0.371061
Si Si3 0.957471 0.128996 0.314247
Si Si4 0.335096 0.115391 0.506463
Si Si5 0.808472 0.467039 0.760337
Si Si6 0.313132 0.512629 0.627875
Si Si7 0.055313 0.200339 0.477856
O O1 0.811897 0.895815 0.084096
O O2 0.750000 0.750000 0.000000
O O3 0.703556 0.902948 0.929629
O O4 0.955101 0.849192 0.008889
O O5 0.581288 0.941660 0.417193
O O6 0.671144 0.988298 0.312342
O O7 0.455997 0.067954 0.322220
O O8 0.000000 0.174651 0.250000
O O9 0.036730 0.033824 0.340570
O O10 0.995914 0.196255 0.384892
O O11 0.793174 0.116006 0.275217
O O12 0.296680 0.056314 0.430205
O O13 0.200824 0.151427 0.516375
O O14 0.430089 0.195560 0.500159
O O15 0.736048 0.531336 0.802459
#
# Coordination Sequence:
#
# PCOD8138130 Si02
#       7
#     8   8   8   8   8   8   8
#     4  11  24  37  61  89 119 154 196 250 302 346
#     4  10  22  38  62  85 116 164 199 238 297 354
#     4   9  18  37  62  84 113 152 193 240 297 349
#     4   9  21  37  62  90 108 154 199 252 290 343
#     4  10  20  37  60  82 118 155 198 238 287 370
#     4   9  21  37  64  86 113 155 202 245 295 350
#     4  10  20  38  60  87 120 143 199 249 296 347
#
# _framework density 20.250281999999999
#
# number of rings (size 3 to 8) (size 9 to 14) (size 15 to 20)
#    0.000    2.286    1.429    0.000    6.000    2.857 
#    2.571    0.000   15.714    0.000    0.000    0.000 
#    0.000    0.000    0.000    0.000    0.000    0.000 
#
# Total GULP energy -347076.524534 kJ/mol
# GULP energy per Si atom -12395.590162 kJ/mol
# Density = 2.020419 g / cm^3
# Si number density = 20.250282 Si / 1000 Ang^3
#
#
#
# Elastic Constant Matrix: (Units=GPa)
#
#
# Indices 1 2 3 4 5 6 
#
# 1 86.0113 15.8644 33.7096 0.0000 6.3590 0.0000
# 2 15.8644 84.2891 32.7694 0.0000 -0.2773 0.0000
# 3 33.7096 32.7694 103.4315 0.0000 -3.1743 0.0000
# 4 0.0000 0.0000 0.0000 19.1056 0.0000 0.9482
# 5 6.3590 -0.2773 -3.1743 0.0000 38.7609 0.0000
# 6 0.0000 0.0000 0.0000 0.9482 0.0000 22.1586
#
#
#
# Elastic Compliance Matrix: (Units=1/GPa)
#
#
# Indices 1 2 3 4 5 6 
#
# 1 0.013649 -0.000932 -0.004233 0.000000 -0.002592 0.000000
# 2 -0.000932 0.013597 -0.004006 0.000000 -0.000078 0.000000
# 3 -0.004233 -0.004006 0.012369 0.000000 0.001679 0.000000
# 4 0.000000 0.000000 0.000000 0.052452 0.000000 -0.002244
# 5 -0.002592 -0.000078 0.001679 0.000000 0.026361 0.000000
# 6 0.000000 0.000000 0.000000 -0.002244 0.000000 0.045225
#
#
# Mechanical properties :
#
#
# Convention : Reuss Voigt Hill
#
# Bulk Modulus (GPa) = 47.00983 48.71318 47.86150
# Shear Modulus (GPa) = 26.44310 28.76426 27.60368
#
# Velocity S-wave (km/s) = 3.61753 3.77296 3.69606
# Velocity P-wave (km/s) = 6.38071 6.56415 6.47308
#
# Compressibility (1/GPa) = 0.02127215
#
# Stress axis : x y z
#
# Youngs Moduli (GPa) = 73.26657 73.54753 80.85026
#
# Poissons Ratio (x) = 0.06854 0.34221
# Poissons Ratio (y) = 0.06828 0.32392
# Poissons Ratio (z) = 0.31011 0.29466
#
# Static dielectric constant tensor:
#      x y z
#    x 3.862220 0.000000 -0.004850 
#    y 0.000000 3.326650 0.000000 
#    z -0.004850 0.000000 3.918870 
# 
# 
# High freq. dielectric constant tensor:
#      x y z
#    x 1.805180 0.000000 0.001210 
#    y 0.000000 1.745260 0.000000 
#    z 0.001210 0.000000 1.805170 
# 
# From -- ./inp_files/238411.got.cif
#   From: 2010.06.25/outbox.cif.g09.slc.cpg/sg15_120_cif.got.tgz:238411.got - 2010.06.28 07:06:18.
