data_PCOD8138993
_publ_section_title
;
Structure prediction by ZEFSAII (Michael W. Deem and Ramdas Pophale) SiO2 
 PCOD8138993
Probable space group: C 2/C
;
_chemical_formula_sum "Si O2"
_cell_formula_units_Z 56
_cell_length_a 14.207032
_cell_length_b 9.615193
_cell_length_c 19.830044
_cell_angle_alpha 90.000000
_cell_angle_beta 91.876568
_cell_angle_gamma 90.000000
_cell_volume 2707.397754
_symmetry_space_group_name_H-M "C 2/C"
_symmetry_group_IT_number 15
_symmetry_cell_setting 'monoclinic'
loop_
_space_group_symop_operation_xyz
x,y,z
-x,y,1/2-z
-x,-y,-z
x,-y,1/2+z
1/2+x,1/2+y,z
1/2-x,1/2+y,1/2-z
1/2-x,1/2-y,-z
1/2+x,1/2-y,1/2+z
loop_
_atom_site_type_symbol
_atom_site_label
_atom_site_fract_x
_atom_site_fract_y
_atom_site_fract_z
Si Si1 0.094995 0.147393 0.781363
Si Si2 0.568310 0.961527 0.804765
Si Si3 0.721392 0.452823 0.167722
Si Si4 0.094027 0.870360 0.568784
Si Si5 0.602731 0.523162 0.922926
Si Si6 0.796793 0.749173 0.571945
Si Si7 0.990410 0.587253 0.567050
O O1 0.088025 0.311437 0.773585
O O2 0.176368 0.078367 0.738833
O O3 0.110167 0.127927 0.861127
O O4 0.000000 0.077079 0.750000
O O5 0.500000 0.041460 0.750000
O O6 0.669457 0.028764 0.814587
O O7 0.509216 0.973107 0.873096
O O8 0.672604 0.581192 0.125695
O O9 0.719413 0.314814 0.121170
O O10 0.129937 0.898325 0.493088
O O11 0.072213 0.705434 0.576473
O O12 0.002211 0.963275 0.577702
O O13 0.678714 0.405595 0.906724
O O14 0.750000 0.750000 0.500000
O O15 0.890977 0.661650 0.566998
O O16 0.000000 0.500000 0.500000
#
# Coordination Sequence:
#
# PCOD8138993 Si02
#       7
#     8   8   8   8   8   8   8
#     4  11  23  41  65  91 128 170 217 267 320 396
#     4  10  25  45  59  90 132 171 214 262 328 393
#     4  11  23  41  62  98 127 169 222 269 324 387
#     4  10  20  38  67  94 125 159 219 271 314 388
#     4  10  20  38  63  96 121 167 209 264 329 375
#     4  10  21  39  62  91 130 163 211 267 318 387
#     4  10  22  42  65  90 127 170 208 265 329 380
#
# _framework density 20.684069000000001
#
# number of rings (size 3 to 8) (size 9 to 14) (size 15 to 20)
#    0.000    1.714    2.857    0.857    2.000    3.429 
#    7.714    2.143    0.000    0.000    0.000    0.000 
#    0.000    0.000    0.000    0.000    0.000    0.000 
#
# Total GULP energy -346995.719857 kJ/mol
# GULP energy per Si atom -12392.704281 kJ/mol
# Density = 2.063699 g / cm^3
# Si number density = 20.684069 Si / 1000 Ang^3
#
#
#
# Elastic Constant Matrix: (Units=GPa)
#
#
# Indices 1 2 3 4 5 6 
#
# 1 76.6990 32.2075 47.7669 0.0000 4.7231 0.0000
# 2 32.2075 75.7869 35.9533 0.0000 -6.1995 0.0000
# 3 47.7669 35.9533 157.6766 0.0000 -8.0105 0.0000
# 4 0.0000 0.0000 0.0000 37.8163 0.0000 -2.6610
# 5 4.7231 -6.1995 -8.0105 0.0000 38.4303 0.0000
# 6 0.0000 0.0000 0.0000 -2.6610 0.0000 24.7124
#
#
#
# Elastic Compliance Matrix: (Units=1/GPa)
#
#
# Indices 1 2 3 4 5 6 
#
# 1 0.018664 -0.006159 -0.004464 0.000000 -0.004218 0.000000
# 2 -0.006159 0.016939 -0.001839 0.000000 0.003106 0.000000
# 3 -0.004464 -0.001839 0.008213 0.000000 0.001964 0.000000
# 4 0.000000 0.000000 0.000000 0.026645 0.000000 0.002869
# 5 -0.004218 0.003106 0.001964 0.000000 0.027450 0.000000
# 6 0.000000 0.000000 0.000000 0.002869 0.000000 0.040774
#
#
# Mechanical properties :
#
#
# Convention : Reuss Voigt Hill
#
# Bulk Modulus (GPa) = 52.93053 60.22423 56.57738
# Shear Modulus (GPa) = 29.42777 33.14081 31.28429
#
# Velocity S-wave (km/s) = 3.77600 4.00714 3.89328
# Velocity P-wave (km/s) = 6.68255 7.11259 6.90092
#
# Compressibility (1/GPa) = 0.01889269
#
# Stress axis : x y z
#
# Youngs Moduli (GPa) = 53.57855 59.03636 121.75095
#
# Poissons Ratio (x) = 0.36361 0.54350
# Poissons Ratio (y) = 0.32999 0.22386
# Poissons Ratio (z) = 0.23918 0.10855
#
# Static dielectric constant tensor:
#      x y z
#    x 3.633840 0.000000 0.182560 
#    y 0.000000 -0.927100 0.000000 
#    z 0.182560 0.000000 4.075000 
# 
# 
# High freq. dielectric constant tensor:
#      x y z
#    x 1.807560 0.000000 0.003010 
#    y 0.000000 1.798120 0.000000 
#    z 0.003010 0.000000 1.823740 
# 
# From -- ./inp_files/242821.got.cif
#   From: 2010.06.25/outbox.cif.g09.slc.cpg/sg15_122_cif.got.tgz:242821.got - 2010.06.28 07:06:18.
