data_PCOD8138163
_publ_section_title
;
Structure prediction by ZEFSAII (Michael W. Deem and Ramdas Pophale) SiO2 
 PCOD8138163
Probable space group: C 2/C
;
_chemical_formula_sum "Si O2"
_cell_formula_units_Z 56
_cell_length_a 17.348146
_cell_length_b 31.310980
_cell_length_c 9.277028
_cell_angle_alpha 90.000000
_cell_angle_beta 146.926197
_cell_angle_gamma 90.000000
_cell_volume 2749.967587
_symmetry_space_group_name_H-M "C 2/C"
_symmetry_group_IT_number 15
_symmetry_cell_setting 'monoclinic'
loop_
_space_group_symop_operation_xyz
x,y,z
-x,y,1/2-z
-x,-y,-z
x,-y,1/2+z
1/2+x,1/2+y,z
1/2-x,1/2+y,1/2-z
1/2-x,1/2-y,-z
1/2+x,1/2-y,1/2+z
loop_
_atom_site_type_symbol
_atom_site_label
_atom_site_fract_x
_atom_site_fract_y
_atom_site_fract_z
Si Si1 0.425349 0.214778 0.476803
Si Si2 0.837634 0.233782 0.272917
Si Si3 0.077216 0.141797 0.022195
Si Si4 0.111668 0.621015 0.052419
Si Si5 0.210717 0.000206 0.349479
Si Si6 0.478290 0.568253 0.052047
Si Si7 0.878277 0.470539 0.863824
O O1 0.500000 0.215728 0.750000
O O2 0.268046 0.236178 0.252832
O O3 0.518382 0.237884 0.498308
O O4 0.407505 0.165949 0.393592
O O5 0.892125 0.185360 0.342442
O O6 0.750000 0.250000 0.000000
O O7 0.226036 0.117280 0.243495
O O8 0.973699 0.111894 0.953177
O O9 0.000000 0.151636 0.750000
O O10 0.082351 0.579151 0.103414
O O11 0.000000 0.619950 0.750000
O O12 0.347524 0.020544 0.484521
O O13 0.096413 0.037218 0.173255
O O14 0.240264 0.983787 0.556716
O O15 0.166415 0.958068 0.189828
O O16 0.500000 0.581805 0.250000
O O17 0.000000 0.500000 0.000000
#
# Coordination Sequence:
#
# PCOD8138163 Si02
#       7
#     8   8   8   8   8   8   8
#     4   8  16  32  58  86 114 156 206 255 307 377
#     4   9  18  36  60  91 124 165 212 257 321 389
#     4  11  23  40  66  97 128 165 217 270 323 390
#     4  10  20  37  60  87 121 173 218 255 321 394
#     4  11  23  40  57  89 122 162 215 263 321 370
#     4  11  23  38  62  90 124 163 207 271 324 374
#     4  12  23  38  60  85 124 169 217 264 312 382
#
# _framework density 20.363878
#
# number of rings (size 3 to 8) (size 9 to 14) (size 15 to 20)
#    0.000    1.714    2.857    3.000    0.000    1.714 
#    0.000    4.286    0.000    3.429    0.000    0.000 
#    0.000    0.000    0.000    0.000    0.000    0.000 
#
# Total GULP energy -346962.955336 kJ/mol
# GULP energy per Si atom -12391.534119 kJ/mol
# Density = 2.031753 g / cm^3
# Si number density = 20.363878 Si / 1000 Ang^3
#
#
#
# Elastic Constant Matrix: (Units=GPa)
#
#
# Indices 1 2 3 4 5 6 
#
# 1 97.3372 66.2949 15.6188 0.0000 16.8428 0.0000
# 2 66.2949 164.2364 30.1977 0.0000 6.8597 0.0000
# 3 15.6188 30.1977 62.6172 0.0000 -0.3018 0.0000
# 4 0.0000 0.0000 0.0000 20.2941 0.0000 5.7960
# 5 16.8428 6.8597 -0.3018 0.0000 34.7137 0.0000
# 6 0.0000 0.0000 0.0000 5.7960 0.0000 33.8457
#
#
#
# Elastic Compliance Matrix: (Units=1/GPa)
#
#
# Indices 1 2 3 4 5 6 
#
# 1 0.015496 -0.005785 -0.001106 0.000000 -0.006385 0.000000
# 2 -0.005785 0.008905 -0.002846 0.000000 0.001022 0.000000
# 3 -0.001106 -0.002846 0.017625 0.000000 0.001252 0.000000
# 4 0.000000 0.000000 0.000000 0.051809 0.000000 -0.008872
# 5 -0.006385 0.001022 0.001252 0.000000 0.031714 0.000000
# 6 0.000000 0.000000 0.000000 -0.008872 0.000000 0.031065
#
#
# Mechanical properties :
#
#
# Convention : Reuss Voigt Hill
#
# Bulk Modulus (GPa) = 44.34550 60.93484 52.64017
# Shear Modulus (GPa) = 27.23232 31.90932 29.57082
#
# Velocity S-wave (km/s) = 3.66086 3.96277 3.81480
# Velocity P-wave (km/s) = 6.30024 7.13625 6.73124
#
# Compressibility (1/GPa) = 0.02255020
#
# Stress axis : x y z
#
# Youngs Moduli (GPa) = 64.53312 112.30182 56.73855
#
# Poissons Ratio (x) = 0.64966 0.06276
# Poissons Ratio (y) = 0.37332 0.16150
# Poissons Ratio (z) = 0.07138 0.31966
#
# Static dielectric constant tensor:
#      x y z
#    x 3.497580 0.000000 0.771500 
#    y 0.000000 3.967160 0.000000 
#    z 0.771500 0.000000 1.608790 
# 
# 
# High freq. dielectric constant tensor:
#      x y z
#    x 1.771300 0.000000 0.023150 
#    y 0.000000 1.806500 0.000000 
#    z 0.023150 0.000000 1.787570 
# 
# From -- ./inp_files/52666.got.cif
#   From: 2010.06.25/outbox.cif.g09.slc.cpg/sg15_27_cif.got.tgz:52666.got - 2010.06.28 07:06:18.
