data_PCOD8138174
_publ_section_title
;
Structure prediction by ZEFSAII (Michael W. Deem and Ramdas Pophale) SiO2 
 PCOD8138174
Probable space group: C 2/C
;
_chemical_formula_sum "Si O2"
_cell_formula_units_Z 56
_cell_length_a 13.623303
_cell_length_b 26.046095
_cell_length_c 7.676832
_cell_angle_alpha 90.000000
_cell_angle_beta 71.805839
_cell_angle_gamma 90.000000
_cell_volume 2587.810379
_symmetry_space_group_name_H-M "C 2/C"
_symmetry_group_IT_number 15
_symmetry_cell_setting 'monoclinic'
loop_
_space_group_symop_operation_xyz
x,y,z
-x,y,1/2-z
-x,-y,-z
x,-y,1/2+z
1/2+x,1/2+y,z
1/2-x,1/2+y,1/2-z
1/2-x,1/2-y,-z
1/2+x,1/2-y,1/2+z
loop_
_atom_site_type_symbol
_atom_site_label
_atom_site_fract_x
_atom_site_fract_y
_atom_site_fract_z
Si Si1 0.424714 0.189788 0.086087
Si Si2 0.864762 0.645961 0.460626
Si Si3 0.045281 0.797850 0.534926
Si Si4 0.018368 0.907052 0.040843
Si Si5 0.309752 0.557035 0.578821
Si Si6 0.227006 0.945678 0.001377
Si Si7 0.271031 0.836688 0.379080
O O1 0.351389 0.181876 0.296212
O O2 0.515528 0.146836 0.044740
O O3 0.476780 0.246251 0.063645
O O4 0.364732 0.186266 0.937427
O O5 0.830475 0.588293 0.420034
O O6 0.794301 0.666121 0.659025
O O7 0.168670 0.804555 0.473340
O O8 0.000000 0.790287 0.750000
O O9 0.988930 0.845769 0.476032
O O10 0.000000 0.921834 0.250000
O O11 0.932589 0.935752 0.964936
O O12 0.134083 0.925927 0.924876
O O13 0.253972 0.505778 0.543596
O O14 0.244098 0.604936 0.543608
O O15 0.310089 0.560838 0.784102
#
# Coordination Sequence:
#
# PCOD8138174 Si02
#       7
#     8   8   8   8   8   8   8
#     4  11  24  43  65  87 127 169 218 271 312 365
#     4  10  24  42  63  93 119 172 220 257 318 373
#     4  11  24  39  63  99 125 166 213 252 323 385
#     4   9  20  37  57  90 130 161 201 252 312 388
#     4   9  20  35  61  92 120 164 200 250 323 374
#     4  10  20  37  60  88 124 159 206 255 312 385
#     4  10  22  44  64  93 130 161 210 266 313 380
#
# _framework density 21.639917000000001
#
# number of rings (size 3 to 8) (size 9 to 14) (size 15 to 20)
#    0.000    2.000    0.000    3.000    6.000    1.714 
#    0.000    1.429    3.143    0.000    0.000    0.000 
#    0.000    0.000    0.000    0.000    0.000    0.000 
#
# Total GULP energy -347029.637182 kJ/mol
# GULP energy per Si atom -12393.915614 kJ/mol
# Density = 2.159066 g / cm^3
# Si number density = 21.639917 Si / 1000 Ang^3
#
#
#
# Elastic Constant Matrix: (Units=GPa)
#
#
# Indices 1 2 3 4 5 6 
#
# 1 77.9142 41.4560 18.6825 0.0000 -12.7434 0.0000
# 2 41.4560 119.6025 16.7944 0.0000 -12.9104 0.0000
# 3 18.6825 16.7944 78.8976 0.0000 -13.5351 0.0000
# 4 0.0000 0.0000 0.0000 34.9812 0.0000 1.6339
# 5 -12.7434 -12.9104 -13.5351 0.0000 27.3220 0.0000
# 6 0.0000 0.0000 0.0000 1.6339 0.0000 30.1648
#
#
#
# Elastic Compliance Matrix: (Units=1/GPa)
#
#
# Indices 1 2 3 4 5 6 
#
# 1 0.016739 -0.005029 -0.002144 0.000000 0.004369 0.000000
# 2 -0.005029 0.010439 -0.000642 0.000000 0.002269 0.000000
# 3 -0.002144 -0.000642 0.014312 0.000000 0.005787 0.000000
# 4 0.000000 0.000000 0.000000 0.028659 0.000000 -0.001552
# 5 0.004369 0.002269 0.005787 0.000000 0.042577 0.000000
# 6 0.000000 0.000000 0.000000 -0.001552 0.000000 0.033235
#
#
# Mechanical properties :
#
#
# Convention : Reuss Voigt Hill
#
# Bulk Modulus (GPa) = 38.66964 47.80893 43.23928
# Shear Modulus (GPa) = 29.37510 31.79236 30.58373
#
# Velocity S-wave (km/s) = 3.68836 3.83711 3.76347
# Velocity P-wave (km/s) = 6.00392 6.46314 6.23775
#
# Compressibility (1/GPa) = 0.02586008
#
# Stress axis : x y z
#
# Youngs Moduli (GPa) = 59.73983 95.79098 69.87326
#
# Poissons Ratio (x) = 0.48178 0.14979
# Poissons Ratio (y) = 0.30046 0.04486
# Poissons Ratio (z) = 0.12806 0.06149
#
# Static dielectric constant tensor:
#      x y z
#    x 3.925920 0.000000 -0.069710 
#    y 0.000000 1.047270 0.000000 
#    z -0.069710 0.000000 3.840750 
# 
# 
# High freq. dielectric constant tensor:
#      x y z
#    x 1.837480 0.000000 0.003280 
#    y 0.000000 1.848190 0.000000 
#    z 0.003280 0.000000 1.847630 
# 
# From -- ./inp_files/42106.got.cif
#   From: 2010.06.25/outbox.cif.g09.slc.cpg/sg15_22_cif.got.tgz:42106.got - 2010.06.28 07:06:18.
