data_PCOD8138813
_publ_section_title
;
Structure prediction by ZEFSAII (Michael W. Deem and Ramdas Pophale) SiO2 
 PCOD8138813
Probable space group: C 2/C
;
_chemical_formula_sum "Si O2"
_cell_formula_units_Z 64
_cell_length_a 10.451317
_cell_length_b 21.759135
_cell_length_c 24.302382
_cell_angle_alpha 90.000000
_cell_angle_beta 143.560034
_cell_angle_gamma 90.000000
_cell_volume 3282.717034
_symmetry_space_group_name_H-M "C 2/C"
_symmetry_group_IT_number 15
_symmetry_cell_setting 'monoclinic'
loop_
_space_group_symop_operation_xyz
x,y,z
-x,y,1/2-z
-x,-y,-z
x,-y,1/2+z
1/2+x,1/2+y,z
1/2-x,1/2+y,1/2-z
1/2-x,1/2-y,-z
1/2+x,1/2-y,1/2+z
loop_
_atom_site_type_symbol
_atom_site_label
_atom_site_fract_x
_atom_site_fract_y
_atom_site_fract_z
Si Si1 0.177546 0.468537 0.351897
Si Si2 0.362702 0.109891 0.989316
Si Si3 0.024688 0.720044 0.411833
Si Si4 0.629896 0.278766 0.845991
Si Si5 0.275600 0.880973 0.971185
Si Si6 0.857048 0.995354 0.026375
Si Si7 0.977555 0.187365 0.805644
Si Si8 0.983360 0.349762 0.337387
O O1 0.407850 0.466238 0.401368
O O2 0.213352 0.505752 0.420892
O O3 0.087826 0.400493 0.333690
O O4 0.000000 0.500312 0.250000
O O5 0.263266 0.045263 0.970705
O O6 0.190397 0.152249 0.898439
O O7 0.445170 0.145831 0.073278
O O8 0.562085 0.094032 0.018925
O O9 0.871167 0.737893 0.410047
O O10 0.939527 0.747328 0.324534
O O11 0.250000 0.750000 0.500000
O O12 0.500000 0.308638 0.750000
O O13 0.624137 0.327943 0.893558
O O14 0.515653 0.216800 0.823536
O O15 0.126747 0.935922 0.943268
O O16 0.411296 0.850835 0.066613
O O17 0.774699 0.141834 0.746093
O O18 0.000000 0.205327 0.750000
#
# Coordination Sequence:
#
# PCOD8138813 Si02
#       8
#     8   8   8   8   8   8   8   8
#     4  10  22  40  61  89 114 150 207 252 294 358
#     4  10  20  38  62  82 118 159 200 241 298 356
#     4   9  21  36  56  87 118 152 192 239 302 358
#     4  11  21  37  60  85 120 158 194 241 301 363
#     4  10  22  40  56  87 121 157 198 245 295 356
#     4  10  22  41  62  84 120 160 199 250 295 348
#     4  11  20  36  58  91 123 149 199 255 299 360
#     4  11  21  36  62  87 118 153 197 250 306 355
#
# _framework density 19.496046
#
# number of rings (size 3 to 8) (size 9 to 14) (size 15 to 20)
#    0.000    1.750    2.500    1.875    3.500    0.000 
#    4.500    1.250    0.000    0.000    0.000    0.000 
#    0.000    0.000    0.000    0.000    0.000    0.000 
#
# Total GULP energy -396651.711663 kJ/mol
# GULP energy per Si atom -12395.365989 kJ/mol
# Density = 1.945167 g / cm^3
# Si number density = 19.496046 Si / 1000 Ang^3
#
#
#
# Elastic Constant Matrix: (Units=GPa)
#
#
# Indices 1 2 3 4 5 6 
#
# 1 88.9659 32.3809 33.8515 -0.0001 1.2217 0.0001
# 2 32.3809 59.4704 30.6348 -0.0002 -6.5636 0.0003
# 3 33.8515 30.6348 102.8262 0.0004 -5.7111 0.0009
# 4 -0.0001 -0.0002 0.0004 19.7992 0.0003 0.6725
# 5 1.2217 -6.5636 -5.7111 0.0003 34.7269 0.0006
# 6 0.0001 0.0003 0.0009 0.6725 0.0006 21.3533
#
#
#
# Elastic Compliance Matrix: (Units=1/GPa)
#
#
# Indices 1 2 3 4 5 6 
#
# 1 0.014896 -0.006820 -0.003000 0.000000 -0.002306 0.000000
# 2 -0.006820 0.023261 -0.004468 0.000000 0.003901 0.000000
# 3 -0.003000 -0.004468 0.012114 0.000000 0.001253 0.000000
# 4 0.000000 0.000000 0.000000 0.050561 0.000000 -0.001592
# 5 -0.002306 0.003901 0.001253 0.000000 0.029821 -0.000001
# 6 0.000000 0.000000 0.000000 -0.001592 -0.000001 0.046881
#
#
# Mechanical properties :
#
#
# Convention : Reuss Voigt Hill
#
# Bulk Modulus (GPa) = 46.09579 49.44410 47.76994
# Shear Modulus (GPa) = 23.43674 25.46889 24.45282
#
# Velocity S-wave (km/s) = 3.47093 3.61828 3.54537
# Velocity P-wave (km/s) = 6.30541 6.54768 6.42769
#
# Compressibility (1/GPa) = 0.02169396
#
# Stress axis : x y z
#
# Youngs Moduli (GPa) = 67.13387 42.99124 82.55154
#
# Poissons Ratio (x) = 0.29318 0.24767
# Poissons Ratio (y) = 0.45782 0.36886
# Poissons Ratio (z) = 0.20141 0.19209
#
# Static dielectric constant tensor:
#      x y z
#    x 5.554470 0.000020 -0.030780 
#    y 0.000020 3.493090 0.000000 
#    z -0.030780 0.000000 3.815150 
# 
# 
# High freq. dielectric constant tensor:
#      x y z
#    x 1.769480 0.000000 0.002620 
#    y 0.000000 1.738920 0.000000 
#    z 0.002620 0.000000 1.765270 
# 
# From -- ./inp_files/293796.got.cif
#   From: 2010.06.25/outbox.cif.g09.slc.cpg/sg15_147_cif.got.tgz:293796.got - 2010.06.28 07:06:18.
