data_PCOD8138087
_publ_section_title
;
Structure prediction by ZEFSAII (Michael W. Deem and Ramdas Pophale) SiO2 
 PCOD8138087
Probable space group: C 2/C
;
_chemical_formula_sum "Si O2"
_cell_formula_units_Z 56
_cell_length_a 30.894828
_cell_length_b 16.143274
_cell_length_c 9.575580
_cell_angle_alpha 90.000000
_cell_angle_beta 148.819688
_cell_angle_gamma 90.000000
_cell_volume 2472.568802
_symmetry_space_group_name_H-M "C 2/C"
_symmetry_group_IT_number 15
_symmetry_cell_setting 'monoclinic'
loop_
_space_group_symop_operation_xyz
x,y,z
-x,y,1/2-z
-x,-y,-z
x,-y,1/2+z
1/2+x,1/2+y,z
1/2-x,1/2+y,1/2-z
1/2-x,1/2-y,-z
1/2+x,1/2-y,1/2+z
loop_
_atom_site_type_symbol
_atom_site_label
_atom_site_fract_x
_atom_site_fract_y
_atom_site_fract_z
Si Si1 0.319508 0.840431 0.799681
Si Si2 0.594468 0.750157 0.713569
Si Si3 0.369462 0.985699 0.100791
Si Si4 0.191835 0.948073 0.097135
Si Si5 0.355866 0.412050 0.242878
Si Si6 0.498493 0.124059 0.091483
Si Si7 0.749347 0.728729 0.661511
O O1 0.372356 0.789156 0.837129
O O2 0.228111 0.856223 0.484152
O O3 0.311658 0.792341 0.925773
O O4 0.364262 0.929173 0.946854
O O5 0.575576 0.652723 0.630120
O O6 0.507575 0.796663 0.513364
O O7 0.657792 0.763302 0.018132
O O8 0.420498 0.067642 0.210922
O O9 0.414428 0.929095 0.341322
O O10 0.276294 0.009870 0.892970
O O11 0.128188 0.937703 0.052169
O O12 0.213460 0.863496 0.078764
O O13 0.147277 0.007904 0.863438
O O14 0.500000 0.160047 0.250000
O O15 0.750000 0.750000 0.500000
#
# Coordination Sequence:
#
# PCOD8138087 Si02
#       7
#     8   8   8   8   8   8   8
#     4  10  20  37  59  79 122 165 200 247 313 371
#     4  11  21  42  55  79 124 169 208 249 304 370
#     4  10  24  36  57  88 123 163 200 250 307 378
#     4  11  21  37  60  91 124 150 203 256 322 376
#     4  10  21  35  58  87 117 161 190 259 317 368
#     4  11  25  37  57  85 125 168 209 249 301 365
#     4  11  22  34  58  87 122 161 204 253 313 376
#
# _framework density 22.648510000000002
#
# number of rings (size 3 to 8) (size 9 to 14) (size 15 to 20)
#    0.000    1.429    4.286    0.857   16.000    0.000 
#    0.000    0.000    0.000    0.000    0.000    4.000 
#    0.000    0.000    0.000    0.000    0.000    0.000 
#
# Total GULP energy -347159.875267 kJ/mol
# GULP energy per Si atom -12398.566974 kJ/mol
# Density = 2.259696 g / cm^3
# Si number density = 22.648510 Si / 1000 Ang^3
#
#
#
# Elastic Constant Matrix: (Units=GPa)
#
#
# Indices 1 2 3 4 5 6 
#
# 1 110.9561 56.4130 29.1954 0.0000 -43.5088 0.0000
# 2 56.4130 149.2263 17.1674 0.0000 -16.8392 0.0000
# 3 29.1954 17.1674 31.1336 0.0000 -21.0084 0.0000
# 4 0.0000 0.0000 0.0000 27.8538 0.0000 -11.4439
# 5 -43.5088 -16.8392 -21.0084 0.0000 34.8471 0.0000
# 6 0.0000 0.0000 0.0000 -11.4439 0.0000 29.3626
#
#
#
# Elastic Compliance Matrix: (Units=1/GPa)
#
#
# Indices 1 2 3 4 5 6 
#
# 1 0.020975 -0.005192 -0.001395 0.000000 0.022838 0.000000
# 2 -0.005192 0.008509 -0.002399 0.000000 -0.003816 0.000000
# 3 -0.001395 -0.002399 0.055282 0.000000 0.030427 0.000000
# 4 0.000000 0.000000 0.000000 0.042747 0.000000 0.016660
# 5 0.022838 -0.003816 0.030427 0.000000 0.073711 0.000000
# 6 0.000000 0.000000 0.000000 0.016660 0.000000 0.040550
#
#
# Mechanical properties :
#
#
# Convention : Reuss Voigt Hill
#
# Bulk Modulus (GPa) = 14.97121 55.20748 35.08935
# Shear Modulus (GPa) = 17.72980 30.98206 24.35593
#
# Velocity S-wave (km/s) = 2.80094 3.70259 3.28287
# Velocity P-wave (km/s) = 4.13339 6.53511 5.46775
#
# Compressibility (1/GPa) = 0.06679485
#
# Stress axis : x y z
#
# Youngs Moduli (GPa) = 47.67626 117.52060 18.08893
#
# Poissons Ratio (x) = 0.61011 0.02524
# Poissons Ratio (y) = 0.24751 0.04339
# Poissons Ratio (z) = 0.06653 0.28191
#
# Static dielectric constant tensor:
#      x y z
#    x 3.912150 0.000000 -0.072380 
#    y 0.000000 4.548970 0.000000 
#    z -0.072380 0.000000 3.844910 
# 
# 
# High freq. dielectric constant tensor:
#      x y z
#    x 1.876510 0.000000 -0.024960 
#    y 0.000000 1.911300 0.000000 
#    z -0.024960 0.000000 1.862610 
# 
# From -- ./inp_files/62797.got.cif
#   From: 2010.06.25/outbox.cif.g09.slc.cpg/sg15_32_cif.got.tgz:62797.got - 2010.06.28 07:06:18.
