data_PCOD8138254
_publ_section_title
;
Structure prediction by ZEFSAII (Michael W. Deem and Ramdas Pophale) SiO2 
 PCOD8138254
Probable space group: C 2/C
;
_chemical_formula_sum "Si O2"
_cell_formula_units_Z 52
_cell_length_a 15.885176
_cell_length_b 20.479387
_cell_length_c 19.224369
_cell_angle_alpha 90.000000
_cell_angle_beta 153.368016
_cell_angle_gamma 90.000000
_cell_volume 2803.427184
_symmetry_space_group_name_H-M "C 2/C"
_symmetry_group_IT_number 15
_symmetry_cell_setting 'monoclinic'
loop_
_space_group_symop_operation_xyz
x,y,z
-x,y,1/2-z
-x,-y,-z
x,-y,1/2+z
1/2+x,1/2+y,z
1/2-x,1/2+y,1/2-z
1/2-x,1/2-y,-z
1/2+x,1/2-y,1/2+z
loop_
_atom_site_type_symbol
_atom_site_label
_atom_site_fract_x
_atom_site_fract_y
_atom_site_fract_z
Si Si1 0.671828 0.330708 0.077486
Si Si2 0.207997 0.228932 0.228929
Si Si3 0.637028 0.456243 0.144840
Si Si4 0.554571 0.158364 0.525989
Si Si5 0.500000 0.893800 0.250000
Si Si6 0.957321 0.446704 0.067212
Si Si7 0.162949 0.054637 0.815883
O O1 0.758092 0.265254 0.173331
O O2 0.653439 0.384346 0.124658
O O3 0.812658 0.351381 0.120819
O O4 0.470746 0.318160 0.894485
O O5 0.391122 0.183337 0.353087
O O6 0.176160 0.279649 0.142471
O O7 0.557077 0.452268 0.163714
O O8 0.848842 0.486331 0.306156
O O9 0.500000 0.500000 0.000000
O O10 0.464368 0.119467 0.525583
O O11 0.689430 0.113921 0.578438
O O12 0.458815 0.935372 0.150896
O O13 0.773249 0.488098 0.914413
O O14 0.000000 0.069788 0.750000
#
# Coordination Sequence:
#
# PCOD8138254 Si02
#       7
#     8   8   8   8   4   8   8
#     4  10  21  36  58  84 117 154 193 238 283 350
#     4  10  20  37  62  81 113 161 201 229 285 354
#     4  10  21  38  61  82 114 155 194 235 294 353
#     4  10  20  42  58  85 113 156 197 242 286 354
#     4  10  20  38  52  90 124 144 194 244 284 350
#     4  10  22  38  59  83 123 150 189 241 295 355
#     4  11  24  39  60  90 118 152 197 251 298 343
#
# _framework density 18.548725000000001
#
# number of rings (size 3 to 8) (size 9 to 14) (size 15 to 20)
#    0.000    1.846    4.615    1.846    8.615    0.615 
#    0.000    0.769    0.000    0.000    0.000    0.000 
#    0.000    0.000    0.000    0.000    0.000    0.000 
#
# Total GULP energy -322284.294623 kJ/mol
# GULP energy per Si atom -12395.549793 kJ/mol
# Density = 1.850651 g / cm^3
# Si number density = 18.548725 Si / 1000 Ang^3
#
#
#
# Elastic Constant Matrix: (Units=GPa)
#
#
# Indices 1 2 3 4 5 6 
#
# 1 133.6622 45.3576 48.4753 0.0122 4.6997 0.0102
# 2 45.3576 81.3005 53.9381 -0.0835 8.3447 -0.0212
# 3 48.4753 53.9381 133.2776 -0.0609 8.3443 -0.0262
# 4 0.0122 -0.0835 -0.0609 40.4624 0.0048 5.0642
# 5 4.6997 8.3447 8.3443 0.0048 21.0180 0.0074
# 6 0.0102 -0.0212 -0.0262 5.0642 0.0074 15.8802
#
#
#
# Elastic Compliance Matrix: (Units=1/GPa)
#
#
# Indices 1 2 3 4 5 6 
#
# 1 0.009535 -0.004146 -0.001805 -0.000013 0.000230 -0.000011
# 2 -0.004146 0.018965 -0.005901 0.000031 -0.004260 0.000010
# 3 -0.001805 -0.005901 0.010640 0.000003 -0.001478 0.000010
# 4 -0.000013 0.000031 0.000003 0.025742 -0.000014 -0.008209
# 5 0.000230 -0.004260 -0.001478 -0.000014 0.049805 -0.000027
# 6 -0.000011 0.000010 0.000010 -0.008209 -0.000027 0.065589
#
#
# Mechanical properties :
#
#
# Convention : Reuss Voigt Hill
#
# Bulk Modulus (GPa) = 64.77620 71.53139 68.15379
# Shear Modulus (GPa) = 23.90927 28.83673 26.37300
#
# Velocity S-wave (km/s) = 3.59416 3.94718 3.77480
# Velocity P-wave (km/s) = 7.22648 7.70853 7.47139
#
# Compressibility (1/GPa) = 0.01543777
#
# Stress axis : x y z
#
# Youngs Moduli (GPa) = 104.87906 52.72863 93.98502
#
# Poissons Ratio (x) = 0.21861 0.16960
# Poissons Ratio (y) = 0.43482 0.55456
# Poissons Ratio (z) = 0.18926 0.31113
#
# Static dielectric constant tensor:
#      x y z
#    x 3.259240 0.000040 0.089370 
#    y 0.000040 3.478030 0.000030 
#    z 0.089370 0.000030 3.724490 
# 
# 
# High freq. dielectric constant tensor:
#      x y z
#    x 1.695490 0.000000 -0.002140 
#    y 0.000000 1.716050 -0.000010 
#    z -0.002140 -0.000010 1.737690 
# 
# From -- ./inp_files/40867.got.cif
#   From: 2010.06.25/outbox.cif.g09.slc.cpg/sg15_21_cif.got.tgz:40867.got - 2010.06.28 07:06:18.
