data_PCOD8138168
_publ_section_title
;
Structure prediction by ZEFSAII (Michael W. Deem and Ramdas Pophale) SiO2 
 PCOD8138168
Probable space group: C 2/C
;
_chemical_formula_sum "Si O2"
_cell_formula_units_Z 48
_cell_length_a 14.837877
_cell_length_b 11.788231
_cell_length_c 22.577158
_cell_angle_alpha 90.000000
_cell_angle_beta 39.098292
_cell_angle_gamma 90.000000
_cell_volume 2490.461987
_symmetry_space_group_name_H-M "C 2/C"
_symmetry_group_IT_number 15
_symmetry_cell_setting 'monoclinic'
loop_
_space_group_symop_operation_xyz
x,y,z
-x,y,1/2-z
-x,-y,-z
x,-y,1/2+z
1/2+x,1/2+y,z
1/2-x,1/2+y,1/2-z
1/2-x,1/2-y,-z
1/2+x,1/2-y,1/2+z
loop_
_atom_site_type_symbol
_atom_site_label
_atom_site_fract_x
_atom_site_fract_y
_atom_site_fract_z
Si Si1 0.395574 0.493056 0.758417
Si Si2 0.206703 0.775164 0.623471
Si Si3 0.421819 0.496119 0.450478
Si Si4 0.515237 0.683753 0.987223
Si Si5 0.081541 0.416429 0.414492
Si Si6 0.137700 0.609514 0.565405
O O1 0.500000 0.562707 0.750000
O O2 0.378015 0.369508 0.797888
O O3 0.480174 0.479393 0.655332
O O4 0.247049 0.554389 0.824479
O O5 0.320407 0.718833 0.610939
O O6 0.104800 0.683246 0.641903
O O7 0.304283 0.819102 0.519663
O O8 0.481832 0.588417 0.464515
O O9 0.443366 0.368874 0.464752
O O10 0.253440 0.511632 0.521466
O O11 0.422523 0.789648 0.057381
O O12 0.000000 0.500000 0.500000
O O13 0.013652 0.435169 0.383104
#
# Coordination Sequence:
#
# PCOD8138168 Si02
#       6
#     8   8   8   8   8   8
#     4  12  22  35  58  89 116 142 198 250 284 326
#     4   9  17  34  60  82 111 143 198 227 281 333
#     4  10  20  37  60  88 115 147 196 240 288 338
#     4   9  20  38  61  80 117 162 187 227 293 359
#     4  11  20  37  58  83 120 153 195 231 290 347
#     4   9  17  35  59  84 108 154 187 231 280 351
#
# _framework density 19.273533
#
# number of rings (size 3 to 8) (size 9 to 14) (size 15 to 20)
#    0.000    2.000    5.000    1.000    0.000    1.333 
#    0.000    3.333    0.000    0.000    0.000    0.000 
#    0.000    0.000    0.000    0.000    0.000    0.000 
#
# Total GULP energy -297351.003268 kJ/mol
# GULP energy per Si atom -12389.625136 kJ/mol
# Density = 1.922967 g / cm^3
# Si number density = 19.273533 Si / 1000 Ang^3
#
#
#
# Elastic Constant Matrix: (Units=GPa)
#
#
# Indices 1 2 3 4 5 6 
#
# 1 164.3557 62.6319 51.2489 0.0000 -23.1154 0.0000
# 2 62.6319 89.7971 29.2581 0.0000 -4.7886 0.0000
# 3 51.2489 29.2581 73.2764 -0.0001 -3.2902 0.0000
# 4 0.0000 0.0000 -0.0001 16.2418 0.0000 11.7209
# 5 -23.1154 -4.7886 -3.2902 0.0000 27.4975 0.0000
# 6 0.0000 0.0000 0.0000 11.7209 0.0000 25.8229
#
#
#
# Elastic Compliance Matrix: (Units=1/GPa)
#
#
# Indices 1 2 3 4 5 6 
#
# 1 0.010804 -0.005498 -0.005023 0.000000 0.007524 0.000000
# 2 -0.005498 0.015672 -0.002511 0.000000 -0.002193 0.000000
# 3 -0.005023 -0.002511 0.018050 0.000000 -0.002500 0.000000
# 4 0.000000 0.000000 0.000000 0.091561 0.000000 -0.041559
# 5 0.007524 -0.002193 -0.002500 0.000000 0.042011 0.000000
# 6 0.000000 0.000000 0.000000 -0.041559 0.000000 0.057589
#
#
# Mechanical properties :
#
#
# Convention : Reuss Voigt Hill
#
# Bulk Modulus (GPa) = 54.16349 68.18967 61.17658
# Shear Modulus (GPa) = 18.66339 26.19845 22.43092
#
# Velocity S-wave (km/s) = 3.11520 3.69086 3.41518
# Velocity P-wave (km/s) = 6.41115 7.32257 6.88196
#
# Compressibility (1/GPa) = 0.01846262
#
# Stress axis : x y z
#
# Youngs Moduli (GPa) = 92.55988 63.80850 55.40017
#
# Poissons Ratio (x) = 0.35079 0.27829
# Poissons Ratio (y) = 0.50885 0.13911
# Poissons Ratio (z) = 0.46495 0.16022
#
# Static dielectric constant tensor:
#      x y z
#    x 4.359460 0.000000 0.000770 
#    y 0.000000 3.871110 0.000000 
#    z 0.000770 0.000000 3.264740 
# 
# 
# High freq. dielectric constant tensor:
#      x y z
#    x 1.771190 0.000000 -0.004590 
#    y 0.000000 1.728500 0.000000 
#    z -0.004590 0.000000 1.728260 
# 
# From -- ./inp_files/243896.got.cif
#   From: 2010.06.25/outbox.cif.g09.slc.cpg/sg15_122_cif.got.tgz:243896.got - 2010.06.28 07:06:18.
