data_PCOD8138880
_publ_section_title
;
Structure prediction by ZEFSAII (Michael W. Deem and Ramdas Pophale) SiO2 
 PCOD8138880
Probable space group: C 2/C
;
_chemical_formula_sum "Si O2"
_cell_formula_units_Z 60
_cell_length_a 12.051056
_cell_length_b 15.236248
_cell_length_c 17.139690
_cell_angle_alpha 90.000000
_cell_angle_beta 107.003351
_cell_angle_gamma 90.000000
_cell_volume 3009.502092
_symmetry_space_group_name_H-M "C 2/C"
_symmetry_group_IT_number 15
_symmetry_cell_setting 'monoclinic'
loop_
_space_group_symop_operation_xyz
x,y,z
-x,y,1/2-z
-x,-y,-z
x,-y,1/2+z
1/2+x,1/2+y,z
1/2-x,1/2+y,1/2-z
1/2-x,1/2-y,-z
1/2+x,1/2-y,1/2+z
loop_
_atom_site_type_symbol
_atom_site_label
_atom_site_fract_x
_atom_site_fract_y
_atom_site_fract_z
Si Si1 0.075156 0.158883 0.071831
Si Si2 0.830577 0.339852 0.414035
Si Si3 0.062065 0.043033 0.342416
Si Si4 0.307788 0.980168 0.829631
Si Si5 0.688580 0.078186 0.335946
Si Si6 0.438951 0.653835 0.609457
Si Si7 0.032813 0.435341 0.937989
Si Si8 0.000000 0.718210 0.250000
O O1 0.109704 0.254818 0.112574
O O2 0.190425 0.100513 0.098770
O O3 0.973064 0.114993 0.100759
O O4 0.029741 0.166214 0.974346
O O5 0.848290 0.421672 0.360051
O O6 0.695959 0.323914 0.403734
O O7 0.897897 0.353614 0.510822
O O8 0.199782 0.050099 0.359126
O O9 0.000000 0.068773 0.250000
O O10 0.027815 0.945333 0.360891
O O11 0.281564 0.982386 0.732216
O O12 0.411652 0.910992 0.870435
O O13 0.615076 0.024959 0.386327
O O14 0.615257 0.161561 0.290067
O O15 0.517677 0.718914 0.678004
O O16 0.000000 0.500000 0.000000
#
# Coordination Sequence:
#
# PCOD8138880 Si02
#       8
#     8   8   8   8   8   8   8   4
#     4  12  23  39  63  93 124 162 214 255 321 383
#     4  10  21  38  63  91 119 166 206 264 312 371
#     4  11  23  41  59  87 131 170 199 258 326 386
#     4  10  22  39  63  86 127 168 211 250 319 380
#     4  12  21  36  65  94 117 162 209 260 312 376
#     4  11  22  39  63  93 122 155 215 270 317 367
#     4  10  20  38  62  90 121 156 209 264 309 371
#     4  12  22  34  66  96 116 150 216 280 306 360
#
# _framework density 19.936854
#
# number of rings (size 3 to 8) (size 9 to 14) (size 15 to 20)
#    0.000    1.067    6.000    1.600    0.000    0.000 
#    0.000    3.333    0.000    0.000    0.000    0.000 
#    0.000    0.000    0.000    0.000    0.000    0.000 
#
# Total GULP energy -371879.452488 kJ/mol
# GULP energy per Si atom -12395.981750 kJ/mol
# Density = 1.989148 g / cm^3
# Si number density = 19.936854 Si / 1000 Ang^3
#
#
#
# Elastic Constant Matrix: (Units=GPa)
#
#
# Indices 1 2 3 4 5 6 
#
# 1 98.6068 35.0651 32.0713 0.0000 -19.3901 0.0000
# 2 35.0651 70.9877 32.4236 0.0000 -24.0463 0.0000
# 3 32.0713 32.4236 121.7804 0.0000 -22.6375 0.0000
# 4 0.0000 0.0000 0.0000 32.1528 0.0000 0.8868
# 5 -19.3901 -24.0463 -22.6375 0.0000 34.5908 0.0000
# 6 0.0000 0.0000 0.0000 0.8868 0.0000 29.1902
#
#
#
# Elastic Compliance Matrix: (Units=1/GPa)
#
#
# Indices 1 2 3 4 5 6 
#
# 1 0.012894 -0.004632 -0.001614 0.000000 0.002952 0.000000
# 2 -0.004632 0.021018 -0.002440 0.000000 0.010418 0.000000
# 3 -0.001614 -0.002440 0.010022 0.000000 0.003958 0.000000
# 4 0.000000 0.000000 0.000000 0.031128 0.000000 -0.000946
# 5 0.002952 0.010418 0.003958 0.000000 0.040397 0.000000
# 6 0.000000 0.000000 0.000000 -0.000946 0.000000 0.034287
#
#
# Mechanical properties :
#
#
# Convention : Reuss Voigt Hill
#
# Bulk Modulus (GPa) = 37.64624 54.49942 46.07283
# Shear Modulus (GPa) = 28.41395 31.97443 30.19419
#
# Velocity S-wave (km/s) = 3.77927 4.00907 3.89587
# Velocity P-wave (km/s) = 6.16179 6.98753 6.58761
#
# Compressibility (1/GPa) = 0.02656308
#
# Stress axis : x y z
#
# Youngs Moduli (GPa) = 77.55705 47.57750 99.78280
#
# Poissons Ratio (x) = 0.22039 0.16102
# Poissons Ratio (y) = 0.35926 0.24343
# Poissons Ratio (z) = 0.12515 0.11607
#
# Static dielectric constant tensor:
#      x y z
#    x 3.630980 0.000000 0.187580 
#    y 0.000000 3.565280 0.000000 
#    z 0.187580 0.000000 4.115520 
# 
# 
# High freq. dielectric constant tensor:
#      x y z
#    x 1.765880 0.000000 0.008030 
#    y 0.000000 1.757400 0.000000 
#    z 0.008030 0.000000 1.800290 
# 
# From -- ./inp_files/198404.got.cif
#   From: 2010.06.25/outbox.cif.g09.slc.cpg/sg15_100_cif.got.tgz:198404.got - 2010.06.28 07:06:18.
