data_PCOD8138722
_publ_section_title
;
Structure prediction by ZEFSAII (Michael W. Deem and Ramdas Pophale) SiO2 
 PCOD8138722
Probable space group: C 2/C
;
_chemical_formula_sum "Si O2"
_cell_formula_units_Z 40
_cell_length_a 9.917176
_cell_length_b 16.489242
_cell_length_c 12.703273
_cell_angle_alpha 90.000000
_cell_angle_beta 78.404755
_cell_angle_gamma 90.000000
_cell_volume 2034.930328
_symmetry_space_group_name_H-M "C 2/C"
_symmetry_group_IT_number 15
_symmetry_cell_setting 'monoclinic'
loop_
_space_group_symop_operation_xyz
x,y,z
-x,y,1/2-z
-x,-y,-z
x,-y,1/2+z
1/2+x,1/2+y,z
1/2-x,1/2+y,1/2-z
1/2-x,1/2-y,-z
1/2+x,1/2-y,1/2+z
loop_
_atom_site_type_symbol
_atom_site_label
_atom_site_fract_x
_atom_site_fract_y
_atom_site_fract_z
Si Si1 0.340750 0.755162 0.090974
Si Si2 0.666058 0.920180 0.932498
Si Si3 0.442908 0.073547 0.641490
Si Si4 0.365811 0.684050 0.506405
Si Si5 0.132041 0.267748 0.796974
O O1 0.360525 0.848193 0.117435
O O2 0.263137 0.715346 0.202701
O O3 0.250000 0.750000 0.000000
O O4 0.483861 0.707732 0.058976
O O5 0.606390 0.843905 0.877607
O O6 0.663455 0.998010 0.855680
O O7 0.574141 0.939970 0.047731
O O8 0.818670 0.899449 0.956175
O O9 0.500000 0.080982 0.750000
O O10 0.250000 0.750000 0.500000
O O11 0.360744 0.684315 0.634808
O O12 0.000000 0.254569 0.750000
#
# Coordination Sequence:
#
# PCOD8138722 Si02
#       5
#     8   8   8   8   8
#     4  12  23  38  65  96 128 174 221 262 328 393
#     4  10  22  39  61  92 132 159 213 273 325 374
#     4  11  22  39  66  96 123 171 220 264 324 398
#     4  10  20  38  60  94 124 164 215 264 317 382
#     4  11  20  37  64  90 127 168 217 264 316 388
#
# _framework density 19.656690999999999
#
# number of rings (size 3 to 8) (size 9 to 14) (size 15 to 20)
#    0.000    1.200    6.000    1.800    2.800    1.600 
#    0.000    1.000    4.400    0.000    0.000    0.000 
#    0.000    0.000    0.000    0.000    0.000    0.000 
#
# Total GULP energy -247816.942902 kJ/mol
# GULP energy per Si atom -12390.847145 kJ/mol
# Density = 1.961195 g / cm^3
# Si number density = 19.656691 Si / 1000 Ang^3
#
#
#
# Elastic Constant Matrix: (Units=GPa)
#
#
# Indices 1 2 3 4 5 6 
#
# 1 148.9695 52.2008 61.7396 0.0000 13.9897 0.0000
# 2 52.2008 99.2946 36.4490 0.0000 29.9892 0.0000
# 3 61.7396 36.4490 129.4398 0.0000 18.8721 0.0000
# 4 0.0000 0.0000 0.0000 23.7507 0.0000 6.4076
# 5 13.9897 29.9892 18.8721 0.0000 47.4937 0.0000
# 6 0.0000 0.0000 0.0000 6.4076 0.0000 35.9635
#
#
#
# Elastic Compliance Matrix: (Units=1/GPa)
#
#
# Indices 1 2 3 4 5 6 
#
# 1 0.009494 -0.004036 -0.003562 0.000000 0.001167 0.000000
# 2 -0.004036 0.014974 -0.001153 0.000000 -0.007808 0.000000
# 3 -0.003562 -0.001153 0.010074 0.000000 -0.002226 0.000000
# 4 0.000000 0.000000 0.000000 0.044230 0.000000 -0.007880
# 5 0.001167 -0.007808 -0.002226 0.000000 0.026526 0.000000
# 6 0.000000 0.000000 0.000000 -0.007880 0.000000 0.029210
#
#
# Mechanical properties :
#
#
# Convention : Reuss Voigt Hill
#
# Bulk Modulus (GPa) = 58.68670 75.38697 67.03683
# Shear Modulus (GPa) = 31.70769 36.59589 34.15179
#
# Velocity S-wave (km/s) = 4.02067 4.31948 4.17275
# Velocity P-wave (km/s) = 7.17461 7.95690 7.57586
#
# Compressibility (1/GPa) = 0.01703964
#
# Stress axis : x y z
#
# Youngs Moduli (GPa) = 105.33347 66.78046 99.26792
#
# Poissons Ratio (x) = 0.26953 0.35359
# Poissons Ratio (y) = 0.42513 0.11447
# Poissons Ratio (z) = 0.37519 0.07701
#
# Static dielectric constant tensor:
#      x y z
#    x 3.838870 0.000000 0.355530 
#    y 0.000000 3.726220 0.000000 
#    z 0.355530 0.000000 3.976770 
# 
# 
# High freq. dielectric constant tensor:
#      x y z
#    x 1.767670 0.000000 0.014980 
#    y 0.000000 1.737690 0.000000 
#    z 0.014980 0.000000 1.788540 
# 
# From -- ./inp_files/76692.got.cif
#   From: 2010.06.25/outbox.cif.g09.slc.cpg/sg15_39_cif.got.tgz:76692.got - 2010.06.28 07:06:18.
