data_PCOD8138647
_publ_section_title
;
Structure prediction by ZEFSAII (Michael W. Deem and Ramdas Pophale) SiO2 
 PCOD8138647
Probable space group: C 2/C
;
_chemical_formula_sum "Si O2"
_cell_formula_units_Z 64
_cell_length_a 11.467904
_cell_length_b 14.444051
_cell_length_c 28.685041
_cell_angle_alpha 90.000000
_cell_angle_beta 142.835098
_cell_angle_gamma 90.000000
_cell_volume 2870.419214
_symmetry_space_group_name_H-M "C 2/C"
_symmetry_group_IT_number 15
_symmetry_cell_setting 'monoclinic'
loop_
_space_group_symop_operation_xyz
x,y,z
-x,y,1/2-z
-x,-y,-z
x,-y,1/2+z
1/2+x,1/2+y,z
1/2-x,1/2+y,1/2-z
1/2-x,1/2-y,-z
1/2+x,1/2-y,1/2+z
loop_
_atom_site_type_symbol
_atom_site_label
_atom_site_fract_x
_atom_site_fract_y
_atom_site_fract_z
Si Si1 0.211293 0.992423 0.825847
Si Si2 0.133373 0.790788 0.550022
Si Si3 0.691305 0.357455 0.244845
Si Si4 0.199609 0.479848 0.295585
Si Si5 0.275480 0.594920 0.577073
Si Si6 0.123350 0.559949 0.429064
Si Si7 0.281265 0.821063 0.696537
Si Si8 0.165681 0.928698 0.064456
O O1 0.188095 0.092039 0.793460
O O2 0.262790 0.015791 0.896159
O O3 0.000000 0.942402 0.750000
O O4 0.390607 0.931876 0.862829
O O5 0.137158 0.684313 0.535674
O O6 0.298010 0.852055 0.575566
O O7 0.154218 0.795379 0.611823
O O8 0.914534 0.826094 0.471250
O O9 0.843727 0.408480 0.259803
O O10 0.493518 0.369527 0.152785
O O11 0.751479 0.251265 0.271610
O O12 0.292503 0.577976 0.308410
O O13 0.307211 0.429887 0.371695
O O14 0.000000 0.519274 0.250000
O O15 0.239787 0.550957 0.514844
O O16 0.154221 0.463832 0.409648
O O17 0.500000 0.810401 0.750000
O O18 0.000000 0.000000 0.000000
#
# Coordination Sequence:
#
# PCOD8138647 Si02
#       8
#     8   8   8   8   8   8   8   8
#     4  10  22  40  61  90 129 171 219 263 317 392
#     4  11  21  39  64  95 128 160 216 274 324 384
#     4  11  21  37  65  94 126 170 221 268 326 386
#     4  11  23  38  65  93 128 169 212 268 332 384
#     4  11  22  39  62  92 125 171 213 268 325 388
#     4  11  22  38  65  93 129 168 216 267 325 381
#     4  11  20  38  63  94 125 164 219 272 313 387
#     4  10  20  38  59  97 129 155 211 268 313 385
#
# _framework density 22.296395
#
# number of rings (size 3 to 8) (size 9 to 14) (size 15 to 20)
#    0.000    1.250    5.000    3.375    1.750    0.000 
#    0.000    0.625    0.000   12.000    0.000    0.000 
#    0.000    0.000    0.000    0.000    0.000    0.000 
#
# Total GULP energy -396481.964633 kJ/mol
# GULP energy per Si atom -12390.061395 kJ/mol
# Density = 2.224565 g / cm^3
# Si number density = 22.296395 Si / 1000 Ang^3
#
#
#
# Elastic Constant Matrix: (Units=GPa)
#
#
# Indices 1 2 3 4 5 6 
#
# 1 94.6092 40.0735 29.6883 0.0000 -10.0077 0.0000
# 2 40.0735 88.8018 25.5085 0.0000 -19.7618 0.0000
# 3 29.6883 25.5085 103.0156 0.0000 -21.0806 -0.0001
# 4 0.0000 0.0000 0.0000 18.8158 0.0000 51.4904
# 5 -10.0077 -19.7618 -21.0806 0.0000 39.3382 0.0000
# 6 0.0000 0.0000 -0.0001 51.4904 0.0000 -222.5937
#
#
#
# Elastic Compliance Matrix: (Units=1/GPa)
#
#
# Indices 1 2 3 4 5 6 
#
# 1 0.013705 -0.005573 -0.002728 0.000000 -0.000775 0.000000
# 2 -0.005573 0.015347 -0.001018 0.000000 0.005746 0.000000
# 3 -0.002728 -0.001018 0.011792 0.000000 0.005114 0.000000
# 4 0.000000 0.000000 0.000000 0.032545 0.000000 0.007528
# 5 -0.000775 0.005746 0.005114 0.000000 0.030850 0.000000
# 6 0.000000 0.000000 0.000000 0.007528 0.000000 -0.002751
#
#
# Mechanical properties :
#
#
# Convention : Reuss Voigt Hill
#
# Bulk Modulus (GPa) = 45.03558 52.99635 49.01597
# Shear Modulus (GPa) = 39.20667 -20.14419 9.53124
#
# Velocity S-wave (km/s) = 4.19791 -3.00904 2.06980
# Velocity P-wave (km/s) = 6.61355 3.42756 5.26722
#
# Compressibility (1/GPa) = 0.02220466
#
# Stress axis : x y z
#
# Youngs Moduli (GPa) = 72.96842 65.15779 84.80299
#
# Poissons Ratio (x) = 0.36314 0.23135
# Poissons Ratio (y) = 0.40668 0.08635
# Poissons Ratio (z) = 0.19907 0.06634
#
# Static dielectric constant tensor:
#      x y z
#    x 4.553140 0.000000 0.052060 
#    y 0.000000 4.541160 0.000000 
#    z 0.052060 0.000000 4.170170 
# 
# 
# High freq. dielectric constant tensor:
#      x y z
#    x 1.859710 0.000000 -0.015330 
#    y 0.000000 1.850670 0.000000 
#    z -0.015330 0.000000 1.894200 
# 
# From -- ./inp_files/293093.got.cif
#   From: 2010.06.25/outbox.cif.g09.slc.cpg/sg15_147_cif.got.tgz:293093.got - 2010.06.28 07:06:18.
