data_PCOD8138987
_publ_section_title
;
Structure prediction by ZEFSAII (Michael W. Deem and Ramdas Pophale) SiO2 
 PCOD8138987
Probable space group: C 2/C
;
_chemical_formula_sum "Si O2"
_cell_formula_units_Z 40
_cell_length_a 29.305812
_cell_length_b 4.989772
_cell_length_c 13.865885
_cell_angle_alpha 90.000000
_cell_angle_beta 60.169673
_cell_angle_gamma 90.000000
_cell_volume 1758.946702
_symmetry_space_group_name_H-M "C 2/C"
_symmetry_group_IT_number 15
_symmetry_cell_setting 'monoclinic'
loop_
_space_group_symop_operation_xyz
x,y,z
-x,y,1/2-z
-x,-y,-z
x,-y,1/2+z
1/2+x,1/2+y,z
1/2-x,1/2+y,1/2-z
1/2-x,1/2-y,-z
1/2+x,1/2-y,1/2+z
loop_
_atom_site_type_symbol
_atom_site_label
_atom_site_fract_x
_atom_site_fract_y
_atom_site_fract_z
Si Si1 0.559995 0.237097 0.411444
Si Si2 0.369771 0.271279 0.675912
Si Si3 0.310573 0.180776 0.927692
Si Si4 0.028552 0.056274 0.623651
Si Si5 0.356570 0.321337 0.477084
O O1 0.603230 0.446438 0.326088
O O2 0.545286 0.307595 0.537781
O O3 0.508542 0.243286 0.398113
O O4 0.582943 0.941157 0.379921
O O5 0.326195 0.201298 0.799830
O O6 0.339364 0.285450 0.606284
O O7 0.344475 0.376300 0.958480
O O8 0.322738 0.879514 0.947907
O O9 0.250000 0.250000 0.000000
O O10 0.080619 0.222688 0.599611
O O11 0.000000 0.947570 0.750000
#
# Coordination Sequence:
#
# PCOD8138987 Si02
#       5
#     8   8   8   8   8
#     4  10  23  38  62  96 130 172 205 250 317 373
#     4  11  23  44  65  92 134 164 208 268 313 381
#     4  12  26  44  67  93 122 164 218 272 325 376
#     4  10  20  38  63  94 133 172 213 253 306 385
#     4  11  25  42  65  95 125 168 213 258 324 380
#
# _framework density 22.740884999999999
#
# number of rings (size 3 to 8) (size 9 to 14) (size 15 to 20)
#    0.000    1.200    0.000    6.600    0.000   10.400 
#    0.000   12.000    0.000    0.000    0.000    0.000 
#    0.000    0.000    0.000    0.000    0.000    0.000 
#
# Total GULP energy -248105.608538 kJ/mol
# GULP energy per Si atom -12405.280427 kJ/mol
# Density = 2.268913 g / cm^3
# Si number density = 22.740885 Si / 1000 Ang^3
#
#
#
# Elastic Constant Matrix: (Units=GPa)
#
#
# Indices 1 2 3 4 5 6 
#
# 1 90.5563 5.4926 57.2375 0.0000 -5.2780 0.0000
# 2 5.4926 59.7000 1.2422 -0.0001 2.8609 0.0002
# 3 57.2375 1.2422 168.1014 -0.0001 1.7957 0.0000
# 4 0.0000 -0.0001 -0.0001 18.2280 0.0000 4.0563
# 5 -5.2780 2.8609 1.7957 0.0000 28.8661 0.0000
# 6 0.0000 0.0002 0.0000 4.0563 0.0000 34.3411
#
#
#
# Elastic Compliance Matrix: (Units=1/GPa)
#
#
# Indices 1 2 3 4 5 6 
#
# 1 0.014424 -0.001372 -0.004934 0.000000 0.003080 0.000000
# 2 -0.001372 0.016963 0.000363 0.000000 -0.001955 0.000000
# 3 -0.004934 0.000363 0.007641 0.000000 -0.001413 0.000000
# 4 0.000000 0.000000 0.000000 0.056342 0.000000 -0.006655
# 5 0.003080 -0.001955 -0.001413 0.000000 0.035488 0.000000
# 6 0.000000 0.000000 0.000000 -0.006655 0.000000 0.029906
#
#
# Mechanical properties :
#
#
# Convention : Reuss Voigt Hill
#
# Bulk Modulus (GPa) = 36.84412 49.58914 43.21663
# Shear Modulus (GPa) = 27.51829 33.24608 30.38218
#
# Velocity S-wave (km/s) = 3.48239 3.82770 3.65912
# Velocity P-wave (km/s) = 5.69265 6.43339 6.07432
#
# Compressibility (1/GPa) = 0.02714137
#
# Stress axis : x y z
#
# Youngs Moduli (GPa) = 69.32733 58.95263 130.86845
#
# Poissons Ratio (x) = 0.08088 0.64573
# Poissons Ratio (y) = 0.09512 -0.04747
# Poissons Ratio (z) = 0.34207 -0.02138
#
# Static dielectric constant tensor:
#      x y z
#    x 4.047670 0.000000 0.180200 
#    y 0.000000 3.949190 0.000000 
#    z 0.180200 0.000000 4.264650 
# 
# 
# High freq. dielectric constant tensor:
#      x y z
#    x 1.894820 0.000000 0.010020 
#    y 0.000000 1.894620 0.000000 
#    z 0.010020 0.000000 1.905700 
# 
# From -- ./inp_files/175558.got.cif
#   From: 2010.06.25/outbox.cif.g09.slc.cpg/sg15_88_cif.got.tgz:175558.got - 2010.06.28 07:06:18.
