data_PCOD8138470
_publ_section_title
;
Structure prediction by ZEFSAII (Michael W. Deem and Ramdas Pophale) SiO2 
 PCOD8138470
Probable space group: C 2/C
;
_chemical_formula_sum "Si O2"
_cell_formula_units_Z 32
_cell_length_a 12.187170
_cell_length_b 14.514518
_cell_length_c 8.379688
_cell_angle_alpha 90.000000
_cell_angle_beta 85.248041
_cell_angle_gamma 90.000000
_cell_volume 1477.195417
_symmetry_space_group_name_H-M "C 2/C"
_symmetry_group_IT_number 15
_symmetry_cell_setting 'monoclinic'
loop_
_space_group_symop_operation_xyz
x,y,z
-x,y,1/2-z
-x,-y,-z
x,-y,1/2+z
1/2+x,1/2+y,z
1/2-x,1/2+y,1/2-z
1/2-x,1/2-y,-z
1/2+x,1/2-y,1/2+z
loop_
_atom_site_type_symbol
_atom_site_label
_atom_site_fract_x
_atom_site_fract_y
_atom_site_fract_z
Si Si1 0.796875 0.903117 0.981659
Si Si2 0.956224 0.593652 0.931566
Si Si3 0.984677 0.215445 0.567956
Si Si4 0.396616 0.428978 0.653960
O O1 0.675095 0.906411 0.063265
O O2 0.860236 0.811119 0.030841
O O3 0.866890 0.988782 0.040089
O O4 0.796078 0.906835 0.787936
O O5 0.000000 0.608152 0.750000
O O6 0.000852 0.676244 0.035831
O O7 0.000000 0.500000 0.000000
O O8 0.000000 0.191954 0.750000
O O9 0.075539 0.161077 0.453574
O O10 0.500000 0.458375 0.750000
#
# Coordination Sequence:
#
# PCOD8138470 Si02
#       4
#     8   8   8   8
#     4  11  21  40  65  92 122 161 200 247 304 360
#     4  12  26  44  61  87 125 165 204 248 298 360
#     4  11  23  41  64  92 122 157 202 253 303 358
#     4  10  20  37  65  97 122 151 199 256 304 356
#
# _framework density 21.662672000000001
#
# number of rings (size 3 to 8) (size 9 to 14) (size 15 to 20)
#    0.000    1.000    0.000   10.500    0.000    0.000 
#    0.000    3.750    0.000    0.000    0.000    0.000 
#    0.000    0.000    0.000    0.000    0.000    0.000 
#
# Total GULP energy -198475.673401 kJ/mol
# GULP energy per Si atom -12404.729588 kJ/mol
# Density = 2.161337 g / cm^3
# Si number density = 21.662672 Si / 1000 Ang^3
#
#
#
# Elastic Constant Matrix: (Units=GPa)
#
#
# Indices 1 2 3 4 5 6 
#
# 1 89.4214 36.1260 50.8381 0.0000 -33.7118 0.0000
# 2 36.1260 146.7042 49.8824 0.0000 -2.2401 0.0000
# 3 50.8381 49.8824 164.2271 0.0000 -19.9591 0.0000
# 4 0.0000 0.0000 0.0000 41.1868 0.0000 -1.4291
# 5 -33.7118 -2.2401 -19.9591 0.0000 33.1693 0.0000
# 6 0.0000 0.0000 0.0000 -1.4291 0.0000 4.2985
#
#
#
# Elastic Compliance Matrix: (Units=1/GPa)
#
#
# Indices 1 2 3 4 5 6 
#
# 1 0.022426 -0.004124 -0.003186 0.000000 0.020597 0.000000
# 2 -0.004124 0.008388 -0.001847 0.000000 -0.004737 0.000000
# 3 -0.003186 -0.001847 0.007798 0.000000 0.001329 0.000000
# 4 0.000000 0.000000 0.000000 0.024563 0.000000 0.008166
# 5 0.020597 -0.004737 0.001329 0.000000 0.051562 0.000000
# 6 0.000000 0.000000 0.000000 0.008166 0.000000 0.235357
#
#
# Mechanical properties :
#
#
# Convention : Reuss Voigt Hill
#
# Bulk Modulus (GPa) = 49.26886 74.89393 62.08139
# Shear Modulus (GPa) = 13.32720 33.29798 23.31259
#
# Velocity S-wave (km/s) = 2.48304 3.92486 3.28405
# Velocity P-wave (km/s) = 5.56900 7.42881 6.56509
#
# Compressibility (1/GPa) = 0.02029680
#
# Stress axis : x y z
#
# Youngs Moduli (GPa) = 44.59204 119.22327 128.24056
#
# Poissons Ratio (x) = 0.49173 0.40859
# Poissons Ratio (y) = 0.18392 0.23680
# Poissons Ratio (z) = 0.14207 0.22015
#
# Static dielectric constant tensor:
#      x y z
#    x 3.776740 0.000000 -0.257840 
#    y 0.000000 3.721860 0.000000 
#    z -0.257840 0.000000 4.279170 
# 
# 
# High freq. dielectric constant tensor:
#      x y z
#    x 1.836270 0.000000 -0.017730 
#    y 0.000000 1.860020 0.000000 
#    z -0.017730 0.000000 1.871560 
# 
# From -- ./inp_files/27594.got.cif
#   From: 2010.06.25/outbox.cif.g09.slc.cpg/sg15_14_cif.got.tgz:27594.got - 2010.06.28 07:06:18.
