data_PCOD8138636
_publ_section_title
;
Structure prediction by ZEFSAII (Michael W. Deem and Ramdas Pophale) SiO2 
 PCOD8138636
Probable space group: C 2/C
;
_chemical_formula_sum "Si O2"
_cell_formula_units_Z 44
_cell_length_a 11.798496
_cell_length_b 9.719703
_cell_length_c 26.928054
_cell_angle_alpha 90.000000
_cell_angle_beta 46.020810
_cell_angle_gamma 90.000000
_cell_volume 2222.137730
_symmetry_space_group_name_H-M "C 2/C"
_symmetry_group_IT_number 15
_symmetry_cell_setting 'monoclinic'
loop_
_space_group_symop_operation_xyz
x,y,z
-x,y,1/2-z
-x,-y,-z
x,-y,1/2+z
1/2+x,1/2+y,z
1/2-x,1/2+y,1/2-z
1/2-x,1/2-y,-z
1/2+x,1/2-y,1/2+z
loop_
_atom_site_type_symbol
_atom_site_label
_atom_site_fract_x
_atom_site_fract_y
_atom_site_fract_z
Si Si1 0.198675 0.554624 0.041609
Si Si2 0.340345 0.811176 0.046838
Si Si3 0.586112 0.322271 0.539771
Si Si4 0.000000 0.787817 0.750000
Si Si5 0.827399 0.947797 0.310410
Si Si6 0.047498 0.655706 0.838792
O O1 0.221064 0.691378 0.066770
O O2 0.081603 0.456465 0.106655
O O3 0.121568 0.590802 0.011630
O O4 0.371686 0.482756 0.981598
O O5 0.502518 0.745407 0.017350
O O6 0.252983 0.901588 0.114380
O O7 0.750000 0.250000 0.500000
O O8 0.475722 0.296013 0.621621
O O9 0.968674 0.687502 0.713807
O O10 0.847612 0.885748 0.805699
O O11 0.720441 0.905311 0.296122
O O12 0.000000 0.878619 0.250000
#
# Coordination Sequence:
#
# PCOD8138636 Si02
#       6
#     8   8   8   4   8   8
#     4  10  21  35  60  94 118 148 197 249 305 358
#     4  10  20  38  59  88 123 153 192 249 305 351
#     4   9  19  35  58  85 119 150 192 240 300 361
#     4  10  22  42  58  80 122 158 206 248 292 344
#     4   9  22  41  60  82 119 163 202 244 295 355
#     4  10  21  39  60  88 111 163 202 242 305 354
#
# _framework density 19.800753
#
# number of rings (size 3 to 8) (size 9 to 14) (size 15 to 20)
#    0.545    1.818    0.000    1.636    0.000   10.909 
#    8.182    3.636    0.000    0.000    0.000    0.000 
#    0.000    0.000    0.000    0.000    0.000    0.000 
#
# Total GULP energy -272711.018710 kJ/mol
# GULP energy per Si atom -12395.955396 kJ/mol
# Density = 1.975569 g / cm^3
# Si number density = 19.800753 Si / 1000 Ang^3
#
#
#
# Elastic Constant Matrix: (Units=GPa)
#
#
# Indices 1 2 3 4 5 6 
#
# 1 163.6364 53.6307 69.6045 0.0000 20.1429 0.0000
# 2 53.6307 95.6442 50.5710 0.0000 17.9729 0.0000
# 3 69.6045 50.5710 77.8822 0.0000 18.9851 0.0000
# 4 0.0000 0.0000 0.0000 30.3808 0.0000 0.2364
# 5 20.1429 17.9729 18.9851 0.0000 39.1441 0.0000
# 6 0.0000 0.0000 0.0000 0.2364 0.0000 30.7214
#
#
#
# Elastic Compliance Matrix: (Units=1/GPa)
#
#
# Indices 1 2 3 4 5 6 
#
# 1 0.009987 -0.001277 -0.007923 0.000000 -0.000710 0.000000
# 2 -0.001277 0.016323 -0.008835 0.000000 -0.002552 0.000000
# 3 -0.007923 -0.008835 0.026850 0.000000 -0.004888 0.000000
# 4 0.000000 0.000000 0.000000 0.032918 0.000000 -0.000253
# 5 -0.000710 -0.002552 -0.004888 0.000000 0.029455 0.000000
# 6 0.000000 0.000000 0.000000 -0.000253 0.000000 0.032553
#
#
# Mechanical properties :
#
#
# Convention : Reuss Voigt Hill
#
# Bulk Modulus (GPa) = 58.52018 76.08614 67.30316
# Shear Modulus (GPa) = 26.33625 30.93968 28.63796
#
# Velocity S-wave (km/s) = 3.65096 3.95720 3.80716
# Velocity P-wave (km/s) = 6.88414 7.70640 7.30684
#
# Compressibility (1/GPa) = 0.01708812
#
# Stress axis : x y z
#
# Youngs Moduli (GPa) = 100.12525 61.26422 37.24448
#
# Poissons Ratio (x) = 0.07826 0.29510
# Poissons Ratio (y) = 0.12791 0.32905
# Poissons Ratio (z) = 0.79333 0.54127
#
# Static dielectric constant tensor:
#      x y z
#    x 3.778500 0.000000 -0.025040 
#    y 0.000000 3.887680 0.000000 
#    z -0.025040 0.000000 3.474930 
# 
# 
# High freq. dielectric constant tensor:
#      x y z
#    x 1.783680 0.000000 0.005850 
#    y 0.000000 1.769540 0.000000 
#    z 0.005850 0.000000 1.753360 
# 
# From -- ./inp_files/291800.got.cif
#   From: 2010.06.25/outbox.cif.g09.slc.cpg/sg15_146_cif.got.tgz:291800.got - 2010.06.28 07:06:18.
