data_PCOD8138771
_publ_section_title
;
Structure prediction by ZEFSAII (Michael W. Deem and Ramdas Pophale) SiO2 
 PCOD8138771
Probable space group: C 2/C
;
_chemical_formula_sum "Si O2"
_cell_formula_units_Z 44
_cell_length_a 22.956241
_cell_length_b 10.940201
_cell_length_c 12.730338
_cell_angle_alpha 90.000000
_cell_angle_beta 37.237990
_cell_angle_gamma 90.000000
_cell_volume 1934.695536
_symmetry_space_group_name_H-M "C 2/C"
_symmetry_group_IT_number 15
_symmetry_cell_setting 'monoclinic'
loop_
_space_group_symop_operation_xyz
x,y,z
-x,y,1/2-z
-x,-y,-z
x,-y,1/2+z
1/2+x,1/2+y,z
1/2-x,1/2+y,1/2-z
1/2-x,1/2-y,-z
1/2+x,1/2-y,1/2+z
loop_
_atom_site_type_symbol
_atom_site_label
_atom_site_fract_x
_atom_site_fract_y
_atom_site_fract_z
Si Si1 0.921739 0.716595 0.661276
Si Si2 0.866706 0.552068 0.559373
Si Si3 0.122192 0.795723 0.296279
Si Si4 0.830079 0.206419 0.007808
Si Si5 0.000000 0.619672 0.750000
Si Si6 0.659675 0.449863 0.821127
O O1 0.867978 0.603433 0.678123
O O2 0.927814 0.699186 0.779737
O O3 0.863182 0.843321 0.730913
O O4 0.027070 0.718404 0.454652
O O5 0.880142 0.665460 0.461106
O O6 0.771754 0.479536 0.663867
O O7 0.951672 0.459364 0.411283
O O8 0.143295 0.832072 0.146592
O O9 0.103664 0.924294 0.381421
O O10 0.215263 0.717925 0.199455
O O11 0.874281 0.100915 0.017324
#
# Coordination Sequence:
#
# PCOD8138771 Si02
#       6
#     8   8   8   8   4   8
#     4  11  24  40  61  92 124 158 206 251 300 366
#     4  10  22  40  60  86 122 163 205 244 298 366
#     4  10  20  38  61  88 122 158 203 246 299 364
#     4   9  20  38  62  86 119 165 200 241 299 364
#     4  12  24  38  64  92 122 158 196 258 310 350
#     4  10  22  39  60  88 122 160 202 252 300 357
#
# _framework density 22.742598000000001
#
# number of rings (size 3 to 8) (size 9 to 14) (size 15 to 20)
#    0.000    1.818    0.000    3.273    0.000    8.727 
#    0.000    0.000    0.000    0.000    0.000    0.000 
#    0.000    0.000    0.000    0.000    0.000    0.000 
#
# Total GULP energy -272681.365590 kJ/mol
# GULP energy per Si atom -12394.607527 kJ/mol
# Density = 2.269083 g / cm^3
# Si number density = 22.742598 Si / 1000 Ang^3
#
#
#
# Elastic Constant Matrix: (Units=GPa)
#
#
# Indices 1 2 3 4 5 6 
#
# 1 132.5982 51.8608 22.6129 0.0000 20.2898 0.0000
# 2 51.8608 91.4026 36.9936 0.0000 8.4745 0.0000
# 3 22.6129 36.9936 50.2287 0.0000 4.2416 0.0000
# 4 0.0000 0.0000 0.0000 13.0495 0.0000 5.6945
# 5 20.2898 8.4745 4.2416 0.0000 30.1826 0.0000
# 6 0.0000 0.0000 0.0000 5.6945 0.0000 37.0310
#
#
#
# Elastic Compliance Matrix: (Units=1/GPa)
#
#
# Indices 1 2 3 4 5 6 
#
# 1 0.010529 -0.005316 -0.000357 0.000000 -0.005535 0.000000
# 2 -0.005316 0.018508 -0.011234 0.000000 -0.000044 0.000000
# 3 -0.000357 -0.011234 0.028394 0.000000 -0.000596 0.000000
# 4 0.000000 0.000000 0.000000 0.082144 0.000000 -0.012632
# 5 -0.005535 -0.000044 -0.000596 0.000000 0.036949 0.000000
# 6 0.000000 0.000000 0.000000 -0.012632 0.000000 0.028947
#
#
# Mechanical properties :
#
#
# Convention : Reuss Voigt Hill
#
# Bulk Modulus (GPa) = 42.34478 55.24045 48.79261
# Shear Modulus (GPa) = 20.23013 26.90342 23.56678
#
# Velocity S-wave (km/s) = 2.98573 3.44314 3.22256
# Velocity P-wave (km/s) = 5.52681 6.33633 5.94537
#
# Compressibility (1/GPa) = 0.02361566
#
# Stress axis : x y z
#
# Youngs Moduli (GPa) = 94.97926 54.03154 35.21876
#
# Poissons Ratio (x) = 0.28723 0.01258
# Poissons Ratio (y) = 0.50491 0.39565
# Poissons Ratio (z) = 0.03394 0.60699
#
# Static dielectric constant tensor:
#      x y z
#    x 4.432920 0.000000 -0.074260 
#    y 0.000000 4.349340 0.000000 
#    z -0.074260 0.000000 3.582410 
# 
# 
# High freq. dielectric constant tensor:
#      x y z
#    x 1.917410 0.000000 -0.002270 
#    y 0.000000 1.904540 0.000000 
#    z -0.002270 0.000000 1.860880 
# 
# From -- ./inp_files/117411.got.cif
#   From: 2010.06.25/outbox.cif.g09.slc.cpg/sg15_59_cif.got.tgz:117411.got - 2010.06.28 07:06:18.
