data_PCOD8138119
_publ_section_title
;
Structure prediction by ZEFSAII (Michael W. Deem and Ramdas Pophale) SiO2 
 PCOD8138119
Probable space group: C 2/C
;
_chemical_formula_sum "Si O2"
_cell_formula_units_Z 48
_cell_length_a 16.918496
_cell_length_b 26.602087
_cell_length_c 9.200256
_cell_angle_alpha 90.000000
_cell_angle_beta 143.128605
_cell_angle_gamma 90.000000
_cell_volume 2484.527210
_symmetry_space_group_name_H-M "C 2/C"
_symmetry_group_IT_number 15
_symmetry_cell_setting 'monoclinic'
loop_
_space_group_symop_operation_xyz
x,y,z
-x,y,1/2-z
-x,-y,-z
x,-y,1/2+z
1/2+x,1/2+y,z
1/2-x,1/2+y,1/2-z
1/2-x,1/2-y,-z
1/2+x,1/2-y,1/2+z
loop_
_atom_site_type_symbol
_atom_site_label
_atom_site_fract_x
_atom_site_fract_y
_atom_site_fract_z
Si Si1 0.745849 0.843189 0.502663
Si Si2 0.860850 0.453740 0.469952
Si Si3 0.502600 0.708827 0.500638
Si Si4 0.754156 0.652754 0.837221
Si Si5 0.500000 0.781045 0.250000
Si Si6 0.500000 0.216506 0.250000
Si Si7 0.637068 0.948848 0.370339
O O1 0.876191 0.822908 0.769184
O O2 0.751798 0.833560 0.340635
O O3 0.617777 0.815127 0.369405
O O4 0.734854 0.901782 0.528354
O O5 0.766322 0.407283 0.370109
O O6 0.884170 0.460807 0.331749
O O7 0.797375 0.503676 0.449554
O O8 0.000000 0.443506 0.750000
O O9 0.619425 0.670463 0.716757
O O10 0.558844 0.744653 0.458365
O O11 0.461138 0.746583 0.564502
O O12 0.874936 0.680609 0.095803
O O13 0.500000 0.936498 0.250000
#
# Coordination Sequence:
#
# PCOD8138119 Si02
#       7
#     8   8   8   8   4   4   8
#     4  11  22  39  64  89 115 160 204 236 293 349
#     4  10  20  37  60  87 116 149 194 243 295 346
#     4  12  24  41  59  87 123 158 199 243 287 356
#     4  11  22  40  62  88 120 160 194 243 298 347
#     4  12  20  38  65  82 117 158 204 242 270 354
#     4  12  24  40  55  94 121 154 202 242 298 334
#     4  10  20  37  59  89 115 148 195 245 292 345
#
# _framework density 19.319571
#
# number of rings (size 3 to 8) (size 9 to 14) (size 15 to 20)
#    0.000    1.000    5.000    4.000    0.000    0.000 
#    9.000    0.833    0.000    0.000    0.000    0.000 
#    0.000    0.000    0.000    0.000    0.000    0.000 
#
# Total GULP energy -297540.559101 kJ/mol
# GULP energy per Si atom -12397.523296 kJ/mol
# Density = 1.927560 g / cm^3
# Si number density = 19.319571 Si / 1000 Ang^3
#
#
#
# Elastic Constant Matrix: (Units=GPa)
#
#
# Indices 1 2 3 4 5 6 
#
# 1 48.7024 38.5967 17.7762 0.0000 -4.3113 0.0000
# 2 38.5967 142.7480 52.3773 0.0000 3.5155 0.0000
# 3 17.7762 52.3773 92.0757 0.0000 8.0892 0.0000
# 4 0.0000 0.0000 0.0000 -0.5459 0.0000 -49.9259
# 5 -4.3113 3.5155 8.0892 0.0000 39.4174 0.0000
# 6 0.0000 0.0000 0.0000 -49.9259 0.0000 -39.4472
#
#
#
# Elastic Compliance Matrix: (Units=1/GPa)
#
#
# Indices 1 2 3 4 5 6 
#
# 1 0.026826 -0.006728 -0.001693 0.000000 0.003882 0.000000
# 2 -0.006728 0.010543 -0.004635 0.000000 -0.000725 0.000000
# 3 -0.001693 -0.004635 0.014057 0.000000 -0.002657 0.000000
# 4 0.000000 0.000000 0.000000 0.015964 0.000000 -0.020204
# 5 0.003882 -0.000725 -0.002657 0.000000 0.026404 0.000000
# 6 0.000000 0.000000 0.000000 -0.020204 0.000000 0.000221
#
#
# Mechanical properties :
#
#
# Convention : Reuss Voigt Hill
#
# Bulk Modulus (GPa) = 39.50168 55.66961 47.58565
# Shear Modulus (GPa) = 38.89101 11.53658 25.21380
#
# Velocity S-wave (km/s) = 4.49156 2.44631 3.61652
# Velocity P-wave (km/s) = 6.88401 6.07099 6.49024
#
# Compressibility (1/GPa) = 0.02531538
#
# Stress axis : x y z
#
# Youngs Moduli (GPa) = 37.27700 94.85087 71.13708
#
# Poissons Ratio (x) = 0.63813 0.12044
# Poissons Ratio (y) = 0.25079 0.32970
# Poissons Ratio (z) = 0.06311 0.43961
#
# Static dielectric constant tensor:
#      x y z
#    x 3.545310 0.000000 -0.087440 
#    y 0.000000 3.928240 0.000000 
#    z -0.087440 0.000000 3.415400 
# 
# 
# High freq. dielectric constant tensor:
#      x y z
#    x 1.743190 0.000000 -0.011230 
#    y 0.000000 1.772230 0.000000 
#    z -0.011230 0.000000 1.740390 
# 
# From -- ./inp_files/43969.got.cif
#   From: 2010.06.25/outbox.cif.g09.slc.cpg/sg15_22_cif.got.tgz:43969.got - 2010.06.28 07:06:18.
