data_PCOD8138114
_publ_section_title
;
Structure prediction by ZEFSAII (Michael W. Deem and Ramdas Pophale) SiO2 
 PCOD8138114
Probable space group: C 2/C
;
_chemical_formula_sum "Si O2"
_cell_formula_units_Z 40
_cell_length_a 10.267233
_cell_length_b 13.688170
_cell_length_c 24.178044
_cell_angle_alpha 90.000000
_cell_angle_beta 144.030587
_cell_angle_gamma 90.000000
_cell_volume 1995.810807
_symmetry_space_group_name_H-M "C 2/C"
_symmetry_group_IT_number 15
_symmetry_cell_setting 'monoclinic'
loop_
_space_group_symop_operation_xyz
x,y,z
-x,y,1/2-z
-x,-y,-z
x,-y,1/2+z
1/2+x,1/2+y,z
1/2-x,1/2+y,1/2-z
1/2-x,1/2-y,-z
1/2+x,1/2-y,1/2+z
loop_
_atom_site_type_symbol
_atom_site_label
_atom_site_fract_x
_atom_site_fract_y
_atom_site_fract_z
Si Si1 0.899382 0.892463 0.816704
Si Si2 0.453004 0.196117 0.168849
Si Si3 0.034131 0.311900 0.325101
Si Si4 0.499429 0.609009 0.478801
Si Si5 0.100137 0.104586 0.723639
O O1 0.637184 0.882556 0.713113
O O2 0.018104 0.805695 0.823763
O O3 0.968537 0.880138 0.903351
O O4 0.972547 0.001169 0.826032
O O5 0.500000 0.209444 0.250000
O O6 0.486267 0.303564 0.152552
O O7 0.213773 0.160599 0.067277
O O8 0.864174 0.370920 0.307398
O O9 0.000000 0.345870 0.250000
O O10 0.281027 0.337024 0.427470
O O11 0.500000 0.500000 0.500000
O O12 0.000000 0.101827 0.750000
#
# Coordination Sequence:
#
# PCOD8138114 Si02
#       5
#     8   8   8   8   8
#     4  10  20  37  59  87 118 153 193 242 292 343
#     4   8  18  36  58  82 115 151 189 232 283 342
#     4  11  23  40  61  87 117 154 199 244 287 345
#     4  11  21  37  61  87 116 157 199 238 286 351
#     4  10  20  38  60  85 120 157 189 238 297 345
#
# _framework density 20.041979999999999
#
# number of rings (size 3 to 8) (size 9 to 14) (size 15 to 20)
#    0.000    2.000    0.000    4.800    0.000    1.600 
#    0.000   15.000    0.000    0.000    0.000    0.000 
#    0.000    0.000    0.000    0.000    0.000    0.000 
#
# Total GULP energy -247780.574434 kJ/mol
# GULP energy per Si atom -12389.028722 kJ/mol
# Density = 1.999636 g / cm^3
# Si number density = 20.041980 Si / 1000 Ang^3
#
#
#
# Elastic Constant Matrix: (Units=GPa)
#
#
# Indices 1 2 3 4 5 6 
#
# 1 93.6021 37.1999 62.4024 0.0000 18.1484 0.0000
# 2 37.1999 150.5209 57.7389 0.0000 20.5620 0.0000
# 3 62.4024 57.7389 145.5461 0.0000 37.4076 0.0000
# 4 0.0000 0.0000 0.0000 22.1171 0.0000 -1.1271
# 5 18.1484 20.5620 37.4076 0.0000 33.0626 0.0000
# 6 0.0000 0.0000 0.0000 -1.1271 0.0000 29.5212
#
#
#
# Elastic Compliance Matrix: (Units=1/GPa)
#
#
# Indices 1 2 3 4 5 6 
#
# 1 0.015260 -0.001442 -0.005708 0.000000 -0.001021 0.000000
# 2 -0.001442 0.008059 -0.002107 0.000000 -0.001837 0.000000
# 3 -0.005708 -0.002107 0.012707 0.000000 -0.009933 0.000000
# 4 0.000000 0.000000 0.000000 0.045302 0.000000 0.001730
# 5 -0.001021 -0.001837 -0.009933 0.000000 0.043187 0.000000
# 6 0.000000 0.000000 0.000000 0.001730 0.000000 0.033940
#
#
# Mechanical properties :
#
#
# Convention : Reuss Voigt Hill
#
# Bulk Modulus (GPa) = 57.10389 78.26128 67.68258
# Shear Modulus (GPa) = 27.35132 32.42870 29.89001
#
# Velocity S-wave (km/s) = 3.69819 4.02685 3.86602
# Velocity P-wave (km/s) = 6.84029 7.79449 7.33293
#
# Compressibility (1/GPa) = 0.01751194
#
# Stress axis : x y z
#
# Youngs Moduli (GPa) = 65.52996 124.08408 78.69880
#
# Poissons Ratio (x) = 0.17897 0.44922
# Poissons Ratio (y) = 0.09452 0.16578
# Poissons Ratio (z) = 0.37405 0.26139
#
# Static dielectric constant tensor:
#      x y z
#    x 3.803920 0.000000 0.207870 
#    y 0.000000 4.151620 0.000000 
#    z 0.207870 0.000000 3.446180 
# 
# 
# High freq. dielectric constant tensor:
#      x y z
#    x 1.781670 0.000000 0.017170 
#    y 0.000000 1.803620 0.000000 
#    z 0.017170 0.000000 1.758930 
# 
# From -- ./inp_files/133162.got.cif
#   From: 2010.06.25/outbox.cif.g09.slc.cpg/sg15_67_cif.got.tgz:133162.got - 2010.06.28 07:06:18.
