data_PCOD8138136
_publ_section_title
;
Structure prediction by ZEFSAII (Michael W. Deem and Ramdas Pophale) SiO2 
 PCOD8138136
Probable space group: C 2/C
;
_chemical_formula_sum "Si O2"
_cell_formula_units_Z 52
_cell_length_a 8.651335
_cell_length_b 29.458297
_cell_length_c 12.731382
_cell_angle_alpha 90.000000
_cell_angle_beta 56.798462
_cell_angle_gamma 90.000000
_cell_volume 2714.950001
_symmetry_space_group_name_H-M "C 2/C"
_symmetry_group_IT_number 15
_symmetry_cell_setting 'monoclinic'
loop_
_space_group_symop_operation_xyz
x,y,z
-x,y,1/2-z
-x,-y,-z
x,-y,1/2+z
1/2+x,1/2+y,z
1/2-x,1/2+y,1/2-z
1/2-x,1/2-y,-z
1/2+x,1/2-y,1/2+z
loop_
_atom_site_type_symbol
_atom_site_label
_atom_site_fract_x
_atom_site_fract_y
_atom_site_fract_z
Si Si1 0.000000 0.768050 0.750000
Si Si2 0.210885 0.991612 0.672787
Si Si3 0.126576 0.686604 0.368266
Si Si4 0.894170 0.411120 0.685459
Si Si5 0.133411 0.693829 0.849293
Si Si6 0.000000 0.623103 0.750000
Si Si7 0.000000 0.758472 0.250000
Si Si8 0.030209 0.556702 0.560402
O O1 0.823495 0.798789 0.840706
O O2 0.963871 0.738680 0.659750
O O3 0.219551 0.945861 0.741994
O O4 0.299048 0.978553 0.524879
O O5 0.000000 0.008876 0.750000
O O6 0.343884 0.031196 0.669444
O O7 0.162586 0.641781 0.284357
O O8 0.995506 0.673271 0.512974
O O9 0.027655 0.726912 0.341081
O O10 0.000000 0.425838 0.750000
O O11 0.015862 0.418261 0.533702
O O12 0.328208 0.707575 0.827242
O O13 0.152542 0.655557 0.750338
O O14 0.095504 0.591863 0.625718
#
# Coordination Sequence:
#
# PCOD8138136 Si02
#       8
#     4   8   8   8   8   4   4   8
#     4   9  22  32  58  80 106 152 194 238 286 341
#     4   9  20  40  64  87 117 151 193 238 292 354
#     4  11  19  36  56  82 115 147 196 239 285 340
#     4  10  20  37  60  84 118 152 188 239 292 338
#     4  10  20  38  57  78 117 151 196 237 293 332
#     4  11  20  40  61  84 116 166 189 240 288 353
#     4  10  22  36  55  86 112 156 195 242 290 342
#     4   9  21  38  63  84 121 148 194 236 295 344
#
# _framework density 19.153206999999998
#
# number of rings (size 3 to 8) (size 9 to 14) (size 15 to 20)
#    0.923    1.231    2.308    0.923    2.154    0.000 
#    1.385    4.615    0.000    0.000    0.000    0.000 
#    0.000    0.000    0.000    0.000    0.000    0.000 
#
# Total GULP energy -322119.802364 kJ/mol
# GULP energy per Si atom -12389.223168 kJ/mol
# Density = 1.910961 g / cm^3
# Si number density = 19.153207 Si / 1000 Ang^3
#
#
#
# Elastic Constant Matrix: (Units=GPa)
#
#
# Indices 1 2 3 4 5 6 
#
# 1 112.1897 40.1180 46.3320 0.0000 -14.7240 0.0000
# 2 40.1180 91.0322 24.4978 0.0000 -6.8466 0.0000
# 3 46.3320 24.4978 75.9810 0.0000 -0.4012 0.0000
# 4 0.0000 0.0000 0.0000 18.6935 0.0000 14.3708
# 5 -14.7240 -6.8466 -0.4012 0.0000 34.0549 0.0000
# 6 0.0000 0.0000 0.0000 14.3708 0.0000 15.1048
#
#
#
# Elastic Compliance Matrix: (Units=1/GPa)
#
#
# Indices 1 2 3 4 5 6 
#
# 1 0.013949 -0.003806 -0.007251 0.000000 0.005180 0.000000
# 2 -0.003806 0.013262 -0.001950 0.000000 0.000998 0.000000
# 3 -0.007251 -0.001950 0.018194 0.000000 -0.003313 0.000000
# 4 0.000000 0.000000 0.000000 0.199166 0.000000 -0.189488
# 5 0.005180 0.000998 -0.003313 0.000000 0.031766 0.000000
# 6 0.000000 0.000000 0.000000 -0.189488 0.000000 0.246485
#
#
# Mechanical properties :
#
#
# Convention : Reuss Voigt Hill
#
# Bulk Modulus (GPa) = 51.57119 55.67761 53.62440
# Shear Modulus (GPa) = 9.00414 24.78765 16.89590
#
# Velocity S-wave (km/s) = 2.17056 3.60137 2.97331
# Velocity P-wave (km/s) = 5.76765 6.81365 6.31236
#
# Compressibility (1/GPa) = 0.01939067
#
# Stress axis : x y z
#
# Youngs Moduli (GPa) = 71.68903 75.40168 54.96297
#
# Poissons Ratio (x) = 0.28701 0.39856
# Poissons Ratio (y) = 0.27287 0.10716
# Poissons Ratio (z) = 0.51984 0.14701
#
# Static dielectric constant tensor:
#      x y z
#    x 3.293000 0.000000 0.114220 
#    y 0.000000 3.611640 0.000000 
#    z 0.114220 0.000000 3.182550 
# 
# 
# High freq. dielectric constant tensor:
#      x y z
#    x 1.722920 0.000000 0.016800 
#    y 0.000000 1.760020 0.000000 
#    z 0.016800 0.000000 1.717780 
# 
# From -- ./inp_files/139161.got.cif
#   From: 2010.06.25/outbox.cif.g09.slc.cpg/sg15_70_cif.got.tgz:139161.got - 2010.06.28 07:06:18.
