data_PCOD8138640
_publ_section_title
;
Structure prediction by ZEFSAII (Michael W. Deem and Ramdas Pophale) SiO2 
 PCOD8138640
Probable space group: C 2/C
;
_chemical_formula_sum "Si O2"
_cell_formula_units_Z 56
_cell_length_a 10.714745
_cell_length_b 20.038646
_cell_length_c 12.855058
_cell_angle_alpha 90.000000
_cell_angle_beta 95.231672
_cell_angle_gamma 90.000000
_cell_volume 2748.598260
_symmetry_space_group_name_H-M "C 2/C"
_symmetry_group_IT_number 15
_symmetry_cell_setting 'monoclinic'
loop_
_space_group_symop_operation_xyz
x,y,z
-x,y,1/2-z
-x,-y,-z
x,-y,1/2+z
1/2+x,1/2+y,z
1/2-x,1/2+y,1/2-z
1/2-x,1/2-y,-z
1/2+x,1/2-y,1/2+z
loop_
_atom_site_type_symbol
_atom_site_label
_atom_site_fract_x
_atom_site_fract_y
_atom_site_fract_z
Si Si1 0.731463 0.387080 0.642224
Si Si2 0.382382 0.715857 0.506391
Si Si3 0.616184 0.073615 0.684047
Si Si4 0.855773 0.008344 0.507434
Si Si5 0.802119 0.427428 0.864595
Si Si6 0.625784 0.616051 0.819215
Si Si7 0.534307 0.145979 0.470441
O O1 0.619855 0.339638 0.586468
O O2 0.710265 0.463544 0.601448
O O3 0.726551 0.389571 0.766836
O O4 0.865794 0.360024 0.615570
O O5 0.250000 0.750000 0.500000
O O6 0.405790 0.683956 0.622339
O O7 0.481471 0.775828 0.496140
O O8 0.500000 0.089784 0.750000
O O9 0.742720 0.113488 0.736775
O O10 0.581589 0.100825 0.567944
O O11 0.633272 0.993802 0.676975
O O12 0.833850 0.061122 0.595542
O O13 0.791295 0.940986 0.545051
O O14 0.000000 0.000000 0.500000
O O15 0.902347 0.376830 0.917440
O O16 0.500000 0.594253 0.750000
#
# Coordination Sequence:
#
# PCOD8138640 Si02
#       7
#     8   8   8   8   8   8   8
#     4  10  20  38  59  90 122 159 206 249 314 364
#     4   9  18  38  62  82 122 163 207 255 301 376
#     4  11  22  36  61  93 128 161 198 270 321 372
#     4  10  23  38  59  85 128 164 195 253 314 380
#     4  11  23  35  62  97 123 158 208 266 312 380
#     4  10  21  38  60  89 117 163 216 245 306 382
#     4  11  20  39  61  90 121 162 207 253 319 366
#
# _framework density 20.374022
#
# number of rings (size 3 to 8) (size 9 to 14) (size 15 to 20)
#    0.000    1.714    5.714    1.714    6.000    2.286 
#    0.000    0.000    6.286    4.286    0.000    0.000 
#    0.000    0.000    0.000    0.000    0.000    0.000 
#
# Total GULP energy -346966.862160 kJ/mol
# GULP energy per Si atom -12391.673649 kJ/mol
# Density = 2.032765 g / cm^3
# Si number density = 20.374022 Si / 1000 Ang^3
#
#
#
# Elastic Constant Matrix: (Units=GPa)
#
#
# Indices 1 2 3 4 5 6 
#
# 1 123.6979 34.4810 47.7702 0.0000 10.0484 0.0000
# 2 34.4810 99.2672 39.2363 0.0000 6.8895 0.0000
# 3 47.7702 39.2363 79.6667 0.0000 19.2255 0.0000
# 4 0.0000 0.0000 0.0000 12.9120 0.0000 0.3734
# 5 10.0484 6.8895 19.2255 0.0000 28.0944 0.0000
# 6 0.0000 0.0000 0.0000 0.3734 0.0000 24.4772
#
#
#
# Elastic Compliance Matrix: (Units=1/GPa)
#
#
# Indices 1 2 3 4 5 6 
#
# 1 0.010695 -0.001449 -0.005824 0.000000 0.000515 0.000000
# 2 -0.001449 0.012750 -0.005727 0.000000 0.001311 0.000000
# 3 -0.005824 -0.005727 0.021589 0.000000 -0.011286 0.000000
# 4 0.000000 0.000000 0.000000 0.077481 0.000000 -0.001182
# 5 0.000515 0.001311 -0.011286 0.000000 0.042812 0.000000
# 6 0.000000 0.000000 0.000000 -0.001182 0.000000 0.040872
#
#
# Mechanical properties :
#
#
# Convention : Reuss Voigt Hill
#
# Bulk Modulus (GPa) = 52.53678 60.62300 56.57989
# Shear Modulus (GPa) = 20.96055 25.17300 23.06678
#
# Velocity S-wave (km/s) = 3.21095 3.51884 3.36842
# Velocity P-wave (km/s) = 6.29199 6.80656 6.55433
#
# Compressibility (1/GPa) = 0.01903429
#
# Stress axis : x y z
#
# Youngs Moduli (GPa) = 93.49844 78.43311 46.32069
#
# Poissons Ratio (x) = 0.11364 0.26977
# Poissons Ratio (y) = 0.13547 0.26527
# Poissons Ratio (z) = 0.54454 0.44917
#
# Static dielectric constant tensor:
#      x y z
#    x 5.715890 0.000000 -0.689700 
#    y 0.000000 3.619780 0.000000 
#    z -0.689700 0.000000 4.011340 
# 
# 
# High freq. dielectric constant tensor:
#      x y z
#    x 1.784350 0.000000 0.014860 
#    y 0.000000 1.787280 0.000000 
#    z 0.014860 0.000000 1.785150 
# 
# From -- ./inp_files/88913.got.cif
#   From: 2010.06.25/outbox.cif.g09.slc.cpg/sg15_45_cif.got.tgz:88913.got - 2010.06.28 07:06:18.
