data_PCOD8138949
_publ_section_title
;
Structure prediction by ZEFSAII (Michael W. Deem and Ramdas Pophale) SiO2 
 PCOD8138949
Probable space group: C 2/C
;
_chemical_formula_sum "Si O2"
_cell_formula_units_Z 60
_cell_length_a 25.740517
_cell_length_b 20.894233
_cell_length_c 9.002887
_cell_angle_alpha 90.000000
_cell_angle_beta 37.207992
_cell_angle_gamma 90.000000
_cell_volume 2928.011664
_symmetry_space_group_name_H-M "C 2/C"
_symmetry_group_IT_number 15
_symmetry_cell_setting 'monoclinic'
loop_
_space_group_symop_operation_xyz
x,y,z
-x,y,1/2-z
-x,-y,-z
x,-y,1/2+z
1/2+x,1/2+y,z
1/2-x,1/2+y,1/2-z
1/2-x,1/2-y,-z
1/2+x,1/2-y,1/2+z
loop_
_atom_site_type_symbol
_atom_site_label
_atom_site_fract_x
_atom_site_fract_y
_atom_site_fract_z
Si Si1 0.581246 0.161527 0.966924
Si Si2 0.700621 0.090403 0.177154
Si Si3 0.436876 0.987132 0.014330
Si Si4 0.000000 0.013826 0.750000
Si Si5 0.904697 0.077148 0.693278
Si Si6 0.876614 0.788284 0.157138
Si Si7 0.698813 0.806570 0.447757
Si Si8 0.082464 0.671845 0.624801
O O1 0.588917 0.085975 0.943199
O O2 0.575913 0.189565 0.813224
O O3 0.500000 0.184080 0.250000
O O4 0.665745 0.189406 0.854484
O O5 0.667299 0.131374 0.112129
O O6 0.669482 0.131396 0.393230
O O7 0.654113 0.022689 0.273209
O O8 0.801876 0.077028 0.950950
O O9 0.500000 0.014579 0.750000
O O10 0.500000 0.000000 0.000000
O O11 0.051473 0.058288 0.749890
O O12 0.067196 0.970701 0.503155
O O13 0.931751 0.149235 0.581125
O O14 0.801493 0.808886 0.213916
O O15 0.834832 0.759082 0.401880
O O16 0.929429 0.736478 0.945579
O O17 0.000000 0.631400 0.750000
#
# Coordination Sequence:
#
# PCOD8138949 Si02
#       8
#     8   8   8   4   8   8   8   8
#     4  11  22  35  53  88 130 166 211 266 304 359
#     4  10  20  38  63  88 125 174 210 251 320 381
#     4  11  21  33  54  85 128 170 205 241 297 373
#     4  10  24  46  68  94 128 150 212 278 316 380
#     4  10  23  45  68  93 122 162 206 266 328 379
#     4   9  20  40  64  84 116 166 203 250 329 384
#     4   9  19  38  58  85 123 155 208 268 307 371
#     4  11  22  38  61  90 129 169 211 256 306 379
#
# _framework density 20.491720999999998
#
# number of rings (size 3 to 8) (size 9 to 14) (size 15 to 20)
#    0.000    1.867    0.000    6.000    0.933    4.800 
#    3.600    2.667    0.000    0.000    0.000    0.000 
#    0.000    0.000    0.000    0.000    0.000    0.000 
#
# Total GULP energy -371728.210213 kJ/mol
# GULP energy per Si atom -12390.940340 kJ/mol
# Density = 2.044508 g / cm^3
# Si number density = 20.491721 Si / 1000 Ang^3
#
#
#
# Elastic Constant Matrix: (Units=GPa)
#
#
# Indices 1 2 3 4 5 6 
#
# 1 159.4023 43.5985 51.8396 0.0000 11.7578 0.0000
# 2 43.5985 98.2800 34.4655 0.0000 -7.5466 0.0000
# 3 51.8396 34.4655 109.6935 0.0000 1.9748 0.0000
# 4 0.0000 0.0000 0.0000 30.1182 0.0000 -2.0616
# 5 11.7578 -7.5466 1.9748 0.0000 33.3745 0.0000
# 6 0.0000 0.0000 0.0000 -2.0616 0.0000 31.7942
#
#
#
# Elastic Compliance Matrix: (Units=1/GPa)
#
#
# Indices 1 2 3 4 5 6 
#
# 1 0.008272 -0.002901 -0.002937 0.000000 -0.003396 0.000000
# 2 -0.002901 0.012720 -0.002699 0.000000 0.004058 0.000000
# 3 -0.002937 -0.002699 0.011357 0.000000 -0.000248 0.000000
# 4 0.000000 0.000000 0.000000 0.033351 0.000000 0.002163
# 5 -0.003396 0.004058 -0.000248 0.000000 0.032092 0.000000
# 6 0.000000 0.000000 0.000000 0.002163 0.000000 0.031592
#
#
# Mechanical properties :
#
#
# Convention : Reuss Voigt Hill
#
# Bulk Modulus (GPa) = 65.46129 69.68701 67.57415
# Shear Modulus (GPa) = 32.99275 34.88887 33.94081
#
# Velocity S-wave (km/s) = 4.01690 4.13071 4.07420
# Velocity P-wave (km/s) = 7.31632 7.53867 7.42833
#
# Compressibility (1/GPa) = 0.01527620
#
# Stress axis : x y z
#
# Youngs Moduli (GPa) = 120.88312 78.61765 88.05408
#
# Poissons Ratio (x) = 0.22804 0.25861
# Poissons Ratio (y) = 0.35064 0.23764
# Poissons Ratio (z) = 0.35502 0.21217
#
# Static dielectric constant tensor:
#      x y z
#    x 3.648230 0.000000 0.078580 
#    y 0.000000 3.706450 0.000000 
#    z 0.078580 0.000000 3.806920 
# 
# 
# High freq. dielectric constant tensor:
#      x y z
#    x 1.796290 0.000000 -0.000060 
#    y 0.000000 1.801820 0.000000 
#    z -0.000060 0.000000 1.802430 
# 
# From -- ./inp_files/63509.got.cif
#   From: 2010.06.25/outbox.cif.g09.slc.cpg/sg15_32_cif.got.tgz:63509.got - 2010.06.28 07:06:18.
