data_PCOD8138776
_publ_section_title
;
Structure prediction by ZEFSAII (Michael W. Deem and Ramdas Pophale) SiO2 
 PCOD8138776
Probable space group: C 2/C
;
_chemical_formula_sum "Si O2"
_cell_formula_units_Z 48
_cell_length_a 21.962235
_cell_length_b 8.533146
_cell_length_c 17.093056
_cell_angle_alpha 90.000000
_cell_angle_beta 133.018093
_cell_angle_gamma 90.000000
_cell_volume 2342.097454
_symmetry_space_group_name_H-M "C 2/C"
_symmetry_group_IT_number 15
_symmetry_cell_setting 'monoclinic'
loop_
_space_group_symop_operation_xyz
x,y,z
-x,y,1/2-z
-x,-y,-z
x,-y,1/2+z
1/2+x,1/2+y,z
1/2-x,1/2+y,1/2-z
1/2-x,1/2-y,-z
1/2+x,1/2-y,1/2+z
loop_
_atom_site_type_symbol
_atom_site_label
_atom_site_fract_x
_atom_site_fract_y
_atom_site_fract_z
Si Si1 0.568459 0.064552 0.443733
Si Si2 0.542467 0.185136 0.586563
Si Si3 0.483945 0.392895 0.149999
Si Si4 0.615513 0.608777 0.549119
Si Si5 0.859444 0.040020 0.273927
Si Si6 0.282974 0.150869 0.454622
O O1 0.590446 0.119700 0.551957
O O2 0.544409 0.212452 0.369930
O O3 0.488751 0.951521 0.383458
O O4 0.641906 0.971355 0.462570
O O5 0.465896 0.296794 0.490817
O O6 0.604844 0.283979 0.694638
O O7 0.500000 0.461408 0.250000
O O8 0.572718 0.408410 0.186547
O O9 0.412364 0.493986 0.045222
O O10 0.663480 0.507864 0.657292
O O11 0.685575 0.726276 0.581286
O O12 0.786464 0.040754 0.146419
O O13 0.250000 0.250000 0.500000
#
# Coordination Sequence:
#
# PCOD8138776 Si02
#       6
#     8   8   8   8   8   8
#     4  10  20  38  61  89 120 156 204 253 303 357
#     4   9  18  37  64  88 112 152 210 260 286 355
#     4  11  21  38  64  92 119 158 207 258 304 360
#     4  10  20  40  63  88 120 161 210 251 305 369
#     4  11  21  39  64  89 117 160 210 254 306 365
#     4  11  26  41  57  89 135 168 192 249 331 376
#
# _framework density 20.494450000000001
#
# number of rings (size 3 to 8) (size 9 to 14) (size 15 to 20)
#    0.000    1.667    3.333    2.000    2.333    1.333 
#    0.000    8.333    0.000    0.000    0.000    0.000 
#    0.000    0.000    0.000    0.000    0.000    0.000 
#
# Total GULP energy -297471.549599 kJ/mol
# GULP energy per Si atom -12394.647900 kJ/mol
# Density = 2.044780 g / cm^3
# Si number density = 20.494450 Si / 1000 Ang^3
#
#
#
# Elastic Constant Matrix: (Units=GPa)
#
#
# Indices 1 2 3 4 5 6 
#
# 1 71.7549 26.9408 22.4419 0.0000 -0.0153 0.0000
# 2 26.9408 112.7491 23.0377 0.0000 0.1237 0.0000
# 3 22.4419 23.0377 74.1293 0.0000 -11.4481 0.0000
# 4 0.0000 0.0000 0.0000 14.9062 0.0000 -2.3932
# 5 -0.0153 0.1237 -11.4481 0.0000 24.7135 0.0000
# 6 0.0000 0.0000 0.0000 -2.3932 0.0000 33.0326
#
#
#
# Elastic Compliance Matrix: (Units=1/GPa)
#
#
# Indices 1 2 3 4 5 6 
#
# 1 0.016433 -0.003038 -0.004337 0.000000 -0.001984 0.000000
# 2 -0.003038 0.010086 -0.002394 0.000000 -0.001161 0.000000
# 3 -0.004337 -0.002394 0.016746 0.000000 0.007767 0.000000
# 4 0.000000 0.000000 0.000000 0.067876 0.000000 0.004917
# 5 -0.001984 -0.001161 0.007767 0.000000 0.044066 0.000000
# 6 0.000000 0.000000 0.000000 0.004917 0.000000 0.030629
#
#
# Mechanical properties :
#
#
# Convention : Reuss Voigt Hill
#
# Bulk Modulus (GPa) = 42.14680 44.83044 43.48862
# Shear Modulus (GPa) = 23.44294 26.94465 25.19379
#
# Velocity S-wave (km/s) = 3.38578 3.62985 3.50994
# Velocity P-wave (km/s) = 5.99119 6.28408 6.13938
#
# Compressibility (1/GPa) = 0.02372660
#
# Stress axis : x y z
#
# Youngs Moduli (GPa) = 60.85286 99.15088 59.71438
#
# Poissons Ratio (x) = 0.30124 0.25899
# Poissons Ratio (y) = 0.18489 0.14295
# Poissons Ratio (z) = 0.26392 0.23736
#
# Static dielectric constant tensor:
#      x y z
#    x 3.742420 0.000000 -0.016460 
#    y 0.000000 3.875940 0.000000 
#    z -0.016460 0.000000 3.409220 
# 
# 
# High freq. dielectric constant tensor:
#      x y z
#    x 1.789060 0.000000 -0.007380 
#    y 0.000000 1.814280 0.000000 
#    z -0.007380 0.000000 1.777540 
# 
# From -- ./inp_files/214087.got.cif
#   From: 2010.06.25/outbox.cif.g09.slc.cpg/sg15_108_cif.got.tgz:214087.got - 2010.06.28 07:06:18.
