data_PCOD8138137
_publ_section_title
;
Structure prediction by ZEFSAII (Michael W. Deem and Ramdas Pophale) SiO2 
 PCOD8138137
Probable space group: C 2/C
;
_chemical_formula_sum "Si O2"
_cell_formula_units_Z 56
_cell_length_a 22.868352
_cell_length_b 24.831540
_cell_length_c 4.952815
_cell_angle_alpha 90.000000
_cell_angle_beta 104.094379
_cell_angle_gamma 90.000000
_cell_volume 2727.820302
_symmetry_space_group_name_H-M "C 2/C"
_symmetry_group_IT_number 15
_symmetry_cell_setting 'monoclinic'
loop_
_space_group_symop_operation_xyz
x,y,z
-x,y,1/2-z
-x,-y,-z
x,-y,1/2+z
1/2+x,1/2+y,z
1/2-x,1/2+y,1/2-z
1/2-x,1/2-y,-z
1/2+x,1/2-y,1/2+z
loop_
_atom_site_type_symbol
_atom_site_label
_atom_site_fract_x
_atom_site_fract_y
_atom_site_fract_z
Si Si1 0.763961 0.965124 0.008892
Si Si2 0.371221 0.963059 0.700840
Si Si3 0.139983 0.125230 0.994265
Si Si4 0.112842 0.267435 0.462750
Si Si5 0.814965 0.758968 0.951449
Si Si6 0.932557 0.849845 0.604392
Si Si7 0.460827 0.130651 0.464836
O O1 0.697613 0.940815 0.870597
O O2 0.816596 0.923320 0.022401
O O3 0.771169 0.017072 0.826241
O O4 0.413350 0.912295 0.800445
O O5 0.384095 0.989028 0.425267
O O6 0.181635 0.177209 0.068526
O O7 0.109176 0.114588 0.246504
O O8 0.086382 0.134057 0.718180
O O9 0.169726 0.270662 0.316605
O O10 0.075106 0.213937 0.344672
O O11 0.070535 0.319577 0.412976
O O12 0.135817 0.264452 0.791727
O O13 0.750000 0.750000 0.000000
O O14 0.000000 0.866581 0.750000
O O15 0.500000 0.150040 0.250000
O O16 0.500000 0.103621 0.750000
#
# Coordination Sequence:
#
# PCOD8138137 Si02
#       7
#     8   8   8   8   8   8   8
#     4  10  21  40  63  86 116 151 195 249 299 357
#     4  10  23  42  61  86 114 156 205 253 311 354
#     4  10  21  36  60  90 112 154 197 234 297 348
#     4  10  22  38  56  87 121 159 199 236 292 359
#     4  10  21  37  57  89 122 155 190 243 303 355
#     4  10  20  37  60  84 121 156 194 233 276 357
#     4  12  25  40  61  89 120 163 207 252 302 349
#
# _framework density 20.529211
#
# number of rings (size 3 to 8) (size 9 to 14) (size 15 to 20)
#    0.000    1.714    0.000    3.857    2.000    4.000 
#    5.143    0.000    0.000    8.571    0.000    0.000 
#    0.000    0.000    0.000    0.000    0.000    0.000 
#
# Total GULP energy -347157.899477 kJ/mol
# GULP energy per Si atom -12398.496410 kJ/mol
# Density = 2.048249 g / cm^3
# Si number density = 20.529211 Si / 1000 Ang^3
#
#
#
# Elastic Constant Matrix: (Units=GPa)
#
#
# Indices 1 2 3 4 5 6 
#
# 1 98.7596 42.0443 9.1116 0.0000 3.7686 0.0000
# 2 42.0443 64.9936 10.2306 0.0000 9.4792 0.0000
# 3 9.1116 10.2306 64.8980 0.0000 -6.0454 0.0000
# 4 0.0000 0.0000 0.0000 20.9917 0.0000 -0.6373
# 5 3.7686 9.4792 -6.0454 0.0000 33.8779 0.0000
# 6 0.0000 0.0000 0.0000 -0.6373 0.0000 26.1102
#
#
#
# Elastic Compliance Matrix: (Units=1/GPa)
#
#
# Indices 1 2 3 4 5 6 
#
# 1 0.014020 -0.009133 -0.000443 0.000000 0.000917 0.000000
# 2 -0.009133 0.022585 -0.002819 0.000000 -0.005806 0.000000
# 3 -0.000443 -0.002819 0.016264 0.000000 0.003740 0.000000
# 4 0.000000 0.000000 0.000000 0.047673 0.000000 0.001164
# 5 0.000917 -0.005806 0.003740 0.000000 0.031708 0.000000
# 6 0.000000 0.000000 0.000000 0.001164 0.000000 0.038328
#
#
# Mechanical properties :
#
#
# Convention : Reuss Voigt Hill
#
# Bulk Modulus (GPa) = 35.61532 39.04715 37.33123
# Shear Modulus (GPa) = 24.42272 27.34694 25.88483
#
# Velocity S-wave (km/s) = 3.45288 3.65375 3.55474
# Velocity P-wave (km/s) = 5.76912 6.07136 5.92217
#
# Compressibility (1/GPa) = 0.02807781
#
# Stress axis : x y z
#
# Youngs Moduli (GPa) = 71.32780 44.27702 61.48623
#
# Poissons Ratio (x) = 0.40440 0.02725
# Poissons Ratio (y) = 0.65146 0.17332
# Poissons Ratio (z) = 0.03161 0.12481
#
# Static dielectric constant tensor:
#      x y z
#    x 3.800610 0.000000 -0.117260 
#    y 0.000000 3.365620 0.000000 
#    z -0.117260 0.000000 4.025100 
# 
# 
# High freq. dielectric constant tensor:
#      x y z
#    x 1.810480 0.000000 -0.007080 
#    y 0.000000 1.776820 0.000000 
#    z -0.007080 0.000000 1.822550 
# 
# From -- ./inp_files/13942.got.cif
#   From: 2010.06.25/outbox.cif.g09.slc.cpg/sg15_7_cif.got.tgz:13942.got - 2010.06.28 07:06:18.
