data_PCOD8138341
_publ_section_title
;
Structure prediction by ZEFSAII (Michael W. Deem and Ramdas Pophale) SiO2 
 PCOD8138341
Probable space group: C 2/C
;
_chemical_formula_sum "Si O2"
_cell_formula_units_Z 48
_cell_length_a 9.818359
_cell_length_b 13.129040
_cell_length_c 25.160577
_cell_angle_alpha 90.000000
_cell_angle_beta 45.496164
_cell_angle_gamma 90.000000
_cell_volume 2313.161494
_symmetry_space_group_name_H-M "C 2/C"
_symmetry_group_IT_number 15
_symmetry_cell_setting 'monoclinic'
loop_
_space_group_symop_operation_xyz
x,y,z
-x,y,1/2-z
-x,-y,-z
x,-y,1/2+z
1/2+x,1/2+y,z
1/2-x,1/2+y,1/2-z
1/2-x,1/2-y,-z
1/2+x,1/2-y,1/2+z
loop_
_atom_site_type_symbol
_atom_site_label
_atom_site_fract_x
_atom_site_fract_y
_atom_site_fract_z
Si Si1 0.435824 0.303925 0.827042
Si Si2 0.821901 0.056607 0.525653
Si Si3 0.475902 0.914531 0.193528
Si Si4 0.026782 0.247644 0.969339
Si Si5 0.437449 0.485770 0.207141
Si Si6 0.808661 0.893202 0.446003
O O1 0.500000 0.320293 0.750000
O O2 0.535996 0.202982 0.823109
O O3 0.206394 0.297959 0.890816
O O4 0.509601 0.406253 0.835536
O O5 0.652894 0.035863 0.614214
O O6 0.886291 0.177383 0.505699
O O7 0.762564 0.004790 0.485403
O O8 0.000000 0.000000 0.500000
O O9 0.500000 0.918571 0.250000
O O10 0.288450 0.975056 0.230209
O O11 0.911051 0.175944 0.961363
O O12 0.883872 0.339639 0.024839
O O13 0.500000 0.473023 0.250000
O O14 0.544778 0.401122 0.142893
#
# Coordination Sequence:
#
# PCOD8138341 Si02
#       6
#     8   8   8   8   8   8
#     4   9  19  36  59  81 121 162 202 238 314 374
#     4   9  18  35  61  92 114 156 218 258 309 376
#     4  10  20  41  65  85 121 166 211 256 300 378
#     4   9  19  37  62  89 116 169 209 259 313 381
#     4  11  24  40  58  93 127 162 202 254 322 376
#     4  10  20  37  63  86 126 161 214 263 314 372
#
# _framework density 20.750820000000001
#
# number of rings (size 3 to 8) (size 9 to 14) (size 15 to 20)
#    0.000    2.333    0.000    4.000    4.667    0.667 
#    6.000    2.500    0.000    0.000    0.000    0.000 
#    0.000    0.000    0.000    0.000    0.000    0.000 
#
# Total GULP energy -297330.916389 kJ/mol
# GULP energy per Si atom -12388.788183 kJ/mol
# Density = 2.070359 g / cm^3
# Si number density = 20.750820 Si / 1000 Ang^3
#
#
#
# Elastic Constant Matrix: (Units=GPa)
#
#
# Indices 1 2 3 4 5 6 
#
# 1 66.7346 43.6197 35.3485 0.0001 -15.4061 -0.0001
# 2 43.6197 87.0616 48.0712 0.0002 -14.5694 -0.0001
# 3 35.3485 48.0712 141.0450 0.0002 -24.4560 0.0003
# 4 0.0001 0.0002 0.0002 34.3252 0.0000 -0.8184
# 5 -15.4061 -14.5694 -24.4560 0.0000 36.6080 0.0002
# 6 -0.0001 -0.0001 0.0003 -0.8184 0.0002 17.5318
#
#
#
# Elastic Compliance Matrix: (Units=1/GPa)
#
#
# Indices 1 2 3 4 5 6 
#
# 1 0.023559 -0.010100 -0.001629 0.000000 0.004807 0.000000
# 2 -0.010100 0.018723 -0.003727 0.000000 0.000712 0.000000
# 3 -0.001629 -0.003727 0.009492 0.000000 0.004172 0.000000
# 4 0.000000 0.000000 0.000000 0.029166 0.000000 0.001362
# 5 0.004807 0.000712 0.004172 0.000000 0.032410 0.000000
# 6 0.000000 0.000000 0.000000 0.001362 0.000000 0.057103
#
#
# Mechanical properties :
#
#
# Convention : Reuss Voigt Hill
#
# Bulk Modulus (GPa) = 47.93079 60.99111 54.46095
# Shear Modulus (GPa) = 24.00203 28.87979 26.44091
#
# Velocity S-wave (km/s) = 3.40469 3.73465 3.57348
# Velocity P-wave (km/s) = 6.21323 6.93201 6.58244
#
# Compressibility (1/GPa) = 0.02086342
#
# Stress axis : x y z
#
# Youngs Moduli (GPa) = 42.44745 53.41013 105.35562
#
# Poissons Ratio (x) = 0.53943 0.17158
# Poissons Ratio (y) = 0.42871 0.39263
# Poissons Ratio (z) = 0.06913 0.19904
#
# Static dielectric constant tensor:
#      x y z
#    x 3.562830 0.000000 -0.072440 
#    y 0.000000 4.923900 0.000000 
#    z -0.072440 0.000000 3.877410 
# 
# 
# High freq. dielectric constant tensor:
#      x y z
#    x 1.780530 0.000000 -0.013300 
#    y 0.000000 1.819650 0.000000 
#    z -0.013300 0.000000 1.827680 
# 
# From -- ./inp_files/288990.got.cif
#   From: 2010.06.25/outbox.cif.g09.slc.cpg/sg15_145_cif.got.tgz:288990.got - 2010.06.28 07:06:18.
