data_PCOD8138746
_publ_section_title
;
Structure prediction by ZEFSAII (Michael W. Deem and Ramdas Pophale) SiO2 
 PCOD8138746
Probable space group: C 2/C
;
_chemical_formula_sum "Si O2"
_cell_formula_units_Z 64
_cell_length_a 19.884342
_cell_length_b 14.008870
_cell_length_c 18.032727
_cell_angle_alpha 90.000000
_cell_angle_beta 138.857982
_cell_angle_gamma 90.000000
_cell_volume 3304.866389
_symmetry_space_group_name_H-M "C 2/C"
_symmetry_group_IT_number 15
_symmetry_cell_setting 'monoclinic'
loop_
_space_group_symop_operation_xyz
x,y,z
-x,y,1/2-z
-x,-y,-z
x,-y,1/2+z
1/2+x,1/2+y,z
1/2-x,1/2+y,1/2-z
1/2-x,1/2-y,-z
1/2+x,1/2-y,1/2+z
loop_
_atom_site_type_symbol
_atom_site_label
_atom_site_fract_x
_atom_site_fract_y
_atom_site_fract_z
Si Si1 0.764282 0.611810 0.719306
Si Si2 0.715973 0.401225 0.682663
Si Si3 0.561407 0.755569 0.092005
Si Si4 0.763408 0.608009 0.547585
Si Si5 0.275119 0.396530 0.980486
Si Si6 0.384961 0.247198 0.339672
Si Si7 0.920933 0.246807 0.118380
Si Si8 0.111568 0.762561 0.325481
O O1 0.730450 0.509053 0.723715
O O2 0.860236 0.655515 0.843523
O O3 0.797476 0.608535 0.661436
O O4 0.666940 0.679969 0.646289
O O5 0.625072 0.344104 0.648836
O O6 0.685235 0.403647 0.570688
O O7 0.825231 0.352902 0.788871
O O8 0.482585 0.760123 0.093931
O O9 0.500589 0.766923 0.964075
O O10 0.757330 0.499360 0.514676
O O11 0.850559 0.659975 0.572033
O O12 0.652340 0.655090 0.445204
O O13 0.180557 0.325484 0.907474
O O14 0.365076 0.356881 0.107264
O O15 0.379406 0.291240 0.253029
O O16 0.000000 0.231215 0.250000
O O17 0.000000 0.724670 0.250000
#
# Coordination Sequence:
#
# PCOD8138746 Si02
#       8
#     8   8   8   8   8   8   8   8
#     4  10  20  40  59  83 120 156 195 246 293 350
#     4   9  21  38  61  84 120 155 195 245 294 347
#     4  11  21  38  62  86 120 156 201 239 298 362
#     4  10  21  39  60  87 121 152 198 249 297 350
#     4   9  20  40  59  86 116 155 196 247 298 346
#     4  10  21  38  58  87 116 156 192 240 297 350
#     4  11  22  38  60  87 118 159 193 243 298 354
#     4  10  20  38  61  84 116 151 196 247 297 347
#
# _framework density 19.365382
#
# number of rings (size 3 to 8) (size 9 to 14) (size 15 to 20)
#    0.000    2.000    2.500    0.750    0.000    3.000 
#    9.000    0.000    0.000    0.000    0.000    0.000 
#    0.000    0.000    0.000    0.000    0.000    0.000 
#
# Total GULP energy -396832.358058 kJ/mol
# GULP energy per Si atom -12401.011189 kJ/mol
# Density = 1.932131 g / cm^3
# Si number density = 19.365382 Si / 1000 Ang^3
#
#
#
# Elastic Constant Matrix: (Units=GPa)
#
#
# Indices 1 2 3 4 5 6 
#
# 1 83.2499 38.3902 19.9535 0.0000 9.3828 0.0000
# 2 38.3902 138.9030 48.3371 0.0000 -0.4179 0.0000
# 3 19.9535 48.3371 109.9530 0.0000 15.2703 0.0000
# 4 0.0000 0.0000 0.0000 16.4801 0.0000 -5.7719
# 5 9.3828 -0.4179 15.2703 0.0000 24.4368 0.0000
# 6 0.0000 0.0000 0.0000 -5.7719 0.0000 21.4944
#
#
#
# Elastic Compliance Matrix: (Units=1/GPa)
#
#
# Indices 1 2 3 4 5 6 
#
# 1 0.014505 -0.003989 -0.000105 0.000000 -0.005572 0.000000
# 2 -0.003989 0.009765 -0.004166 0.000000 0.004302 0.000000
# 3 -0.000105 -0.004166 0.011990 0.000000 -0.007524 0.000000
# 4 0.000000 0.000000 0.000000 0.066979 0.000000 0.017986
# 5 -0.005572 0.004302 -0.007524 0.000000 0.047836 0.000000
# 6 0.000000 0.000000 0.000000 0.017986 0.000000 0.051353
#
#
# Mechanical properties :
#
#
# Convention : Reuss Voigt Hill
#
# Bulk Modulus (GPa) = 50.66015 60.60751 55.63383
# Shear Modulus (GPa) = 22.17021 27.51061 24.84041
#
# Velocity S-wave (km/s) = 3.38722 3.77318 3.58540
# Velocity P-wave (km/s) = 6.44318 7.09558 6.77724
#
# Compressibility (1/GPa) = 0.01973938
#
# Stress axis : x y z
#
# Youngs Moduli (GPa) = 68.94319 102.41130 83.40149
#
# Poissons Ratio (x) = 0.40854 0.00873
# Poissons Ratio (y) = 0.27503 0.34747
# Poissons Ratio (z) = 0.00722 0.42667
#
# Static dielectric constant tensor:
#      x y z
#    x 3.504450 0.000000 0.021480 
#    y 0.000000 3.546130 0.000000 
#    z 0.021480 0.000000 3.651100 
# 
# 
# High freq. dielectric constant tensor:
#      x y z
#    x 1.749500 0.000000 0.004470 
#    y 0.000000 1.749070 0.000000 
#    z 0.004470 0.000000 1.761580 
# 
# From -- ./inp_files/162581.got.cif
#   From: 2010.06.25/outbox.cif.g09.slc.cpg/sg15_82_cif.got.tgz:162581.got - 2010.06.28 07:06:18.
