data_PCOD8138824
_publ_section_title
;
Structure prediction by ZEFSAII (Michael W. Deem and Ramdas Pophale) SiO2 
 PCOD8138824
Probable space group: C 2/C
;
_chemical_formula_sum "Si O2"
_cell_formula_units_Z 48
_cell_length_a 17.818534
_cell_length_b 11.624913
_cell_length_c 11.969389
_cell_angle_alpha 90.000000
_cell_angle_beta 65.743182
_cell_angle_gamma 90.000000
_cell_volume 2260.434297
_symmetry_space_group_name_H-M "C 2/C"
_symmetry_group_IT_number 15
_symmetry_cell_setting 'monoclinic'
loop_
_space_group_symop_operation_xyz
x,y,z
-x,y,1/2-z
-x,-y,-z
x,-y,1/2+z
1/2+x,1/2+y,z
1/2-x,1/2+y,1/2-z
1/2-x,1/2-y,-z
1/2+x,1/2-y,1/2+z
loop_
_atom_site_type_symbol
_atom_site_label
_atom_site_fract_x
_atom_site_fract_y
_atom_site_fract_z
Si Si1 0.748615 0.285229 0.845759
Si Si2 0.500000 0.436793 0.750000
Si Si3 0.718719 0.114115 0.413747
Si Si4 0.133062 0.841400 0.524180
Si Si5 0.500000 0.811227 0.750000
Si Si6 0.107701 0.127659 0.792646
Si Si7 0.151817 0.383219 0.525495
O O1 0.744770 0.348295 0.728895
O O2 0.806628 0.170691 0.812593
O O3 0.780653 0.376678 0.916544
O O4 0.661031 0.230544 0.939464
O O5 0.543803 0.353482 0.635135
O O6 0.573032 0.513509 0.756922
O O7 0.795001 0.097348 0.450099
O O8 0.654264 0.207625 0.497803
O O9 0.666669 0.996637 0.441791
O O10 0.124247 0.903784 0.410843
O O11 0.544711 0.733185 0.815554
O O12 0.562498 0.888723 0.639228
#
# Coordination Sequence:
#
# PCOD8138824 Si02
#       7
#     8   4   8   8   4   8   8
#     4   9  20  38  60  84 111 154 204 234 275 350
#     4  11  20  33  60  82 108 155 196 245 296 336
#     4  10  22  38  56  84 121 151 187 242 295 346
#     4  10  22  36  52  83 117 147 189 240 297 353
#     4   9  20  37  60  86 112 151 196 233 282 352
#     4   9  19  38  55  79 114 147 196 246 283 336
#     4  10  20  38  62  85 115 156 196 238 284 343
#
# _framework density 21.234857000000002
#
# number of rings (size 3 to 8) (size 9 to 14) (size 15 to 20)
#    0.000    2.333    0.000    1.500    0.000    8.667 
#    0.000    7.500    0.000    0.000    0.000    0.000 
#    0.000    0.000    0.000    0.000    0.000    0.000 
#
# Total GULP energy -297481.805444 kJ/mol
# GULP energy per Si atom -12395.075227 kJ/mol
# Density = 2.118653 g / cm^3
# Si number density = 21.234857 Si / 1000 Ang^3
#
#
#
# Elastic Constant Matrix: (Units=GPa)
#
#
# Indices 1 2 3 4 5 6 
#
# 1 61.5683 20.0518 42.8739 0.0000 5.1556 0.0000
# 2 20.0518 74.3357 54.0361 0.0000 -10.9803 0.0000
# 3 42.8739 54.0361 141.3730 0.0000 -1.2151 0.0000
# 4 0.0000 0.0000 0.0000 30.3176 0.0000 -5.5169
# 5 5.1556 -10.9803 -1.2151 0.0000 40.5734 0.0000
# 6 0.0000 0.0000 0.0000 -5.5169 0.0000 13.2159
#
#
#
# Elastic Compliance Matrix: (Units=1/GPa)
#
#
# Indices 1 2 3 4 5 6 
#
# 1 0.021140 -0.002114 -0.005632 0.000000 -0.003427 0.000000
# 2 -0.002114 0.019836 -0.006894 0.000000 0.005431 0.000000
# 3 -0.005632 -0.006894 0.011410 0.000000 -0.000808 0.000000
# 4 0.000000 0.000000 0.000000 0.035696 0.000000 0.014901
# 5 -0.003427 0.005431 -0.000808 0.000000 0.026528 0.000000
# 6 0.000000 0.000000 0.000000 0.014901 0.000000 0.081887
#
#
# Mechanical properties :
#
#
# Convention : Reuss Voigt Hill
#
# Bulk Modulus (GPa) = 43.28167 56.80007 50.04087
# Shear Modulus (GPa) = 21.41518 27.50904 24.46211
#
# Velocity S-wave (km/s) = 3.17912 3.60316 3.39776
# Velocity P-wave (km/s) = 5.82257 6.64206 6.24577
#
# Compressibility (1/GPa) = 0.02310447
#
# Stress axis : x y z
#
# Youngs Moduli (GPa) = 47.30394 50.41236 87.64462
#
# Poissons Ratio (x) = 0.10659 0.49364
# Poissons Ratio (y) = 0.10002 0.60423
# Poissons Ratio (z) = 0.26643 0.34754
#
# Static dielectric constant tensor:
#      x y z
#    x 3.833760 0.000000 -0.043340 
#    y 0.000000 3.536250 0.000000 
#    z -0.043340 0.000000 3.930790 
# 
# 
# High freq. dielectric constant tensor:
#      x y z
#    x 1.818070 0.000000 -0.004970 
#    y 0.000000 1.817630 0.000000 
#    z -0.004970 0.000000 1.845490 
# 
# From -- ./inp_files/104203.got.cif
#   From: 2010.06.25/outbox.cif.g09.slc.cpg/sg15_53_cif.got.tgz:104203.got - 2010.06.28 07:06:18.
