data_PCOD8138372
_publ_section_title
;
Structure prediction by ZEFSAII (Michael W. Deem and Ramdas Pophale) SiO2 
 PCOD8138372
Probable space group: C 2/C
;
_chemical_formula_sum "Si O2"
_cell_formula_units_Z 56
_cell_length_a 19.977271
_cell_length_b 9.413785
_cell_length_c 13.807859
_cell_angle_alpha 90.000000
_cell_angle_beta 85.146190
_cell_angle_gamma 90.000000
_cell_volume 2587.417600
_symmetry_space_group_name_H-M "C 2/C"
_symmetry_group_IT_number 15
_symmetry_cell_setting 'monoclinic'
loop_
_space_group_symop_operation_xyz
x,y,z
-x,y,1/2-z
-x,-y,-z
x,-y,1/2+z
1/2+x,1/2+y,z
1/2-x,1/2+y,1/2-z
1/2-x,1/2-y,-z
1/2+x,1/2-y,1/2+z
loop_
_atom_site_type_symbol
_atom_site_label
_atom_site_fract_x
_atom_site_fract_y
_atom_site_fract_z
Si Si1 0.766246 0.085586 0.504978
Si Si2 0.646500 0.429923 0.147790
Si Si3 0.614368 0.620177 0.865063
Si Si4 0.682028 0.826741 0.532752
Si Si5 0.948520 0.667787 0.553453
Si Si6 0.469989 0.113343 0.146865
Si Si7 0.008826 0.938944 0.635007
O O1 0.750000 0.250000 0.500000
O O2 0.828532 0.074459 0.568775
O O3 0.789190 0.018878 0.399109
O O4 0.700842 0.993806 0.549815
O O5 0.641024 0.447296 0.262437
O O6 0.651854 0.259704 0.128006
O O7 0.581535 0.496716 0.102034
O O8 0.595740 0.787331 0.861902
O O9 0.544484 0.547609 0.904154
O O10 0.750000 0.750000 0.500000
O O11 0.630583 0.800016 0.450089
O O12 0.947332 0.548288 0.637254
O O13 0.973144 0.626945 0.442879
O O14 0.997670 0.788675 0.586130
O O15 0.500000 0.145729 0.250000
O O16 0.000000 0.922641 0.750000
#
# Coordination Sequence:
#
# PCOD8138372 Si02
#       7
#     8   8   8   8   8   8   8
#     4  11  24  41  60  87 121 159 207 249 291 359
#     4  10  22  40  62  90 120 155 200 249 303 360
#     4  11  22  39  64  88 118 157 197 248 303 355
#     4  10  21  38  58  81 115 159 202 239 286 355
#     4  11  22  38  60  86 121 157 190 245 305 348
#     4  11  23  38  60  90 119 151 193 246 309 367
#     4  10  20  37  63  93 119 151 198 247 298 360
#
# _framework density 21.6432
#
# number of rings (size 3 to 8) (size 9 to 14) (size 15 to 20)
#    0.000    1.429    0.000    6.857    0.000    4.000 
#    0.000    7.143    0.000    0.000    0.000    0.000 
#    0.000    0.000    0.000    0.000    0.000    0.000 
#
# Total GULP energy -347003.390745 kJ/mol
# GULP energy per Si atom -12392.978241 kJ/mol
# Density = 2.159394 g / cm^3
# Si number density = 21.643200 Si / 1000 Ang^3
#
#
#
# Elastic Constant Matrix: (Units=GPa)
#
#
# Indices 1 2 3 4 5 6 
#
# 1 89.4392 28.0302 20.8736 0.0000 2.9225 0.0000
# 2 28.0302 141.5899 24.9778 0.0000 -10.5691 0.0000
# 3 20.8736 24.9778 35.0914 0.0000 7.1441 0.0000
# 4 0.0000 0.0000 0.0000 30.8633 0.0000 -0.6856
# 5 2.9225 -10.5691 7.1441 0.0000 23.6074 0.0000
# 6 0.0000 0.0000 0.0000 -0.6856 0.0000 47.4490
#
#
#
# Elastic Compliance Matrix: (Units=1/GPa)
#
#
# Indices 1 2 3 4 5 6 
#
# 1 0.013225 -0.001435 -0.006800 0.000000 -0.000222 0.000000
# 2 -0.001435 0.009025 -0.006851 0.000000 0.006291 0.000000
# 3 -0.006800 -0.006851 0.040358 0.000000 -0.014439 0.000000
# 4 0.000000 0.000000 0.000000 0.032411 0.000000 0.000468
# 5 -0.000222 0.006291 -0.014439 0.000000 0.049573 0.000000
# 6 0.000000 0.000000 0.000000 0.000468 0.000000 0.021082
#
#
# Mechanical properties :
#
#
# Convention : Reuss Voigt Hill
#
# Bulk Modulus (GPa) = 30.83047 45.98707 38.40877
# Shear Modulus (GPa) = 24.19450 33.19986 28.69718
#
# Velocity S-wave (km/s) = 3.34710 3.92083 3.64527
# Velocity P-wave (km/s) = 5.40493 6.46461 5.95837
#
# Compressibility (1/GPa) = 0.03243545
#
# Stress axis : x y z
#
# Youngs Moduli (GPa) = 75.61565 110.80348 24.77824
#
# Poissons Ratio (x) = 0.15901 0.16849
# Poissons Ratio (y) = 0.10851 0.16976
# Poissons Ratio (z) = 0.51418 0.75913
#
# Static dielectric constant tensor:
#      x y z
#    x 4.306250 0.000000 -0.008160 
#    y 0.000000 4.374020 0.000000 
#    z -0.008160 0.000000 3.806870 
# 
# 
# High freq. dielectric constant tensor:
#      x y z
#    x 1.852960 0.000000 0.002020 
#    y 0.000000 1.858860 0.000000 
#    z 0.002020 0.000000 1.841750 
# 
# From -- ./inp_files/166652.got.cif
#   From: 2010.06.25/outbox.cif.g09.slc.cpg/sg15_84_cif.got.tgz:166652.got - 2010.06.28 07:06:18.
