data_PCOD8138564
_publ_section_title
;
Structure prediction by ZEFSAII (Michael W. Deem and Ramdas Pophale) SiO2 
 PCOD8138564
Probable space group: C 2/C
;
_chemical_formula_sum "Si O2"
_cell_formula_units_Z 36
_cell_length_a 32.355176
_cell_length_b 9.994898
_cell_length_c 7.555785
_cell_angle_alpha 90.000000
_cell_angle_beta 134.165045
_cell_angle_gamma 90.000000
_cell_volume 1752.767172
_symmetry_space_group_name_H-M "C 2/C"
_symmetry_group_IT_number 15
_symmetry_cell_setting 'monoclinic'
loop_
_space_group_symop_operation_xyz
x,y,z
-x,y,1/2-z
-x,-y,-z
x,-y,1/2+z
1/2+x,1/2+y,z
1/2-x,1/2+y,1/2-z
1/2-x,1/2-y,-z
1/2+x,1/2-y,1/2+z
loop_
_atom_site_type_symbol
_atom_site_label
_atom_site_fract_x
_atom_site_fract_y
_atom_site_fract_z
Si Si1 0.500000 0.066718 0.250000
Si Si2 0.648376 0.646112 0.749317
Si Si3 0.074121 0.362508 0.666311
Si Si4 0.189176 0.676339 0.656273
Si Si5 0.184011 0.865409 0.961213
O O1 0.476252 0.158996 0.337612
O O2 0.553396 0.973400 0.466702
O O3 0.586894 0.719276 0.609290
O O4 0.645292 0.487182 0.772114
O O5 0.663995 0.678745 0.594740
O O6 0.695970 0.705843 0.028063
O O7 0.134097 0.414427 0.936446
O O8 0.175910 0.739413 0.808546
O O9 0.248215 0.591670 0.835653
#
# Coordination Sequence:
#
# PCOD8138564 Si02
#       5
#     4   8   8   8   8
#     4  10  20  44  60  80 116 154 202 274 284 354
#     4  10  20  38  57  92 120 162 192 242 283 364
#     4   9  22  38  62  87 114 154 206 245 313 330
#     4   9  22  37  57  95 116 170 183 236 292 365
#     4  11  19  37  63  86 139 149 194 228 298 362
#
# _framework density 20.53895
#
# number of rings (size 3 to 8) (size 9 to 14) (size 15 to 20)
#    1.333    0.889    2.222    0.667    0.000    5.333 
#    0.000    0.000    0.000   16.000    0.000    0.000 
#    0.000    0.000    0.000    0.000    0.000    0.000 
#
# Total GULP energy -223005.076710 kJ/mol
# GULP energy per Si atom -12389.170928 kJ/mol
# Density = 2.049220 g / cm^3
# Si number density = 20.538950 Si / 1000 Ang^3
#
#
#
# Elastic Constant Matrix: (Units=GPa)
#
#
# Indices 1 2 3 4 5 6 
#
# 1 164.9770 57.5148 37.5552 0.0000 -17.2300 0.0000
# 2 57.5148 67.2209 27.9010 0.0000 12.8354 0.0000
# 3 37.5552 27.9010 104.9256 0.0000 1.3262 0.0000
# 4 0.0000 0.0000 0.0000 25.2204 0.0000 15.1303
# 5 -17.2300 12.8354 1.3262 0.0000 38.1446 0.0000
# 6 0.0000 0.0000 0.0000 15.1303 0.0000 18.0742
#
#
#
# Elastic Compliance Matrix: (Units=1/GPa)
#
#
# Indices 1 2 3 4 5 6 
#
# 1 0.010837 -0.010372 -0.001227 0.000000 0.008428 0.000000
# 2 -0.010372 0.027876 -0.003524 0.000000 -0.013943 0.000000
# 3 -0.001227 -0.003524 0.010904 0.000000 0.000252 0.000000
# 4 0.000000 0.000000 0.000000 0.079652 0.000000 -0.066679
# 5 0.008428 -0.013943 0.000252 0.000000 0.034706 0.000000
# 6 0.000000 0.000000 0.000000 -0.066679 0.000000 0.111146
#
#
# Mechanical properties :
#
#
# Convention : Reuss Voigt Hill
#
# Bulk Modulus (GPa) = 51.62647 64.78508 58.20578
# Shear Modulus (GPa) = 16.03473 30.56465 23.29969
#
# Velocity S-wave (km/s) = 2.79713 3.86182 3.37176
# Velocity P-wave (km/s) = 5.96845 7.17606 6.59993
#
# Compressibility (1/GPa) = 0.01936991
#
# Stress axis : x y z
#
# Youngs Moduli (GPa) = 92.27678 35.87363 91.71223
#
# Poissons Ratio (x) = 0.37208 0.11255
# Poissons Ratio (y) = 0.95710 0.32318
# Poissons Ratio (z) = 0.11325 0.12641
#
# Static dielectric constant tensor:
#      x y z
#    x 3.723710 0.000000 -0.173150 
#    y 0.000000 3.197880 0.000000 
#    z -0.173150 0.000000 3.695570 
# 
# 
# High freq. dielectric constant tensor:
#      x y z
#    x 1.817080 0.000000 -0.020100 
#    y 0.000000 1.761270 0.000000 
#    z -0.020100 0.000000 1.793190 
# 
# From -- ./inp_files/65298.got.cif
#   From: 2010.06.25/outbox.cif.g09.slc.cpg/sg15_33_cif.got.tgz:65298.got - 2010.06.28 07:06:18.
