data_PCOD8138555
_publ_section_title
;
Structure prediction by ZEFSAII (Michael W. Deem and Ramdas Pophale) SiO2 
 PCOD8138555
Probable space group: C 2/C
;
_chemical_formula_sum "Si O2"
_cell_formula_units_Z 52
_cell_length_a 17.406337
_cell_length_b 20.244021
_cell_length_c 15.890791
_cell_angle_alpha 90.000000
_cell_angle_beta 26.580920
_cell_angle_gamma 90.000000
_cell_volume 2505.562060
_symmetry_space_group_name_H-M "C 2/C"
_symmetry_group_IT_number 15
_symmetry_cell_setting 'monoclinic'
loop_
_space_group_symop_operation_xyz
x,y,z
-x,y,1/2-z
-x,-y,-z
x,-y,1/2+z
1/2+x,1/2+y,z
1/2-x,1/2+y,1/2-z
1/2-x,1/2-y,-z
1/2+x,1/2-y,1/2+z
loop_
_atom_site_type_symbol
_atom_site_label
_atom_site_fract_x
_atom_site_fract_y
_atom_site_fract_z
Si Si1 0.693925 0.587982 0.526383
Si Si2 0.806118 0.664625 0.567106
Si Si3 0.013215 0.217329 0.070466
Si Si4 0.371258 0.151464 0.684662
Si Si5 0.082838 0.806596 0.015284
Si Si6 0.500000 0.639059 0.250000
Si Si7 0.322892 0.944382 0.375195
O O1 0.500000 0.578911 0.750000
O O2 0.824011 0.614714 0.471213
O O3 0.707169 0.638875 0.435208
O O4 0.767138 0.519632 0.420549
O O5 0.895405 0.633201 0.562661
O O6 0.886181 0.736238 0.470010
O O7 0.606501 0.671817 0.778414
O O8 0.017716 0.297619 0.074051
O O9 0.888309 0.197214 0.113982
O O10 0.951949 0.184406 0.217287
O O11 0.202466 0.195182 0.863215
O O12 0.360555 0.083346 0.745274
O O13 0.331595 0.595019 0.429386
O O14 0.500000 0.935695 0.250000
#
# Coordination Sequence:
#
# PCOD8138555 Si02
#       7
#     8   8   8   8   8   4   8
#     4  10  20  38  57  79 117 158 192 231 287 344
#     4   9  18  35  58  85 113 148 187 241 287 337
#     4   9  19  34  57  83 112 146 187 236 294 327
#     4   9  20  36  55  86 114 142 191 240 286 342
#     4   9  18  34  57  87 112 145 191 238 288 338
#     4  10  22  40  58  84 116 156 188 238 286 336
#     4  11  24  39  57  84 118 154 197 230 281 346
#
# _framework density 20.753826
#
# number of rings (size 3 to 8) (size 9 to 14) (size 15 to 20)
#    0.000    2.462    0.769    0.462    3.231    2.462 
#    2.769    3.846    0.000    0.000    0.000    0.000 
#    0.000    0.000    0.000    0.000    0.000    0.000 
#
# Total GULP energy -322258.814271 kJ/mol
# GULP energy per Si atom -12394.569780 kJ/mol
# Density = 2.070659 g / cm^3
# Si number density = 20.753826 Si / 1000 Ang^3
#
#
#
# Elastic Constant Matrix: (Units=GPa)
#
#
# Indices 1 2 3 4 5 6 
#
# 1 115.0612 78.8104 24.3878 -0.0454 9.6751 0.0289
# 2 78.8104 146.1451 21.0974 0.0810 10.4310 -0.1018
# 3 24.3878 21.0974 26.2045 0.0524 0.9551 -0.0407
# 4 -0.0454 0.0810 0.0524 31.4444 -0.0075 4.9760
# 5 9.6751 10.4310 0.9551 -0.0075 24.5734 0.0139
# 6 0.0289 -0.1018 -0.0407 4.9760 0.0139 28.7761
#
#
#
# Elastic Compliance Matrix: (Units=1/GPa)
#
#
# Indices 1 2 3 4 5 6 
#
# 1 0.015515 -0.006896 -0.008784 0.000064 -0.002840 -0.000062
# 2 -0.006896 0.011042 -0.002404 -0.000043 -0.001879 0.000051
# 3 -0.008784 -0.002404 0.048177 -0.000100 0.002606 0.000084
# 4 0.000064 -0.000043 -0.000100 0.032697 0.000010 -0.005654
# 5 -0.002840 -0.001879 0.002606 0.000010 0.042509 -0.000022
# 6 -0.000062 0.000051 0.000084 -0.005654 -0.000022 0.035729
#
#
# Mechanical properties :
#
#
# Convention : Reuss Voigt Hill
#
# Bulk Modulus (GPa) = 25.92905 59.55581 42.74243
# Shear Modulus (GPa) = 21.30439 27.83312 24.56876
#
# Velocity S-wave (km/s) = 3.20742 3.66609 3.44440
# Velocity P-wave (km/s) = 5.12226 6.83219 6.03806
#
# Compressibility (1/GPa) = 0.03856678
#
# Stress axis : x y z
#
# Youngs Moduli (GPa) = 64.45346 90.55985 20.75675
#
# Poissons Ratio (x) = 0.62450 0.18233
# Poissons Ratio (y) = 0.44447 0.04989
# Poissons Ratio (z) = 0.56617 0.21769
#
# Static dielectric constant tensor:
#      x y z
#    x 4.322600 -0.000030 0.111580 
#    y -0.000030 3.708890 0.000180 
#    z 0.111580 0.000180 3.676560 
# 
# 
# High freq. dielectric constant tensor:
#      x y z
#    x 1.820570 0.000000 -0.002730 
#    y 0.000000 1.800190 0.000010 
#    z -0.002730 0.000010 1.806450 
# 
# From -- ./inp_files/48439.got.cif
#   From: 2010.06.25/outbox.cif.g09.slc.cpg/sg15_25_cif.got.tgz:48439.got - 2010.06.28 07:06:18.
