data_PCOD8138983
_publ_section_title
;
Structure prediction by ZEFSAII (Michael W. Deem and Ramdas Pophale) SiO2 
 PCOD8138983
Probable space group: C 2/C
;
_chemical_formula_sum "Si O2"
_cell_formula_units_Z 40
_cell_length_a 11.157765
_cell_length_b 13.690520
_cell_length_c 16.620733
_cell_angle_alpha 90.000000
_cell_angle_beta 45.916727
_cell_angle_gamma 90.000000
_cell_volume 1823.773869
_symmetry_space_group_name_H-M "C 2/C"
_symmetry_group_IT_number 15
_symmetry_cell_setting 'monoclinic'
loop_
_space_group_symop_operation_xyz
x,y,z
-x,y,1/2-z
-x,-y,-z
x,-y,1/2+z
1/2+x,1/2+y,z
1/2-x,1/2+y,1/2-z
1/2-x,1/2-y,-z
1/2+x,1/2-y,1/2+z
loop_
_atom_site_type_symbol
_atom_site_label
_atom_site_fract_x
_atom_site_fract_y
_atom_site_fract_z
Si Si1 0.828443 0.320873 0.851963
Si Si2 0.629868 0.590725 0.933674
Si Si3 0.403313 0.623515 0.907059
Si Si4 0.500000 0.862662 0.250000
Si Si5 0.938199 0.805303 0.655327
Si Si6 0.000000 0.040141 0.250000
O O1 0.871715 0.217616 0.870124
O O2 0.726557 0.295454 0.820177
O O3 0.000000 0.375728 0.750000
O O4 0.733469 0.390632 0.958552
O O5 0.582681 0.636293 0.868076
O O6 0.830630 0.571201 0.837794
O O7 0.500000 0.500000 0.000000
O O8 0.592673 0.664252 0.025031
O O9 0.383874 0.528655 0.859595
O O10 0.516224 0.795240 0.321784
O O11 0.893889 0.890026 0.740908
#
# Coordination Sequence:
#
# PCOD8138983 Si02
#       6
#     8   8   8   4   8   4
#     4  10  20  38  63  93 127 173 220 267 330 395
#     4  11  22  44  67  98 134 173 221 282 324 390
#     4  10  21  37  66  87 126 173 214 272 326 386
#     4  11  24  40  70  95 130 182 218 269 336 404
#     4  10  23  40  65  96 130 171 222 269 329 397
#     4  11  20  40  64  85 126 174 210 275 332 380
#
# _framework density 21.932544
#
# number of rings (size 3 to 8) (size 9 to 14) (size 15 to 20)
#    0.000    1.600    3.000    1.800    0.000    0.000 
#    7.200    1.000    0.000    0.000    0.000    0.000 
#    0.000    0.000    0.000    0.000    0.000    0.000 
#
# Total GULP energy -247781.891554 kJ/mol
# GULP energy per Si atom -12389.094578 kJ/mol
# Density = 2.188262 g / cm^3
# Si number density = 21.932544 Si / 1000 Ang^3
#
#
#
# Elastic Constant Matrix: (Units=GPa)
#
#
# Indices 1 2 3 4 5 6 
#
# 1 161.3018 40.0143 84.5903 0.0000 -4.3317 0.0000
# 2 40.0143 72.1954 39.6982 0.0000 -2.0053 0.0000
# 3 84.5903 39.6982 130.9134 -0.0001 -21.7081 0.0000
# 4 0.0000 0.0000 -0.0001 38.4074 0.0000 6.0674
# 5 -4.3317 -2.0053 -21.7081 0.0000 51.7269 0.0000
# 6 0.0000 0.0000 0.0000 6.0674 0.0000 27.8671
#
#
#
# Elastic Compliance Matrix: (Units=1/GPa)
#
#
# Indices 1 2 3 4 5 6 
#
# 1 0.009836 -0.002214 -0.005978 0.000000 -0.001771 0.000000
# 2 -0.002214 0.017243 -0.003996 0.000000 -0.001194 0.000000
# 3 -0.005978 -0.003996 0.013547 0.000000 0.005030 0.000000
# 4 0.000000 0.000000 0.000000 0.026964 0.000000 -0.005871
# 5 -0.001771 -0.001194 0.005030 0.000000 0.021249 0.000000
# 6 0.000000 0.000000 0.000000 -0.005871 0.000000 0.037163
#
#
# Mechanical properties :
#
#
# Convention : Reuss Voigt Hill
#
# Bulk Modulus (GPa) = 61.53869 77.00181 69.27025
# Shear Modulus (GPa) = 32.09363 36.94078 34.51721
#
# Velocity S-wave (km/s) = 3.82944 4.10846 3.97141
# Velocity P-wave (km/s) = 6.90449 7.59544 7.25819
#
# Compressibility (1/GPa) = 0.01624994
#
# Stress axis : x y z
#
# Youngs Moduli (GPa) = 101.66530 57.99623 73.81570
#
# Poissons Ratio (x) = 0.12839 0.44128
# Poissons Ratio (y) = 0.22506 0.29498
# Poissons Ratio (z) = 0.60776 0.23176
#
# Static dielectric constant tensor:
#      x y z
#    x 4.540230 0.000000 0.141350 
#    y 0.000000 3.894250 0.000000 
#    z 0.141350 0.000000 4.496340 
# 
# 
# High freq. dielectric constant tensor:
#      x y z
#    x 1.873220 0.000000 0.022450 
#    y 0.000000 1.855740 0.000000 
#    z 0.022450 0.000000 1.862590 
# 
# From -- ./inp_files/85749.got.cif
#   From: 2010.06.25/outbox.cif.g09.slc.cpg/sg15_43_cif.got.tgz:85749.got - 2010.06.28 07:06:18.
