data_PCOD8138357
_publ_section_title
;
Structure prediction by ZEFSAII (Michael W. Deem and Ramdas Pophale) SiO2 
 PCOD8138357
Probable space group: C 2/C
;
_chemical_formula_sum "Si O2"
_cell_formula_units_Z 60
_cell_length_a 13.682762
_cell_length_b 11.849117
_cell_length_c 17.638938
_cell_angle_alpha 90.000000
_cell_angle_beta 87.657899
_cell_angle_gamma 90.000000
_cell_volume 2857.388213
_symmetry_space_group_name_H-M "C 2/C"
_symmetry_group_IT_number 15
_symmetry_cell_setting 'monoclinic'
loop_
_space_group_symop_operation_xyz
x,y,z
-x,y,1/2-z
-x,-y,-z
x,-y,1/2+z
1/2+x,1/2+y,z
1/2-x,1/2+y,1/2-z
1/2-x,1/2-y,-z
1/2+x,1/2-y,1/2+z
loop_
_atom_site_type_symbol
_atom_site_label
_atom_site_fract_x
_atom_site_fract_y
_atom_site_fract_z
Si Si1 0.035836 0.236884 0.404752
Si Si2 0.415483 0.058139 0.956767
Si Si3 0.000000 0.874860 0.750000
Si Si4 0.246849 0.823464 0.102382
Si Si5 0.299400 0.082303 0.349673
Si Si6 0.644476 0.557825 0.472823
Si Si7 0.768441 0.866375 0.957933
Si Si8 0.205995 0.043128 0.198377
O O1 0.016118 0.208064 0.319114
O O2 0.137134 0.304818 0.406242
O O3 0.042508 0.121136 0.455580
O O4 0.945330 0.312603 0.436663
O O5 0.391272 0.988656 0.880427
O O6 0.322792 0.054387 0.015894
O O7 0.500000 0.000000 0.000000
O O8 0.904300 0.951808 0.766065
O O9 0.187601 0.714995 0.134785
O O10 0.222648 0.921599 0.162243
O O11 0.207684 0.854178 0.020630
O O12 0.199715 0.038189 0.391520
O O13 0.287491 0.062311 0.260315
O O14 0.635173 0.435584 0.514610
O O15 0.777529 0.858864 0.866630
O O16 0.750000 0.750000 0.000000
#
# Coordination Sequence:
#
# PCOD8138357 Si02
#       8
#     8   8   4   8   8   8   8   8
#     4  11  21  38  66  94 120 161 215 261 303 370
#     4  11  22  39  66  95 123 158 215 263 306 382
#     4  12  24  40  60  94 120 160 220 262 292 382
#     4  10  20  39  66  86 122 168 204 250 317 381
#     4  10  20  37  63  90 123 163 202 258 324 368
#     4   9  18  38  63  89 118 166 211 245 307 379
#     4  10  22  41  63  92 129 169 202 259 325 378
#     4  11  23  40  62  91 125 165 212 255 321 380
#
# _framework density 20.998197999999999
#
# number of rings (size 3 to 8) (size 9 to 14) (size 15 to 20)
#    0.000    1.600    2.667    5.600    1.867    2.133 
#    0.000    7.333    2.933    0.000    0.000    0.000 
#    0.000    0.000    0.000    0.000    0.000    0.000 
#
# Total GULP energy -371844.175317 kJ/mol
# GULP energy per Si atom -12394.805844 kJ/mol
# Density = 2.095040 g / cm^3
# Si number density = 20.998198 Si / 1000 Ang^3
#
#
#
# Elastic Constant Matrix: (Units=GPa)
#
#
# Indices 1 2 3 4 5 6 
#
# 1 88.5273 29.2621 39.9019 0.0000 4.9466 0.0000
# 2 29.2621 90.1873 33.7770 0.0000 12.5407 0.0000
# 3 39.9019 33.7770 140.9163 0.0000 23.6328 0.0000
# 4 0.0000 0.0000 0.0000 32.7449 0.0000 0.9307
# 5 4.9466 12.5407 23.6328 0.0000 30.4308 0.0000
# 6 0.0000 0.0000 0.0000 0.9307 0.0000 33.3908
#
#
#
# Elastic Compliance Matrix: (Units=1/GPa)
#
#
# Indices 1 2 3 4 5 6 
#
# 1 0.013878 -0.003482 -0.003400 0.000000 0.001820 0.000000
# 2 -0.003482 0.013326 -0.001589 0.000000 -0.003692 0.000000
# 3 -0.003400 -0.001589 0.009471 0.000000 -0.006148 0.000000
# 4 0.000000 0.000000 0.000000 0.030563 0.000000 -0.000852
# 5 0.001820 -0.003692 -0.006148 0.000000 0.038861 0.000000
# 6 0.000000 0.000000 0.000000 -0.000852 0.000000 0.029972
#
#
# Mechanical properties :
#
#
# Convention : Reuss Voigt Hill
#
# Bulk Modulus (GPa) = 50.67867 58.39030 54.53449
# Shear Modulus (GPa) = 31.32972 33.75932 32.54452
#
# Velocity S-wave (km/s) = 3.86686 4.01399 3.94111
# Velocity P-wave (km/s) = 6.64259 7.02499 6.83646
#
# Compressibility (1/GPa) = 0.01973217
#
# Stress axis : x y z
#
# Youngs Moduli (GPa) = 72.05702 75.03891 105.58406
#
# Poissons Ratio (x) = 0.26132 0.35900
# Poissons Ratio (y) = 0.25093 0.16778
# Poissons Ratio (z) = 0.24500 0.11924
#
# Static dielectric constant tensor:
#      x y z
#    x 3.877190 0.000000 0.094470 
#    y 0.000000 4.065350 0.000000 
#    z 0.094470 0.000000 3.975800 
# 
# 
# High freq. dielectric constant tensor:
#      x y z
#    x 1.812260 0.000000 0.012350 
#    y 0.000000 1.828530 0.000000 
#    z 0.012350 0.000000 1.827550 
# 
# From -- ./inp_files/204050.got.cif
#   From: 2010.06.25/outbox.cif.g09.slc.cpg/sg15_103_cif.got.tgz:204050.got - 2010.06.28 07:06:18.
