data_PCOD8138502
_publ_section_title
;
Structure prediction by ZEFSAII (Michael W. Deem and Ramdas Pophale) SiO2 
 PCOD8138502
Probable space group: C 2/C
;
_chemical_formula_sum "Si O2"
_cell_formula_units_Z 48
_cell_length_a 8.102817
_cell_length_b 18.353826
_cell_length_c 27.212534
_cell_angle_alpha 90.000000
_cell_angle_beta 35.901022
_cell_angle_gamma 90.000000
_cell_volume 2373.098774
_symmetry_space_group_name_H-M "C 2/C"
_symmetry_group_IT_number 15
_symmetry_cell_setting 'monoclinic'
loop_
_space_group_symop_operation_xyz
x,y,z
-x,y,1/2-z
-x,-y,-z
x,-y,1/2+z
1/2+x,1/2+y,z
1/2-x,1/2+y,1/2-z
1/2-x,1/2-y,-z
1/2+x,1/2-y,1/2+z
loop_
_atom_site_type_symbol
_atom_site_label
_atom_site_fract_x
_atom_site_fract_y
_atom_site_fract_z
Si Si1 0.048615 0.597214 0.097936
Si Si2 0.125078 0.612034 0.500130
Si Si3 0.435268 0.772750 0.565868
Si Si4 0.064534 0.502774 0.290631
Si Si5 0.701965 0.378581 0.429356
Si Si6 0.187129 0.000337 0.118259
O O1 0.869277 0.669525 0.125799
O O2 0.010813 0.579371 0.164587
O O3 0.918477 0.528383 0.101180
O O4 0.374342 0.601158 0.004544
O O5 0.215650 0.626721 0.533686
O O6 0.344729 0.557029 0.419691
O O7 0.106019 0.688750 0.476844
O O8 0.812653 0.576885 0.570246
O O9 0.750000 0.750000 0.500000
O O10 0.244251 0.699865 0.610191
O O11 0.394896 0.485957 0.216288
O O12 0.000000 0.514188 0.250000
O O13 0.885496 0.436915 0.356190
#
# Coordination Sequence:
#
# PCOD8138502 Si02
#       6
#     8   8   8   8   8   8
#     4  10  21  41  63  89 125 163 206 253 312 380
#     4  10  20  37  67  86 126 159 214 248 313 374
#     4   9  21  38  64  89 122 164 209 250 310 383
#     4  12  25  36  60  96 130 153 212 267 314 359
#     4  11  22  39  63  95 121 166 206 258 311 379
#     4  10  22  37  61  96 119 161 200 266 310 365
#
# _framework density 20.226718000000002
#
# number of rings (size 3 to 8) (size 9 to 14) (size 15 to 20)
#    0.000    1.667    1.667    2.500    9.333    0.000 
#    0.000    3.333    0.000    0.000    0.000    0.000 
#    0.000    0.000    0.000    0.000    0.000    0.000 
#
# Total GULP energy -297457.134893 kJ/mol
# GULP energy per Si atom -12394.047287 kJ/mol
# Density = 2.018068 g / cm^3
# Si number density = 20.226718 Si / 1000 Ang^3
#
#
#
# Elastic Constant Matrix: (Units=GPa)
#
#
# Indices 1 2 3 4 5 6 
#
# 1 129.6579 60.8497 42.9390 -0.0885 21.7941 -0.0012
# 2 60.8497 124.8265 54.7879 0.0006 13.9487 -0.0111
# 3 42.9390 54.7879 119.9581 -0.0757 -0.8105 0.0547
# 4 -0.0885 0.0006 -0.0757 10.9141 0.1595 0.7322
# 5 21.7941 13.9487 -0.8105 0.1595 35.3991 -0.0249
# 6 -0.0012 -0.0111 0.0547 0.7322 -0.0249 31.7367
#
#
#
# Elastic Compliance Matrix: (Units=1/GPa)
#
#
# Indices 1 2 3 4 5 6 
#
# 1 0.011185 -0.003843 -0.002285 0.000155 -0.005425 -0.000005
# 2 -0.003843 0.011958 -0.004102 -0.000025 -0.002439 0.000010
# 3 -0.002285 -0.004102 0.011050 0.000012 0.003276 -0.000018
# 4 0.000155 -0.000025 0.000012 0.091776 -0.000500 -0.002118
# 5 -0.005425 -0.002439 0.003276 -0.000500 0.032628 0.000030
# 6 -0.000005 0.000010 -0.000018 -0.002118 0.000030 0.031558
#
#
# Mechanical properties :
#
#
# Convention : Reuss Voigt Hill
#
# Bulk Modulus (GPa) = 72.82382 76.84397 74.83390
# Shear Modulus (GPa) = 23.23506 30.00104 26.61805
#
# Velocity S-wave (km/s) = 3.39297 3.85546 3.63159
# Velocity P-wave (km/s) = 7.17158 7.60876 7.39340
#
# Compressibility (1/GPa) = 0.01373177
#
# Stress axis : x y z
#
# Youngs Moduli (GPa) = 89.40582 83.62786 90.49911
#
# Poissons Ratio (x) = 0.32141 0.20678
# Poissons Ratio (y) = 0.34362 0.37124
# Poissons Ratio (z) = 0.20428 0.34306
#
# Static dielectric constant tensor:
#      x y z
#    x 3.953860 0.000750 0.152910 
#    y 0.000750 4.280060 0.002120 
#    z 0.152910 0.002120 3.800380 
# 
# 
# High freq. dielectric constant tensor:
#      x y z
#    x 1.809850 0.000000 0.003700 
#    y 0.000000 1.790170 -0.000010 
#    z 0.003700 -0.000010 1.763910 
# 
# From -- ./inp_files/308910.got.cif
#   From: 2010.06.25/outbox.cif.g09.slc.cpg/sg15_155_cif.got.tgz:308910.got - 2010.06.28 07:06:18.
