data_PCOD8138669
_publ_section_title
;
Structure prediction by ZEFSAII (Michael W. Deem and Ramdas Pophale) SiO2 
 PCOD8138669
Probable space group: C 2/C
;
_chemical_formula_sum "Si O2"
_cell_formula_units_Z 64
_cell_length_a 11.222751
_cell_length_b 20.370395
_cell_length_c 14.899134
_cell_angle_alpha 90.000000
_cell_angle_beta 86.877200
_cell_angle_gamma 90.000000
_cell_volume 3401.061055
_symmetry_space_group_name_H-M "C 2/C"
_symmetry_group_IT_number 15
_symmetry_cell_setting 'monoclinic'
loop_
_space_group_symop_operation_xyz
x,y,z
-x,y,1/2-z
-x,-y,-z
x,-y,1/2+z
1/2+x,1/2+y,z
1/2-x,1/2+y,1/2-z
1/2-x,1/2-y,-z
1/2+x,1/2-y,1/2+z
loop_
_atom_site_type_symbol
_atom_site_label
_atom_site_fract_x
_atom_site_fract_y
_atom_site_fract_z
Si Si1 0.366423 0.894677 0.231523
Si Si2 0.869566 0.548069 0.218750
Si Si3 0.840753 0.343521 0.035302
Si Si4 0.141140 0.868627 0.743718
Si Si5 0.621371 0.696035 0.061561
Si Si6 0.049879 0.428955 0.976759
Si Si7 0.636744 0.692179 0.427042
Si Si8 0.191488 0.337408 0.091068
O O1 0.500000 0.870957 0.250000
O O2 0.328997 0.876769 0.132651
O O3 0.281745 0.855559 0.305941
O O4 0.355783 0.972158 0.242800
O O5 0.745504 0.578425 0.262352
O O6 0.869321 0.565577 0.114047
O O7 0.000000 0.573394 0.250000
O O8 0.859458 0.266754 0.042810
O O9 0.721353 0.354393 0.982515
O O10 0.942612 0.377124 0.970591
O O11 0.178485 0.837264 0.647072
O O12 0.158632 0.813240 0.819268
O O13 0.000000 0.893719 0.750000
O O14 0.493938 0.664289 0.047593
O O15 0.606420 0.773899 0.083006
O O16 0.690243 0.681197 0.967308
O O17 0.130523 0.403180 0.055054
O O18 0.000000 0.500000 0.000000
#
# Coordination Sequence:
#
# PCOD8138669 Si02
#       8
#     8   8   8   8   8   8   8   8
#     4  11  20  37  58  84 115 154 200 246 291 356
#     4  11  22  37  58  89 119 150 201 251 301 354
#     4  11  21  36  57  88 119 151 196 244 305 353
#     4  10  21  39  59  83 117 160 197 240 297 366
#     4  10  20  38  60  85 115 155 204 243 291 360
#     4  12  20  36  60  86 116 149 190 252 294 340
#     4  10  21  36  57  85 121 154 189 246 299 358
#     4  11  21  35  61  85 114 151 203 246 289 344
#
# _framework density 18.817657000000001
#
# number of rings (size 3 to 8) (size 9 to 14) (size 15 to 20)
#    0.000    1.250    5.000    2.250    0.000    1.000 
#    0.000    1.875    0.000    3.750    0.000    0.000 
#    0.000    0.000    0.000    0.000    0.000    0.000 
#
# Total GULP energy -396512.602298 kJ/mol
# GULP energy per Si atom -12391.018822 kJ/mol
# Density = 1.877483 g / cm^3
# Si number density = 18.817657 Si / 1000 Ang^3
#
#
#
# Elastic Constant Matrix: (Units=GPa)
#
#
# Indices 1 2 3 4 5 6 
#
# 1 85.0242 28.8732 38.8424 0.0000 3.3994 0.0000
# 2 28.8732 74.5847 20.4700 0.0000 -6.7509 0.0000
# 3 38.8424 20.4700 93.8925 0.0000 -8.3596 0.0000
# 4 0.0000 0.0000 0.0000 31.9361 0.0000 -3.6710
# 5 3.3994 -6.7509 -8.3596 0.0000 31.5453 0.0000
# 6 0.0000 0.0000 0.0000 -3.6710 0.0000 24.7344
#
#
#
# Elastic Compliance Matrix: (Units=1/GPa)
#
#
# Indices 1 2 3 4 5 6 
#
# 1 0.016458 -0.005104 -0.006095 0.000000 -0.004481 0.000000
# 2 -0.005104 0.016006 -0.001049 0.000000 0.003697 0.000000
# 3 -0.006095 -0.001049 0.013764 0.000000 0.004080 0.000000
# 4 0.000000 0.000000 0.000000 0.031856 0.000000 0.004728
# 5 -0.004481 0.003697 0.004080 0.000000 0.034056 0.000000
# 6 0.000000 0.000000 0.000000 0.004728 0.000000 0.041131
#
#
# Mechanical properties :
#
#
# Convention : Reuss Voigt Hill
#
# Bulk Modulus (GPa) = 46.01416 47.76361 46.88888
# Shear Modulus (GPa) = 27.02551 28.66422 27.84486
#
# Velocity S-wave (km/s) = 3.79381 3.90713 3.85089
# Velocity P-wave (km/s) = 6.61032 6.76696 6.68910
#
# Compressibility (1/GPa) = 0.02173244
#
# Stress axis : x y z
#
# Youngs Moduli (GPa) = 60.76027 62.47655 72.65480
#
# Poissons Ratio (x) = 0.31889 0.44281
# Poissons Ratio (y) = 0.31013 0.07620
# Poissons Ratio (z) = 0.37032 0.06553
#
# Static dielectric constant tensor:
#      x y z
#    x 3.681260 0.000000 -0.165180 
#    y 0.000000 3.403560 0.000000 
#    z -0.165180 0.000000 4.035400 
# 
# 
# High freq. dielectric constant tensor:
#      x y z
#    x 1.721580 0.000000 -0.004000 
#    y 0.000000 1.721810 0.000000 
#    z -0.004000 0.000000 1.742130 
# 
# From -- ./inp_files/146065.got.cif
#   From: 2010.06.25/outbox.cif.g09.slc.cpg/sg15_74_cif.got.tgz:146065.got - 2010.06.28 07:06:18.
