data_PCOD8138716
_publ_section_title
;
Structure prediction by ZEFSAII (Michael W. Deem and Ramdas Pophale) SiO2 
 PCOD8138716
Probable space group: C 2/C
;
_chemical_formula_sum "Si O2"
_cell_formula_units_Z 48
_cell_length_a 26.740622
_cell_length_b 5.280193
_cell_length_c 26.199166
_cell_angle_alpha 90.000000
_cell_angle_beta 151.073308
_cell_angle_gamma 90.000000
_cell_volume 1789.270644
_symmetry_space_group_name_H-M "C 2/C"
_symmetry_group_IT_number 15
_symmetry_cell_setting 'monoclinic'
loop_
_space_group_symop_operation_xyz
x,y,z
-x,y,1/2-z
-x,-y,-z
x,-y,1/2+z
1/2+x,1/2+y,z
1/2-x,1/2+y,1/2-z
1/2-x,1/2-y,-z
1/2+x,1/2-y,1/2+z
loop_
_atom_site_type_symbol
_atom_site_label
_atom_site_fract_x
_atom_site_fract_y
_atom_site_fract_z
Si Si1 0.094968 0.375336 0.373397
Si Si2 0.710985 0.476059 0.687781
Si Si3 0.204454 0.854309 0.318030
Si Si4 0.376427 0.632094 0.641944
Si Si5 0.975757 0.059837 0.918812
Si Si6 0.919711 0.576330 0.523669
O O1 0.163798 0.129829 0.419651
O O2 0.050502 0.383804 0.390692
O O3 0.000000 0.407250 0.250000
O O4 0.164044 0.631433 0.428703
O O5 0.763062 0.730739 0.754144
O O6 0.750241 0.408837 0.665732
O O7 0.584509 0.510805 0.579655
O O8 0.297683 0.051478 0.406893
O O9 0.156725 0.808317 0.330425
O O10 0.119000 0.976453 0.205222
O O11 0.500000 0.603565 0.750000
O O12 0.057558 0.839511 0.982870
O O13 0.020950 0.341689 0.950129
#
# Coordination Sequence:
#
# PCOD8138716 Si02
#       6
#     8   8   8   8   8   8
#     4  10  20  38  60  92 131 172 221 275 338 405
#     4  10  23  43  71 101 139 188 232 291 361 420
#     4  11  26  45  71 103 138 182 240 290 348 427
#     4  10  21  38  64  91 131 178 220 281 345 405
#     4  11  24  46  68  99 143 180 227 294 355 413
#     4  12  26  42  72 104 135 187 235 283 355 424
#
# _framework density 26.826571999999999
#
# number of rings (size 3 to 8) (size 9 to 14) (size 15 to 20)
#    0.000    1.333    0.000    7.000    0.000   10.667 
#    0.000    0.000    0.000    0.000    0.000    0.000 
#    0.000    0.000    0.000    0.000    0.000    0.000 
#
# Total GULP energy -297536.296869 kJ/mol
# GULP energy per Si atom -12397.345703 kJ/mol
# Density = 2.676551 g / cm^3
# Si number density = 26.826572 Si / 1000 Ang^3
#
#
#
# Elastic Constant Matrix: (Units=GPa)
#
#
# Indices 1 2 3 4 5 6 
#
# 1 236.3193 66.9051 26.5417 0.0062 -6.1419 -0.0078
# 2 66.9051 184.7786 14.1894 -0.0073 -7.9904 0.0057
# 3 26.5417 14.1894 92.8620 -0.0025 9.7538 0.0065
# 4 0.0062 -0.0073 -0.0025 28.4390 0.0042 18.6216
# 5 -6.1419 -7.9904 9.7538 0.0042 41.9173 0.0038
# 6 -0.0078 0.0057 0.0065 18.6216 0.0038 45.5839
#
#
#
# Elastic Compliance Matrix: (Units=1/GPa)
#
#
# Indices 1 2 3 4 5 6 
#
# 1 0.004847 -0.001633 -0.001207 -0.000003 0.000680 0.000003
# 2 -0.001633 0.006093 -0.000575 0.000003 0.001056 -0.000002
# 3 -0.001207 -0.000575 0.011513 0.000004 -0.002966 -0.000003
# 4 -0.000003 0.000003 0.000004 0.048004 -0.000004 -0.019610
# 5 0.000680 0.001056 -0.002966 -0.000004 0.024847 0.000000
# 6 0.000003 -0.000002 -0.000003 -0.019610 0.000000 0.029949
#
#
# Mechanical properties :
#
#
# Convention : Reuss Voigt Hill
#
# Bulk Modulus (GPa) = 64.01100 81.02584 72.51842
# Shear Modulus (GPa) = 36.41896 50.27627 43.34762
#
# Velocity S-wave (km/s) = 3.68852 4.33381 4.02412
# Velocity P-wave (km/s) = 6.48483 7.43718 6.97728
#
# Compressibility (1/GPa) = 0.01562232
#
# Stress axis : x y z
#
# Youngs Moduli (GPa) = 206.30730 164.12322 86.85747
#
# Poissons Ratio (x) = 0.26801 0.10486
# Poissons Ratio (y) = 0.33689 0.04996
# Poissons Ratio (z) = 0.24907 0.09441
#
# Static dielectric constant tensor:
#      x y z
#    x 5.305200 0.000030 0.070710 
#    y 0.000030 6.454520 0.000080 
#    z 0.070710 0.000080 5.205830 
# 
# 
# High freq. dielectric constant tensor:
#      x y z
#    x 2.095260 0.000000 -0.003510 
#    y 0.000000 2.095170 0.000000 
#    z -0.003510 0.000000 2.111790 
# 
# From -- ./inp_files/319346.got.cif
#   From: 2010.06.25/outbox.cif.g09.slc.cpg/sg15_160_cif.got.tgz:319346.got - 2010.06.28 07:06:18.
