data_PCOD8138373
_publ_section_title
;
Structure prediction by ZEFSAII (Michael W. Deem and Ramdas Pophale) SiO2 
 PCOD8138373
Probable space group: C 2/C
;
_chemical_formula_sum "Si O2"
_cell_formula_units_Z 56
_cell_length_a 23.144104
_cell_length_b 5.467777
_cell_length_c 21.517965
_cell_angle_alpha 90.000000
_cell_angle_beta 77.791336
_cell_angle_gamma 90.000000
_cell_volume 2661.445369
_symmetry_space_group_name_H-M "C 2/C"
_symmetry_group_IT_number 15
_symmetry_cell_setting 'monoclinic'
loop_
_space_group_symop_operation_xyz
x,y,z
-x,y,1/2-z
-x,-y,-z
x,-y,1/2+z
1/2+x,1/2+y,z
1/2-x,1/2+y,1/2-z
1/2-x,1/2-y,-z
1/2+x,1/2-y,1/2+z
loop_
_atom_site_type_symbol
_atom_site_label
_atom_site_fract_x
_atom_site_fract_y
_atom_site_fract_z
Si Si1 0.584146 0.625015 0.357881
Si Si2 0.523019 0.922010 0.092555
Si Si3 0.852893 0.212697 0.738612
Si Si4 0.364237 0.977452 0.855883
Si Si5 0.328547 0.990109 0.627541
Si Si6 0.063222 0.249328 0.959623
Si Si7 0.302716 0.491792 0.863631
O O1 0.528607 0.796673 0.354846
O O2 0.588450 0.420539 0.302713
O O3 0.647517 0.761159 0.346616
O O4 0.572762 0.519453 0.429775
O O5 0.571164 0.015915 0.129756
O O6 0.495152 0.145503 0.060767
O O7 0.553377 0.736855 0.035890
O O8 0.871733 0.439023 0.779353
O O9 0.816908 0.300216 0.686389
O O10 0.813345 0.020603 0.786821
O O11 0.328860 0.229182 0.879429
O O12 0.332333 0.730671 0.890469
O O13 0.266829 0.012670 0.605347
O O14 0.378263 0.908397 0.567244
#
# Coordination Sequence:
#
# PCOD8138373 Si02
#       7
#     8   8   8   8   8   8   8
#     4  10  20  37  63  93 119 161 211 266 312 364
#     4  10  21  42  63  88 127 163 217 261 312 379
#     4   9  22  35  60  92 122 164 207 250 320 369
#     4  10  24  40  61  92 127 169 202 251 326 375
#     4  10  21  38  61  94 124 159 219 258 309 374
#     4   9  21  39  66  91 115 167 214 268 315 358
#     4  10  24  39  63  91 128 168 205 253 316 378
#
# _framework density 21.041198000000001
#
# number of rings (size 3 to 8) (size 9 to 14) (size 15 to 20)
#    0.857    1.429    0.000    1.286   10.000    0.000 
#    0.000   18.571    0.000    0.000    0.000    0.000 
#    0.000    0.000    0.000    0.000    0.000    0.000 
#
# Total GULP energy -346924.861338 kJ/mol
# GULP energy per Si atom -12390.173619 kJ/mol
# Density = 2.099331 g / cm^3
# Si number density = 21.041198 Si / 1000 Ang^3
#
#
#
# Elastic Constant Matrix: (Units=GPa)
#
#
# Indices 1 2 3 4 5 6 
#
# 1 146.1226 53.7166 19.4348 0.0000 -0.0537 0.0000
# 2 53.7166 116.8595 5.5204 0.0000 -1.6088 0.0000
# 3 19.4348 5.5204 33.2894 0.0000 -8.1725 0.0000
# 4 0.0000 0.0000 0.0000 20.2847 0.0000 -2.5903
# 5 -0.0537 -1.6088 -8.1725 0.0000 16.8762 0.0000
# 6 0.0000 0.0000 0.0000 -2.5903 0.0000 21.7870
#
#
#
# Elastic Compliance Matrix: (Units=1/GPa)
#
#
# Indices 1 2 3 4 5 6 
#
# 1 0.008991 -0.003922 -0.005316 0.000000 -0.002919 0.000000
# 2 -0.003922 0.010336 0.000924 0.000000 0.001421 0.000000
# 3 -0.005316 0.000924 0.037461 0.000000 0.018212 0.000000
# 4 0.000000 0.000000 0.000000 0.050058 0.000000 0.005951
# 5 -0.002919 0.001421 0.018212 0.000000 0.068201 0.000000
# 6 0.000000 0.000000 0.000000 0.005951 0.000000 0.046607
#
#
# Mechanical properties :
#
#
# Convention : Reuss Voigt Hill
#
# Bulk Modulus (GPa) = 24.89940 50.40168 37.65054
# Shear Modulus (GPa) = 19.86754 26.29622 23.08188
#
# Velocity S-wave (km/s) = 3.07615 3.53901 3.31567
# Velocity P-wave (km/s) = 4.94735 6.38007 5.70883
#
# Compressibility (1/GPa) = 0.04016161
#
# Stress axis : x y z
#
# Youngs Moduli (GPa) = 111.21863 96.74889 26.69472
#
# Poissons Ratio (x) = 0.37946 0.14190
# Poissons Ratio (y) = 0.43621 -0.02468
# Poissons Ratio (z) = 0.59119 -0.08944
#
# Static dielectric constant tensor:
#      x y z
#    x 3.509680 0.000000 -0.209530 
#    y 0.000000 3.885970 0.000000 
#    z -0.209530 0.000000 3.568510 
# 
# 
# High freq. dielectric constant tensor:
#      x y z
#    x 1.808020 0.000000 -0.020200 
#    y 0.000000 1.830330 0.000000 
#    z -0.020200 0.000000 1.799100 
# 
# From -- ./inp_files/278629.got.cif
#   From: 2010.06.25/outbox.cif.g09.slc.cpg/sg15_140_cif.got.tgz:278629.got - 2010.06.28 07:06:18.
