data_PCOD8138694
_publ_section_title
;
Structure prediction by ZEFSAII (Michael W. Deem and Ramdas Pophale) SiO2 
 PCOD8138694
Probable space group: C 2/C
;
_chemical_formula_sum "Si O2"
_cell_formula_units_Z 44
_cell_length_a 7.208586
_cell_length_b 17.607923
_cell_length_c 19.497255
_cell_angle_alpha 90.000000
_cell_angle_beta 113.856896
_cell_angle_gamma 90.000000
_cell_volume 2263.305457
_symmetry_space_group_name_H-M "C 2/C"
_symmetry_group_IT_number 15
_symmetry_cell_setting 'monoclinic'
loop_
_space_group_symop_operation_xyz
x,y,z
-x,y,1/2-z
-x,-y,-z
x,-y,1/2+z
1/2+x,1/2+y,z
1/2-x,1/2+y,1/2-z
1/2-x,1/2-y,-z
1/2+x,1/2-y,1/2+z
loop_
_atom_site_type_symbol
_atom_site_label
_atom_site_fract_x
_atom_site_fract_y
_atom_site_fract_z
Si Si1 0.015598 0.045648 0.071895
Si Si2 0.323873 0.496807 0.178947
Si Si3 0.532696 0.713677 0.479933
Si Si4 0.401701 0.255918 0.110198
Si Si5 0.000000 0.851698 0.250000
Si Si6 0.048108 0.407879 0.834132
O O1 0.243941 0.045723 0.133697
O O2 0.875581 0.002768 0.106243
O O3 0.945001 0.131704 0.050889
O O4 0.000000 0.000000 0.000000
O O5 0.500000 0.539263 0.250000
O O6 0.311983 0.408435 0.203143
O O7 0.109993 0.533795 0.158885
O O8 0.750000 0.750000 0.500000
O O9 0.481174 0.706274 0.552532
O O10 0.344971 0.761833 0.418295
O O11 0.528243 0.297826 0.188656
O O12 0.452993 0.166409 0.118146
O O13 0.000000 0.382040 0.750000
#
# Coordination Sequence:
#
# PCOD8138694 Si02
#       6
#     8   8   8   8   4   8
#     4  11  23  39  61  89 122 159 203 251 303 361
#     4  10  22  37  59  87 118 154 202 246 298 364
#     4  10  22  39  58  86 118 157 201 246 299 361
#     4  10  21  38  60  84 119 156 199 249 302 356
#     4  10  20  38  60  88 120 154 198 254 300 350
#     4  11  20  38  62  85 119 164 202 248 306 361
#
# _framework density 19.440594000000001
#
# number of rings (size 3 to 8) (size 9 to 14) (size 15 to 20)
#    0.545    1.091    2.727    2.182    0.000    2.182 
#    0.000    2.727    0.000    0.000    0.000    0.000 
#    0.000    0.000    0.000    0.000    0.000    0.000 
#
# Total GULP energy -272683.241008 kJ/mol
# GULP energy per Si atom -12394.692773 kJ/mol
# Density = 1.939635 g / cm^3
# Si number density = 19.440594 Si / 1000 Ang^3
#
#
#
# Elastic Constant Matrix: (Units=GPa)
#
#
# Indices 1 2 3 4 5 6 
#
# 1 102.1465 43.9304 33.0681 0.0000 5.9182 0.0000
# 2 43.9304 80.1360 31.9809 0.0000 5.5968 0.0000
# 3 33.0681 31.9809 109.6653 0.0000 -9.1672 0.0000
# 4 0.0000 0.0000 0.0000 35.6506 0.0000 -3.1553
# 5 5.9182 5.5968 -9.1672 0.0000 29.3228 0.0000
# 6 0.0000 0.0000 0.0000 -3.1553 0.0000 16.9022
#
#
#
# Elastic Compliance Matrix: (Units=1/GPa)
#
#
# Indices 1 2 3 4 5 6 
#
# 1 0.013373 -0.006210 -0.002411 0.000000 -0.002267 0.000000
# 2 -0.006210 0.017501 -0.003497 0.000000 -0.003180 0.000000
# 3 -0.002411 -0.003497 0.011256 0.000000 0.004673 0.000000
# 4 0.000000 0.000000 0.000000 0.028521 0.000000 0.005324
# 5 -0.002267 -0.003180 0.004673 0.000000 0.036629 0.000000
# 6 0.000000 0.000000 0.000000 0.005324 0.000000 0.060158
#
#
# Mechanical properties :
#
#
# Convention : Reuss Voigt Hill
#
# Bulk Modulus (GPa) = 55.88621 56.65630 56.27126
# Shear Modulus (GPa) = 25.29883 28.57304 26.93593
#
# Velocity S-wave (km/s) = 3.61132 3.83791 3.72634
# Velocity P-wave (km/s) = 6.79694 6.98899 6.89363
#
# Compressibility (1/GPa) = 0.01789350
#
# Stress axis : x y z
#
# Youngs Moduli (GPa) = 74.77989 57.13975 88.84178
#
# Poissons Ratio (x) = 0.35486 0.21418
# Poissons Ratio (y) = 0.46441 0.31067
# Poissons Ratio (z) = 0.18028 0.19981
#
# Static dielectric constant tensor:
#      x y z
#    x 3.404170 0.000000 0.043230 
#    y 0.000000 3.503060 0.000000 
#    z 0.043230 0.000000 3.800550 
# 
# 
# High freq. dielectric constant tensor:
#      x y z
#    x 1.739140 0.000000 -0.000340 
#    y 0.000000 1.755340 0.000000 
#    z -0.000340 0.000000 1.772760 
# 
# From -- ./inp_files/227260.got.cif
#   From: 2010.06.25/outbox.cif.g09.slc.cpg/sg15_114_cif.got.tgz:227260.got - 2010.06.28 07:06:18.
