data_PCOD8138257
_publ_section_title
;
Structure prediction by ZEFSAII (Michael W. Deem and Ramdas Pophale) SiO2 
 PCOD8138257
Probable space group: C 2/C
;
_chemical_formula_sum "Si O2"
_cell_formula_units_Z 48
_cell_length_a 25.449781
_cell_length_b 9.684967
_cell_length_c 13.682566
_cell_angle_alpha 90.000000
_cell_angle_beta 42.896093
_cell_angle_gamma 90.000000
_cell_volume 2295.550970
_symmetry_space_group_name_H-M "C 2/C"
_symmetry_group_IT_number 15
_symmetry_cell_setting 'monoclinic'
loop_
_space_group_symop_operation_xyz
x,y,z
-x,y,1/2-z
-x,-y,-z
x,-y,1/2+z
1/2+x,1/2+y,z
1/2-x,1/2+y,1/2-z
1/2-x,1/2-y,-z
1/2+x,1/2-y,1/2+z
loop_
_atom_site_type_symbol
_atom_site_label
_atom_site_fract_x
_atom_site_fract_y
_atom_site_fract_z
Si Si1 0.113099 0.630871 0.986748
Si Si2 0.667317 0.877968 0.207796
Si Si3 0.584662 0.652945 0.677599
Si Si4 0.942601 0.639134 0.131197
Si Si5 0.070835 0.655389 0.578023
Si Si6 0.657853 0.360523 0.574936
O O1 0.132193 0.754020 0.035313
O O2 0.123775 0.481703 0.024715
O O3 0.025195 0.615991 0.068126
O O4 0.170865 0.655545 0.818229
O O5 0.636652 0.743354 0.192483
O O6 0.612437 0.010351 0.266647
O O7 0.753403 0.904997 0.052714
O O8 0.500000 0.647392 0.750000
O O9 0.592278 0.722925 0.773556
O O10 0.612968 0.500109 0.653939
O O11 0.956140 0.661381 0.997908
O O12 0.126943 0.786350 0.518949
O O13 0.000000 0.659804 0.750000
#
# Coordination Sequence:
#
# PCOD8138257 Si02
#       6
#     8   8   8   8   8   8
#     4  10  20  37  62  84 109 145 191 234 273 326
#     4  10  22  39  58  80 112 153 191 226 269 333
#     4  10  22  38  58  86 115 144 182 233 284 329
#     4  10  21  39  61  84 109 146 191 231 275 328
#     4  11  20  36  62  84 109 145 189 233 274 329
#     4  11  23  37  55  84 118 149 183 227 282 332
#
# _framework density 20.910012999999999
#
# number of rings (size 3 to 8) (size 9 to 14) (size 15 to 20)
#    0.000    1.667    0.000    7.000    0.000    4.667 
#    0.000    7.500    0.000    0.000    0.000    0.000 
#    0.000    0.000    0.000    0.000    0.000    0.000 
#
# Total GULP energy -297477.697986 kJ/mol
# GULP energy per Si atom -12394.904083 kJ/mol
# Density = 2.086242 g / cm^3
# Si number density = 20.910013 Si / 1000 Ang^3
#
#
#
# Elastic Constant Matrix: (Units=GPa)
#
#
# Indices 1 2 3 4 5 6 
#
# 1 51.5584 43.3145 35.5851 0.0000 20.4182 0.0000
# 2 43.3145 165.9212 52.9865 0.0001 22.6447 -0.0001
# 3 35.5851 52.9865 96.3925 0.0000 29.2635 0.0000
# 4 0.0000 0.0001 0.0000 22.9500 0.0000 2.7710
# 5 20.4182 22.6447 29.2635 0.0000 20.5453 0.0000
# 6 0.0000 -0.0001 0.0000 2.7710 0.0000 24.5192
#
#
#
# Elastic Compliance Matrix: (Units=1/GPa)
#
#
# Indices 1 2 3 4 5 6 
#
# 1 0.035759 -0.004929 -0.002382 0.000000 -0.026712 0.000000
# 2 -0.004929 0.008192 -0.002519 0.000000 -0.000544 0.000000
# 3 -0.002382 -0.002519 0.019515 0.000000 -0.022653 0.000000
# 4 0.000000 0.000000 0.000000 0.044176 0.000000 -0.004993
# 5 -0.026712 -0.000544 -0.022653 0.000000 0.108084 0.000000
# 6 0.000000 0.000000 0.000000 -0.004993 0.000000 0.041349
#
#
# Mechanical properties :
#
#
# Convention : Reuss Voigt Hill
#
# Bulk Modulus (GPa) = 22.82732 64.18271 43.50502
# Shear Modulus (GPa) = 17.16226 25.73529 21.44878
#
# Velocity S-wave (km/s) = 2.86801 3.51203 3.20623
# Velocity P-wave (km/s) = 4.68059 6.87075 5.87857
#
# Compressibility (1/GPa) = 0.04380715
#
# Stress axis : x y z
#
# Youngs Moduli (GPa) = 27.96509 122.06875 51.24175
#
# Poissons Ratio (x) = 0.60163 0.12208
# Poissons Ratio (y) = 0.13783 0.12906
# Poissons Ratio (z) = 0.06662 0.30744
#
# Static dielectric constant tensor:
#      x y z
#    x 3.754250 0.000000 0.251790 
#    y 0.000000 3.670400 0.000000 
#    z 0.251790 0.000000 3.892560 
# 
# 
# High freq. dielectric constant tensor:
#      x y z
#    x 1.807210 0.000000 0.016070 
#    y 0.000000 1.826940 0.000000 
#    z 0.016070 0.000000 1.819630 
# 
# From -- ./inp_files/180699.got.cif
#   From: 2010.06.25/outbox.cif.g09.slc.cpg/sg15_91_cif.got.tgz:180699.got - 2010.06.28 07:06:18.
