data_PCOD8138658
_publ_section_title
;
Structure prediction by ZEFSAII (Michael W. Deem and Ramdas Pophale) SiO2 
 PCOD8138658
Probable space group: C 2/C
;
_chemical_formula_sum "Si O2"
_cell_formula_units_Z 64
_cell_length_a 15.662483
_cell_length_b 13.691597
_cell_length_c 15.829130
_cell_angle_alpha 90.000000
_cell_angle_beta 77.754836
_cell_angle_gamma 90.000000
_cell_volume 3317.240858
_symmetry_space_group_name_H-M "C 2/C"
_symmetry_group_IT_number 15
_symmetry_cell_setting 'monoclinic'
loop_
_space_group_symop_operation_xyz
x,y,z
-x,y,1/2-z
-x,-y,-z
x,-y,1/2+z
1/2+x,1/2+y,z
1/2-x,1/2+y,1/2-z
1/2-x,1/2-y,-z
1/2+x,1/2-y,1/2+z
loop_
_atom_site_type_symbol
_atom_site_label
_atom_site_fract_x
_atom_site_fract_y
_atom_site_fract_z
Si Si1 0.816864 0.127511 0.916108
Si Si2 0.551858 0.716186 0.108546
Si Si3 0.814110 0.390376 0.194069
Si Si4 0.868910 0.186318 0.227567
Si Si5 0.904320 0.029692 0.495358
Si Si6 0.966814 0.399704 0.046474
Si Si7 0.335884 0.164384 0.430230
Si Si8 0.260350 0.472252 0.661685
O O1 0.759636 0.078430 0.856044
O O2 0.859867 0.231532 0.881301
O O3 0.761037 0.158454 0.009669
O O4 0.886263 0.043776 0.921689
O O5 0.457899 0.674257 0.155771
O O6 0.613062 0.716096 0.178909
O O7 0.541148 0.822884 0.064791
O O8 0.596941 0.642598 0.032972
O O9 0.813485 0.273666 0.199190
O O10 0.908130 0.426938 0.140264
O O11 0.789848 0.436612 0.287923
O O12 0.810226 0.090478 0.223885
O O13 0.831510 0.015345 0.582235
O O14 0.000000 0.000000 0.500000
O O15 0.909803 0.351313 0.984695
O O16 0.000000 0.500000 0.000000
O O17 0.324040 0.083238 0.360241
#
# Coordination Sequence:
#
# PCOD8138658 Si02
#       8
#     8   8   8   8   8   8   8   8
#     4   9  17  33  58  82 109 147 187 230 280 348
#     4  10  21  37  58  86 116 150 194 240 289 351
#     4  10  21  38  58  83 112 153 193 233 287 345
#     4  10  20  38  60  82 115 157 190 234 294 350
#     4  11  20  34  59  89 117 145 187 238 297 346
#     4  10  22  40  60  81 112 157 200 233 280 345
#     4   9  18  33  59  82 108 146 194 229 274 338
#     4  11  21  36  60  87 117 147 192 244 288 344
#
# _framework density 19.293142
#
# number of rings (size 3 to 8) (size 9 to 14) (size 15 to 20)
#    0.000    2.000    2.500    1.500    5.250    0.000 
#    2.250    0.625    0.000    1.500    0.000    0.000 
#    0.000    0.000    0.000    0.000    0.000    0.000 
#
# Total GULP energy -396480.272102 kJ/mol
# GULP energy per Si atom -12390.008503 kJ/mol
# Density = 1.924923 g / cm^3
# Si number density = 19.293142 Si / 1000 Ang^3
#
#
#
# Elastic Constant Matrix: (Units=GPa)
#
#
# Indices 1 2 3 4 5 6 
#
# 1 63.1834 37.4105 36.9751 0.0000 10.5980 0.0000
# 2 37.4105 113.4744 52.3618 0.0000 -10.2278 0.0000
# 3 36.9751 52.3618 81.2852 0.0000 3.0721 0.0000
# 4 0.0000 0.0000 0.0000 38.6825 0.0000 1.6759
# 5 10.5980 -10.2278 3.0721 0.0000 28.1005 0.0000
# 6 0.0000 0.0000 0.0000 1.6759 0.0000 21.2525
#
#
#
# Elastic Compliance Matrix: (Units=1/GPa)
#
#
# Indices 1 2 3 4 5 6 
#
# 1 0.025527 -0.006039 -0.007305 0.000000 -0.011027 0.000000
# 2 -0.006039 0.014866 -0.007149 0.000000 0.008470 0.000000
# 3 -0.007305 -0.007149 0.020309 0.000000 -0.002067 0.000000
# 4 0.000000 0.000000 0.000000 0.025940 0.000000 -0.002046
# 5 -0.011027 0.008470 -0.002067 0.000000 0.043054 0.000000
# 6 0.000000 0.000000 0.000000 -0.002046 0.000000 0.047215
#
#
# Mechanical properties :
#
#
# Convention : Reuss Voigt Hill
#
# Bulk Modulus (GPa) = 50.72188 56.82642 53.77415
# Shear Modulus (GPa) = 22.27486 26.35349 24.31418
#
# Velocity S-wave (km/s) = 3.40155 3.69989 3.55385
# Velocity P-wave (km/s) = 6.46333 6.91161 6.69122
#
# Compressibility (1/GPa) = 0.01971536
#
# Stress axis : x y z
#
# Youngs Moduli (GPa) = 39.17438 67.26799 49.23982
#
# Poissons Ratio (x) = 0.40622 0.35969
# Poissons Ratio (y) = 0.23657 0.35203
# Poissons Ratio (z) = 0.28616 0.48092
#
# Static dielectric constant tensor:
#      x y z
#    x 3.393200 0.000000 0.188700 
#    y 0.000000 4.202150 0.000000 
#    z 0.188700 0.000000 3.521270 
# 
# 
# High freq. dielectric constant tensor:
#      x y z
#    x 1.733570 0.000000 0.029480 
#    y 0.000000 1.756980 0.000000 
#    z 0.029480 0.000000 1.741150 
# 
# From -- ./inp_files/161349.got.cif
#   From: 2010.06.25/outbox.cif.g09.slc.cpg/sg15_81_cif.got.tgz:161349.got - 2010.06.28 07:06:18.
