data_PCOD8138618
_publ_section_title
;
Structure prediction by ZEFSAII (Michael W. Deem and Ramdas Pophale) SiO2 
 PCOD8138618
Probable space group: C 2/C
;
_chemical_formula_sum "Si O2"
_cell_formula_units_Z 40
_cell_length_a 7.689364
_cell_length_b 10.439201
_cell_length_c 25.424727
_cell_angle_alpha 90.000000
_cell_angle_beta 103.116172
_cell_angle_gamma 90.000000
_cell_volume 1987.621451
_symmetry_space_group_name_H-M "C 2/C"
_symmetry_group_IT_number 15
_symmetry_cell_setting 'monoclinic'
loop_
_space_group_symop_operation_xyz
x,y,z
-x,y,1/2-z
-x,-y,-z
x,-y,1/2+z
1/2+x,1/2+y,z
1/2-x,1/2+y,1/2-z
1/2-x,1/2-y,-z
1/2+x,1/2-y,1/2+z
loop_
_atom_site_type_symbol
_atom_site_label
_atom_site_fract_x
_atom_site_fract_y
_atom_site_fract_z
Si Si1 0.863930 0.605917 0.194498
Si Si2 0.458116 0.543546 0.938975
Si Si3 0.021348 0.095060 0.342772
Si Si4 0.400698 0.864683 0.125695
Si Si5 0.294804 0.649398 0.623317
O O1 0.661401 0.596610 0.204245
O O2 0.872605 0.723687 0.154748
O O3 0.000000 0.635462 0.250000
O O4 0.918627 0.473972 0.170520
O O5 0.451614 0.421519 0.899138
O O6 0.614896 0.638618 0.928432
O O7 0.265823 0.613828 0.924679
O O8 0.500000 0.500000 0.000000
O O9 0.126553 0.229284 0.345424
O O10 0.145369 0.974041 0.336685
O O11 0.581223 0.855026 0.103767
#
# Coordination Sequence:
#
# PCOD8138618 Si02
#       5
#     8   8   8   8   8
#     4  10  21  38  59  84 113 151 195 238 291 345
#     4   9  20  38  61  86 118 153 190 238 286 341
#     4   8  20  38  53  87 115 142 197 231 275 355
#     4  10  20  38  59  81 121 148 187 243 283 339
#     4   9  21  38  59  83 117 149 190 236 281 347
#
# _framework density 20.124555999999998
#
# number of rings (size 3 to 8) (size 9 to 14) (size 15 to 20)
#    1.200    1.600    0.000    0.000    2.800    4.800 
#    0.000   10.000    0.000    0.000    0.000    0.000 
#    0.000    0.000    0.000    0.000    0.000    0.000 
#
# Total GULP energy -247787.345131 kJ/mol
# GULP energy per Si atom -12389.367257 kJ/mol
# Density = 2.007875 g / cm^3
# Si number density = 20.124556 Si / 1000 Ang^3
#
#
#
# Elastic Constant Matrix: (Units=GPa)
#
#
# Indices 1 2 3 4 5 6 
#
# 1 90.8659 18.0435 8.8878 0.0000 17.5555 0.0000
# 2 18.0435 137.0366 1.1504 0.0000 2.5177 0.0000
# 3 8.8878 1.1504 35.4168 0.0000 14.9506 0.0000
# 4 0.0000 0.0000 0.0000 18.8778 0.0000 2.2614
# 5 17.5555 2.5177 14.9506 0.0000 25.7507 0.0000
# 6 0.0000 0.0000 0.0000 2.2614 0.0000 26.2029
#
#
#
# Elastic Compliance Matrix: (Units=1/GPa)
#
#
# Indices 1 2 3 4 5 6 
#
# 1 0.013006 -0.001551 0.000617 0.000000 -0.009073 0.000000
# 2 -0.001551 0.007496 0.000012 0.000000 0.000318 0.000000
# 3 0.000617 0.000012 0.037432 0.000000 -0.022154 0.000000
# 4 0.000000 0.000000 0.000000 0.053526 0.000000 -0.004619
# 5 -0.009073 0.000318 -0.022154 0.000000 0.057851 0.000000
# 6 0.000000 0.000000 0.000000 -0.004619 0.000000 0.038562
#
#
# Mechanical properties :
#
#
# Convention : Reuss Voigt Hill
#
# Bulk Modulus (GPa) = 17.82915 35.49808 26.66361
# Shear Modulus (GPa) = 21.89009 29.84877 25.86943
#
# Velocity S-wave (km/s) = 3.30165 3.85541 3.58923
# Velocity P-wave (km/s) = 4.83872 6.12343 5.51859
#
# Compressibility (1/GPa) = 0.05608793
#
# Stress axis : x y z
#
# Youngs Moduli (GPa) = 76.88859 133.41159 26.71511
#
# Poissons Ratio (x) = 0.20692 -0.01647
# Poissons Ratio (y) = 0.11925 -0.00031
# Poissons Ratio (z) = -0.04741 -0.00155
#
# Static dielectric constant tensor:
#      x y z
#    x 3.766660 0.000000 0.210430 
#    y 0.000000 3.830660 0.000000 
#    z 0.210430 0.000000 3.097750 
# 
# 
# High freq. dielectric constant tensor:
#      x y z
#    x 1.794060 0.000000 0.020860 
#    y 0.000000 1.800430 0.000000 
#    z 0.020860 0.000000 1.737890 
# 
# From -- ./inp_files/229960.got.cif
#   From: 2010.06.25/outbox.cif.g09.slc.cpg/sg15_115_cif.got.tgz:229960.got - 2010.06.28 07:06:18.
