data_PCOD8138568
_publ_section_title
;
Structure prediction by ZEFSAII (Michael W. Deem and Ramdas Pophale) SiO2 
 PCOD8138568
Probable space group: C 2/C
;
_chemical_formula_sum "Si O2"
_cell_formula_units_Z 40
_cell_length_a 14.060822
_cell_length_b 9.941975
_cell_length_c 28.895728
_cell_angle_alpha 90.000000
_cell_angle_beta 148.886688
_cell_angle_gamma 90.000000
_cell_volume 2087.289038
_symmetry_space_group_name_H-M "C 2/C"
_symmetry_group_IT_number 15
_symmetry_cell_setting 'monoclinic'
loop_
_space_group_symop_operation_xyz
x,y,z
-x,y,1/2-z
-x,-y,-z
x,-y,1/2+z
1/2+x,1/2+y,z
1/2-x,1/2+y,1/2-z
1/2-x,1/2-y,-z
1/2+x,1/2-y,1/2+z
loop_
_atom_site_type_symbol
_atom_site_label
_atom_site_fract_x
_atom_site_fract_y
_atom_site_fract_z
Si Si1 0.716082 0.854121 0.040949
Si Si2 0.461540 0.672280 0.885979
Si Si3 0.422003 0.039329 0.357734
Si Si4 0.296817 0.337137 0.176211
Si Si5 0.147094 0.468539 0.774167
O O1 0.934737 0.862700 0.119561
O O2 0.682509 0.867604 0.081695
O O3 0.631693 0.706821 0.991909
O O4 0.608102 0.970029 0.966522
O O5 0.339325 0.808784 0.828998
O O6 0.334551 0.554644 0.852465
O O7 0.280155 0.925829 0.314110
O O8 0.458302 0.017674 0.318535
O O9 0.500000 0.386383 0.250000
O O10 0.289973 0.181887 0.187808
O O11 0.000000 0.523098 0.750000
#
# Coordination Sequence:
#
# PCOD8138568 Si02
#       5
#     8   8   8   8   8
#     4   9  20  40  60  82 110 153 185 230 280 332
#     4   9  20  37  62  77 117 143 188 228 282 321
#     4  10  20  38  58  79 115 147 188 230 272 336
#     4  11  22  36  61  83 114 149 190 225 284 336
#     4  11  22  36  56  87 113 149 186 231 281 331
#
# _framework density 19.163613000000002
#
# number of rings (size 3 to 8) (size 9 to 14) (size 15 to 20)
#    1.200    0.800    0.000    5.400    0.000    1.600 
#    0.000    3.000    0.000    0.000    0.000    0.000 
#    0.000    0.000    0.000    0.000    0.000    0.000 
#
# Total GULP energy -247771.462629 kJ/mol
# GULP energy per Si atom -12388.573131 kJ/mol
# Density = 1.912000 g / cm^3
# Si number density = 19.163613 Si / 1000 Ang^3
#
#
#
# Elastic Constant Matrix: (Units=GPa)
#
#
# Indices 1 2 3 4 5 6 
#
# 1 143.7842 66.0881 49.2820 0.0000 -9.3424 0.0000
# 2 66.0881 72.6749 24.8635 0.0000 12.5057 0.0000
# 3 49.2820 24.8635 83.4727 -0.0001 -16.3344 0.0000
# 4 0.0000 0.0000 -0.0001 25.5013 0.0000 7.5525
# 5 -9.3424 12.5057 -16.3344 0.0000 40.5292 0.0000
# 6 0.0000 0.0000 0.0000 7.5525 0.0000 33.7023
#
#
#
# Elastic Compliance Matrix: (Units=1/GPa)
#
#
# Indices 1 2 3 4 5 6 
#
# 1 0.014551 -0.013045 -0.003540 0.000000 0.005953 0.000000
# 2 -0.013045 0.029182 -0.003627 0.000000 -0.013473 0.000000
# 3 -0.003540 -0.003627 0.016512 0.000000 0.006958 0.000000
# 4 0.000000 0.000000 0.000000 0.042001 0.000000 -0.009412
# 5 0.005953 -0.013473 0.006958 0.000000 0.033007 0.000000
# 6 0.000000 0.000000 0.000000 -0.009412 0.000000 0.031781
#
#
# Mechanical properties :
#
#
# Convention : Reuss Voigt Hill
#
# Bulk Modulus (GPa) = 50.45382 64.48877 57.47129
# Shear Modulus (GPa) = 23.35718 30.59311 26.97514
#
# Velocity S-wave (km/s) = 3.49496 3.99985 3.75590
# Velocity P-wave (km/s) = 6.53234 7.42001 6.99028
#
# Compressibility (1/GPa) = 0.01982011
#
# Stress axis : x y z
#
# Youngs Moduli (GPa) = 68.72265 34.26736 60.56177
#
# Poissons Ratio (x) = 0.44703 0.21441
# Poissons Ratio (y) = 0.89652 0.21965
# Poissons Ratio (z) = 0.24330 0.12428
#
# Static dielectric constant tensor:
#      x y z
#    x 3.458030 0.000000 -0.214060 
#    y 0.000000 3.245020 0.000000 
#    z -0.214060 0.000000 3.469220 
# 
# 
# High freq. dielectric constant tensor:
#      x y z
#    x 1.742370 0.000000 -0.018900 
#    y 0.000000 1.719220 0.000000 
#    z -0.018900 0.000000 1.748120 
# 
# From -- ./inp_files/294928.got.cif
#   From: 2010.06.25/outbox.cif.g09.slc.cpg/sg15_148_cif.got.tgz:294928.got - 2010.06.28 07:06:18.
