data_PCOD8138615
_publ_section_title
;
Structure prediction by ZEFSAII (Michael W. Deem and Ramdas Pophale) SiO2 
 PCOD8138615
Probable space group: C 2/C
;
_chemical_formula_sum "Si O2"
_cell_formula_units_Z 56
_cell_length_a 15.089785
_cell_length_b 15.016175
_cell_length_c 22.886378
_cell_angle_alpha 90.000000
_cell_angle_beta 33.114938
_cell_angle_gamma 90.000000
_cell_volume 2833.132054
_symmetry_space_group_name_H-M "C 2/C"
_symmetry_group_IT_number 15
_symmetry_cell_setting 'monoclinic'
loop_
_space_group_symop_operation_xyz
x,y,z
-x,y,1/2-z
-x,-y,-z
x,-y,1/2+z
1/2+x,1/2+y,z
1/2-x,1/2+y,1/2-z
1/2-x,1/2-y,-z
1/2+x,1/2-y,1/2+z
loop_
_atom_site_type_symbol
_atom_site_label
_atom_site_fract_x
_atom_site_fract_y
_atom_site_fract_z
Si Si1 0.392269 0.578012 0.438357
Si Si2 0.241689 0.820654 0.333572
Si Si3 0.416622 0.649580 0.059925
Si Si4 0.373721 0.483708 0.271483
Si Si5 0.727352 0.851351 0.917584
Si Si6 0.179850 0.501736 0.649518
Si Si7 0.646994 0.173641 0.856540
O O1 0.471229 0.639013 0.444433
O O2 0.528306 0.510267 0.340534
O O3 0.328527 0.641446 0.421812
O O4 0.243970 0.521207 0.548540
O O5 0.279516 0.738935 0.356295
O O6 0.309911 0.797823 0.232705
O O7 0.047385 0.838928 0.435521
O O8 0.332073 0.908307 0.306618
O O9 0.301139 0.566479 0.113865
O O10 0.315291 0.740216 0.123865
O O11 0.500000 0.448909 0.250000
O O12 0.270296 0.566582 0.352036
O O13 0.253716 0.405676 0.321538
O O14 0.538731 0.855489 0.036307
O O15 0.000000 0.459309 0.750000
#
# Coordination Sequence:
#
# PCOD8138615 Si02
#       7
#     8   8   8   8   8   8   8
#     4  10  20  38  59  81 115 148 179 234 294 329
#     4  10  21  36  58  85 112 145 184 230 290 338
#     4  10  22  37  55  81 115 150 186 231 279 334
#     4  10  21  37  58  81 112 151 187 227 278 334
#     4  10  22  37  59  88 112 141 189 237 279 331
#     4  11  22  36  57  84 113 148 191 231 273 336
#     4  11  21  37  59  82 113 150 187 231 276 327
#
# _framework density 19.766109
#
# number of rings (size 3 to 8) (size 9 to 14) (size 15 to 20)
#    0.000    1.714    0.000    5.571    0.000    8.571 
#    0.000    5.714    0.000    8.571    0.000    0.000 
#    0.000    0.000    0.000    0.000    0.000    0.000 
#
# Total GULP energy -347241.843513 kJ/mol
# GULP energy per Si atom -12401.494411 kJ/mol
# Density = 1.972112 g / cm^3
# Si number density = 19.766109 Si / 1000 Ang^3
#
#
#
# Elastic Constant Matrix: (Units=GPa)
#
#
# Indices 1 2 3 4 5 6 
#
# 1 70.1738 50.6116 47.7118 -0.0004 -4.4690 -0.0004
# 2 50.6116 114.4110 48.3233 -0.0008 -11.6217 -0.0001
# 3 47.7118 48.3233 143.1580 -0.0036 4.6427 0.0014
# 4 -0.0004 -0.0008 -0.0036 3.0078 0.0011 10.5025
# 5 -4.4690 -11.6217 4.6427 0.0011 29.9862 0.0000
# 6 -0.0004 -0.0001 0.0014 10.5025 0.0000 18.8207
#
#
#
# Elastic Compliance Matrix: (Units=1/GPa)
#
#
# Indices 1 2 3 4 5 6 
#
# 1 0.023771 -0.008205 -0.005191 0.000009 0.001167 -0.000004
# 2 -0.008205 0.013670 -0.002022 0.000002 0.004388 -0.000001
# 3 -0.005191 -0.002022 0.009496 -0.000015 -0.003028 0.000008
# 4 0.000009 0.000002 -0.000015 -0.350522 0.000017 0.195602
# 5 0.001167 0.004388 -0.003028 0.000017 0.035692 -0.000009
# 6 -0.000004 -0.000001 0.000008 0.195602 -0.000009 -0.056019
#
#
# Mechanical properties :
#
#
# Convention : Reuss Voigt Hill
#
# Bulk Modulus (GPa) = 62.10469 69.00403 65.55436
# Shear Modulus (GPa) = -17.37864 22.43602 2.52869
#
# Velocity S-wave (km/s) = -2.96837 3.37274 1.13229
# Velocity P-wave (km/s) = 4.44294 7.08190 5.91155
#
# Compressibility (1/GPa) = 0.01610184
#
# Stress axis : x y z
#
# Youngs Moduli (GPa) = 42.06721 73.15423 105.30702
#
# Poissons Ratio (x) = 0.60021 0.54663
# Poissons Ratio (y) = 0.34515 0.21294
# Poissons Ratio (z) = 0.21837 0.14792
#
# Static dielectric constant tensor:
#      x y z
#    x 3.383560 0.000000 0.162820 
#    y 0.000000 3.540410 0.000000 
#    z 0.162820 0.000000 4.001840 
# 
# 
# High freq. dielectric constant tensor:
#      x y z
#    x 1.750710 0.000000 0.008390 
#    y 0.000000 1.772270 0.000000 
#    z 0.008390 0.000000 1.794550 
# 
# From -- ./inp_files/153498.got.cif
#   From: 2010.06.25/outbox.cif.g09.slc.cpg/sg15_77_cif.got.tgz:153498.got - 2010.06.28 07:06:18.
