data_PCOD8138604
_publ_section_title
;
Structure prediction by ZEFSAII (Michael W. Deem and Ramdas Pophale) SiO2 
 PCOD8138604
Probable space group: C 2/C
;
_chemical_formula_sum "Si O2"
_cell_formula_units_Z 56
_cell_length_a 26.240333
_cell_length_b 12.393486
_cell_length_c 10.412838
_cell_angle_alpha 90.000000
_cell_angle_beta 51.723982
_cell_angle_gamma 90.000000
_cell_volume 2658.406268
_symmetry_space_group_name_H-M "C 2/C"
_symmetry_group_IT_number 15
_symmetry_cell_setting 'monoclinic'
loop_
_space_group_symop_operation_xyz
x,y,z
-x,y,1/2-z
-x,-y,-z
x,-y,1/2+z
1/2+x,1/2+y,z
1/2-x,1/2+y,1/2-z
1/2-x,1/2-y,-z
1/2+x,1/2-y,1/2+z
loop_
_atom_site_type_symbol
_atom_site_label
_atom_site_fract_x
_atom_site_fract_y
_atom_site_fract_z
Si Si1 0.712176 0.918696 0.472876
Si Si2 0.111707 0.185637 0.274982
Si Si3 0.300334 0.301494 0.632224
Si Si4 0.352474 0.445021 0.347449
Si Si5 0.326625 0.916611 0.681642
Si Si6 0.433204 0.215708 0.898938
Si Si7 0.523752 0.378330 0.470353
O O1 0.692623 0.794506 0.481051
O O2 0.790532 0.928610 0.350260
O O3 0.682629 0.955897 0.656446
O O4 0.681676 0.984597 0.403222
O O5 0.166750 0.227281 0.284627
O O6 0.112332 0.266615 0.153952
O O7 0.041850 0.189537 0.459200
O O8 0.126485 0.068276 0.193570
O O9 0.332384 0.410490 0.523028
O O10 0.224836 0.323854 0.774910
O O11 0.413810 0.367029 0.219252
O O12 0.397635 0.863840 0.554130
O O13 0.500000 0.158388 0.750000
O O14 0.451561 0.333249 0.930632
O O15 0.500000 0.500000 0.500000
#
# Coordination Sequence:
#
# PCOD8138604 Si02
#       7
#     8   8   8   8   8   8   8
#     4  11  24  41  65  95 127 166 218 254 318 376
#     4  10  22  35  60  95 123 163 208 257 315 391
#     4  11  23  39  61  94 127 162 213 257 315 381
#     4  10  20  38  58  90 129 166 197 260 320 375
#     4  11  24  43  67  90 125 171 205 273 314 379
#     4  10  22  41  62  87 124 165 213 260 326 372
#     4   9  19  35  61  89 126 164 200 252 317 380
#
# _framework density 21.065252999999998
#
# number of rings (size 3 to 8) (size 9 to 14) (size 15 to 20)
#    0.000    1.714    1.429    3.429    6.000    3.429 
#    0.000    0.714    3.143    0.000    0.000    0.000 
#    0.000    0.000    0.000    0.000    0.000    0.000 
#
# Total GULP energy -346984.899575 kJ/mol
# GULP energy per Si atom -12392.317842 kJ/mol
# Density = 2.101731 g / cm^3
# Si number density = 21.065253 Si / 1000 Ang^3
#
#
#
# Elastic Constant Matrix: (Units=GPa)
#
#
# Indices 1 2 3 4 5 6 
#
# 1 83.6149 29.1973 33.9968 0.0000 12.2037 0.0000
# 2 29.1973 56.6230 37.2676 0.0000 -2.0450 0.0000
# 3 33.9968 37.2676 124.3609 0.0000 -13.4518 0.0000
# 4 0.0000 0.0000 0.0000 26.7996 0.0000 2.2129
# 5 12.2037 -2.0450 -13.4518 0.0000 33.9584 0.0000
# 6 0.0000 0.0000 0.0000 2.2129 0.0000 17.8486
#
#
#
# Elastic Compliance Matrix: (Units=1/GPa)
#
#
# Indices 1 2 3 4 5 6 
#
# 1 0.016840 -0.006701 -0.003441 0.000000 -0.007818 0.000000
# 2 -0.006701 0.024725 -0.005387 0.000000 0.001763 0.000000
# 3 -0.003441 -0.005387 0.011174 0.000000 0.005338 0.000000
# 4 0.000000 0.000000 0.000000 0.037700 0.000000 -0.004674
# 5 -0.007818 0.001763 0.005338 0.000000 0.034478 0.000000
# 6 0.000000 0.000000 0.000000 -0.004674 0.000000 0.056606
#
#
# Mechanical properties :
#
#
# Convention : Reuss Voigt Hill
#
# Bulk Modulus (GPa) = 46.12412 51.72470 48.92441
# Shear Modulus (GPa) = 22.74718 26.66379 24.70549
#
# Velocity S-wave (km/s) = 3.28966 3.56163 3.42834
# Velocity P-wave (km/s) = 6.03097 6.44371 6.24075
#
# Compressibility (1/GPa) = 0.02168063
#
# Stress axis : x y z
#
# Youngs Moduli (GPa) = 59.38365 40.44478 89.49693
#
# Poissons Ratio (x) = 0.27101 0.30797
# Poissons Ratio (y) = 0.39792 0.48211
# Poissons Ratio (z) = 0.20435 0.21787
#
# Static dielectric constant tensor:
#      x y z
#    x 3.864790 0.000000 -0.257560 
#    y 0.000000 3.443680 0.000000 
#    z -0.257560 0.000000 3.981730 
# 
# 
# High freq. dielectric constant tensor:
#      x y z
#    x 1.824980 0.000000 -0.010430 
#    y 0.000000 1.795480 0.000000 
#    z -0.010430 0.000000 1.831990 
# 
# From -- ./inp_files/122612.got.cif
#   From: 2010.06.25/outbox.cif.g09.slc.cpg/sg15_62_cif.got.tgz:122612.got - 2010.06.28 07:06:18.
