data_PCOD8138396
_publ_section_title
;
Structure prediction by ZEFSAII (Michael W. Deem and Ramdas Pophale) SiO2 
 PCOD8138396
Probable space group: C 2/C
;
_chemical_formula_sum "Si O2"
_cell_formula_units_Z 52
_cell_length_a 29.406575
_cell_length_b 14.435807
_cell_length_c 8.106460
_cell_angle_alpha 90.000000
_cell_angle_beta 138.443825
_cell_angle_gamma 90.000000
_cell_volume 2282.769867
_symmetry_space_group_name_H-M "C 2/C"
_symmetry_group_IT_number 15
_symmetry_cell_setting 'monoclinic'
loop_
_space_group_symop_operation_xyz
x,y,z
-x,y,1/2-z
-x,-y,-z
x,-y,1/2+z
1/2+x,1/2+y,z
1/2-x,1/2+y,1/2-z
1/2-x,1/2-y,-z
1/2+x,1/2-y,1/2+z
loop_
_atom_site_type_symbol
_atom_site_label
_atom_site_fract_x
_atom_site_fract_y
_atom_site_fract_z
Si Si1 0.511149 0.396147 0.085512
Si Si2 0.155522 0.826813 0.516361
Si Si3 0.618068 0.703192 0.271227
Si Si4 0.741411 0.856279 0.248210
Si Si5 0.232391 0.545826 0.081665
Si Si6 0.000000 0.467206 0.250000
Si Si7 0.086394 0.407037 0.197815
O O1 0.500000 0.384284 0.250000
O O2 0.585046 0.353421 0.227470
O O3 0.500000 0.500000 0.000000
O O4 0.448878 0.342083 0.825457
O O5 0.138448 0.848112 0.659580
O O6 0.182121 0.721386 0.554660
O O7 0.215455 0.902668 0.649845
O O8 0.685702 0.697615 0.569298
O O9 0.598342 0.805436 0.162471
O O10 0.730804 0.907050 0.395957
O O11 0.745390 0.934618 0.116364
O O12 0.157585 0.554258 0.961380
O O13 0.028766 0.403117 0.183136
O O14 0.061907 0.531304 0.478877
#
# Coordination Sequence:
#
# PCOD8138396 Si02
#       7
#     8   8   8   8   8   4   8
#     4  10  22  39  64  89 121 161 206 254 308 367
#     4  10  20  38  62  95 119 167 212 249 308 385
#     4  10  20  37  64  86 123 162 206 248 310 370
#     4  11  21  39  64  94 121 168 205 260 306 377
#     4  11  21  37  66  86 126 158 212 250 313 366
#     4  10  26  36  62  90 124 158 210 244 322 368
#     4  11  21  41  60  90 121 163 200 259 304 379
#
# _framework density 22.779344999999999
#
# number of rings (size 3 to 8) (size 9 to 14) (size 15 to 20)
#    0.000    1.538    3.077    2.769    3.231    1.231 
#    1.385    0.769    0.000    0.000    0.000    0.000 
#    0.000    0.000    0.000    0.000    0.000    0.000 
#
# Total GULP energy -322154.287519 kJ/mol
# GULP energy per Si atom -12390.549520 kJ/mol
# Density = 2.272750 g / cm^3
# Si number density = 22.779345 Si / 1000 Ang^3
#
#
#
# Elastic Constant Matrix: (Units=GPa)
#
#
# Indices 1 2 3 4 5 6 
#
# 1 46.6223 25.7212 44.8623 0.0000 23.6658 0.0000
# 2 25.7212 135.2030 52.6196 0.0000 28.7138 0.0000
# 3 44.8623 52.6196 102.5931 0.0000 51.8966 0.0000
# 4 0.0000 0.0000 0.0000 47.0991 0.0000 9.6195
# 5 23.6658 28.7138 51.8966 0.0000 41.2904 0.0000
# 6 0.0000 0.0000 0.0000 9.6195 0.0000 24.9862
#
#
#
# Elastic Compliance Matrix: (Units=1/GPa)
#
#
# Indices 1 2 3 4 5 6 
#
# 1 0.037202 -0.000888 -0.014658 0.000000 -0.002281 0.000000
# 2 -0.000888 0.009287 -0.003749 0.000000 -0.001237 0.000000
# 3 -0.014658 -0.003749 0.034351 0.000000 -0.032167 0.000000
# 4 0.000000 0.000000 0.000000 0.023044 0.000000 -0.008872
# 5 -0.002281 -0.001237 -0.032167 0.000000 0.066816 0.000000
# 6 0.000000 0.000000 0.000000 -0.008872 0.000000 0.043438
#
#
# Mechanical properties :
#
#
# Convention : Reuss Voigt Hill
#
# Bulk Modulus (GPa) = 23.66897 58.98051 41.32474
# Shear Modulus (GPa) = 18.73980 33.42280 26.08130
#
# Velocity S-wave (km/s) = 2.87133 3.83461 3.38739
# Velocity P-wave (km/s) = 4.62664 6.74937 5.78618
#
# Compressibility (1/GPa) = 0.04224941
#
# Stress axis : x y z
#
# Youngs Moduli (GPa) = 26.88041 107.67604 29.11082
#
# Poissons Ratio (x) = 0.09561 0.42671
# Poissons Ratio (y) = 0.02387 0.10914
# Poissons Ratio (z) = 0.39402 0.40370
#
# Static dielectric constant tensor:
#      x y z
#    x 4.076710 0.000000 0.811330 
#    y 0.000000 4.092480 0.000000 
#    z 0.811330 0.000000 4.583590 
# 
# 
# High freq. dielectric constant tensor:
#      x y z
#    x 1.877810 0.000000 0.041070 
#    y 0.000000 1.901920 0.000000 
#    z 0.041070 0.000000 1.896030 
# 
# From -- ./inp_files/70203.got.cif
#   From: 2010.06.25/outbox.cif.g09.slc.cpg/sg15_36_cif.got.tgz:70203.got - 2010.06.28 07:06:18.
