data_PCOD8138927
_publ_section_title
;
Structure prediction by ZEFSAII (Michael W. Deem and Ramdas Pophale) SiO2 
 PCOD8138927
Probable space group: C 2/C
;
_chemical_formula_sum "Si O2"
_cell_formula_units_Z 32
_cell_length_a 19.468088
_cell_length_b 15.582241
_cell_length_c 14.433228
_cell_angle_alpha 90.000000
_cell_angle_beta 159.683445
_cell_angle_gamma 90.000000
_cell_volume 1520.213901
_symmetry_space_group_name_H-M "C 2/C"
_symmetry_group_IT_number 15
_symmetry_cell_setting 'monoclinic'
loop_
_space_group_symop_operation_xyz
x,y,z
-x,y,1/2-z
-x,-y,-z
x,-y,1/2+z
1/2+x,1/2+y,z
1/2-x,1/2+y,1/2-z
1/2-x,1/2-y,-z
1/2+x,1/2-y,1/2+z
loop_
_atom_site_type_symbol
_atom_site_label
_atom_site_fract_x
_atom_site_fract_y
_atom_site_fract_z
Si Si1 0.799610 0.352416 0.670533
Si Si2 0.000000 0.291970 0.750000
Si Si3 0.834992 0.858109 0.656468
Si Si4 0.474686 0.813638 0.082425
Si Si5 0.000000 0.003755 0.750000
O O1 0.667857 0.266930 0.507772
O O2 0.671824 0.438262 0.511342
O O3 0.921835 0.354814 0.730267
O O4 0.947215 0.346915 0.943695
O O5 0.692909 0.841477 0.389240
O O6 0.702654 0.855547 0.582042
O O7 0.016730 0.790162 0.895634
O O8 0.930475 0.949582 0.752112
#
# Coordination Sequence:
#
# PCOD8138927 Si02
#       5
#     8   4   8   8   4
#     4  10  21  39  62  86 116 156 196 239 293 348
#     4   9  20  38  60  85 116 156 200 235 282 364
#     4  10  21  37  58  89 120 148 196 247 285 343
#     4  10  20  38  63  83 114 164 197 227 292 363
#     4  11  24  38  54  89 128 148 190 255 290 326
#
# _framework density 21.049669999999999
#
# number of rings (size 3 to 8) (size 9 to 14) (size 15 to 20)
#    0.000    2.000    0.000    4.500    0.000    4.000 
#    0.000    0.000    0.000    0.000    0.000    0.000 
#    0.000    0.000    0.000    0.000    0.000    0.000 
#
# Total GULP energy -198350.722057 kJ/mol
# GULP energy per Si atom -12396.920129 kJ/mol
# Density = 2.100176 g / cm^3
# Si number density = 21.049670 Si / 1000 Ang^3
#
#
#
# Elastic Constant Matrix: (Units=GPa)
#
#
# Indices 1 2 3 4 5 6 
#
# 1 101.5119 79.1900 54.2820 0.0000 11.7968 0.0000
# 2 79.1900 121.7986 52.4840 0.0000 -6.1552 0.0000
# 3 54.2820 52.4840 83.8252 0.0000 -12.3016 0.0000
# 4 0.0000 0.0000 0.0000 22.0740 0.0000 15.7041
# 5 11.7968 -6.1552 -12.3016 0.0000 34.6412 0.0000
# 6 0.0000 0.0000 0.0000 15.7041 0.0000 28.5659
#
#
#
# Elastic Compliance Matrix: (Units=1/GPa)
#
#
# Indices 1 2 3 4 5 6 
#
# 1 0.030855 -0.015372 -0.012975 0.000000 -0.017846 0.000000
# 2 -0.015372 0.018911 -0.000659 0.000000 0.008361 0.000000
# 3 -0.012975 -0.000659 0.022551 0.000000 0.012310 0.000000
# 4 0.000000 0.000000 0.000000 0.074401 0.000000 -0.040902
# 5 -0.017846 0.008361 0.012310 0.000000 0.040802 0.000000
# 6 0.000000 0.000000 0.000000 -0.040902 0.000000 0.057493
#
#
# Mechanical properties :
#
#
# Convention : Reuss Voigt Hill
#
# Bulk Modulus (GPa) = 69.90664 75.44972 72.67818
# Shear Modulus (GPa) = 16.24466 25.13487 20.68977
#
# Velocity S-wave (km/s) = 2.78102 3.45929 3.13853
# Velocity P-wave (km/s) = 6.60261 7.20257 6.90911
#
# Compressibility (1/GPa) = 0.01430479
#
# Stress axis : x y z
#
# Youngs Moduli (GPa) = 32.40989 52.87864 44.34394
#
# Poissons Ratio (x) = 0.81284 0.57536
# Poissons Ratio (y) = 0.49820 0.02924
# Poissons Ratio (z) = 0.42052 0.03487
#
# Static dielectric constant tensor:
#      x y z
#    x 3.711730 0.000000 0.119890 
#    y 0.000000 3.687420 0.000000 
#    z 0.119890 0.000000 3.724540 
# 
# 
# High freq. dielectric constant tensor:
#      x y z
#    x 1.830850 0.000000 0.009610 
#    y 0.000000 1.808240 0.000000 
#    z 0.009610 0.000000 1.823070 
# 
# From -- ./inp_files/27664.got.cif
#   From: 2010.06.25/outbox.cif.g09.slc.cpg/sg15_14_cif.got.tgz:27664.got - 2010.06.28 07:06:18.
