data_PCOD8138998
_publ_section_title
;
Structure prediction by ZEFSAII (Michael W. Deem and Ramdas Pophale) SiO2 
 PCOD8138998
Probable space group: C 2/C
;
_chemical_formula_sum "Si O2"
_cell_formula_units_Z 52
_cell_length_a 7.945063
_cell_length_b 20.497128
_cell_length_c 19.809371
_cell_angle_alpha 90.000000
_cell_angle_beta 133.286696
_cell_angle_gamma 90.000000
_cell_volume 2348.290635
_symmetry_space_group_name_H-M "C 2/C"
_symmetry_group_IT_number 15
_symmetry_cell_setting 'monoclinic'
loop_
_space_group_symop_operation_xyz
x,y,z
-x,y,1/2-z
-x,-y,-z
x,-y,1/2+z
1/2+x,1/2+y,z
1/2-x,1/2+y,1/2-z
1/2-x,1/2-y,-z
1/2+x,1/2-y,1/2+z
loop_
_atom_site_type_symbol
_atom_site_label
_atom_site_fract_x
_atom_site_fract_y
_atom_site_fract_z
Si Si1 0.876477 0.280075 0.839601
Si Si2 0.000000 0.569585 0.750000
Si Si3 0.765795 0.486965 0.070020
Si Si4 0.859387 0.389184 0.516889
Si Si5 0.468951 0.729535 0.135576
Si Si6 0.356130 0.148432 0.531417
Si Si7 0.937876 0.860540 0.310751
O O1 0.744799 0.260082 0.871862
O O2 0.686460 0.304616 0.732253
O O3 0.983045 0.216189 0.834372
O O4 0.082043 0.332429 0.910994
O O5 0.130498 0.513814 0.827679
O O6 0.178294 0.615797 0.757165
O O7 0.898889 0.540121 0.061235
O O8 0.803530 0.412222 0.062100
O O9 0.500000 0.500000 0.000000
O O10 0.606959 0.391579 0.413628
O O11 0.044165 0.379296 0.509904
O O12 0.526256 0.801062 0.118578
O O13 0.387442 0.683726 0.051789
O O14 0.000000 0.880284 0.250000
#
# Coordination Sequence:
#
# PCOD8138998 Si02
#       7
#     8   4   8   8   8   8   8
#     4  10  20  38  63  98 140 171 222 280 339 407
#     4  12  26  48  72  94 138 186 230 282 344 420
#     4  12  25  45  66  93 136 182 224 278 341 410
#     4  11  24  42  65  98 135 176 226 284 339 406
#     4   9  19  38  68 100 133 181 219 280 352 396
#     4  10  21  40  70  99 134 176 231 282 337 409
#     4  12  24  43  70 103 131 177 230 283 342 410
#
# _framework density 22.143767
#
# number of rings (size 3 to 8) (size 9 to 14) (size 15 to 20)
#    0.000    1.231    1.538    5.538    0.000    1.231 
#    6.923    0.000    0.000    0.923    0.000    0.000 
#    0.000    0.000    0.000    0.000    0.000    0.000 
#
# Total GULP energy -322185.767420 kJ/mol
# GULP energy per Si atom -12391.760285 kJ/mol
# Density = 2.209337 g / cm^3
# Si number density = 22.143767 Si / 1000 Ang^3
#
#
#
# Elastic Constant Matrix: (Units=GPa)
#
#
# Indices 1 2 3 4 5 6 
#
# 1 82.4043 33.0889 37.6627 0.0000 2.0166 0.0000
# 2 33.0889 112.2560 60.5300 0.0000 1.0379 0.0000
# 3 37.6627 60.5300 163.6542 0.0000 -0.3957 0.0000
# 4 0.0000 0.0000 0.0000 38.7724 0.0000 -3.5635
# 5 2.0166 1.0379 -0.3957 0.0000 28.1565 0.0000
# 6 0.0000 0.0000 0.0000 -3.5635 0.0000 21.9248
#
#
#
# Elastic Compliance Matrix: (Units=1/GPa)
#
#
# Indices 1 2 3 4 5 6 
#
# 1 0.014382 -0.003054 -0.002183 0.000000 -0.000948 0.000000
# 2 -0.003054 0.011782 -0.003656 0.000000 -0.000267 0.000000
# 3 -0.002183 -0.003656 0.007966 0.000000 0.000403 0.000000
# 4 0.000000 0.000000 0.000000 0.026183 0.000000 0.004256
# 5 -0.000948 -0.000267 0.000403 0.000000 0.035599 0.000000
# 6 0.000000 0.000000 0.000000 0.004256 0.000000 0.046302
#
#
# Mechanical properties :
#
#
# Convention : Reuss Voigt Hill
#
# Bulk Modulus (GPa) = 61.17681 68.98639 65.08160
# Shear Modulus (GPa) = 30.22121 32.90626 31.56374
#
# Velocity S-wave (km/s) = 3.69829 3.85909 3.77954
# Velocity P-wave (km/s) = 6.77669 7.14690 6.96426
#
# Compressibility (1/GPa) = 0.01634606
#
# Stress axis : x y z
#
# Youngs Moduli (GPa) = 69.53007 84.87565 125.53607
#
# Poissons Ratio (x) = 0.25918 0.27401
# Poissons Ratio (y) = 0.21232 0.45891
# Poissons Ratio (z) = 0.15177 0.31027
#
# Static dielectric constant tensor:
#      x y z
#    x 3.728430 0.000000 -0.118890 
#    y 0.000000 3.421100 0.000000 
#    z -0.118890 0.000000 4.600910 
# 
# 
# High freq. dielectric constant tensor:
#      x y z
#    x 1.854460 0.000000 -0.008080 
#    y 0.000000 1.857600 0.000000 
#    z -0.008080 0.000000 1.904140 
# 
# From -- ./inp_files/233094.got.cif
#   From: 2010.06.25/outbox.cif.g09.slc.cpg/sg15_117_cif.got.tgz:233094.got - 2010.06.28 07:06:18.
