data_PCOD8138334
_publ_section_title
;
Structure prediction by ZEFSAII (Michael W. Deem and Ramdas Pophale) SiO2 
 PCOD8138334
Probable space group: C 2/C
;
_chemical_formula_sum "Si O2"
_cell_formula_units_Z 44
_cell_length_a 11.484820
_cell_length_b 14.456701
_cell_length_c 22.440803
_cell_angle_alpha 90.000000
_cell_angle_beta 143.437182
_cell_angle_gamma 90.000000
_cell_volume 2219.535666
_symmetry_space_group_name_H-M "C 2/C"
_symmetry_group_IT_number 15
_symmetry_cell_setting 'monoclinic'
loop_
_space_group_symop_operation_xyz
x,y,z
-x,y,1/2-z
-x,-y,-z
x,-y,1/2+z
1/2+x,1/2+y,z
1/2-x,1/2+y,1/2-z
1/2-x,1/2-y,-z
1/2+x,1/2-y,1/2+z
loop_
_atom_site_type_symbol
_atom_site_label
_atom_site_fract_x
_atom_site_fract_y
_atom_site_fract_z
Si Si1 0.259520 0.107398 0.207807
Si Si2 0.507243 0.022436 0.100140
Si Si3 0.381513 0.302368 0.507334
Si Si4 0.772761 0.978768 0.410129
Si Si5 0.000000 0.235417 0.750000
Si Si6 0.120374 0.361900 0.064627
O O1 0.301688 0.069941 0.291561
O O2 0.389631 0.199345 0.251917
O O3 0.032371 0.133856 0.107176
O O4 0.321091 0.023650 0.187818
O O5 0.332035 0.023270 0.075724
O O6 0.570419 0.920747 0.103620
O O7 0.428482 0.081084 0.013416
O O8 0.250000 0.250000 0.500000
O O9 0.253223 0.367300 0.410029
O O10 0.492719 0.230789 0.511085
O O11 0.000000 0.000000 0.500000
O O12 0.846613 0.167669 0.654654
#
# Coordination Sequence:
#
# PCOD8138334 Si02
#       6
#     8   8   8   8   4   8
#     4  10  21  39  60  88 118 161 201 248 293 359
#     4  11  21  42  59  88 127 156 203 243 311 362
#     4  10  20  41  62  88 122 155 204 250 298 356
#     4  10  20  37  63  84 116 161 197 245 296 355
#     4  10  20  40  58  88 118 152 210 240 292 354
#     4  10  24  39  61  89 122 161 191 255 305 358
#
# _framework density 19.823965999999999
#
# number of rings (size 3 to 8) (size 9 to 14) (size 15 to 20)
#    0.000    1.818    3.636    0.000    0.000    3.636 
#    6.545    0.000    0.000    0.000    0.000    0.000 
#    0.000    0.000    0.000    0.000    0.000    0.000 
#
# Total GULP energy -272690.368431 kJ/mol
# GULP energy per Si atom -12395.016747 kJ/mol
# Density = 1.977885 g / cm^3
# Si number density = 19.823966 Si / 1000 Ang^3
#
#
#
# Elastic Constant Matrix: (Units=GPa)
#
#
# Indices 1 2 3 4 5 6 
#
# 1 75.4692 29.4852 34.9224 0.0000 0.6975 0.0000
# 2 29.4852 121.7009 55.2079 0.0000 -5.7514 0.0000
# 3 34.9224 55.2079 86.9693 0.0000 -4.7750 0.0000
# 4 0.0000 0.0000 0.0000 35.3401 0.0000 3.3925
# 5 0.6975 -5.7514 -4.7750 0.0000 28.4337 0.0000
# 6 0.0000 0.0000 0.0000 3.3925 0.0000 25.6855
#
#
#
# Elastic Compliance Matrix: (Units=1/GPa)
#
#
# Indices 1 2 3 4 5 6 
#
# 1 0.016518 -0.001447 -0.005806 0.000000 -0.001673 0.000000
# 2 -0.001447 0.011702 -0.006778 0.000000 0.001264 0.000000
# 3 -0.005806 -0.006778 0.018233 0.000000 0.001833 0.000000
# 4 0.000000 0.000000 0.000000 0.028660 0.000000 -0.003785
# 5 -0.001673 0.001264 0.001833 0.000000 0.035774 0.000000
# 6 0.000000 0.000000 0.000000 -0.003785 0.000000 0.039432
#
#
# Mechanical properties :
#
#
# Convention : Reuss Voigt Hill
#
# Bulk Modulus (GPa) = 54.37490 58.15228 56.26359
# Shear Modulus (GPa) = 27.09862 28.86011 27.97937
#
# Velocity S-wave (km/s) = 3.70126 3.81966 3.76092
# Velocity P-wave (km/s) = 6.76418 6.98935 6.87769
#
# Compressibility (1/GPa) = 0.01839084
#
# Stress axis : x y z
#
# Youngs Moduli (GPa) = 60.54031 85.45634 54.84598
#
# Poissons Ratio (x) = 0.12367 0.31843
# Poissons Ratio (y) = 0.08761 0.37174
# Poissons Ratio (z) = 0.35149 0.57921
#
# Static dielectric constant tensor:
#      x y z
#    x 3.544640 0.000000 0.128890 
#    y 0.000000 4.253350 0.000000 
#    z 0.128890 0.000000 3.810890 
# 
# 
# High freq. dielectric constant tensor:
#      x y z
#    x 1.764240 0.000000 0.016280 
#    y 0.000000 1.787540 0.000000 
#    z 0.016280 0.000000 1.765560 
# 
# From -- ./inp_files/269813.got.cif
#   From: 2010.06.25/outbox.cif.g09.slc.cpg/sg15_135_cif.got.tgz:269813.got - 2010.06.28 07:06:18.
