data_PCOD8138735
_publ_section_title
;
Structure prediction by ZEFSAII (Michael W. Deem and Ramdas Pophale) SiO2 
 PCOD8138735
Probable space group: C 2/C
;
_chemical_formula_sum "Si O2"
_cell_formula_units_Z 60
_cell_length_a 21.221639
_cell_length_b 27.906322
_cell_length_c 14.476812
_cell_angle_alpha 90.000000
_cell_angle_beta 160.213355
_cell_angle_gamma 90.000000
_cell_volume 2902.264551
_symmetry_space_group_name_H-M "C 2/C"
_symmetry_group_IT_number 15
_symmetry_cell_setting 'monoclinic'
loop_
_space_group_symop_operation_xyz
x,y,z
-x,y,1/2-z
-x,-y,-z
x,-y,1/2+z
1/2+x,1/2+y,z
1/2-x,1/2+y,1/2-z
1/2-x,1/2-y,-z
1/2+x,1/2-y,1/2+z
loop_
_atom_site_type_symbol
_atom_site_label
_atom_site_fract_x
_atom_site_fract_y
_atom_site_fract_z
Si Si1 0.500000 0.918238 0.750000
Si Si2 0.229720 0.388974 0.229634
Si Si3 0.194275 0.436497 0.557191
Si Si4 0.614144 0.655868 0.217220
Si Si5 0.212628 0.999633 0.648974
Si Si6 0.185396 0.684254 0.815770
Si Si7 0.134487 0.273685 0.515629
Si Si8 0.294029 0.486024 0.063483
O O1 0.429193 0.886068 0.567831
O O2 0.325118 0.949788 0.540210
O O3 0.397352 0.355037 0.427843
O O4 0.292561 0.443636 0.336529
O O5 0.141310 0.364524 0.198973
O O6 0.304835 0.388615 0.728882
O O7 0.168970 0.471194 0.611230
O O8 0.299119 0.462822 0.619167
O O9 0.000000 0.419710 0.250000
O O10 0.701789 0.667958 0.438056
O O11 0.666703 0.699023 0.219432
O O12 0.298663 0.990579 0.666049
O O13 0.011928 0.973370 0.366406
O O14 0.319708 0.717559 0.936363
O O15 0.990727 0.713399 0.566674
O O16 0.000000 0.292978 0.250000
#
# Coordination Sequence:
#
# PCOD8138735 Si02
#       8
#     4   8   8   8   8   8   8   8
#     4  12  26  42  58  82 124 168 214 264 298 356
#     4  12  23  40  60  86 119 165 212 251 308 364
#     4  12  21  36  57  86 123 160 208 255 300 364
#     4  11  22  35  62  91 125 158 199 249 312 375
#     4  11  24  38  61  83 120 166 212 258 309 365
#     4  11  22  38  65  96 126 158 196 251 317 382
#     4  10  20  38  60  99 133 153 186 247 323 386
#     4  11  22  40  56  83 115 160 209 256 309 357
#
# _framework density 20.673511999999999
#
# number of rings (size 3 to 8) (size 9 to 14) (size 15 to 20)
#    0.000    0.800    3.333    6.800    1.867    4.267 
#    0.000    0.000    0.000    3.200    0.000    0.000 
#    0.000    0.000    0.000    0.000    0.000    0.000 
#
# Total GULP energy -371699.053448 kJ/mol
# GULP energy per Si atom -12389.968448 kJ/mol
# Density = 2.062646 g / cm^3
# Si number density = 20.673512 Si / 1000 Ang^3
#
#
#
# Elastic Constant Matrix: (Units=GPa)
#
#
# Indices 1 2 3 4 5 6 
#
# 1 84.5586 35.4326 31.1802 0.0001 -5.9986 0.0000
# 2 35.4326 101.6962 27.6221 0.0000 5.1877 0.0000
# 3 31.1802 27.6221 59.3128 0.0001 -2.7345 0.0000
# 4 0.0001 0.0000 0.0001 19.6448 0.0001 3.7104
# 5 -5.9986 5.1877 -2.7345 0.0001 21.2152 0.0000
# 6 0.0000 0.0000 0.0000 3.7104 0.0000 42.0702
#
#
#
# Elastic Compliance Matrix: (Units=1/GPa)
#
#
# Indices 1 2 3 4 5 6 
#
# 1 0.016273 -0.004180 -0.006387 0.000000 0.004800 0.000000
# 2 -0.004180 0.012587 -0.003884 0.000000 -0.004760 0.000000
# 3 -0.006387 -0.003884 0.022118 0.000000 0.001995 0.000000
# 4 0.000000 0.000000 0.000000 0.051766 0.000000 -0.004566
# 5 0.004800 -0.004760 0.001995 0.000000 0.049914 0.000000
# 6 0.000000 0.000000 0.000000 -0.004566 0.000000 0.024172
#
#
# Mechanical properties :
#
#
# Convention : Reuss Voigt Hill
#
# Bulk Modulus (GPa) = 45.29599 48.22639 46.76119
# Shear Modulus (GPa) = 23.46398 26.67489 25.06944
#
# Velocity S-wave (km/s) = 3.37260 3.59596 3.48607
# Velocity P-wave (km/s) = 6.09292 6.37334 6.23471
#
# Compressibility (1/GPa) = 0.02207701
#
# Stress axis : x y z
#
# Youngs Moduli (GPa) = 61.45058 79.44452 45.21197
#
# Poissons Ratio (x) = 0.33208 0.28876
# Poissons Ratio (y) = 0.25686 0.17561
# Poissons Ratio (z) = 0.39247 0.30857
#
# Static dielectric constant tensor:
#      x y z
#    x 4.180000 0.000000 0.318830 
#    y 0.000000 3.724270 0.000000 
#    z 0.318830 0.000000 3.741470 
# 
# 
# High freq. dielectric constant tensor:
#      x y z
#    x 1.808180 0.000000 0.030790 
#    y 0.000000 1.803950 0.000000 
#    z 0.030790 0.000000 1.788020 
# 
# From -- ./inp_files/169967.got.cif
#   From: 2010.06.25/outbox.cif.g09.slc.cpg/sg15_85_cif.got.tgz:169967.got - 2010.06.28 07:06:18.
