data_PCOD8138970
_publ_section_title
;
Structure prediction by ZEFSAII (Michael W. Deem and Ramdas Pophale) SiO2 
 PCOD8138970
Probable space group: C 2/C
;
_chemical_formula_sum "Si O2"
_cell_formula_units_Z 56
_cell_length_a 27.765729
_cell_length_b 18.133817
_cell_length_c 18.594843
_cell_angle_alpha 90.000000
_cell_angle_beta 162.278081
_cell_angle_gamma 90.000000
_cell_volume 2849.914879
_symmetry_space_group_name_H-M "C 2/C"
_symmetry_group_IT_number 15
_symmetry_cell_setting 'monoclinic'
loop_
_space_group_symop_operation_xyz
x,y,z
-x,y,1/2-z
-x,-y,-z
x,-y,1/2+z
1/2+x,1/2+y,z
1/2-x,1/2+y,1/2-z
1/2-x,1/2-y,-z
1/2+x,1/2-y,1/2+z
loop_
_atom_site_type_symbol
_atom_site_label
_atom_site_fract_x
_atom_site_fract_y
_atom_site_fract_z
Si Si1 0.004705 0.402776 0.840743
Si Si2 0.705504 0.796072 0.209539
Si Si3 0.353147 0.163971 0.717102
Si Si4 0.202528 0.828443 0.465661
Si Si5 0.037912 0.792266 0.727369
Si Si6 0.157700 0.150312 0.065054
Si Si7 0.577746 0.964831 0.540011
O O1 0.828820 0.390263 0.621578
O O2 0.000000 0.415712 0.750000
O O3 0.114037 0.331872 0.012548
O O4 0.090587 0.472718 0.998255
O O5 0.612622 0.816935 0.150517
O O6 0.715748 0.708240 0.208668
O O7 0.882079 0.828917 0.470720
O O8 0.169744 0.145860 0.436026
O O9 0.395413 0.236654 0.734967
O O10 0.459152 0.096945 0.842108
O O11 0.250000 0.750000 0.500000
O O12 0.203633 0.817497 0.552705
O O13 0.031647 0.858404 0.196357
O O14 0.000000 0.751700 0.750000
O O15 0.248124 0.071718 0.202235
O O16 0.500000 0.000000 0.500000
#
# Coordination Sequence:
#
# PCOD8138970 Si02
#       7
#     8   8   8   8   8   8   8
#     4  12  26  44  66  96 137 178 223 282 339 407
#     4  11  20  37  65  94 126 166 222 271 327 388
#     4  10  20  38  63  91 128 167 213 277 328 393
#     4  11  22  40  66  99 133 168 229 286 331 391
#     4   9  20  36  60  95 120 159 221 272 320 380
#     4  11  23  39  67 100 130 180 224 275 335 403
#     4  12  23  45  66  91 136 182 220 266 349 415
#
# _framework density 19.649711
#
# number of rings (size 3 to 8) (size 9 to 14) (size 15 to 20)
#    0.000    1.143    5.714    0.857    0.000    1.714 
#    5.143    0.714    0.000    0.000    0.000    0.000 
#    0.000    0.000    0.000    0.000    0.000    0.000 
#
# Total GULP energy -347068.810263 kJ/mol
# GULP energy per Si atom -12395.314652 kJ/mol
# Density = 1.960499 g / cm^3
# Si number density = 19.649711 Si / 1000 Ang^3
#
#
#
# Elastic Constant Matrix: (Units=GPa)
#
#
# Indices 1 2 3 4 5 6 
#
# 1 82.0365 23.8373 37.8383 0.0000 -5.6258 0.0000
# 2 23.8373 82.6183 41.9475 0.0000 1.6629 0.0000
# 3 37.8383 41.9475 151.2546 0.0000 9.8337 0.0001
# 4 0.0000 0.0000 0.0000 38.8755 0.0000 0.4580
# 5 -5.6258 1.6629 9.8337 0.0000 29.9082 0.0000
# 6 0.0000 0.0000 0.0001 0.4580 0.0000 30.5659
#
#
#
# Elastic Compliance Matrix: (Units=1/GPa)
#
#
# Indices 1 2 3 4 5 6 
#
# 1 0.014720 -0.002707 -0.003189 0.000000 0.003968 0.000000
# 2 -0.002707 0.014593 -0.003356 0.000000 -0.000217 0.000000
# 3 -0.003189 -0.003356 0.008550 0.000000 -0.003224 0.000000
# 4 0.000000 0.000000 0.000000 0.025728 0.000000 -0.000385
# 5 0.003968 -0.000217 -0.003224 0.000000 0.035254 0.000000
# 6 0.000000 0.000000 0.000000 -0.000385 0.000000 0.032722
#
#
# Mechanical properties :
#
#
# Convention : Reuss Voigt Hill
#
# Bulk Modulus (GPa) = 51.66054 58.12842 54.89448
# Shear Modulus (GPa) = 31.94402 34.02233 32.98318
#
# Velocity S-wave (km/s) = 4.03634 4.16557 4.10147
# Velocity P-wave (km/s) = 6.93329 7.26516 7.10116
#
# Compressibility (1/GPa) = 0.01935714
#
# Stress axis : x y z
#
# Youngs Moduli (GPa) = 67.93665 68.52515 116.96570
#
# Poissons Ratio (x) = 0.18553 0.37305
# Poissons Ratio (y) = 0.18394 0.39250
# Poissons Ratio (z) = 0.21668 0.22995
#
# Static dielectric constant tensor:
#      x y z
#    x 3.641550 0.000000 0.095090 
#    y 0.000000 3.609170 0.000000 
#    z 0.095090 0.000000 4.224480 
# 
# 
# High freq. dielectric constant tensor:
#      x y z
#    x 1.767270 0.000000 0.000170 
#    y 0.000000 1.733600 0.000000 
#    z 0.000170 0.000000 1.790100 
# 
# From -- ./inp_files/222964.got.cif
#   From: 2010.06.25/outbox.cif.g09.slc.cpg/sg15_112_cif.got.tgz:222964.got - 2010.06.28 07:06:18.
