data_PCOD8138763
_publ_section_title
;
Structure prediction by ZEFSAII (Michael W. Deem and Ramdas Pophale) SiO2 
 PCOD8138763
Probable space group: C 2/C
;
_chemical_formula_sum "Si O2"
_cell_formula_units_Z 32
_cell_length_a 20.789816
_cell_length_b 14.095758
_cell_length_c 14.124502
_cell_angle_alpha 90.000000
_cell_angle_beta 22.445304
_cell_angle_gamma 90.000000
_cell_volume 1580.336705
_symmetry_space_group_name_H-M "C 2/C"
_symmetry_group_IT_number 15
_symmetry_cell_setting 'monoclinic'
loop_
_space_group_symop_operation_xyz
x,y,z
-x,y,1/2-z
-x,-y,-z
x,-y,1/2+z
1/2+x,1/2+y,z
1/2-x,1/2+y,1/2-z
1/2-x,1/2-y,-z
1/2+x,1/2-y,1/2+z
loop_
_atom_site_type_symbol
_atom_site_label
_atom_site_fract_x
_atom_site_fract_y
_atom_site_fract_z
Si Si1 0.049646 0.327217 0.502438
Si Si2 0.805045 0.161946 0.489500
Si Si3 0.730482 0.300493 0.126585
Si Si4 0.646588 0.980165 0.619629
O O1 0.205167 0.348046 0.223511
O O2 0.114976 0.282117 0.512306
O O3 0.939682 0.245327 0.599119
O O4 0.939241 0.421821 0.675977
O O5 0.750000 0.250000 0.500000
O O6 0.764354 0.065614 0.490240
O O7 0.000000 0.169807 0.250000
O O8 0.750000 0.250000 0.000000
O O9 0.725814 0.413053 0.113683
O O10 0.500000 0.019264 0.750000
#
# Coordination Sequence:
#
# PCOD8138763 Si02
#       4
#     8   8   8   8
#     4  10  20  38  61  87 116 151 187 234 288 337
#     4  12  25  40  56  82 119 158 193 230 280 343
#     4   9  18  35  62  90 113 141 187 240 286 333
#     4   9  20  39  61  85 114 146 190 242 286 333
#
# _framework density 20.248849
#
# number of rings (size 3 to 8) (size 9 to 14) (size 15 to 20)
#    0.000    2.000    0.000    5.250    0.000    4.000 
#    0.000   16.250    0.000    0.000    0.000    0.000 
#    0.000    0.000    0.000    0.000    0.000    0.000 
#
# Total GULP energy -198248.826401 kJ/mol
# GULP energy per Si atom -12390.551650 kJ/mol
# Density = 2.020276 g / cm^3
# Si number density = 20.248849 Si / 1000 Ang^3
#
#
#
# Elastic Constant Matrix: (Units=GPa)
#
#
# Indices 1 2 3 4 5 6 
#
# 1 69.8726 54.6164 16.7771 -0.0007 -26.8861 0.0003
# 2 54.6164 126.2494 57.2255 -0.0015 -33.8619 0.0003
# 3 16.7771 57.2255 102.9735 -0.0025 -17.9999 0.0008
# 4 -0.0007 -0.0015 -0.0025 32.7008 0.0006 -10.7846
# 5 -26.8861 -33.8619 -17.9999 0.0006 39.5984 -0.0002
# 6 0.0003 0.0003 0.0008 -10.7846 -0.0002 37.0619
#
#
#
# Elastic Compliance Matrix: (Units=1/GPa)
#
#
# Indices 1 2 3 4 5 6 
#
# 1 0.024830 -0.009328 0.002923 0.000000 0.010211 0.000000
# 2 -0.009328 0.016190 -0.006696 0.000000 0.004467 0.000000
# 3 0.002923 -0.006696 0.013364 0.000001 0.002333 0.000000
# 4 0.000000 0.000000 0.000001 0.033827 0.000000 0.009843
# 5 0.010211 0.004467 0.002333 0.000000 0.037067 0.000000
# 6 0.000000 0.000000 0.000000 0.009843 0.000000 0.029846
#
#
# Mechanical properties :
#
#
# Convention : Reuss Voigt Hill
#
# Bulk Modulus (GPa) = 35.48402 61.81484 48.64943
# Shear Modulus (GPa) = 26.21641 33.23731 29.72686
#
# Velocity S-wave (km/s) = 3.60211 4.05587 3.83571
# Velocity P-wave (km/s) = 5.90443 7.24757 6.61020
#
# Compressibility (1/GPa) = 0.02818170
#
# Stress axis : x y z
#
# Youngs Moduli (GPa) = 40.27338 61.76800 74.82652
#
# Poissons Ratio (x) = 0.57617 -0.21874
# Poissons Ratio (y) = 0.37567 0.50107
# Poissons Ratio (z) = -0.11773 0.41363
#
# Static dielectric constant tensor:
#      x y z
#    x 3.838070 0.000000 -0.121540 
#    y 0.000000 3.752070 0.000000 
#    z -0.121540 0.000000 4.415070 
# 
# 
# High freq. dielectric constant tensor:
#      x y z
#    x 1.797700 0.000000 -0.008250 
#    y 0.000000 1.784220 0.000000 
#    z -0.008250 0.000000 1.788140 
# 
# From -- ./inp_files/27613.got.cif
#   From: 2010.06.25/outbox.cif.g09.slc.cpg/sg15_14_cif.got.tgz:27613.got - 2010.06.28 07:06:18.
