data_PCOD8138478
_publ_section_title
;
Structure prediction by ZEFSAII (Michael W. Deem and Ramdas Pophale) SiO2 
 PCOD8138478
Probable space group: C 2/C
;
_chemical_formula_sum "Si O2"
_cell_formula_units_Z 56
_cell_length_a 15.148840
_cell_length_b 7.768003
_cell_length_c 24.691456
_cell_angle_alpha 90.000000
_cell_angle_beta 67.543530
_cell_angle_gamma 90.000000
_cell_volume 2685.266123
_symmetry_space_group_name_H-M "C 2/C"
_symmetry_group_IT_number 15
_symmetry_cell_setting 'monoclinic'
loop_
_space_group_symop_operation_xyz
x,y,z
-x,y,1/2-z
-x,-y,-z
x,-y,1/2+z
1/2+x,1/2+y,z
1/2-x,1/2+y,1/2-z
1/2-x,1/2-y,-z
1/2+x,1/2-y,1/2+z
loop_
_atom_site_type_symbol
_atom_site_label
_atom_site_fract_x
_atom_site_fract_y
_atom_site_fract_z
Si Si1 0.357247 0.848582 0.184729
Si Si2 0.191184 0.055630 0.901783
Si Si3 0.194736 0.924111 0.519332
Si Si4 0.423469 0.429429 0.307486
Si Si5 0.181975 0.615733 0.214620
Si Si6 0.730854 0.050499 0.387032
Si Si7 0.506854 0.423045 0.886842
O O1 0.268077 0.725368 0.221360
O O2 0.455691 0.741162 0.157135
O O3 0.365500 0.997131 0.227978
O O4 0.341530 0.926642 0.127864
O O5 0.186969 0.261372 0.902265
O O6 0.278273 0.996032 0.844264
O O7 0.090456 0.988802 0.905028
O O8 0.204553 0.978088 0.959443
O O9 0.250000 0.750000 0.500000
O O10 0.243267 0.025586 0.558855
O O11 0.084315 0.873205 0.555829
O O12 0.500000 0.517719 0.250000
O O13 0.398778 0.239179 0.291341
O O14 0.330416 0.552096 0.330074
O O15 0.473962 0.422913 0.354437
#
# Coordination Sequence:
#
# PCOD8138478 Si02
#       7
#     8   8   8   8   8   8   8
#     4  10  21  37  64  89 122 156 206 245 302 363
#     4  10  20  37  66  88 116 159 206 245 294 360
#     4   9  19  41  60  86 122 159 199 249 304 352
#     4  10  23  39  53  83 126 153 194 244 299 354
#     4  10  22  37  60  88 119 159 198 242 309 362
#     4   9  20  38  62  83 120 160 193 244 303 348
#     4  10  22  39  62  90 119 155 203 253 296 355
#
# _framework density 20.854543
#
# number of rings (size 3 to 8) (size 9 to 14) (size 15 to 20)
#    0.000    2.286    0.000    1.286   12.000    0.000 
#    7.714   15.714    0.000    0.000    0.000    0.000 
#    0.000    0.000    0.000    0.000    0.000    0.000 
#
# Total GULP energy -347010.217577 kJ/mol
# GULP energy per Si atom -12393.222056 kJ/mol
# Density = 2.080708 g / cm^3
# Si number density = 20.854543 Si / 1000 Ang^3
#
#
#
# Elastic Constant Matrix: (Units=GPa)
#
#
# Indices 1 2 3 4 5 6 
#
# 1 84.7482 32.3428 55.5505 0.0000 11.9465 0.0001
# 2 32.3428 76.6863 40.2730 0.0000 13.8033 0.0001
# 3 55.5505 40.2730 126.1411 0.0000 21.0925 0.0000
# 4 0.0000 0.0000 0.0000 27.8787 0.0000 4.1870
# 5 11.9465 13.8033 21.0925 0.0000 27.7398 0.0000
# 6 0.0001 0.0001 0.0000 4.1870 0.0000 19.1597
#
#
#
# Elastic Compliance Matrix: (Units=1/GPa)
#
#
# Indices 1 2 3 4 5 6 
#
# 1 0.017576 -0.003936 -0.006353 0.000000 -0.000780 0.000000
# 2 -0.003936 0.017072 -0.002956 0.000000 -0.004552 0.000000
# 3 -0.006353 -0.002956 0.012563 0.000000 -0.005346 0.000000
# 4 0.000000 0.000000 0.000000 0.037087 0.000000 -0.008105
# 5 -0.000780 -0.004552 -0.005346 0.000000 0.042715 0.000000
# 6 0.000000 0.000000 0.000000 -0.008105 0.000000 0.053964
#
#
# Mechanical properties :
#
#
# Convention : Reuss Voigt Hill
#
# Bulk Modulus (GPa) = 48.26054 60.43423 54.34739
# Shear Modulus (GPa) = 23.32371 25.58293 24.45332
#
# Velocity S-wave (km/s) = 3.34788 3.50627 3.42799
# Velocity P-wave (km/s) = 6.17544 6.74046 6.46413
#
# Compressibility (1/GPa) = 0.02072086
#
# Stress axis : x y z
#
# Youngs Moduli (GPa) = 56.89571 58.57572 79.59836
#
# Poissons Ratio (x) = 0.23055 0.50570
# Poissons Ratio (y) = 0.22394 0.23530
# Poissons Ratio (z) = 0.36147 0.17315
#
# Static dielectric constant tensor:
#      x y z
#    x 3.889410 0.000000 0.210970 
#    y 0.000000 3.600870 0.000000 
#    z 0.210970 0.000000 4.509640 
# 
# 
# High freq. dielectric constant tensor:
#      x y z
#    x 1.816900 0.000000 0.008780 
#    y 0.000000 1.791600 0.000000 
#    z 0.008780 0.000000 1.828050 
# 
# From -- ./inp_files/272621.got.cif
#   From: 2010.06.25/outbox.cif.g09.slc.cpg/sg15_137_cif.got.tgz:272621.got - 2010.06.28 07:06:18.
