data_PCOD8138106
_publ_section_title
;
Structure prediction by ZEFSAII (Michael W. Deem and Ramdas Pophale) SiO2 
 PCOD8138106
Probable space group: C 2/C
;
_chemical_formula_sum "Si O2"
_cell_formula_units_Z 48
_cell_length_a 25.814780
_cell_length_b 10.002495
_cell_length_c 13.701659
_cell_angle_alpha 90.000000
_cell_angle_beta 40.479955
_cell_angle_gamma 90.000000
_cell_volume 2296.764051
_symmetry_space_group_name_H-M "C 2/C"
_symmetry_group_IT_number 15
_symmetry_cell_setting 'monoclinic'
loop_
_space_group_symop_operation_xyz
x,y,z
-x,y,1/2-z
-x,-y,-z
x,-y,1/2+z
1/2+x,1/2+y,z
1/2-x,1/2+y,1/2-z
1/2-x,1/2-y,-z
1/2+x,1/2-y,1/2+z
loop_
_atom_site_type_symbol
_atom_site_label
_atom_site_fract_x
_atom_site_fract_y
_atom_site_fract_z
Si Si1 0.994364 0.654614 0.989156
Si Si2 0.415918 0.257085 0.916096
Si Si3 0.271728 0.578759 0.649516
Si Si4 0.870837 0.299355 0.808420
Si Si5 0.852038 0.613100 0.828690
Si Si6 0.774274 0.226540 0.119740
O O1 0.931893 0.671066 0.989653
O O2 0.083846 0.697215 0.829957
O O3 0.957640 0.736626 0.135067
O O4 0.000000 0.500000 0.000000
O O5 0.500000 0.301642 0.750000
O O6 0.357611 0.172223 0.929140
O O7 0.365676 0.388501 0.015630
O O8 0.234598 0.621919 0.597414
O O9 0.223082 0.660631 0.800984
O O10 0.264794 0.420693 0.679626
O O11 0.872620 0.458459 0.809765
O O12 0.801267 0.240531 0.839868
O O13 0.855897 0.238242 0.937785
#
# Coordination Sequence:
#
# PCOD8138106 Si02
#       6
#     8   8   8   8   8   8
#     4   9  17  34  58  89 122 154 197 253 306 358
#     4  10  20  37  59  85 119 163 196 251 305 363
#     4  11  22  40  58  89 122 160 205 253 304 369
#     4   9  18  36  56  87 120 158 199 253 307 356
#     4   9  20  33  60  91 120 157 202 248 304 364
#     4  10  22  36  61  86 119 164 202 251 308 355
#
# _framework density 20.898968
#
# number of rings (size 3 to 8) (size 9 to 14) (size 15 to 20)
#    0.000    2.333    1.667    0.500    2.333    0.000 
#    3.000    2.500    0.000    4.000    0.000    0.000 
#    0.000    0.000    0.000    0.000    0.000    0.000 
#
# Total GULP energy -297314.024905 kJ/mol
# GULP energy per Si atom -12388.084371 kJ/mol
# Density = 2.085140 g / cm^3
# Si number density = 20.898968 Si / 1000 Ang^3
#
#
#
# Elastic Constant Matrix: (Units=GPa)
#
#
# Indices 1 2 3 4 5 6 
#
# 1 64.4837 43.9738 35.5462 0.0000 5.0697 0.0000
# 2 43.9738 73.9266 38.2884 -0.0001 10.5424 0.0001
# 3 35.5462 38.2884 112.7648 0.0000 11.4053 0.0000
# 4 0.0000 -0.0001 0.0000 29.6205 0.0000 1.9129
# 5 5.0697 10.5424 11.4053 0.0000 28.4165 0.0000
# 6 0.0000 0.0001 0.0000 1.9129 0.0000 28.0319
#
#
#
# Elastic Compliance Matrix: (Units=1/GPa)
#
#
# Indices 1 2 3 4 5 6 
#
# 1 0.027459 -0.014608 -0.003907 0.000000 0.002089 0.000000
# 2 -0.014608 0.024636 -0.003231 0.000000 -0.005237 0.000000
# 3 -0.003907 -0.003231 0.011470 0.000000 -0.002708 0.000000
# 4 0.000000 0.000000 0.000000 0.033910 0.000000 -0.002314
# 5 0.002089 -0.005237 -0.002708 0.000000 0.037848 0.000000
# 6 0.000000 0.000000 0.000000 -0.002314 0.000000 0.035832
#
#
# Mechanical properties :
#
#
# Convention : Reuss Voigt Hill
#
# Bulk Modulus (GPa) = 49.81379 54.08799 51.95089
# Shear Modulus (GPa) = 22.58999 26.10489 24.34744
#
# Velocity S-wave (km/s) = 3.29129 3.53809 3.41692
# Velocity P-wave (km/s) = 6.19118 6.52899 6.36233
#
# Compressibility (1/GPa) = 0.02007476
#
# Stress axis : x y z
#
# Youngs Moduli (GPa) = 36.41822 40.59086 87.18057
#
# Poissons Ratio (x) = 0.59294 0.34062
# Poissons Ratio (y) = 0.53198 0.28165
# Poissons Ratio (z) = 0.14229 0.13113
#
# Static dielectric constant tensor:
#      x y z
#    x 3.787690 0.000000 -0.115710 
#    y 0.000000 3.393840 0.000000 
#    z -0.115710 0.000000 5.100370 
# 
# 
# High freq. dielectric constant tensor:
#      x y z
#    x 1.804170 0.000000 0.007190 
#    y 0.000000 1.780580 0.000000 
#    z 0.007190 0.000000 1.835310 
# 
# From -- ./inp_files/176890.got.cif
#   From: 2010.06.25/outbox.cif.g09.slc.cpg/sg15_89_cif.got.tgz:176890.got - 2010.06.28 07:06:18.
