data_PCOD8138051
_publ_section_title
;
Structure prediction by ZEFSAII (Michael W. Deem and Ramdas Pophale) SiO2 
 PCOD8138051
Probable space group: C 2/C
;
_chemical_formula_sum "Si O2"
_cell_formula_units_Z 56
_cell_length_a 15.929976
_cell_length_b 21.022519
_cell_length_c 8.428231
_cell_angle_alpha 90.000000
_cell_angle_beta 84.406735
_cell_angle_gamma 90.000000
_cell_volume 2809.076924
_symmetry_space_group_name_H-M "C 2/C"
_symmetry_group_IT_number 15
_symmetry_cell_setting 'monoclinic'
loop_
_space_group_symop_operation_xyz
x,y,z
-x,y,1/2-z
-x,-y,-z
x,-y,1/2+z
1/2+x,1/2+y,z
1/2-x,1/2+y,1/2-z
1/2-x,1/2-y,-z
1/2+x,1/2-y,1/2+z
loop_
_atom_site_type_symbol
_atom_site_label
_atom_site_fract_x
_atom_site_fract_y
_atom_site_fract_z
Si Si1 0.470802 0.064796 0.578079
Si Si2 0.778302 0.421893 0.160185
Si Si3 0.912946 0.217261 0.357034
Si Si4 0.996582 0.695379 0.434239
Si Si5 0.814090 0.280394 0.112735
Si Si6 0.088234 0.927986 0.648847
Si Si7 0.683700 0.508866 0.403266
O O1 0.500000 0.076528 0.750000
O O2 0.371170 0.060261 0.590858
O O3 0.511744 0.121082 0.466727
O O4 0.500000 0.000000 0.500000
O O5 0.772646 0.345948 0.181521
O O6 0.751641 0.456629 0.329143
O O7 0.718527 0.444255 0.029635
O O8 0.831930 0.237719 0.266119
O O9 0.900795 0.144391 0.411006
O O10 0.000000 0.224959 0.250000
O O11 0.926469 0.263277 0.505690
O O12 0.903842 0.712014 0.512667
O O13 0.000000 0.709905 0.250000
O O14 0.750000 0.250000 0.000000
O O15 0.102373 0.971608 0.490490
O O16 0.000000 0.941436 0.750000
O O17 0.159657 0.945319 0.763180
#
# Coordination Sequence:
#
# PCOD8138051 Si02
#       7
#     8   8   8   8   8   8   8
#     4  11  21  36  58  82 110 148 189 228 273 327
#     4  10  21  36  53  79 110 143 176 221 273 321
#     4   9  19  37  58  79 109 146 183 227 277 328
#     4  10  21  37  56  82 112 145 187 231 274 329
#     4  10  20  37  58  80 110 146 182 225 277 332
#     4  10  20  37  59  82 106 142 182 225 275 327
#     4  10  21  36  55  80 112 140 177 225 274 328
#
# _framework density 19.935373999999999
#
# number of rings (size 3 to 8) (size 9 to 14) (size 15 to 20)
#    0.000    2.000    0.000    4.714    0.000    2.286 
#    0.000   10.714    0.000    0.000    0.000    0.000 
#    0.000    0.000    0.000    0.000    0.000    0.000 
#
# Total GULP energy -347129.119258 kJ/mol
# GULP energy per Si atom -12397.468545 kJ/mol
# Density = 1.989000 g / cm^3
# Si number density = 19.935374 Si / 1000 Ang^3
#
#
#
# Elastic Constant Matrix: (Units=GPa)
#
#
# Indices 1 2 3 4 5 6 
#
# 1 58.8891 44.5367 9.2160 0.0000 14.2612 0.0000
# 2 44.5367 125.8178 32.2454 0.0000 5.6217 0.0000
# 3 9.2160 32.2454 78.2205 0.0000 13.0141 0.0000
# 4 0.0000 0.0000 0.0000 30.0560 0.0000 1.5435
# 5 14.2612 5.6217 13.0141 0.0000 34.4557 0.0000
# 6 0.0000 0.0000 0.0000 1.5435 0.0000 34.4883
#
#
#
# Elastic Compliance Matrix: (Units=1/GPa)
#
#
# Indices 1 2 3 4 5 6 
#
# 1 0.026239 -0.009476 0.002523 0.000000 -0.010267 0.000000
# 2 -0.009476 0.012309 -0.004563 0.000000 0.003637 0.000000
# 3 0.002523 -0.004563 0.015385 0.000000 -0.006111 0.000000
# 4 0.000000 0.000000 0.000000 0.033348 0.000000 -0.001492
# 5 -0.010267 0.003637 -0.006111 0.000000 0.034987 0.000000
# 6 0.000000 0.000000 0.000000 -0.001492 0.000000 0.029062
#
#
# Mechanical properties :
#
#
# Convention : Reuss Voigt Hill
#
# Bulk Modulus (GPa) = 32.36096 48.32483 40.34290
# Shear Modulus (GPa) = 27.07643 31.59529 29.33586
#
# Velocity S-wave (km/s) = 3.68939 3.98538 3.84024
# Velocity P-wave (km/s) = 5.86660 6.74322 6.32013
#
# Compressibility (1/GPa) = 0.03090143
#
# Stress axis : x y z
#
# Youngs Moduli (GPa) = 38.11097 81.24014 64.99914
#
# Poissons Ratio (x) = 0.76983 -0.16400
# Poissons Ratio (y) = 0.36114 0.29659
# Poissons Ratio (z) = -0.09616 0.37070
#
# Static dielectric constant tensor:
#      x y z
#    x 3.716600 0.000000 -0.013540 
#    y 0.000000 3.865080 0.000000 
#    z -0.013540 0.000000 3.715890 
# 
# 
# High freq. dielectric constant tensor:
#      x y z
#    x 1.770690 0.000000 0.010490 
#    y 0.000000 1.790940 0.000000 
#    z 0.010490 0.000000 1.775670 
# 
# From -- ./inp_files/41271.got.cif
#   From: 2010.06.25/outbox.cif.g09.slc.cpg/sg15_21_cif.got.tgz:41271.got - 2010.06.28 07:06:18.
