data_PCOD8138340
_publ_section_title
;
Structure prediction by ZEFSAII (Michael W. Deem and Ramdas Pophale) SiO2 
 PCOD8138340
Probable space group: C 2/C
;
_chemical_formula_sum "Si O2"
_cell_formula_units_Z 40
_cell_length_a 15.065535
_cell_length_b 11.371814
_cell_length_c 12.044336
_cell_angle_alpha 90.000000
_cell_angle_beta 102.586390
_cell_angle_gamma 90.000000
_cell_volume 2013.877236
_symmetry_space_group_name_H-M "C 2/C"
_symmetry_group_IT_number 15
_symmetry_cell_setting 'monoclinic'
loop_
_space_group_symop_operation_xyz
x,y,z
-x,y,1/2-z
-x,-y,-z
x,-y,1/2+z
1/2+x,1/2+y,z
1/2-x,1/2+y,1/2-z
1/2-x,1/2-y,-z
1/2+x,1/2-y,1/2+z
loop_
_atom_site_type_symbol
_atom_site_label
_atom_site_fract_x
_atom_site_fract_y
_atom_site_fract_z
Si Si1 0.684674 0.231143 0.654172
Si Si2 0.461718 0.424019 0.125993
Si Si3 0.310572 0.823700 0.096787
Si Si4 0.513051 0.314623 0.919336
Si Si5 0.245296 0.921741 0.510906
O O1 0.722016 0.196659 0.785477
O O2 0.579931 0.257214 0.643401
O O3 0.688828 0.125533 0.566948
O O4 0.742194 0.340447 0.620125
O O5 0.500000 0.366955 0.250000
O O6 0.484630 0.560917 0.141102
O O7 0.517199 0.347445 0.050935
O O8 0.354258 0.420914 0.072624
O O9 0.412617 0.780344 0.099421
O O10 0.290370 0.958131 0.062057
O O11 0.250000 0.750000 0.000000
#
# Coordination Sequence:
#
# PCOD8138340 Si02
#       5
#     8   8   8   8   8
#     4  10  24  44  64  86 132 160 206 258 313 367
#     4  10  20  37  63  86 125 159 209 258 302 361
#     4  12  24  37  65  95 122 160 212 254 308 369
#     4  10  22  39  58  92 119 165 208 251 311 364
#     4  10  24  42  64  94 121 168 203 257 315 364
#
# _framework density 19.862183999999999
#
# number of rings (size 3 to 8) (size 9 to 14) (size 15 to 20)
#    0.000    1.600    2.000    1.800    5.600    0.800 
#    0.000    0.000    0.000    0.000    0.000    0.000 
#    0.000    0.000    0.000    0.000    0.000    0.000 
#
# Total GULP energy -247817.127662 kJ/mol
# GULP energy per Si atom -12390.856383 kJ/mol
# Density = 1.981698 g / cm^3
# Si number density = 19.862184 Si / 1000 Ang^3
#
#
#
# Elastic Constant Matrix: (Units=GPa)
#
#
# Indices 1 2 3 4 5 6 
#
# 1 107.9016 36.4000 77.9635 0.0000 -33.0817 0.0000
# 2 36.4000 137.6628 63.9145 0.0000 -11.4845 0.0000
# 3 77.9635 63.9145 209.2635 0.0000 -42.0139 0.0000
# 4 0.0000 0.0000 0.0000 37.4444 0.0000 -17.7220
# 5 -33.0817 -11.4845 -42.0139 0.0000 32.3324 0.0000
# 6 0.0000 0.0000 0.0000 -17.7220 0.0000 40.5484
#
#
#
# Elastic Compliance Matrix: (Units=1/GPa)
#
#
# Indices 1 2 3 4 5 6 
#
# 1 0.015484 -0.001780 -0.002938 0.000000 0.011393 0.000000
# 2 -0.001780 0.008674 -0.002345 0.000000 -0.001787 0.000000
# 3 -0.002938 -0.002345 0.007873 0.000000 0.006391 0.000000
# 4 0.000000 0.000000 0.000000 0.033671 0.000000 0.014716
# 5 0.011393 -0.001787 0.006391 0.000000 0.050256 0.000000
# 6 0.000000 0.000000 0.000000 0.014716 0.000000 0.031094
#
#
# Mechanical properties :
#
#
# Convention : Reuss Voigt Hill
#
# Bulk Modulus (GPa) = 55.84863 90.15375 73.00119
# Shear Modulus (GPa) = 29.91414 40.50170 35.20792
#
# Velocity S-wave (km/s) = 3.88504 4.52058 4.21481
# Velocity P-wave (km/s) = 6.95010 8.52852 7.77945
#
# Compressibility (1/GPa) = 0.01790554
#
# Stress axis : x y z
#
# Youngs Moduli (GPa) = 64.58419 115.28137 127.02385
#
# Poissons Ratio (x) = 0.20517 0.37315
# Poissons Ratio (y) = 0.11494 0.29789
# Poissons Ratio (z) = 0.18973 0.27035
#
# Static dielectric constant tensor:
#      x y z
#    x 3.284100 0.000000 -0.925930 
#    y 0.000000 3.271370 0.000000 
#    z -0.925930 0.000000 2.300850 
# 
# 
# High freq. dielectric constant tensor:
#      x y z
#    x 1.775140 0.000000 -0.011280 
#    y 0.000000 1.767770 0.000000 
#    z -0.011280 0.000000 1.793310 
# 
# From -- ./inp_files/94521.got.cif
#   From: 2010.06.25/outbox.cif.g09.slc.cpg/sg15_48_cif.got.tgz:94521.got - 2010.06.28 07:06:18.
