data_PCOD8138889
_publ_section_title
;
Structure prediction by ZEFSAII (Michael W. Deem and Ramdas Pophale) SiO2 
 PCOD8138889
Probable space group: C 2/C
;
_chemical_formula_sum "Si O2"
_cell_formula_units_Z 52
_cell_length_a 28.593075
_cell_length_b 10.513166
_cell_length_c 8.679202
_cell_angle_alpha 90.000000
_cell_angle_beta 58.328556
_cell_angle_gamma 90.000000
_cell_volume 2220.449712
_symmetry_space_group_name_H-M "C 2/C"
_symmetry_group_IT_number 15
_symmetry_cell_setting 'monoclinic'
loop_
_space_group_symop_operation_xyz
x,y,z
-x,y,1/2-z
-x,-y,-z
x,-y,1/2+z
1/2+x,1/2+y,z
1/2-x,1/2+y,1/2-z
1/2-x,1/2-y,-z
1/2+x,1/2-y,1/2+z
loop_
_atom_site_type_symbol
_atom_site_label
_atom_site_fract_x
_atom_site_fract_y
_atom_site_fract_z
Si Si1 0.711361 0.019432 0.977214
Si Si2 0.500000 0.994427 0.250000
Si Si3 0.221478 0.881612 0.878407
Si Si4 0.432565 0.656651 0.052284
Si Si5 0.961457 0.683091 0.069296
Si Si6 0.170210 0.333861 0.296546
Si Si7 0.399607 0.404476 0.286699
O O1 0.660834 0.068252 0.956525
O O2 0.761626 0.988669 0.774565
O O3 0.733312 0.124222 0.062478
O O4 0.690499 0.896073 0.103875
O O5 0.459849 0.904100 0.419652
O O6 0.462018 0.085656 0.211829
O O7 0.219019 0.752164 0.785304
O O8 0.162712 0.919189 0.050968
O O9 0.383883 0.758022 0.150927
O O10 0.418783 0.531535 0.171710
O O11 0.486063 0.723954 0.025918
O O12 0.440068 0.616220 0.862128
O O13 0.908225 0.776490 0.167181
#
# Coordination Sequence:
#
# PCOD8138889 Si02
#       7
#     8   4   8   8   8   8   8
#     4  10  21  40  64  90 132 176 217 286 330 390
#     4  10  24  44  70  96 128 184 204 272 326 396
#     4  10  20  38  62  91 129 168 222 266 334 389
#     4  11  24  42  66  99 132 170 225 273 328 407
#     4  11  23  45  69  98 135 171 217 269 332 385
#     4  10  22  39  61  94 127 174 224 274 336 391
#     4  11  23  41  64 100 130 174 218 274 328 397
#
# _framework density 23.418679000000001
#
# number of rings (size 3 to 8) (size 9 to 14) (size 15 to 20)
#    0.000    1.538    1.538    3.231    2.154    2.462 
#    2.769    6.154    0.000    0.000    0.000    0.000 
#    0.000    0.000    0.000    0.000    0.000    0.000 
#
# Total GULP energy -322260.103978 kJ/mol
# GULP energy per Si atom -12394.619384 kJ/mol
# Density = 2.336538 g / cm^3
# Si number density = 23.418679 Si / 1000 Ang^3
#
#
#
# Elastic Constant Matrix: (Units=GPa)
#
#
# Indices 1 2 3 4 5 6 
#
# 1 45.7963 27.6085 30.0355 0.0000 -0.1300 0.0000
# 2 27.6085 149.2139 78.1269 0.0000 0.9278 0.0000
# 3 30.0355 78.1269 107.2501 0.0000 11.1378 0.0000
# 4 0.0000 0.0000 0.0000 47.7291 0.0000 3.1602
# 5 -0.1300 0.9278 11.1378 0.0000 23.6700 0.0000
# 6 0.0000 0.0000 0.0000 3.1602 0.0000 35.2683
#
#
#
# Elastic Compliance Matrix: (Units=1/GPa)
#
#
# Indices 1 2 3 4 5 6 
#
# 1 0.027269 -0.001422 -0.006963 0.000000 0.003482 0.000000
# 2 -0.001422 0.011184 -0.008098 0.000000 0.003364 0.000000
# 3 -0.006963 -0.008098 0.018025 0.000000 -0.008202 0.000000
# 4 0.000000 0.000000 0.000000 0.021077 0.000000 -0.001889
# 5 0.003482 0.003364 -0.008202 0.000000 0.045994 0.000000
# 6 0.000000 0.000000 0.000000 -0.001889 0.000000 0.028523
#
#
# Mechanical properties :
#
#
# Convention : Reuss Voigt Hill
#
# Bulk Modulus (GPa) = 42.52985 63.75580 53.14282
# Shear Modulus (GPa) = 25.92338 32.43278 29.17808
#
# Velocity S-wave (km/s) = 3.33070 3.72548 3.53361
# Velocity P-wave (km/s) = 5.74382 6.76676 6.27617
#
# Compressibility (1/GPa) = 0.02351290
#
# Stress axis : x y z
#
# Youngs Moduli (GPa) = 36.67136 89.41223 55.47815
#
# Poissons Ratio (x) = 0.12710 0.38629
# Poissons Ratio (y) = 0.05213 0.44929
# Poissons Ratio (z) = 0.25534 0.72410
#
# Static dielectric constant tensor:
#      x y z
#    x 3.998840 0.000000 0.281370 
#    y 0.000000 4.563810 0.000000 
#    z 0.281370 0.000000 4.385550 
# 
# 
# High freq. dielectric constant tensor:
#      x y z
#    x 1.904540 0.000000 0.012380 
#    y 0.000000 1.943520 0.000000 
#    z 0.012380 0.000000 1.937140 
# 
# From -- ./inp_files/69008.got.cif
#   From: 2010.06.25/outbox.cif.g09.slc.cpg/sg15_35_cif.got.tgz:69008.got - 2010.06.28 07:06:18.
