data_PCOD8138928
_publ_section_title
;
Structure prediction by ZEFSAII (Michael W. Deem and Ramdas Pophale) SiO2 
 PCOD8138928
Probable space group: C 2/C
;
_chemical_formula_sum "Si O2"
_cell_formula_units_Z 48
_cell_length_a 22.859929
_cell_length_b 19.252906
_cell_length_c 16.989773
_cell_angle_alpha 90.000000
_cell_angle_beta 161.479768
_cell_angle_gamma 90.000000
_cell_volume 2375.162091
_symmetry_space_group_name_H-M "C 2/C"
_symmetry_group_IT_number 15
_symmetry_cell_setting 'monoclinic'
loop_
_space_group_symop_operation_xyz
x,y,z
-x,y,1/2-z
-x,-y,-z
x,-y,1/2+z
1/2+x,1/2+y,z
1/2-x,1/2+y,1/2-z
1/2-x,1/2-y,-z
1/2+x,1/2-y,1/2+z
loop_
_atom_site_type_symbol
_atom_site_label
_atom_site_fract_x
_atom_site_fract_y
_atom_site_fract_z
Si Si1 0.000000 0.728086 0.250000
Si Si2 0.113868 0.957253 0.033345
Si Si3 0.324304 0.671778 0.973522
Si Si4 0.000000 0.948300 0.250000
Si Si5 0.652364 0.416459 0.681304
Si Si6 0.378582 0.658021 0.711193
Si Si7 0.965197 0.314866 0.115228
O O1 0.980406 0.774555 0.304041
O O2 0.178834 0.679287 0.489215
O O3 0.204800 0.006897 0.214986
O O4 0.230401 0.889156 0.157709
O O5 0.920502 0.928382 0.822569
O O6 0.104950 0.003091 0.944095
O O7 0.500000 0.648471 0.250000
O O8 0.368397 0.740589 0.980084
O O9 0.157830 0.688198 0.817957
O O10 0.854928 0.899353 0.111786
O O11 0.498171 0.375849 0.433727
O O12 0.839350 0.373950 0.917577
O O13 0.000000 0.331556 0.250000
#
# Coordination Sequence:
#
# PCOD8138928 Si02
#       7
#     4   8   8   4   8   8   8
#     4   9  18  36  62  88 118 155 196 244 310 377
#     4  10  20  38  63  83 123 159 200 249 309 365
#     4  11  21  38  62  85 117 161 203 252 304 365
#     4   9  18  36  60  80 114 163 190 246 304 361
#     4  10  22  39  59  91 124 160 202 257 304 361
#     4   9  19  36  59  88 118 155 199 249 305 367
#     4  11  23  38  61  91 122 158 208 252 312 366
#
# _framework density 20.209147000000002
#
# number of rings (size 3 to 8) (size 9 to 14) (size 15 to 20)
#    0.000    2.000    0.833    4.000    0.000    3.333 
#    0.000   10.000    0.000    0.000    0.000    0.000 
#    0.000    0.000    0.000    0.000    0.000    0.000 
#
# Total GULP energy -297483.509519 kJ/mol
# GULP energy per Si atom -12395.146230 kJ/mol
# Density = 2.016315 g / cm^3
# Si number density = 20.209147 Si / 1000 Ang^3
#
#
#
# Elastic Constant Matrix: (Units=GPa)
#
#
# Indices 1 2 3 4 5 6 
#
# 1 97.3783 53.3773 42.9501 0.0000 24.2244 0.0000
# 2 53.3773 135.4974 63.3832 0.0000 15.9600 0.0000
# 3 42.9501 63.3832 104.7313 0.0001 25.1445 -0.0002
# 4 0.0000 0.0000 0.0001 26.8040 0.0000 4.1174
# 5 24.2244 15.9600 25.1445 0.0000 30.8980 0.0000
# 6 0.0000 0.0000 -0.0002 4.1174 0.0000 36.7667
#
#
#
# Elastic Compliance Matrix: (Units=1/GPa)
#
#
# Indices 1 2 3 4 5 6 
#
# 1 0.015506 -0.004306 -0.001701 0.000000 -0.008549 0.000000
# 2 -0.004306 0.011493 -0.005686 0.000000 0.002066 0.000000
# 3 -0.001701 -0.005686 0.015736 0.000000 -0.008535 0.000000
# 4 0.000000 0.000000 0.000000 0.037961 0.000000 -0.004251
# 5 -0.008549 0.002066 -0.008535 0.000000 0.044946 0.000000
# 6 0.000000 0.000000 0.000000 -0.004251 0.000000 0.027675
#
#
# Mechanical properties :
#
#
# Convention : Reuss Voigt Hill
#
# Bulk Modulus (GPa) = 51.67860 73.00314 62.34087
# Shear Modulus (GPa) = 27.29991 30.75350 29.02670
#
# Velocity S-wave (km/s) = 3.67940 3.90521 3.79399
# Velocity P-wave (km/s) = 6.60894 7.51907 7.07865
#
# Compressibility (1/GPa) = 0.01935037
#
# Stress axis : x y z
#
# Youngs Moduli (GPa) = 64.48986 87.01156 63.54911
#
# Poissons Ratio (x) = 0.37467 0.10808
# Poissons Ratio (y) = 0.27769 0.36132
# Poissons Ratio (z) = 0.10968 0.49471
#
# Static dielectric constant tensor:
#      x y z
#    x 3.918020 0.000000 0.139580 
#    y 0.000000 4.083750 0.000000 
#    z 0.139580 0.000000 3.260390 
# 
# 
# High freq. dielectric constant tensor:
#      x y z
#    x 1.799160 0.000000 0.018940 
#    y 0.000000 1.814990 0.000000 
#    z 0.018940 0.000000 1.745520 
# 
# From -- ./inp_files/63204.got.cif
#   From: 2010.06.25/outbox.cif.g09.slc.cpg/sg15_32_cif.got.tgz:63204.got - 2010.06.28 07:06:18.
