data_PCOD8138122
_publ_section_title
;
Structure prediction by ZEFSAII (Michael W. Deem and Ramdas Pophale) SiO2 
 PCOD8138122
Probable space group: C 2/C
;
_chemical_formula_sum "Si O2"
_cell_formula_units_Z 32
_cell_length_a 13.442156
_cell_length_b 7.349501
_cell_length_c 18.837400
_cell_angle_alpha 90.000000
_cell_angle_beta 51.547437
_cell_angle_gamma 90.000000
_cell_volume 1457.397041
_symmetry_space_group_name_H-M "C 2/C"
_symmetry_group_IT_number 15
_symmetry_cell_setting 'monoclinic'
loop_
_space_group_symop_operation_xyz
x,y,z
-x,y,1/2-z
-x,-y,-z
x,-y,1/2+z
1/2+x,1/2+y,z
1/2-x,1/2+y,1/2-z
1/2-x,1/2-y,-z
1/2+x,1/2-y,1/2+z
loop_
_atom_site_type_symbol
_atom_site_label
_atom_site_fract_x
_atom_site_fract_y
_atom_site_fract_z
Si Si1 0.541861 0.742983 0.585006
Si Si2 0.672484 0.828301 0.724505
Si Si3 0.742167 0.457564 0.075492
Si Si4 0.278596 0.707018 0.649265
O O1 0.477193 0.816410 0.687237
O O2 0.637418 0.576534 0.560521
O O3 0.618419 0.909330 0.515873
O O4 0.431820 0.672893 0.580384
O O5 0.711862 0.667268 0.655862
O O6 0.755667 0.804948 0.760348
O O7 0.703710 0.019243 0.673437
O O8 0.738038 0.667058 0.101185
#
# Coordination Sequence:
#
# PCOD8138122 Si02
#       4
#     8   8   8   8
#     4   9  22  39  61  89 126 164 201 267 306 365
#     4  10  20  37  59  90 121 161 210 250 310 376
#     4  11  20  41  63  88 126 161 210 259 311 369
#     4  10  20  37  61  88 122 166 198 254 317 363
#
# _framework density 21.956954
#
# number of rings (size 3 to 8) (size 9 to 14) (size 15 to 20)
#    1.500    0.500    2.500    1.500    0.000    1.000 
#    0.000   20.000    0.000    0.000    0.000    0.000 
#    0.000    0.000    0.000    0.000    0.000    0.000 
#
# Total GULP energy -198316.419313 kJ/mol
# GULP energy per Si atom -12394.776207 kJ/mol
# Density = 2.190698 g / cm^3
# Si number density = 21.956954 Si / 1000 Ang^3
#
#
#
# Elastic Constant Matrix: (Units=GPa)
#
#
# Indices 1 2 3 4 5 6 
#
# 1 52.2430 11.0767 3.7453 0.0000 -18.7861 0.0003
# 2 11.0767 47.8259 -1.1726 -0.0001 -21.8001 0.0007
# 3 3.7453 -1.1726 100.4550 0.0000 -27.7721 -0.0001
# 4 0.0000 -0.0001 0.0000 10.3401 0.0000 -6.9077
# 5 -18.7861 -21.8001 -27.7721 0.0000 33.5478 0.0000
# 6 0.0003 0.0007 -0.0001 -6.9077 0.0000 15.4825
#
#
#
# Elastic Compliance Matrix: (Units=1/GPa)
#
#
# Indices 1 2 3 4 5 6 
#
# 1 0.025411 0.003571 0.004759 0.000000 0.020490 -0.000001
# 2 0.003571 0.035115 0.009257 -0.000001 0.032481 -0.000002
# 3 0.004759 0.009257 0.015931 0.000000 0.021868 -0.000001
# 4 0.000000 -0.000001 0.000000 0.137775 -0.000001 0.061470
# 5 0.020490 0.032481 0.021868 -0.000001 0.080493 -0.000002
# 6 -0.000001 -0.000002 -0.000001 0.061470 -0.000002 0.092014
#
#
# Mechanical properties :
#
#
# Convention : Reuss Voigt Hill
#
# Bulk Modulus (GPa) = 8.95814 25.31364 17.13589
# Shear Modulus (GPa) = 12.86090 24.33240 18.59665
#
# Velocity S-wave (km/s) = 2.42282 3.33255 2.91341
# Velocity P-wave (km/s) = 3.45188 5.13436 4.37476
#
# Compressibility (1/GPa) = 0.11163026
#
# Stress axis : x y z
#
# Youngs Moduli (GPa) = 39.35308 28.47819 62.77008
#
# Poissons Ratio (x) = -0.10170 -0.29872
# Poissons Ratio (y) = -0.14054 -0.58103
# Poissons Ratio (z) = -0.18728 -0.26361
#
# Static dielectric constant tensor:
#      x y z
#    x 3.792290 0.000000 -0.007950 
#    y 0.000000 3.562000 0.000000 
#    z -0.007950 0.000000 3.983400 
# 
# 
# High freq. dielectric constant tensor:
#      x y z
#    x 1.852150 0.000000 0.001900 
#    y 0.000000 1.838250 0.000000 
#    z 0.001900 0.000000 1.870050 
# 
# From -- ./inp_files/149894.got.cif
#   From: 2010.06.25/outbox.cif.g09.slc.cpg/sg15_75_cif.got.tgz:149894.got - 2010.06.28 07:06:18.
