data_PCOD8138914
_publ_section_title
;
Structure prediction by ZEFSAII (Michael W. Deem and Ramdas Pophale) SiO2 
 PCOD8138914
Probable space group: C 2/C
;
_chemical_formula_sum "Si O2"
_cell_formula_units_Z 56
_cell_length_a 29.577055
_cell_length_b 12.167051
_cell_length_c 14.501400
_cell_angle_alpha 90.000000
_cell_angle_beta 32.727502
_cell_angle_gamma 90.000000
_cell_volume 2821.380918
_symmetry_space_group_name_H-M "C 2/C"
_symmetry_group_IT_number 15
_symmetry_cell_setting 'monoclinic'
loop_
_space_group_symop_operation_xyz
x,y,z
-x,y,1/2-z
-x,-y,-z
x,-y,1/2+z
1/2+x,1/2+y,z
1/2-x,1/2+y,1/2-z
1/2-x,1/2-y,-z
1/2+x,1/2-y,1/2+z
loop_
_atom_site_type_symbol
_atom_site_label
_atom_site_fract_x
_atom_site_fract_y
_atom_site_fract_z
Si Si1 0.000000 0.155420 0.750000
Si Si2 0.666642 0.765248 0.466580
Si Si3 0.305722 0.164729 0.781516
Si Si4 0.780334 0.044904 0.059276
Si Si5 0.243622 0.972745 0.110042
Si Si6 0.404866 0.526204 0.490576
Si Si7 0.000000 0.219259 0.250000
Si Si8 0.653846 0.192337 0.588764
O O1 0.074669 0.232121 0.660609
O O2 0.031422 0.077209 0.610985
O O3 0.658548 0.777900 0.370224
O O4 0.732711 0.667894 0.377535
O O5 0.694592 0.875522 0.467592
O O6 0.363181 0.191931 0.771507
O O7 0.299314 0.032210 0.778014
O O8 0.210772 0.203514 0.965092
O O9 0.862737 0.991600 0.962636
O O10 0.792075 0.048918 0.929697
O O11 0.163490 0.977371 0.312769
O O12 0.296687 0.083629 0.027294
O O13 0.453031 0.642576 0.406147
O O14 0.065103 0.298847 0.190198
#
# Coordination Sequence:
#
# PCOD8138914 Si02
#       8
#     4   8   8   8   8   8   4   8
#     4   9  22  37  58  84 132 155 195 250 322 352
#     4  11  21  39  62  87 126 163 199 256 309 369
#     4  10  20  38  63  89 121 169 208 244 307 375
#     4  10  20  38  62  96 117 153 220 258 283 371
#     4  11  22  38  68  89 120 170 210 244 308 374
#     4  10  20  40  60  90 122 162 203 260 305 353
#     4  11  20  39  58  96 130 151 205 272 300 356
#     4  10  21  36  63  92 124 158 210 254 303 370
#
# _framework density 19.848436
#
# number of rings (size 3 to 8) (size 9 to 14) (size 15 to 20)
#    0.000    1.714    2.857    2.143    0.000    0.571 
#    5.143    3.571    0.000    2.571    0.000    0.000 
#    0.000    0.000    0.000    0.000    0.000    0.000 
#
# Total GULP energy -347077.873226 kJ/mol
# GULP energy per Si atom -12395.638330 kJ/mol
# Density = 1.980326 g / cm^3
# Si number density = 19.848436 Si / 1000 Ang^3
#
#
#
# Elastic Constant Matrix: (Units=GPa)
#
#
# Indices 1 2 3 4 5 6 
#
# 1 125.5192 45.4853 66.2364 0.0000 10.7843 0.0000
# 2 45.4853 111.8425 53.8003 0.0000 13.2946 0.0000
# 3 66.2364 53.8003 107.5302 0.0000 7.2911 0.0000
# 4 0.0000 0.0000 0.0000 30.1923 0.0000 -7.9461
# 5 10.7843 13.2946 7.2911 0.0000 19.1273 0.0000
# 6 0.0000 0.0000 0.0000 -7.9461 0.0000 26.5671
#
#
#
# Elastic Compliance Matrix: (Units=1/GPa)
#
#
# Indices 1 2 3 4 5 6 
#
# 1 0.012261 -0.001394 -0.006623 0.000000 -0.003419 0.000000
# 2 -0.001394 0.012669 -0.005067 0.000000 -0.006088 0.000000
# 3 -0.006623 -0.005067 0.015832 0.000000 0.001221 0.000000
# 4 0.000000 0.000000 0.000000 0.035951 0.000000 0.010753
# 5 -0.003419 -0.006088 0.001221 0.000000 0.057975 0.000000
# 6 0.000000 0.000000 0.000000 0.010753 0.000000 0.040857
#
#
# Mechanical properties :
#
#
# Convention : Reuss Voigt Hill
#
# Bulk Modulus (GPa) = 68.52483 75.10400 71.81441
# Shear Modulus (GPa) = 24.20386 27.13532 25.66959
#
# Velocity S-wave (km/s) = 3.49583 3.70148 3.60012
# Velocity P-wave (km/s) = 7.13396 7.49592 7.31718
#
# Compressibility (1/GPa) = 0.01459325
#
# Stress axis : x y z
#
# Youngs Moduli (GPa) = 81.56029 78.93064 63.16331
#
# Poissons Ratio (x) = 0.11002 0.41834
# Poissons Ratio (y) = 0.11369 0.32007
# Poissons Ratio (z) = 0.54019 0.39997
#
# Static dielectric constant tensor:
#      x y z
#    x 3.644920 0.000000 0.013770 
#    y 0.000000 3.831280 0.000000 
#    z 0.013770 0.000000 3.355440 
# 
# 
# High freq. dielectric constant tensor:
#      x y z
#    x 1.767560 0.000000 0.004460 
#    y 0.000000 1.790110 0.000000 
#    z 0.004460 0.000000 1.747000 
# 
# From -- ./inp_files/181955.got.cif
#   From: 2010.06.25/outbox.cif.g09.slc.cpg/sg15_91_cif.got.tgz:181955.got - 2010.06.28 07:06:18.
