data_PCOD8138099
_publ_section_title
;
Structure prediction by ZEFSAII (Michael W. Deem and Ramdas Pophale) SiO2 
 PCOD8138099
Probable space group: C 2/C
;
_chemical_formula_sum "Si O2"
_cell_formula_units_Z 64
_cell_length_a 11.381100
_cell_length_b 11.023014
_cell_length_c 26.147460
_cell_angle_alpha 90.000000
_cell_angle_beta 91.751635
_cell_angle_gamma 90.000000
_cell_volume 3278.771267
_symmetry_space_group_name_H-M "C 2/C"
_symmetry_group_IT_number 15
_symmetry_cell_setting 'monoclinic'
loop_
_space_group_symop_operation_xyz
x,y,z
-x,y,1/2-z
-x,-y,-z
x,-y,1/2+z
1/2+x,1/2+y,z
1/2-x,1/2+y,1/2-z
1/2-x,1/2-y,-z
1/2+x,1/2-y,1/2+z
loop_
_atom_site_type_symbol
_atom_site_label
_atom_site_fract_x
_atom_site_fract_y
_atom_site_fract_z
Si Si1 0.273521 0.154171 0.819650
Si Si2 0.123050 0.571455 0.778496
Si Si3 0.750019 0.035685 0.430870
Si Si4 0.618161 0.962177 0.029427
Si Si5 0.652042 0.908217 0.632077
Si Si6 0.828970 0.703571 0.621186
Si Si7 0.424913 0.270972 0.905347
Si Si8 0.107895 0.646933 0.341697
O O1 0.289242 0.141315 0.758637
O O2 0.371777 0.238471 0.848603
O O3 0.145464 0.214979 0.828460
O O4 0.279728 0.019102 0.841285
O O5 0.104304 0.646253 0.829894
O O6 0.166869 0.438554 0.798369
O O7 0.000000 0.555401 0.750000
O O8 0.725227 0.040154 0.490928
O O9 0.878101 0.096111 0.422103
O O10 0.654239 0.115010 0.398937
O O11 0.740258 0.896090 0.413332
O O12 0.614947 0.830091 0.054657
O O13 0.636558 0.065451 0.072067
O O14 0.500000 0.000000 0.000000
O O15 0.732292 0.792947 0.640826
O O16 0.531406 0.876318 0.659661
O O17 0.932973 0.772338 0.591989
#
# Coordination Sequence:
#
# PCOD8138099 Si02
#       8
#     8   8   8   8   8   8   8   8
#     4  10  21  37  60  86 111 150 199 242 290 353
#     4  11  19  37  63  82 108 153 197 238 296 359
#     4  10  20  38  59  85 115 153 200 243 293 355
#     4  11  18  37  64  84 110 157 210 242 291 361
#     4  11  23  38  57  88 125 153 191 252 299 353
#     4  11  23  37  56  86 123 154 189 245 307 362
#     4  10  20  37  59  84 116 151 196 248 293 351
#     4  10  21  37  61  85 112 152 197 246 288 348
#
# _framework density 19.519507000000001
#
# number of rings (size 3 to 8) (size 9 to 14) (size 15 to 20)
#    0.000    1.500    5.000    1.875    1.750    1.500 
#    0.000    0.625    0.000    0.750    0.000    0.000 
#    0.000    0.000    0.000    0.000    0.000    0.000 
#
# Total GULP energy -396672.916095 kJ/mol
# GULP energy per Si atom -12396.028628 kJ/mol
# Density = 1.947508 g / cm^3
# Si number density = 19.519507 Si / 1000 Ang^3
#
#
#
# Elastic Constant Matrix: (Units=GPa)
#
#
# Indices 1 2 3 4 5 6 
#
# 1 80.4398 68.2307 27.3653 0.0000 -15.9393 0.0000
# 2 68.2307 90.3572 20.6115 0.0000 -21.2649 0.0000
# 3 27.3653 20.6115 92.7299 0.0000 -15.2213 0.0000
# 4 0.0000 0.0000 0.0000 20.5870 0.0000 -4.5037
# 5 -15.9393 -21.2649 -15.2213 0.0000 28.1406 0.0000
# 6 0.0000 0.0000 0.0000 -4.5037 0.0000 36.6601
#
#
#
# Elastic Compliance Matrix: (Units=1/GPa)
#
#
# Indices 1 2 3 4 5 6 
#
# 1 0.036722 -0.027134 -0.005221 0.000000 -0.002528 0.000000
# 2 -0.027134 0.033690 0.002387 0.000000 0.011381 0.000000
# 3 -0.005221 0.002387 0.012736 0.000000 0.005735 0.000000
# 4 0.000000 0.000000 0.000000 0.049916 0.000000 0.006132
# 5 -0.002528 0.011381 0.005735 0.000000 0.045806 0.000000
# 6 0.000000 0.000000 0.000000 0.006132 0.000000 0.028031
#
#
# Mechanical properties :
#
#
# Convention : Reuss Voigt Hill
#
# Bulk Modulus (GPa) = 43.07934 55.10465 49.09200
# Shear Modulus (GPa) = 18.21004 26.89886 22.55445
#
# Velocity S-wave (km/s) = 3.05768 3.71624 3.40293
# Velocity P-wave (km/s) = 5.88079 6.83416 6.37532
#
# Compressibility (1/GPa) = 0.02321298
#
# Stress axis : x y z
#
# Youngs Moduli (GPa) = 27.23148 29.68215 78.52021
#
# Poissons Ratio (x) = 0.80539 0.40994
# Poissons Ratio (y) = 0.73889 -0.18743
# Poissons Ratio (z) = 0.14217 -0.07085
#
# Static dielectric constant tensor:
#      x y z
#    x 3.433640 0.000000 -0.114010 
#    y 0.000000 3.597880 0.000000 
#    z -0.114010 0.000000 3.945520 
# 
# 
# High freq. dielectric constant tensor:
#      x y z
#    x 1.737170 0.000000 -0.002050 
#    y 0.000000 1.752780 0.000000 
#    z -0.002050 0.000000 1.770730 
# 
# From -- ./inp_files/268839.got.cif
#   From: 2010.06.25/outbox.cif.g09.slc.cpg/sg15_135_cif.got.tgz:268839.got - 2010.06.28 07:06:18.
