data_PCOD8138633
_publ_section_title
;
Structure prediction by ZEFSAII (Michael W. Deem and Ramdas Pophale) SiO2 
 PCOD8138633
Probable space group: C 2/C
;
_chemical_formula_sum "Si O2"
_cell_formula_units_Z 56
_cell_length_a 10.727371
_cell_length_b 22.381490
_cell_length_c 11.896347
_cell_angle_alpha 90.000000
_cell_angle_beta 86.633557
_cell_angle_gamma 90.000000
_cell_volume 2851.319275
_symmetry_space_group_name_H-M "C 2/C"
_symmetry_group_IT_number 15
_symmetry_cell_setting 'monoclinic'
loop_
_space_group_symop_operation_xyz
x,y,z
-x,y,1/2-z
-x,-y,-z
x,-y,1/2+z
1/2+x,1/2+y,z
1/2-x,1/2+y,1/2-z
1/2-x,1/2-y,-z
1/2+x,1/2-y,1/2+z
loop_
_atom_site_type_symbol
_atom_site_label
_atom_site_fract_x
_atom_site_fract_y
_atom_site_fract_z
Si Si1 0.202676 0.709332 0.403668
Si Si2 0.643862 0.586275 0.108209
Si Si3 0.067974 0.308150 0.498634
Si Si4 0.484186 0.069327 0.622871
Si Si5 0.300057 0.008376 0.489681
Si Si6 0.287498 0.280316 0.659400
Si Si7 0.132914 0.908849 0.856528
O O1 0.250000 0.750000 0.500000
O O2 0.268294 0.644587 0.409984
O O3 0.230736 0.740974 0.281959
O O4 0.053762 0.710690 0.425996
O O5 0.500828 0.590805 0.075076
O O6 0.643058 0.559236 0.234695
O O7 0.690170 0.536503 0.020747
O O8 0.032589 0.373910 0.457076
O O9 0.180991 0.300951 0.578755
O O10 0.111679 0.268000 0.390190
O O11 0.500000 0.090253 0.750000
O O12 0.600960 0.026915 0.591086
O O13 0.361482 0.029735 0.604048
O O14 0.242997 0.065813 0.428623
O O15 0.361363 0.340070 0.678787
#
# Coordination Sequence:
#
# PCOD8138633 Si02
#       7
#     8   8   8   8   8   8   8
#     4  11  23  39  62  92 122 159 208 260 316 376
#     4  10  21  36  59  89 120 159 207 247 302 366
#     4  11  22  42  63  87 125 161 207 261 316 376
#     4  11  24  38  61  93 122 159 210 260 316 368
#     4  11  21  40  59  88 123 167 201 255 306 373
#     4  10  23  40  63  89 121 165 207 256 318 378
#     4  10  20  38  59  87 122 159 205 249 300 370
#
# _framework density 19.640031
#
# number of rings (size 3 to 8) (size 9 to 14) (size 15 to 20)
#    0.000    1.429    2.857    2.571    2.000    1.143 
#    0.000    0.000    0.000    0.000    0.000    0.000 
#    0.000    0.000    0.000    0.000    0.000    0.000 
#
# Total GULP energy -346883.045626 kJ/mol
# GULP energy per Si atom -12388.680201 kJ/mol
# Density = 1.959533 g / cm^3
# Si number density = 19.640031 Si / 1000 Ang^3
#
#
#
# Elastic Constant Matrix: (Units=GPa)
#
#
# Indices 1 2 3 4 5 6 
#
# 1 114.2651 26.8140 34.9697 0.0000 -15.7637 0.0000
# 2 26.8140 62.7687 26.7806 0.0000 -7.9896 0.0000
# 3 34.9697 26.7806 108.1103 0.0000 -4.6102 0.0000
# 4 0.0000 0.0000 0.0000 30.0433 0.0000 -4.7868
# 5 -15.7637 -7.9896 -4.6102 0.0000 31.0443 0.0000
# 6 0.0000 0.0000 0.0000 -4.7868 0.0000 29.0579
#
#
#
# Elastic Compliance Matrix: (Units=1/GPa)
#
#
# Indices 1 2 3 4 5 6 
#
# 1 0.010841 -0.002974 -0.002584 0.000000 0.004356 0.000000
# 2 -0.002974 0.019126 -0.003653 0.000000 0.002870 0.000000
# 3 -0.002584 -0.003653 0.010964 0.000000 -0.000624 0.000000
# 4 0.000000 0.000000 0.000000 0.034182 0.000000 0.005631
# 5 0.004356 0.002870 -0.000624 0.000000 0.035070 0.000000
# 6 0.000000 0.000000 0.000000 0.005631 0.000000 0.035342
#
#
# Mechanical properties :
#
#
# Convention : Reuss Voigt Hill
#
# Bulk Modulus (GPa) = 44.42927 51.36362 47.89645
# Shear Modulus (GPa) = 29.16276 31.13443 30.14859
#
# Velocity S-wave (km/s) = 3.85757 3.98584 3.92223
# Velocity P-wave (km/s) = 6.52013 6.88418 6.70462
#
# Compressibility (1/GPa) = 0.02250769
#
# Stress axis : x y z
#
# Youngs Moduli (GPa) = 92.23968 52.28466 91.20670
#
# Poissons Ratio (x) = 0.15551 0.23570
# Poissons Ratio (y) = 0.27434 0.33321
# Poissons Ratio (z) = 0.23837 0.19102
#
# Static dielectric constant tensor:
#      x y z
#    x 3.393140 0.000000 0.009360 
#    y 0.000000 3.032050 0.000000 
#    z 0.009360 0.000000 3.594260 
# 
# 
# High freq. dielectric constant tensor:
#      x y z
#    x 1.781520 0.000000 -0.003030 
#    y 0.000000 1.759860 0.000000 
#    z -0.003030 0.000000 1.764890 
# 
# From -- ./inp_files/88906.got.cif
#   From: 2010.06.25/outbox.cif.g09.slc.cpg/sg15_45_cif.got.tgz:88906.got - 2010.06.28 07:06:18.
