data_PCOD8138900
_publ_section_title
;
Structure prediction by ZEFSAII (Michael W. Deem and Ramdas Pophale) SiO2 
 PCOD8138900
Probable space group: C 2/C
;
_chemical_formula_sum "Si O2"
_cell_formula_units_Z 56
_cell_length_a 9.095105
_cell_length_b 29.794526
_cell_length_c 17.828877
_cell_angle_alpha 90.000000
_cell_angle_beta 34.569008
_cell_angle_gamma 90.000000
_cell_volume 2741.298363
_symmetry_space_group_name_H-M "C 2/C"
_symmetry_group_IT_number 15
_symmetry_cell_setting 'monoclinic'
loop_
_space_group_symop_operation_xyz
x,y,z
-x,y,1/2-z
-x,-y,-z
x,-y,1/2+z
1/2+x,1/2+y,z
1/2-x,1/2+y,1/2-z
1/2-x,1/2-y,-z
1/2+x,1/2-y,1/2+z
loop_
_atom_site_type_symbol
_atom_site_label
_atom_site_fract_x
_atom_site_fract_y
_atom_site_fract_z
Si Si1 0.095001 0.917620 0.958866
Si Si2 0.500000 0.008806 0.250000
Si Si3 0.716581 0.656828 0.516065
Si Si4 0.819584 0.431242 0.238611
Si Si5 0.302221 0.813635 0.605246
Si Si6 0.000000 0.895655 0.250000
Si Si7 0.301187 0.287568 0.103243
Si Si8 0.730624 0.136123 0.526055
O O1 0.252872 0.960777 0.868875
O O2 0.262482 0.879404 0.930638
O O3 0.876912 0.930887 0.110004
O O4 0.968797 0.898925 0.934479
O O5 0.473953 0.977790 0.186068
O O6 0.623007 0.635190 0.633650
O O7 0.498048 0.693784 0.584801
O O8 0.003827 0.677426 0.406649
O O9 0.698265 0.430186 0.206576
O O10 0.992718 0.386037 0.171668
O O11 0.372411 0.763167 0.550147
O O12 0.359264 0.852257 0.519968
O O13 0.000000 0.817574 0.750000
O O14 0.336087 0.317504 0.015365
O O15 0.000000 0.290704 0.250000
#
# Coordination Sequence:
#
# PCOD8138900 Si02
#       8
#     8   4   8   8   8   4   8   8
#     4  10  23  39  63  91 120 161 208 254 313 383
#     4  12  24  40  64  93 122 152 205 270 320 370
#     4  10  21  40  64  88 129 166 210 250 314 373
#     4  11  21  39  64  91 118 155 213 255 308 379
#     4  11  24  38  59  94 134 165 207 258 317 369
#     4  10  20  38  62  93 112 164 205 256 306 372
#     4  10  21  38  63  94 126 163 216 261 299 369
#     4  11  20  40  65  87 121 169 207 253 308 371
#
# _framework density 20.428277000000001
#
# number of rings (size 3 to 8) (size 9 to 14) (size 15 to 20)
#    0.000    1.429    2.857    3.857    2.000    0.000 
#    0.000    4.286    0.000    0.000    0.000    0.000 
#    0.000    0.000    0.000    0.000    0.000    0.000 
#
# Total GULP energy -346889.908499 kJ/mol
# GULP energy per Si atom -12388.925304 kJ/mol
# Density = 2.038178 g / cm^3
# Si number density = 20.428277 Si / 1000 Ang^3
#
#
#
# Elastic Constant Matrix: (Units=GPa)
#
#
# Indices 1 2 3 4 5 6 
#
# 1 157.7771 62.0660 29.9812 0.0000 -20.4086 0.0000
# 2 62.0660 138.6264 40.6502 0.0000 -8.8288 0.0000
# 3 29.9812 40.6502 57.3807 0.0000 -11.2850 0.0000
# 4 0.0000 0.0000 0.0000 29.2870 0.0000 -3.4571
# 5 -20.4086 -8.8288 -11.2850 0.0000 31.8853 0.0000
# 6 0.0000 0.0000 0.0000 -3.4571 0.0000 31.8220
#
#
#
# Elastic Compliance Matrix: (Units=1/GPa)
#
#
# Indices 1 2 3 4 5 6 
#
# 1 0.008324 -0.003064 -0.001395 0.000000 0.003986 0.000000
# 2 -0.003064 0.010235 -0.005888 0.000000 -0.001211 0.000000
# 3 -0.001395 -0.005888 0.023464 0.000000 0.005782 0.000000
# 4 0.000000 0.000000 0.000000 0.034588 0.000000 0.003758
# 5 0.003986 -0.001211 0.005782 0.000000 0.035625 0.000000
# 6 0.000000 0.000000 0.000000 0.003758 0.000000 0.031833
#
#
# Mechanical properties :
#
#
# Convention : Reuss Voigt Hill
#
# Bulk Modulus (GPa) = 46.88237 68.79768 57.84002
# Shear Modulus (GPa) = 29.09130 33.33797 31.21464
#
# Velocity S-wave (km/s) = 3.77778 4.04413 3.91322
# Velocity P-wave (km/s) = 6.48293 7.45368 6.98519
#
# Compressibility (1/GPa) = 0.02132998
#
# Stress axis : x y z
#
# Youngs Moduli (GPa) = 120.13520 97.70519 42.61758
#
# Poissons Ratio (x) = 0.29937 0.05944
# Poissons Ratio (y) = 0.36809 0.25093
# Poissons Ratio (z) = 0.16756 0.57528
#
# Static dielectric constant tensor:
#      x y z
#    x 4.208090 0.000000 -0.259930 
#    y 0.000000 3.986910 0.000000 
#    z -0.259930 0.000000 3.324770 
# 
# 
# High freq. dielectric constant tensor:
#      x y z
#    x 1.816730 0.000000 -0.023160 
#    y 0.000000 1.801740 0.000000 
#    z -0.023160 0.000000 1.768520 
# 
# From -- ./inp_files/193863.got.cif
#   From: 2010.06.25/outbox.cif.g09.slc.cpg/sg15_97_cif.got.tgz:193863.got - 2010.06.28 07:06:18.
