data_PCOD8138042
_publ_section_title
;
Structure prediction by ZEFSAII (Michael W. Deem and Ramdas Pophale) SiO2 
 PCOD8138042
Probable space group: C 2/C
;
_chemical_formula_sum "Si O2"
_cell_formula_units_Z 60
_cell_length_a 10.810934
_cell_length_b 11.442728
_cell_length_c 24.229601
_cell_angle_alpha 90.000000
_cell_angle_beta 69.632964
_cell_angle_gamma 90.000000
_cell_volume 2809.973125
_symmetry_space_group_name_H-M "C 2/C"
_symmetry_group_IT_number 15
_symmetry_cell_setting 'monoclinic'
loop_
_space_group_symop_operation_xyz
x,y,z
-x,y,1/2-z
-x,-y,-z
x,-y,1/2+z
1/2+x,1/2+y,z
1/2-x,1/2+y,1/2-z
1/2-x,1/2-y,-z
1/2+x,1/2-y,1/2+z
loop_
_atom_site_type_symbol
_atom_site_label
_atom_site_fract_x
_atom_site_fract_y
_atom_site_fract_z
Si Si1 0.065703 0.366276 0.605454
Si Si2 0.139051 0.906145 0.676053
Si Si3 0.639827 0.031337 0.278485
Si Si4 0.000000 0.906108 0.250000
Si Si5 0.657447 0.191190 0.438775
Si Si6 0.188169 0.716188 0.188790
Si Si7 0.657394 0.107843 0.561514
Si Si8 0.960199 0.294953 0.177682
O O1 0.149296 0.274511 0.629809
O O2 0.165757 0.467343 0.568100
O O3 0.954570 0.417085 0.661424
O O4 0.985756 0.302343 0.568510
O O5 0.213986 0.941084 0.720920
O O6 0.237140 0.893972 0.608841
O O7 0.062660 0.783594 0.696636
O O8 0.030161 0.011942 0.690709
O O9 0.629794 0.092791 0.220357
O O10 0.604580 0.895532 0.273960
O O11 0.126905 0.820499 0.235880
O O12 0.635590 0.133105 0.500945
O O13 0.713131 0.323772 0.435775
O O14 0.344647 0.715846 0.170198
O O15 0.529047 0.151410 0.613384
#
# Coordination Sequence:
#
# PCOD8138042 Si02
#       8
#     8   8   8   4   8   8   8   8
#     4  10  20  37  57  89 117 158 198 248 313 363
#     4  10  21  40  61  91 116 166 207 249 315 372
#     4  10  20  40  57  86 121 158 209 255 296 374
#     4  12  22  40  54  84 130 166 198 246 310 368
#     4   9  19  39  69  89 119 153 207 262 313 369
#     4  12  23  40  56  82 133 164 199 259 309 372
#     4   9  19  40  66  92 115 154 207 266 306 370
#     4  10  22  39  62  89 122 160 213 253 312 377
#
# _framework density 21.352516999999999
#
# number of rings (size 3 to 8) (size 9 to 14) (size 15 to 20)
#    0.000    1.867    2.667    1.200    0.000    0.000 
#   26.400    0.667    0.000    2.400    0.000    0.000 
#    0.000    0.000    0.000    0.000    0.000    0.000 
#
# Total GULP energy -371677.501774 kJ/mol
# GULP energy per Si atom -12389.250059 kJ/mol
# Density = 2.130392 g / cm^3
# Si number density = 21.352517 Si / 1000 Ang^3
#
#
#
# Elastic Constant Matrix: (Units=GPa)
#
#
# Indices 1 2 3 4 5 6 
#
# 1 84.7953 52.0557 25.4199 0.0000 15.5807 0.0000
# 2 52.0557 118.6331 40.8379 0.0000 7.4239 0.0000
# 3 25.4199 40.8379 81.9419 0.0000 9.4704 0.0000
# 4 0.0000 0.0000 0.0000 27.8405 0.0000 -3.1396
# 5 15.5807 7.4239 9.4704 0.0000 30.3086 0.0000
# 6 0.0000 0.0000 0.0000 -3.1396 0.0000 32.0684
#
#
#
# Elastic Compliance Matrix: (Units=1/GPa)
#
#
# Indices 1 2 3 4 5 6 
#
# 1 0.017687 -0.006895 -0.001240 0.000000 -0.007016 0.000000
# 2 -0.006895 0.012889 -0.004492 0.000000 0.001791 0.000000
# 3 -0.001240 -0.004492 0.015174 0.000000 -0.003004 0.000000
# 4 0.000000 0.000000 0.000000 0.036320 0.000000 0.003556
# 5 -0.007016 0.001791 -0.003004 0.000000 0.037101 0.000000
# 6 0.000000 0.000000 0.000000 0.003556 0.000000 0.031531
#
#
# Mechanical properties :
#
#
# Convention : Reuss Voigt Hill
#
# Bulk Modulus (GPa) = 48.78700 57.99971 53.39336
# Shear Modulus (GPa) = 27.35433 29.18063 28.26748
#
# Velocity S-wave (km/s) = 3.58310 3.70078 3.64242
# Velocity P-wave (km/s) = 6.32583 6.74411 6.53831
#
# Compressibility (1/GPa) = 0.02049726
#
# Stress axis : x y z
#
# Youngs Moduli (GPa) = 56.53953 77.58559 65.90235
#
# Poissons Ratio (x) = 0.53496 0.08169
# Poissons Ratio (y) = 0.38985 0.29600
# Poissons Ratio (z) = 0.07008 0.34848
#
# Static dielectric constant tensor:
#      x y z
#    x 4.123080 0.000000 -0.030030 
#    y 0.000000 4.062510 0.000000 
#    z -0.030030 0.000000 3.739770 
# 
# 
# High freq. dielectric constant tensor:
#      x y z
#    x 1.840310 0.000000 -0.006890 
#    y 0.000000 1.832930 0.000000 
#    z -0.006890 0.000000 1.818350 
# 
# From -- ./inp_files/268798.got.cif
#   From: 2010.06.25/outbox.cif.g09.slc.cpg/sg15_135_cif.got.tgz:268798.got - 2010.06.28 07:06:18.
