data_PCOD8138381
_publ_section_title
;
Structure prediction by ZEFSAII (Michael W. Deem and Ramdas Pophale) SiO2 
 PCOD8138381
Probable space group: C 2/C
;
_chemical_formula_sum "Si O2"
_cell_formula_units_Z 48
_cell_length_a 22.289140
_cell_length_b 11.746134
_cell_length_c 15.935643
_cell_angle_alpha 90.000000
_cell_angle_beta 36.224970
_cell_angle_gamma 90.000000
_cell_volume 2465.550775
_symmetry_space_group_name_H-M "C 2/C"
_symmetry_group_IT_number 15
_symmetry_cell_setting 'monoclinic'
loop_
_space_group_symop_operation_xyz
x,y,z
-x,y,1/2-z
-x,-y,-z
x,-y,1/2+z
1/2+x,1/2+y,z
1/2-x,1/2+y,1/2-z
1/2-x,1/2-y,-z
1/2+x,1/2-y,1/2+z
loop_
_atom_site_type_symbol
_atom_site_label
_atom_site_fract_x
_atom_site_fract_y
_atom_site_fract_z
Si Si1 0.889727 0.170241 0.334970
Si Si2 0.521193 0.251536 0.319656
Si Si3 0.303990 0.203840 0.631873
Si Si4 0.827612 0.935679 0.333464
Si Si5 0.293645 0.103701 0.364763
Si Si6 0.791003 0.344892 0.337457
O O1 0.881839 0.284004 0.287362
O O2 0.815247 0.180973 0.497758
O O3 0.000000 0.152344 0.250000
O O4 0.857481 0.067429 0.308691
O O5 0.500000 0.292303 0.250000
O O6 0.423779 0.211983 0.481208
O O7 0.573665 0.361502 0.303965
O O8 0.596577 0.144821 0.229518
O O9 0.258408 0.088808 0.640095
O O10 0.249265 0.316443 0.659637
O O11 0.283913 0.203997 0.752799
O O12 0.785091 0.889904 0.469905
O O13 0.311193 0.978387 0.309594
#
# Coordination Sequence:
#
# PCOD8138381 Si02
#       6
#     8   8   8   8   8   8
#     4  10  23  45  66  83 124 166 212 246 307 379
#     4  11  18  34  61  92 118 158 196 247 311 354
#     4  11  22  37  62  93 129 150 207 260 305 365
#     4  10  20  37  63  95 116 160 203 256 304 358
#     4  10  21  38  59  88 123 159 205 249 306 367
#     4  10  25  42  58  92 122 166 200 256 313 360
#
# _framework density 19.468267000000001
#
# number of rings (size 3 to 8) (size 9 to 14) (size 15 to 20)
#    0.000    1.667    3.333    1.500    4.667    4.000 
#    3.000    1.667    0.000    0.000    0.000    0.000 
#    0.000    0.000    0.000    0.000    0.000    0.000 
#
# Total GULP energy -297607.983284 kJ/mol
# GULP energy per Si atom -12400.332637 kJ/mol
# Density = 1.942396 g / cm^3
# Si number density = 19.468267 Si / 1000 Ang^3
#
#
#
# Elastic Constant Matrix: (Units=GPa)
#
#
# Indices 1 2 3 4 5 6 
#
# 1 84.7869 40.4007 51.7095 0.0000 -5.3292 0.0000
# 2 40.4007 100.9771 32.9347 0.0000 -7.7986 0.0000
# 3 51.7095 32.9347 74.8823 0.0000 -8.4557 0.0000
# 4 0.0000 0.0000 0.0000 19.3718 0.0000 0.5897
# 5 -5.3292 -7.7986 -8.4557 0.0000 38.7156 0.0000
# 6 0.0000 0.0000 0.0000 0.5897 0.0000 24.6024
#
#
#
# Elastic Compliance Matrix: (Units=1/GPa)
#
#
# Indices 1 2 3 4 5 6 
#
# 1 0.022014 -0.004531 -0.013297 0.000000 -0.000787 0.000000
# 2 -0.004531 0.012554 -0.002232 0.000000 0.001417 0.000000
# 3 -0.013297 -0.002232 0.023849 0.000000 0.002929 0.000000
# 4 0.000000 0.000000 0.000000 0.051659 0.000000 -0.001238
# 5 -0.000787 0.001417 0.002929 0.000000 0.026646 0.000000
# 6 0.000000 0.000000 0.000000 -0.001238 0.000000 0.040676
#
#
# Mechanical properties :
#
#
# Convention : Reuss Voigt Hill
#
# Bulk Modulus (GPa) = 54.66016 56.74845 55.70431
# Shear Modulus (GPa) = 22.35955 25.57806 23.96881
#
# Velocity S-wave (km/s) = 3.39265 3.62862 3.51261
# Velocity P-wave (km/s) = 6.59426 6.83873 6.71761
#
# Compressibility (1/GPa) = 0.01829486
#
# Stress axis : x y z
#
# Youngs Moduli (GPa) = 45.42627 79.65743 41.93021
#
# Poissons Ratio (x) = 0.36095 0.55756
# Poissons Ratio (y) = 0.20584 0.09360
# Poissons Ratio (z) = 0.60405 0.17782
#
# Static dielectric constant tensor:
#      x y z
#    x 3.542450 0.000000 -0.157560 
#    y 0.000000 3.634490 0.000000 
#    z -0.157560 0.000000 3.470060 
# 
# 
# High freq. dielectric constant tensor:
#      x y z
#    x 1.758680 0.000000 -0.008650 
#    y 0.000000 1.760990 0.000000 
#    z -0.008650 0.000000 1.749120 
# 
# From -- ./inp_files/111224.got.cif
#   From: 2010.06.25/outbox.cif.g09.slc.cpg/sg15_56_cif.got.tgz:111224.got - 2010.06.28 07:06:18.
