data_PCOD8138450
_publ_section_title
;
Structure prediction by ZEFSAII (Michael W. Deem and Ramdas Pophale) SiO2 
 PCOD8138450
Probable space group: C 2/C
;
_chemical_formula_sum "Si O2"
_cell_formula_units_Z 48
_cell_length_a 30.256705
_cell_length_b 10.044366
_cell_length_c 16.466962
_cell_angle_alpha 90.000000
_cell_angle_beta 150.624475
_cell_angle_gamma 90.000000
_cell_volume 2454.847917
_symmetry_space_group_name_H-M "C 2/C"
_symmetry_group_IT_number 15
_symmetry_cell_setting 'monoclinic'
loop_
_space_group_symop_operation_xyz
x,y,z
-x,y,1/2-z
-x,-y,-z
x,-y,1/2+z
1/2+x,1/2+y,z
1/2-x,1/2+y,1/2-z
1/2-x,1/2-y,-z
1/2+x,1/2-y,1/2+z
loop_
_atom_site_type_symbol
_atom_site_label
_atom_site_fract_x
_atom_site_fract_y
_atom_site_fract_z
Si Si1 0.340956 0.455871 0.447871
Si Si2 0.600575 0.723176 0.881145
Si Si3 0.508199 0.364947 0.615860
Si Si4 0.725207 0.043442 0.604283
Si Si5 0.177565 0.264743 0.454655
Si Si6 0.894613 0.868920 0.282692
O O1 0.346936 0.591110 0.508046
O O2 0.439000 0.408251 0.574964
O O3 0.275322 0.486357 0.268388
O O4 0.299434 0.343920 0.439749
O O5 0.500000 0.715894 0.750000
O O6 0.603575 0.735487 0.788064
O O7 0.645642 0.852313 0.993005
O O8 0.576098 0.252936 0.757776
O O9 0.454919 0.308753 0.452328
O O10 0.567067 0.490953 0.685392
O O11 0.792839 0.108759 0.648014
O O12 0.682196 0.909086 0.501828
O O13 0.250000 0.250000 0.500000
#
# Coordination Sequence:
#
# PCOD8138450 Si02
#       6
#     8   8   8   8   8   8
#     4  11  22  41  64  88 119 169 215 246 298 381
#     4  12  22  39  61  90 121 163 203 255 308 371
#     4  10  20  37  65  87 111 159 216 252 289 369
#     4  11  25  38  60  93 129 154 201 267 319 355
#     4  12  22  39  62  95 125 163 202 259 312 367
#     4  10  20  39  61  87 116 158 208 253 302 367
#
# _framework density 19.553146999999999
#
# number of rings (size 3 to 8) (size 9 to 14) (size 15 to 20)
#    0.000    1.000    5.000    2.000    0.000    2.667 
#    0.000    0.833    0.000    0.000    0.000    0.000 
#    0.000    0.000    0.000    0.000    0.000    0.000 
#
# Total GULP energy -297711.190102 kJ/mol
# GULP energy per Si atom -12404.632921 kJ/mol
# Density = 1.950864 g / cm^3
# Si number density = 19.553147 Si / 1000 Ang^3
#
#
#
# Elastic Constant Matrix: (Units=GPa)
#
#
# Indices 1 2 3 4 5 6 
#
# 1 79.2881 33.8049 22.7590 0.0000 -24.1781 0.0000
# 2 33.8049 104.4098 58.6577 0.0000 -4.5187 0.0000
# 3 22.7590 58.6577 113.1459 0.0000 -19.5619 0.0000
# 4 0.0000 0.0000 0.0000 14.8218 0.0000 0.8815
# 5 -24.1781 -4.5187 -19.5619 0.0000 17.9707 0.0000
# 6 0.0000 0.0000 0.0000 0.8815 0.0000 23.2166
#
#
#
# Elastic Compliance Matrix: (Units=1/GPa)
#
#
# Indices 1 2 3 4 5 6 
#
# 1 0.029196 -0.012115 0.008220 0.000000 0.045182 0.000000
# 2 -0.012115 0.018949 -0.011556 0.000000 -0.024114 0.000000
# 3 0.008220 -0.011556 0.017966 0.000000 0.027710 0.000000
# 4 0.000000 0.000000 0.000000 0.067621 0.000000 -0.002568
# 5 0.045182 -0.024114 0.027710 0.000000 0.140535 0.000000
# 6 0.000000 0.000000 0.000000 -0.002568 0.000000 0.043170
#
#
# Mechanical properties :
#
#
# Convention : Reuss Voigt Hill
#
# Bulk Modulus (GPa) = 28.40216 58.58744 43.49480
# Shear Modulus (GPa) = 13.88596 23.30997 18.59796
#
# Velocity S-wave (km/s) = 2.66778 3.45647 3.08742
# Velocity P-wave (km/s) = 4.90373 6.77922 5.91627
#
# Compressibility (1/GPa) = 0.03520858
#
# Stress axis : x y z
#
# Youngs Moduli (GPa) = 34.25124 52.77441 55.65958
#
# Poissons Ratio (x) = 0.63938 -0.45751
# Poissons Ratio (y) = 0.41496 0.64318
# Poissons Ratio (z) = -0.28154 0.60984
#
# Static dielectric constant tensor:
#      x y z
#    x 3.996600 0.000000 -0.202880 
#    y 0.000000 3.401930 0.000000 
#    z -0.202880 0.000000 3.784010 
# 
# 
# High freq. dielectric constant tensor:
#      x y z
#    x 1.776210 0.000000 -0.009300 
#    y 0.000000 1.740110 0.000000 
#    z -0.009300 0.000000 1.773730 
# 
# From -- ./inp_files/177883.got.cif
#   From: 2010.06.25/outbox.cif.g09.slc.cpg/sg15_89_cif.got.tgz:177883.got - 2010.06.28 07:06:18.
