data_PCOD8138208
_publ_section_title
;
Structure prediction by ZEFSAII (Michael W. Deem and Ramdas Pophale) SiO2 
 PCOD8138208
Probable space group: C 2/C
;
_chemical_formula_sum "Si O2"
_cell_formula_units_Z 40
_cell_length_a 17.960225
_cell_length_b 5.120602
_cell_length_c 25.792078
_cell_angle_alpha 90.000000
_cell_angle_beta 62.797061
_cell_angle_gamma 90.000000
_cell_volume 2109.661603
_symmetry_space_group_name_H-M "C 2/C"
_symmetry_group_IT_number 15
_symmetry_cell_setting 'monoclinic'
loop_
_space_group_symop_operation_xyz
x,y,z
-x,y,1/2-z
-x,-y,-z
x,-y,1/2+z
1/2+x,1/2+y,z
1/2-x,1/2+y,1/2-z
1/2-x,1/2-y,-z
1/2+x,1/2-y,1/2+z
loop_
_atom_site_type_symbol
_atom_site_label
_atom_site_fract_x
_atom_site_fract_y
_atom_site_fract_z
Si Si1 0.358181 0.254690 0.915757
Si Si2 0.973191 0.005751 0.140276
Si Si3 0.183263 0.449356 0.963076
Si Si4 0.907712 0.041289 0.051290
Si Si5 0.006028 0.486878 0.188087
O O1 0.432439 0.446390 0.911918
O O2 0.282997 0.441633 0.919940
O O3 0.396293 0.068984 0.858052
O O4 0.329538 0.061693 0.970929
O O5 0.909312 0.039126 0.113219
O O6 0.952555 0.227283 0.190298
O O7 0.966484 0.722267 0.167811
O O8 0.135490 0.694859 0.954734
O O9 0.149843 0.192249 0.947122
O O10 0.000000 0.000000 0.000000
O O11 0.000000 0.555555 0.250000
#
# Coordination Sequence:
#
# PCOD8138208 Si02
#       5
#     8   8   8   8   8
#     4   9  23  36  57  88 113 149 192 232 282 342
#     4  10  21  35  58  84 111 140 198 227 281 342
#     4  11  23  34  59  84 125 147 182 232 292 344
#     4  12  21  36  54  86 119 157 178 227 288 349
#     4  10  20  37  61  84 105 148 197 247 273 330
#
# _framework density 18.960388999999999
#
# number of rings (size 3 to 8) (size 9 to 14) (size 15 to 20)
#    1.200    0.400    2.000    3.600    2.800    1.600 
#    0.000    0.000    0.000    4.800    0.000    0.000 
#    0.000    0.000    0.000    0.000    0.000    0.000 
#
# Total GULP energy -247839.264357 kJ/mol
# GULP energy per Si atom -12391.963218 kJ/mol
# Density = 1.891723 g / cm^3
# Si number density = 18.960389 Si / 1000 Ang^3
#
#
#
# Elastic Constant Matrix: (Units=GPa)
#
#
# Indices 1 2 3 4 5 6 
#
# 1 104.3937 54.3772 36.3608 0.0253 14.2999 0.1018
# 2 54.3772 150.4179 30.8868 0.0496 11.1374 -0.0037
# 3 36.3608 30.8868 100.0235 -0.0024 14.5357 0.0128
# 4 0.0253 0.0496 -0.0024 27.3297 0.0045 12.4284
# 5 14.2999 11.1374 14.5357 0.0045 20.7050 0.0219
# 6 0.1018 -0.0037 0.0128 12.4284 0.0219 38.5929
#
#
#
# Elastic Compliance Matrix: (Units=1/GPa)
#
#
# Indices 1 2 3 4 5 6 
#
# 1 0.013281 -0.003828 -0.002909 0.000011 -0.005071 -0.000035
# 2 -0.003828 0.008324 -0.001016 -0.000020 -0.001120 0.000018
# 3 -0.002909 -0.001016 0.012247 0.000004 -0.006042 0.000006
# 4 0.000011 -0.000020 0.000004 0.042868 0.000005 -0.013805
# 5 -0.005071 -0.001120 -0.006042 0.000005 0.056644 -0.000019
# 6 -0.000035 0.000018 0.000006 -0.013805 -0.000019 0.030357
#
#
# Mechanical properties :
#
#
# Convention : Reuss Voigt Hill
#
# Bulk Modulus (GPa) = 54.50929 66.45385 60.48157
# Shear Modulus (GPa) = 26.97697 32.87287 29.92492
#
# Velocity S-wave (km/s) = 3.77610 4.16837 3.97707
# Velocity P-wave (km/s) = 6.91545 7.63491 7.28407
#
# Compressibility (1/GPa) = 0.01834550
#
# Stress axis : x y z
#
# Youngs Moduli (GPa) = 75.29469 120.13905 81.65370
#
# Poissons Ratio (x) = 0.45995 0.23752
# Poissons Ratio (y) = 0.28826 0.08294
# Poissons Ratio (z) = 0.21902 0.12204
#
# Static dielectric constant tensor:
#      x y z
#    x 3.508380 -0.000200 0.107080 
#    y -0.000200 3.455710 -0.000190 
#    z 0.107080 -0.000190 3.267560 
# 
# 
# High freq. dielectric constant tensor:
#      x y z
#    x 1.725860 0.000000 0.017970 
#    y 0.000000 1.748800 -0.000020 
#    z 0.017970 -0.000020 1.712990 
# 
# From -- ./inp_files/246182.got.cif
#   From: 2010.06.25/outbox.cif.g09.slc.cpg/sg15_124_cif.got.tgz:246182.got - 2010.06.28 07:06:18.
