data_PCOD8138316
_publ_section_title
;
Structure prediction by ZEFSAII (Michael W. Deem and Ramdas Pophale) SiO2 
 PCOD8138316
Probable space group: C 2/C
;
_chemical_formula_sum "Si O2"
_cell_formula_units_Z 48
_cell_length_a 9.634333
_cell_length_b 28.506806
_cell_length_c 8.366131
_cell_angle_alpha 90.000000
_cell_angle_beta 89.621866
_cell_angle_gamma 90.000000
_cell_volume 2297.658160
_symmetry_space_group_name_H-M "C 2/C"
_symmetry_group_IT_number 15
_symmetry_cell_setting 'monoclinic'
loop_
_space_group_symop_operation_xyz
x,y,z
-x,y,1/2-z
-x,-y,-z
x,-y,1/2+z
1/2+x,1/2+y,z
1/2-x,1/2+y,1/2-z
1/2-x,1/2-y,-z
1/2+x,1/2-y,1/2+z
loop_
_atom_site_type_symbol
_atom_site_label
_atom_site_fract_x
_atom_site_fract_y
_atom_site_fract_z
Si Si1 0.771476 0.197482 0.443605
Si Si2 0.282182 0.852054 0.869488
Si Si3 0.870522 0.559910 0.159403
Si Si4 0.996152 0.862831 0.438583
Si Si5 0.538857 0.865843 0.068853
Si Si6 0.076939 0.041899 0.086546
O O1 0.750000 0.250000 0.500000
O O2 0.743664 0.190876 0.253688
O O3 0.673769 0.165986 0.555263
O O4 0.927564 0.180724 0.477639
O O5 0.307623 0.898652 0.767344
O O6 0.159167 0.862074 0.993747
O O7 0.417848 0.839658 0.970787
O O8 0.738721 0.526739 0.117802
O O9 0.000000 0.534027 0.250000
O O10 0.933708 0.581974 0.998096
O O11 0.000000 0.855965 0.250000
O O12 0.073394 0.911693 0.478171
O O13 0.500000 0.872728 0.250000
O O14 0.000000 0.054063 0.250000
O O15 0.000000 0.000000 0.000000
#
# Coordination Sequence:
#
# PCOD8138316 Si02
#       6
#     8   8   8   8   8   8
#     4  11  23  40  61  91 129 173 222 272 329 401
#     4  10  20  39  66  85 125 175 213 262 333 388
#     4   9  19  39  66  88 125 173 214 261 337 393
#     4  12  23  40  65  95 129 176 219 273 340 396
#     4  10  20  37  62  94 123 167 219 264 321 400
#     4  12  23  43  67  98 133 170 227 278 336 407
#
# _framework density 20.890836
#
# number of rings (size 3 to 8) (size 9 to 14) (size 15 to 20)
#    0.000    1.333    5.000    3.500    0.000    2.667 
#    0.000    3.333    0.000    0.000    0.000    0.000 
#    0.000    0.000    0.000    0.000    0.000    0.000 
#
# Total GULP energy -297584.563122 kJ/mol
# GULP energy per Si atom -12399.356797 kJ/mol
# Density = 2.084329 g / cm^3
# Si number density = 20.890836 Si / 1000 Ang^3
#
#
#
# Elastic Constant Matrix: (Units=GPa)
#
#
# Indices 1 2 3 4 5 6 
#
# 1 121.7384 16.4203 36.5982 0.0000 12.3593 0.0000
# 2 16.4203 68.3905 15.5049 0.0000 16.1816 0.0000
# 3 36.5982 15.5049 143.4896 0.0000 -4.4849 0.0000
# 4 0.0000 0.0000 0.0000 13.5925 0.0000 5.8554
# 5 12.3593 16.1816 -4.4849 0.0000 42.7033 0.0000
# 6 0.0000 0.0000 0.0000 5.8554 0.0000 23.9727
#
#
#
# Elastic Compliance Matrix: (Units=1/GPa)
#
#
# Indices 1 2 3 4 5 6 
#
# 1 0.009323 -0.001112 -0.002337 0.000000 -0.002522 0.000000
# 2 -0.001112 0.016747 -0.001720 0.000000 -0.006205 0.000000
# 3 -0.002337 -0.001720 0.007818 0.000000 0.002149 0.000000
# 4 0.000000 0.000000 0.000000 0.082222 0.000000 -0.020083
# 5 -0.002522 -0.006205 0.002149 0.000000 0.026724 0.000000
# 6 0.000000 0.000000 0.000000 -0.020083 0.000000 0.046620
#
#
# Mechanical properties :
#
#
# Convention : Reuss Voigt Hill
#
# Bulk Modulus (GPa) = 42.46083 52.29615 47.37849
# Shear Modulus (GPa) = 24.08011 33.72670 28.90340
#
# Velocity S-wave (km/s) = 3.39877 4.02235 3.72364
# Velocity P-wave (km/s) = 5.98092 6.83080 6.41994
#
# Compressibility (1/GPa) = 0.02355112
#
# Stress axis : x y z
#
# Youngs Moduli (GPa) = 107.26375 59.71258 127.90790
#
# Poissons Ratio (x) = 0.06639 0.29886
# Poissons Ratio (y) = 0.11926 0.22000
# Poissons Ratio (z) = 0.25063 0.10270
#
# Static dielectric constant tensor:
#      x y z
#    x 4.322230 0.000000 0.127740 
#    y 0.000000 3.364860 0.000000 
#    z 0.127740 0.000000 3.943980 
# 
# 
# High freq. dielectric constant tensor:
#      x y z
#    x 1.844280 0.000000 0.002460 
#    y 0.000000 1.771520 0.000000 
#    z 0.002460 0.000000 1.828820 
# 
# From -- ./inp_files/26072.got.cif
#   From: 2010.06.25/outbox.cif.g09.slc.cpg/sg15_14_cif.got.tgz:26072.got - 2010.06.28 07:06:18.
