data_PCOD8138812
_publ_section_title
;
Structure prediction by ZEFSAII (Michael W. Deem and Ramdas Pophale) SiO2 
 PCOD8138812
Probable space group: C 2/C
;
_chemical_formula_sum "Si O2"
_cell_formula_units_Z 36
_cell_length_a 10.066272
_cell_length_b 16.093160
_cell_length_c 12.021484
_cell_angle_alpha 90.000000
_cell_angle_beta 65.167350
_cell_angle_gamma 90.000000
_cell_volume 1767.392625
_symmetry_space_group_name_H-M "C 2/C"
_symmetry_group_IT_number 15
_symmetry_cell_setting 'monoclinic'
loop_
_space_group_symop_operation_xyz
x,y,z
-x,y,1/2-z
-x,-y,-z
x,-y,1/2+z
1/2+x,1/2+y,z
1/2-x,1/2+y,1/2-z
1/2-x,1/2-y,-z
1/2+x,1/2-y,1/2+z
loop_
_atom_site_type_symbol
_atom_site_label
_atom_site_fract_x
_atom_site_fract_y
_atom_site_fract_z
Si Si1 0.771836 0.086133 0.447777
Si Si2 0.222214 0.100284 0.609822
Si Si3 0.000000 0.806036 0.750000
Si Si4 0.003137 0.299855 0.034860
Si Si5 0.574024 0.360901 0.392947
O O1 0.619468 0.130628 0.528244
O O2 0.865873 0.082364 0.528063
O O3 0.860813 0.136061 0.323012
O O4 0.734934 0.995939 0.412930
O O5 0.361711 0.156714 0.529851
O O6 0.171170 0.121844 0.751584
O O7 0.095304 0.116832 0.565696
O O8 0.955688 0.749344 0.661620
O O9 0.079860 0.236900 0.921084
#
# Coordination Sequence:
#
# PCOD8138812 Si02
#       5
#     8   8   4   8   8
#     4  11  22  38  60  85 111 149 190 230 278 331
#     4  11  22  38  58  86 116 144 186 238 278 324
#     4  10  20  38  62  82 112 152 188 222 274 350
#     4  11  21  38  60  86 113 146 187 234 278 328
#     4  10  22  39  58  82 113 153 187 221 281 344
#
# _framework density 20.368987000000001
#
# number of rings (size 3 to 8) (size 9 to 14) (size 15 to 20)
#    0.000    1.333    0.000    8.667    0.000    1.778 
#    0.000    4.444    0.000    0.000    0.000    0.000 
#    0.000    0.000    0.000    0.000    0.000    0.000 
#
# Total GULP energy -223282.995321 kJ/mol
# GULP energy per Si atom -12404.610851 kJ/mol
# Density = 2.032263 g / cm^3
# Si number density = 20.368987 Si / 1000 Ang^3
#
#
#
# Elastic Constant Matrix: (Units=GPa)
#
#
# Indices 1 2 3 4 5 6 
#
# 1 66.9843 30.9821 32.1418 0.0000 7.8355 0.0000
# 2 30.9821 135.9976 44.5175 0.0000 11.3739 0.0000
# 3 32.1418 44.5175 90.0921 0.0000 14.0718 0.0000
# 4 0.0000 0.0000 0.0000 11.6034 0.0000 -2.2628
# 5 7.8355 11.3739 14.0718 0.0000 21.1078 0.0000
# 6 0.0000 0.0000 0.0000 -2.2628 0.0000 36.2135
#
#
#
# Elastic Compliance Matrix: (Units=1/GPa)
#
#
# Indices 1 2 3 4 5 6 
#
# 1 0.018779 -0.002401 -0.005164 0.000000 -0.002234 0.000000
# 2 -0.002401 0.009159 -0.003391 0.000000 -0.001784 0.000000
# 3 -0.005164 -0.003391 0.015664 0.000000 -0.006698 0.000000
# 4 0.000000 0.000000 0.000000 0.087245 0.000000 0.005452
# 5 -0.002234 -0.001784 -0.006698 0.000000 0.053632 0.000000
# 6 0.000000 0.000000 0.000000 0.005452 0.000000 0.027955
#
#
# Mechanical properties :
#
#
# Convention : Reuss Voigt Hill
#
# Bulk Modulus (GPa) = 46.10371 56.48410 51.29390
# Shear Modulus (GPa) = 20.69750 26.14711 23.42231
#
# Velocity S-wave (km/s) = 3.19113 3.58672 3.39470
# Velocity P-wave (km/s) = 6.02173 6.70399 6.37199
#
# Compressibility (1/GPa) = 0.02169023
#
# Stress axis : x y z
#
# Youngs Moduli (GPa) = 53.25184 109.18136 63.84092
#
# Poissons Ratio (x) = 0.26211 0.32970
# Poissons Ratio (y) = 0.12784 0.21647
# Poissons Ratio (z) = 0.27501 0.37020
#
# Static dielectric constant tensor:
#      x y z
#    x 3.762370 0.000000 -0.019410 
#    y 0.000000 3.789190 0.000000 
#    z -0.019410 0.000000 3.566890 
# 
# 
# High freq. dielectric constant tensor:
#      x y z
#    x 1.802960 0.000000 -0.003200 
#    y 0.000000 1.804870 0.000000 
#    z -0.003200 0.000000 1.789000 
# 
# From -- ./inp_files/76573.got.cif
#   From: 2010.06.25/outbox.cif.g09.slc.cpg/sg15_39_cif.got.tgz:76573.got - 2010.06.28 07:06:18.
