data_PCOD8138469
_publ_section_title
;
Structure prediction by ZEFSAII (Michael W. Deem and Ramdas Pophale) SiO2 
 PCOD8138469
Probable space group: C 2/C
;
_chemical_formula_sum "Si O2"
_cell_formula_units_Z 52
_cell_length_a 16.692384
_cell_length_b 17.534293
_cell_length_c 9.282592
_cell_angle_alpha 90.000000
_cell_angle_beta 61.802323
_cell_angle_gamma 90.000000
_cell_volume 2394.477721
_symmetry_space_group_name_H-M "C 2/C"
_symmetry_group_IT_number 15
_symmetry_cell_setting 'monoclinic'
loop_
_space_group_symop_operation_xyz
x,y,z
-x,y,1/2-z
-x,-y,-z
x,-y,1/2+z
1/2+x,1/2+y,z
1/2-x,1/2+y,1/2-z
1/2-x,1/2-y,-z
1/2+x,1/2-y,1/2+z
loop_
_atom_site_type_symbol
_atom_site_label
_atom_site_fract_x
_atom_site_fract_y
_atom_site_fract_z
Si Si1 0.350674 0.587889 0.897513
Si Si2 0.502408 0.412573 0.469474
Si Si3 0.259319 0.937549 0.495567
Si Si4 0.202098 0.647544 0.837045
Si Si5 0.500000 0.321934 0.750000
Si Si6 0.064748 0.534637 0.063486
Si Si7 0.308310 0.287782 0.829112
O O1 0.423332 0.602624 0.712469
O O2 0.400812 0.614586 0.002910
O O3 0.320088 0.500165 0.940969
O O4 0.264865 0.638143 0.925062
O O5 0.500000 0.500000 0.500000
O O6 0.532399 0.372076 0.588730
O O7 0.265396 0.900277 0.331594
O O8 0.225099 0.876108 0.646529
O O9 0.355244 0.974539 0.462509
O O10 0.202902 0.738565 0.807579
O O11 0.104752 0.613769 0.966926
O O12 0.413350 0.272578 0.780721
O O13 0.000000 0.555914 0.250000
O O14 0.000000 0.500000 0.000000
O O15 0.250000 0.250000 0.000000
#
# Coordination Sequence:
#
# PCOD8138469 Si02
#       7
#     8   8   8   8   4   8   8
#     4  10  21  36  61  92 130 160 206 272 331 389
#     4  11  20  34  59  93 126 160 206 258 324 398
#     4  10  20  37  65  96 128 169 220 276 333 403
#     4  10  21  39  64  92 129 170 222 274 332 396
#     4  12  24  40  66  90 128 174 220 268 332 406
#     4  11  22  40  66  99 131 173 229 287 343 393
#     4  10  22  40  63  95 125 170 222 273 328 397
#
# _framework density 21.716633999999999
#
# number of rings (size 3 to 8) (size 9 to 14) (size 15 to 20)
#    0.000    1.538    1.538    5.538    0.000    3.692 
#    0.000    0.769    3.385    0.000    2.000    0.000 
#    0.000    0.000    0.000    0.000    0.000    0.000 
#
# Total GULP energy -322182.958581 kJ/mol
# GULP energy per Si atom -12391.652253 kJ/mol
# Density = 2.166721 g / cm^3
# Si number density = 21.716634 Si / 1000 Ang^3
#
#
#
# Elastic Constant Matrix: (Units=GPa)
#
#
# Indices 1 2 3 4 5 6 
#
# 1 101.3898 20.3619 22.0070 0.0000 -4.2476 0.0000
# 2 20.3619 81.5392 26.0995 0.0000 -5.0159 0.0000
# 3 22.0070 26.0995 94.7774 0.0000 -7.0728 0.0000
# 4 0.0000 0.0000 0.0000 36.4962 0.0000 -1.6207
# 5 -4.2476 -5.0159 -7.0728 0.0000 41.0281 0.0000
# 6 0.0000 0.0000 0.0000 -1.6207 0.0000 25.0019
#
#
#
# Elastic Compliance Matrix: (Units=1/GPa)
#
#
# Indices 1 2 3 4 5 6 
#
# 1 0.010703 -0.002037 -0.001885 0.000000 0.000534 0.000000
# 2 -0.002037 0.013879 -0.003280 0.000000 0.000920 0.000000
# 3 -0.001885 -0.003280 0.012002 0.000000 0.001473 0.000000
# 4 0.000000 0.000000 0.000000 0.027479 0.000000 0.001781
# 5 0.000534 0.000920 0.001473 0.000000 0.024795 0.000000
# 6 0.000000 0.000000 0.000000 0.001781 0.000000 0.040113
#
#
# Mechanical properties :
#
#
# Convention : Reuss Voigt Hill
#
# Bulk Modulus (GPa) = 45.08339 46.07146 45.57743
# Shear Modulus (GPa) = 33.16337 34.45443 33.80890
#
# Velocity S-wave (km/s) = 3.91205 3.98747 3.94994
# Velocity P-wave (km/s) = 6.41953 6.51619 6.46804
#
# Compressibility (1/GPa) = 0.02218112
#
# Stress axis : x y z
#
# Youngs Moduli (GPa) = 93.42832 72.04981 83.32028
#
# Poissons Ratio (x) = 0.14675 0.15702
# Poissons Ratio (y) = 0.19029 0.27332
# Poissons Ratio (z) = 0.17607 0.23635
#
# Static dielectric constant tensor:
#      x y z
#    x 2.157180 0.000000 1.900000 
#    y 0.000000 4.144600 0.000000 
#    z 1.900000 0.000000 2.281720 
# 
# 
# High freq. dielectric constant tensor:
#      x y z
#    x 1.870540 0.000000 -0.006350 
#    y 0.000000 1.831510 0.000000 
#    z -0.006350 0.000000 1.862620 
# 
# From -- ./inp_files/48958.got.cif
#   From: 2010.06.25/outbox.cif.g09.slc.cpg/sg15_25_cif.got.tgz:48958.got - 2010.06.28 07:06:18.
