data_PCOD8138134
_publ_section_title
;
Structure prediction by ZEFSAII (Michael W. Deem and Ramdas Pophale) SiO2 
 PCOD8138134
Probable space group: C 2/C
;
_chemical_formula_sum "Si O2"
_cell_formula_units_Z 64
_cell_length_a 12.840204
_cell_length_b 12.193757
_cell_length_c 23.240739
_cell_angle_alpha 90.000000
_cell_angle_beta 68.424387
_cell_angle_gamma 90.000000
_cell_volume 3383.849926
_symmetry_space_group_name_H-M "C 2/C"
_symmetry_group_IT_number 15
_symmetry_cell_setting 'monoclinic'
loop_
_space_group_symop_operation_xyz
x,y,z
-x,y,1/2-z
-x,-y,-z
x,-y,1/2+z
1/2+x,1/2+y,z
1/2-x,1/2+y,1/2-z
1/2-x,1/2-y,-z
1/2+x,1/2-y,1/2+z
loop_
_atom_site_type_symbol
_atom_site_label
_atom_site_fract_x
_atom_site_fract_y
_atom_site_fract_z
Si Si1 0.818677 0.702744 0.039230
Si Si2 0.570847 0.789796 0.476675
Si Si3 0.118297 0.566597 0.754120
Si Si4 0.202557 0.308058 0.344065
Si Si5 0.113544 0.688164 0.259116
Si Si6 0.464609 0.571593 0.952673
Si Si7 0.832185 0.155309 0.647467
Si Si8 0.246822 0.535897 0.930132
O O1 0.806009 0.791605 0.091559
O O2 0.782673 0.589206 0.074886
O O3 0.750000 0.750000 0.000000
O O4 0.943308 0.677993 0.991799
O O5 0.619173 0.747377 0.405517
O O6 0.573120 0.694691 0.523388
O O7 0.646583 0.894403 0.482212
O O8 0.129239 0.639366 0.808545
O O9 0.117864 0.439957 0.772599
O O10 0.222420 0.590233 0.690512
O O11 0.000000 0.599444 0.750000
O O12 0.286215 0.216611 0.304258
O O13 0.270666 0.405224 0.363778
O O14 0.126041 0.754916 0.315397
O O15 0.000000 0.721334 0.250000
O O16 0.565033 0.571952 0.885430
O O17 0.355752 0.521242 0.946643
O O18 0.500000 0.500000 0.000000
#
# Coordination Sequence:
#
# PCOD8138134 Si02
#       8
#     8   8   8   8   8   8   8   8
#     4  11  22  39  57  89 122 158 192 239 301 355
#     4   9  22  37  58  84 120 153 200 235 288 357
#     4  10  22  40  60  87 111 154 200 240 298 346
#     4   9  21  36  60  85 115 147 198 241 290 351
#     4  10  20  40  61  84 110 150 199 244 292 344
#     4  11  22  39  57  92 122 156 193 244 302 354
#     4  10  23  38  59  83 123 149 189 246 293 351
#     4  10  20  37  60  83 117 157 198 237 288 358
#
# _framework density 18.913368999999999
#
# number of rings (size 3 to 8) (size 9 to 14) (size 15 to 20)
#    0.750    1.250    0.000    3.750    3.500    0.000 
#    0.000    0.000    0.000    3.750    0.000    0.000 
#    0.000    0.000    0.000    0.000    0.000    0.000 
#
# Total GULP energy -396614.289254 kJ/mol
# GULP energy per Si atom -12394.196539 kJ/mol
# Density = 1.887032 g / cm^3
# Si number density = 18.913369 Si / 1000 Ang^3
#
#
#
# Elastic Constant Matrix: (Units=GPa)
#
#
# Indices 1 2 3 4 5 6 
#
# 1 130.5220 16.5838 36.6100 0.0000 -4.2368 0.0000
# 2 16.5838 39.8047 -4.5510 0.0000 -5.4709 0.0000
# 3 36.6100 -4.5510 89.5570 0.0000 -10.1296 0.0000
# 4 0.0000 0.0000 0.0000 22.4018 0.0000 -5.6037
# 5 -4.2368 -5.4709 -10.1296 0.0000 31.7747 0.0000
# 6 0.0000 0.0000 0.0000 -5.6037 0.0000 18.5489
#
#
#
# Elastic Compliance Matrix: (Units=1/GPa)
#
#
# Indices 1 2 3 4 5 6 
#
# 1 0.009371 -0.004496 -0.004155 0.000000 -0.000849 0.000000
# 2 -0.004496 0.028196 0.003892 0.000000 0.005496 0.000000
# 3 -0.004155 0.003892 0.013565 0.000000 0.004441 0.000000
# 4 0.000000 0.000000 0.000000 0.048288 0.000000 0.014588
# 5 -0.000849 0.005496 0.004441 0.000000 0.033720 0.000000
# 6 0.000000 0.000000 0.000000 0.014588 0.000000 0.058319
#
#
# Mechanical properties :
#
#
# Convention : Reuss Voigt Hill
#
# Bulk Modulus (GPa) = 24.03020 39.68546 31.85783
# Shear Modulus (GPa) = 23.27227 28.62781 25.95004
#
# Velocity S-wave (km/s) = 3.51161 3.89476 3.70813
# Velocity P-wave (km/s) = 5.40137 6.42291 5.93417
#
# Compressibility (1/GPa) = 0.04161431
#
# Stress axis : x y z
#
# Youngs Moduli (GPa) = 106.71575 35.46573 73.72062
#
# Poissons Ratio (x) = 0.15945 0.30632
# Poissons Ratio (y) = 0.47978 -0.28695
# Poissons Ratio (z) = 0.44342 -0.13805
#
# Static dielectric constant tensor:
#      x y z
#    x 3.562080 0.000000 -0.111700 
#    y 0.000000 3.353510 0.000000 
#    z -0.111700 0.000000 3.452000 
# 
# 
# High freq. dielectric constant tensor:
#      x y z
#    x 1.745520 0.000000 -0.002000 
#    y 0.000000 1.732370 0.000000 
#    z -0.002000 0.000000 1.733700 
# 
# From -- ./inp_files/269227.got.cif
#   From: 2010.06.25/outbox.cif.g09.slc.cpg/sg15_135_cif.got.tgz:269227.got - 2010.06.28 07:06:18.
