data_PCOD8138765
_publ_section_title
;
Structure prediction by ZEFSAII (Michael W. Deem and Ramdas Pophale) SiO2 
 PCOD8138765
Probable space group: C 2/C
;
_chemical_formula_sum "Si O2"
_cell_formula_units_Z 56
_cell_length_a 27.676610
_cell_length_b 8.466623
_cell_length_c 12.166320
_cell_angle_alpha 90.000000
_cell_angle_beta 65.816217
_cell_angle_gamma 90.000000
_cell_volume 2600.696109
_symmetry_space_group_name_H-M "C 2/C"
_symmetry_group_IT_number 15
_symmetry_cell_setting 'monoclinic'
loop_
_space_group_symop_operation_xyz
x,y,z
-x,y,1/2-z
-x,-y,-z
x,-y,1/2+z
1/2+x,1/2+y,z
1/2-x,1/2+y,1/2-z
1/2-x,1/2-y,-z
1/2+x,1/2-y,1/2+z
loop_
_atom_site_type_symbol
_atom_site_label
_atom_site_fract_x
_atom_site_fract_y
_atom_site_fract_z
Si Si1 0.162081 0.741062 0.459621
Si Si2 0.200388 0.057631 0.501279
Si Si3 0.555953 0.244839 0.805743
Si Si4 0.903744 0.200595 0.002632
Si Si5 0.555420 0.619860 0.081795
Si Si6 0.696612 0.201823 0.188552
Si Si7 0.889402 0.527084 0.359785
O O1 0.104791 0.803864 0.471407
O O2 0.197907 0.718897 0.318594
O O3 0.153963 0.579927 0.534959
O O4 0.190151 0.869699 0.513440
O O5 0.154558 0.142563 0.473812
O O6 0.255223 0.089423 0.389134
O O7 0.202116 0.127429 0.623497
O O8 0.596520 0.256630 0.868340
O O9 0.495813 0.275756 0.902060
O O10 0.567974 0.375734 0.701288
O O11 0.564043 0.074876 0.740146
O O12 0.918286 0.354689 0.917898
O O13 0.948753 0.065430 0.943487
O O14 0.641477 0.122367 0.204832
#
# Coordination Sequence:
#
# PCOD8138765 Si02
#       7
#     8   8   8   8   8   8   8
#     4  10  21  38  59  83 117 156 194 243 298 349
#     4   9  22  38  60  88 117 158 204 237 294 357
#     4  10  20  40  61  84 121 152 194 252 289 349
#     4  10  20  38  61  87 118 154 195 244 295 349
#     4   9  21  39  59  86 113 153 202 235 297 359
#     4  10  21  40  59  87 125 155 197 252 289 347
#     4  10  22  37  58  90 120 154 199 240 297 353
#
# _framework density 21.532696999999999
#
# number of rings (size 3 to 8) (size 9 to 14) (size 15 to 20)
#    0.000    2.286    0.000    1.286    0.000   14.286 
#    0.000   18.571    0.000    0.000    0.000    0.000 
#    0.000    0.000    0.000    0.000    0.000    0.000 
#
# Total GULP energy -347131.346208 kJ/mol
# GULP energy per Si atom -12397.548079 kJ/mol
# Density = 2.148369 g / cm^3
# Si number density = 21.532697 Si / 1000 Ang^3
#
#
#
# Elastic Constant Matrix: (Units=GPa)
#
#
# Indices 1 2 3 4 5 6 
#
# 1 55.6600 11.9625 13.6348 0.0000 -0.6838 0.0000
# 2 11.9625 111.7661 27.5280 0.0000 -0.8855 0.0000
# 3 13.6348 27.5280 64.9034 0.0000 -3.5274 0.0000
# 4 0.0000 0.0000 0.0000 27.9758 0.0000 2.2005
# 5 -0.6838 -0.8855 -3.5274 0.0000 39.2693 0.0000
# 6 0.0000 0.0000 0.0000 2.2005 0.0000 25.1238
#
#
#
# Elastic Compliance Matrix: (Units=1/GPa)
#
#
# Indices 1 2 3 4 5 6 
#
# 1 0.019079 -0.001178 -0.003509 0.000000 -0.000010 0.000000
# 2 -0.001178 0.010065 -0.004030 0.000000 -0.000156 0.000000
# 3 -0.003509 -0.004030 0.017933 0.000000 0.001459 0.000000
# 4 0.000000 0.000000 0.000000 0.035993 0.000000 -0.003153
# 5 -0.000010 -0.000156 0.001459 0.000000 0.025593 0.000000
# 6 0.000000 0.000000 0.000000 -0.003153 0.000000 0.040079
#
#
# Mechanical properties :
#
#
# Convention : Reuss Voigt Hill
#
# Bulk Modulus (GPa) = 33.73440 37.62000 35.67720
# Shear Modulus (GPa) = 28.40009 30.42073 29.41041
#
# Velocity S-wave (km/s) = 3.63565 3.76276 3.69975
# Velocity P-wave (km/s) = 5.77274 6.03215 5.90387
#
# Compressibility (1/GPa) = 0.02964333
#
# Stress axis : x y z
#
# Youngs Moduli (GPa) = 52.41405 99.35780 55.76259
#
# Poissons Ratio (x) = 0.11703 0.19567
# Poissons Ratio (y) = 0.06174 0.22471
# Poissons Ratio (z) = 0.18392 0.40039
#
# Static dielectric constant tensor:
#      x y z
#    x 3.762480 0.000000 -0.040440 
#    y 0.000000 4.059280 0.000000 
#    z -0.040440 0.000000 3.764190 
# 
# 
# High freq. dielectric constant tensor:
#      x y z
#    x 1.834530 0.000000 -0.001010 
#    y 0.000000 1.847040 0.000000 
#    z -0.001010 0.000000 1.837450 
# 
# From -- ./inp_files/125835.got.cif
#   From: 2010.06.25/outbox.cif.g09.slc.cpg/sg15_63_cif.got.tgz:125835.got - 2010.06.28 07:06:18.
