data_PCOD8138379
_publ_section_title
;
Structure prediction by ZEFSAII (Michael W. Deem and Ramdas Pophale) SiO2 
 PCOD8138379
Probable space group: C 2/C
;
_chemical_formula_sum "Si O2"
_cell_formula_units_Z 56
_cell_length_a 11.157129
_cell_length_b 13.340602
_cell_length_c 17.944547
_cell_angle_alpha 90.000000
_cell_angle_beta 116.400720
_cell_angle_gamma 90.000000
_cell_volume 2392.356784
_symmetry_space_group_name_H-M "C 2/C"
_symmetry_group_IT_number 15
_symmetry_cell_setting 'monoclinic'
loop_
_space_group_symop_operation_xyz
x,y,z
-x,y,1/2-z
-x,-y,-z
x,-y,1/2+z
1/2+x,1/2+y,z
1/2-x,1/2+y,1/2-z
1/2-x,1/2-y,-z
1/2+x,1/2-y,1/2+z
loop_
_atom_site_type_symbol
_atom_site_label
_atom_site_fract_x
_atom_site_fract_y
_atom_site_fract_z
Si Si1 0.500000 0.900495 0.750000
Si Si2 0.165117 0.934514 0.885665
Si Si3 0.000000 0.078198 0.750000
Si Si4 0.355325 0.228214 0.701037
Si Si5 0.547617 0.980238 0.607854
Si Si6 0.555178 0.171651 0.528035
Si Si7 0.287806 0.737457 0.688053
Si Si8 0.828650 0.173427 0.971520
O O1 0.552980 0.970335 0.697959
O O2 0.376602 0.832171 0.688913
O O3 0.124083 0.827532 0.841779
O O4 0.307729 0.967148 0.891330
O O5 0.048346 0.012074 0.833031
O O6 0.161590 0.927865 0.975797
O O7 0.122244 0.146429 0.756631
O O8 0.500000 0.174933 0.750000
O O9 0.306434 0.263181 0.768691
O O10 0.250561 0.155127 0.628475
O O11 0.448017 0.893729 0.549033
O O12 0.497311 0.093367 0.575112
O O13 0.704802 0.204594 0.591857
O O14 0.470669 0.273131 0.494323
O O15 0.750000 0.250000 0.000000
#
# Coordination Sequence:
#
# PCOD8138379 Si02
#       8
#     4   8   4   8   8   8   8   8
#     4  11  24  46  61  92 134 166 209 274 306 391
#     4  11  20  40  62  86 126 166 209 259 316 374
#     4  11  24  40  61  90 130 168 213 258 326 385
#     4  11  21  38  69  95 122 164 217 264 307 378
#     4  11  23  42  63  89 130 162 211 261 322 372
#     4  11  22  40  66  94 126 168 213 263 319 386
#     4  11  23  40  66  92 127 171 214 255 326 377
#     4  10  20  37  63  94 123 161 215 261 313 373
#
# _framework density 23.407879000000001
#
# number of rings (size 3 to 8) (size 9 to 14) (size 15 to 20)
#    0.000    1.143    6.429    1.714    0.000    0.571 
#    6.429    0.714    0.000    0.000    0.000    1.000 
#    0.000    0.000    0.000    0.000    0.000    0.000 
#
# Total GULP energy -347028.097120 kJ/mol
# GULP energy per Si atom -12393.860611 kJ/mol
# Density = 2.335460 g / cm^3
# Si number density = 23.407879 Si / 1000 Ang^3
#
#
#
# Elastic Constant Matrix: (Units=GPa)
#
#
# Indices 1 2 3 4 5 6 
#
# 1 86.2209 20.8453 45.6506 0.0000 20.4808 0.0000
# 2 20.8453 54.3727 34.1609 0.0000 1.3829 0.0000
# 3 45.6506 34.1609 119.1134 0.0000 22.9350 0.0000
# 4 0.0000 0.0000 0.0000 26.2818 0.0000 2.9318
# 5 20.4808 1.3829 22.9350 0.0000 37.2733 0.0000
# 6 0.0000 0.0000 0.0000 2.9318 0.0000 8.0415
#
#
#
# Elastic Compliance Matrix: (Units=1/GPa)
#
#
# Indices 1 2 3 4 5 6 
#
# 1 0.016011 -0.003513 -0.003925 0.000000 -0.006252 0.000000
# 2 -0.003513 0.023626 -0.006389 0.000000 0.004985 0.000000
# 3 -0.003925 -0.006389 0.012786 0.000000 -0.005474 0.000000
# 4 0.000000 0.000000 0.000000 0.039662 0.000000 -0.014460
# 5 -0.006252 0.004985 -0.005474 0.000000 0.033447 0.000000
# 6 0.000000 0.000000 0.000000 -0.014460 0.000000 0.129627
#
#
# Mechanical properties :
#
#
# Convention : Reuss Voigt Hill
#
# Bulk Modulus (GPa) = 40.37466 51.22449 45.79957
# Shear Modulus (GPa) = 17.17801 24.92265 21.05033
#
# Velocity S-wave (km/s) = 2.71192 3.26653 3.00206
# Velocity P-wave (km/s) = 5.20497 6.01315 5.62360
#
# Compressibility (1/GPa) = 0.02476801
#
# Stress axis : x y z
#
# Youngs Moduli (GPa) = 62.45853 42.32648 78.21149
#
# Poissons Ratio (x) = 0.14871 0.30695
# Poissons Ratio (y) = 0.21944 0.49971
# Poissons Ratio (z) = 0.24513 0.27043
#
# Static dielectric constant tensor:
#      x y z
#    x 4.714930 0.000000 -1.053390 
#    y 0.000000 5.422220 0.000000 
#    z -1.053390 0.000000 7.690800 
# 
# 
# High freq. dielectric constant tensor:
#      x y z
#    x 1.903200 0.000000 0.023370 
#    y 0.000000 1.905380 0.000000 
#    z 0.023370 0.000000 1.936910 
# 
# From -- ./inp_files/197994.got.cif
#   From: 2010.06.25/outbox.cif.g09.slc.cpg/sg15_99_cif.got.tgz:197994.got - 2010.06.28 07:06:18.
