data_PCOD8138673
_publ_section_title
;
Structure prediction by ZEFSAII (Michael W. Deem and Ramdas Pophale) SiO2 
 PCOD8138673
Probable space group: C 2/C
;
_chemical_formula_sum "Si O2"
_cell_formula_units_Z 48
_cell_length_a 19.833236
_cell_length_b 10.526568
_cell_length_c 15.200886
_cell_angle_alpha 90.000000
_cell_angle_beta 47.649023
_cell_angle_gamma 90.000000
_cell_volume 2345.376302
_symmetry_space_group_name_H-M "C 2/C"
_symmetry_group_IT_number 15
_symmetry_cell_setting 'monoclinic'
loop_
_space_group_symop_operation_xyz
x,y,z
-x,y,1/2-z
-x,-y,-z
x,-y,1/2+z
1/2+x,1/2+y,z
1/2-x,1/2+y,1/2-z
1/2-x,1/2-y,-z
1/2+x,1/2-y,1/2+z
loop_
_atom_site_type_symbol
_atom_site_label
_atom_site_fract_x
_atom_site_fract_y
_atom_site_fract_z
Si Si1 0.266485 0.737452 0.339885
Si Si2 0.904305 0.328509 0.079254
Si Si3 0.094016 0.430626 0.693135
Si Si4 0.105216 0.389296 0.887676
Si Si5 0.154075 0.206699 0.545509
Si Si6 0.277900 0.443236 0.985165
O O1 0.355778 0.794509 0.214085
O O2 0.193561 0.693008 0.331927
O O3 0.299548 0.621984 0.372722
O O4 0.214190 0.842667 0.443189
O O5 0.890631 0.476417 0.064065
O O6 0.859406 0.238520 0.045371
O O7 0.013839 0.309296 0.991455
O O8 0.110587 0.425452 0.781313
O O9 0.081519 0.287011 0.665608
O O10 0.174980 0.503861 0.573022
O O11 0.000000 0.502606 0.750000
O O12 0.250000 0.250000 0.500000
O O13 0.147519 0.054473 0.564177
#
# Coordination Sequence:
#
# PCOD8138673 Si02
#       6
#     8   8   8   8   8   8
#     4  11  23  40  63  93 128 166 208 266 317 383
#     4  11  23  40  64  97 124 158 223 261 316 371
#     4  11  20  39  64  91 120 157 217 267 305 380
#     4  11  23  40  66  97 121 166 211 268 315 375
#     4  10  20  38  60  85 121 166 205 256 310 374
#     4  10  23  40  60  89 125 169 210 250 328 381
#
# _framework density 20.465799000000001
#
# number of rings (size 3 to 8) (size 9 to 14) (size 15 to 20)
#    0.000    1.333    3.333    4.000    2.333    0.000 
#    0.000    5.000    0.000    0.000    0.000    0.000 
#    0.000    0.000    0.000    0.000    0.000    0.000 
#
# Total GULP energy -297535.639226 kJ/mol
# GULP energy per Si atom -12397.318301 kJ/mol
# Density = 2.041922 g / cm^3
# Si number density = 20.465799 Si / 1000 Ang^3
#
#
#
# Elastic Constant Matrix: (Units=GPa)
#
#
# Indices 1 2 3 4 5 6 
#
# 1 86.3536 35.8523 35.5796 0.0000 12.5714 0.0000
# 2 35.8523 101.5250 20.2421 0.0000 6.6401 0.0000
# 3 35.5796 20.2421 84.4902 0.0000 -2.5171 0.0000
# 4 0.0000 0.0000 0.0000 33.7360 0.0000 1.8902
# 5 12.5714 6.6401 -2.5171 0.0000 30.7346 0.0000
# 6 0.0000 0.0000 0.0000 1.8902 0.0000 28.6004
#
#
#
# Elastic Compliance Matrix: (Units=1/GPa)
#
#
# Indices 1 2 3 4 5 6 
#
# 1 0.016895 -0.004289 -0.006281 0.000000 -0.006498 0.000000
# 2 -0.004289 0.011619 -0.001003 0.000000 -0.000838 0.000000
# 3 -0.006281 -0.001003 0.014840 0.000000 0.004001 0.000000
# 4 0.000000 0.000000 0.000000 0.029752 0.000000 -0.001966
# 5 -0.006498 -0.000838 0.004001 0.000000 0.035703 0.000000
# 6 0.000000 0.000000 0.000000 -0.001966 0.000000 0.035095
#
#
# Mechanical properties :
#
#
# Convention : Reuss Voigt Hill
#
# Bulk Modulus (GPa) = 49.48152 50.63521 50.05837
# Shear Modulus (GPa) = 28.77131 30.66053 29.71592
#
# Velocity S-wave (km/s) = 3.75350 3.87477 3.81462
# Velocity P-wave (km/s) = 6.55859 6.69430 6.62679
#
# Compressibility (1/GPa) = 0.02020956
#
# Stress axis : x y z
#
# Youngs Moduli (GPa) = 59.19007 86.06540 67.38598
#
# Poissons Ratio (x) = 0.36913 0.42322
# Poissons Ratio (y) = 0.25386 0.06756
# Poissons Ratio (z) = 0.37175 0.08628
#
# Static dielectric constant tensor:
#      x y z
#    x 3.643080 0.000000 -0.103330 
#    y 0.000000 4.208940 0.000000 
#    z -0.103330 0.000000 3.869140 
# 
# 
# High freq. dielectric constant tensor:
#      x y z
#    x 1.796370 0.000000 0.010610 
#    y 0.000000 1.793440 0.000000 
#    z 0.010610 0.000000 1.802450 
# 
# From -- ./inp_files/167151.got.cif
#   From: 2010.06.25/outbox.cif.g09.slc.cpg/sg15_84_cif.got.tgz:167151.got - 2010.06.28 07:06:18.
