data_PCOD8138399
_publ_section_title
;
Structure prediction by ZEFSAII (Michael W. Deem and Ramdas Pophale) SiO2 
 PCOD8138399
Probable space group: C 2/C
;
_chemical_formula_sum "Si O2"
_cell_formula_units_Z 56
_cell_length_a 14.070765
_cell_length_b 8.343969
_cell_length_c 26.621876
_cell_angle_alpha 90.000000
_cell_angle_beta 121.007542
_cell_angle_gamma 90.000000
_cell_volume 2678.923355
_symmetry_space_group_name_H-M "C 2/C"
_symmetry_group_IT_number 15
_symmetry_cell_setting 'monoclinic'
loop_
_space_group_symop_operation_xyz
x,y,z
-x,y,1/2-z
-x,-y,-z
x,-y,1/2+z
1/2+x,1/2+y,z
1/2-x,1/2+y,1/2-z
1/2-x,1/2-y,-z
1/2+x,1/2-y,1/2+z
loop_
_atom_site_type_symbol
_atom_site_label
_atom_site_fract_x
_atom_site_fract_y
_atom_site_fract_z
Si Si1 0.016723 0.011817 0.115029
Si Si2 0.496336 0.232225 0.690251
Si Si3 0.398319 0.088540 0.135973
Si Si4 0.341382 0.744627 0.412085
Si Si5 0.699970 0.924756 0.192417
Si Si6 0.119093 0.751389 0.204986
Si Si7 0.879017 0.744017 0.032104
O O1 0.105507 0.881061 0.157426
O O2 0.918471 0.920825 0.059468
O O3 0.077364 0.121840 0.092068
O O4 0.967441 0.110672 0.149281
O O5 0.500000 0.278069 0.750000
O O6 0.615246 0.165067 0.706351
O O7 0.402388 0.096892 0.653575
O O8 0.279547 0.164095 0.115099
O O9 0.499671 0.183115 0.191221
O O10 0.424915 0.107876 0.083041
O O11 0.330988 0.902114 0.374557
O O12 0.404023 0.794400 0.480590
O O13 0.819910 0.841952 0.232684
O O14 0.699398 0.111857 0.205417
O O15 0.750000 0.750000 0.000000
#
# Coordination Sequence:
#
# PCOD8138399 Si02
#       7
#     8   8   8   8   8   8   8
#     4  10  21  40  59  88 116 158 207 249 302 358
#     4  10  22  38  60  89 125 154 197 246 303 360
#     4   9  21  38  62  86 123 157 195 245 303 359
#     4  10  20  37  64  87 116 160 199 249 299 356
#     4  10  21  37  58  87 120 153 199 243 297 363
#     4  10  21  40  56  83 126 154 195 250 299 363
#     4   9  19  41  58  85 120 158 204 250 299 358
#
# _framework density 20.903919999999999
#
# number of rings (size 3 to 8) (size 9 to 14) (size 15 to 20)
#    0.000    2.286    0.000    2.143    6.000    0.000 
#   15.429   15.714    0.000    0.000    0.000    0.000 
#    0.000    0.000    0.000    0.000    0.000    0.000 
#
# Total GULP energy -347004.987647 kJ/mol
# GULP energy per Si atom -12393.035273 kJ/mol
# Density = 2.085634 g / cm^3
# Si number density = 20.903920 Si / 1000 Ang^3
#
#
#
# Elastic Constant Matrix: (Units=GPa)
#
#
# Indices 1 2 3 4 5 6 
#
# 1 58.8235 13.1610 34.3471 0.0000 -9.4015 0.0000
# 2 13.1610 88.9462 40.7328 0.0000 -6.0955 0.0000
# 3 34.3471 40.7328 118.3346 0.0000 -23.7313 0.0000
# 4 0.0000 0.0000 0.0000 27.9701 0.0000 4.1151
# 5 -9.4015 -6.0955 -23.7313 0.0000 38.1736 0.0000
# 6 0.0000 0.0000 0.0000 4.1151 0.0000 18.0996
#
#
#
# Elastic Compliance Matrix: (Units=1/GPa)
#
#
# Indices 1 2 3 4 5 6 
#
# 1 0.020561 -0.000411 -0.005511 0.000000 0.001572 0.000000
# 2 -0.000411 0.013378 -0.004658 0.000000 -0.000861 0.000000
# 3 -0.005511 -0.004658 0.012832 0.000000 0.005876 0.000000
# 4 0.000000 0.000000 0.000000 0.036990 0.000000 -0.008410
# 5 0.001572 -0.000861 0.005876 0.000000 0.030099 0.000000
# 6 0.000000 0.000000 0.000000 -0.008410 0.000000 0.057162
#
#
# Mechanical properties :
#
#
# Convention : Reuss Voigt Hill
#
# Bulk Modulus (GPa) = 39.04646 49.17624 44.11135
# Shear Modulus (GPa) = 24.91041 28.70623 26.80832
#
# Velocity S-wave (km/s) = 3.45579 3.70975 3.58502
# Velocity P-wave (km/s) = 5.88582 6.47500 6.18743
#
# Compressibility (1/GPa) = 0.02561051
#
# Stress axis : x y z
#
# Youngs Moduli (GPa) = 48.63525 74.75079 77.92893
#
# Poissons Ratio (x) = 0.03070 0.42949
# Poissons Ratio (y) = 0.01997 0.36302
# Poissons Ratio (z) = 0.26804 0.34821
#
# Static dielectric constant tensor:
#      x y z
#    x 3.629970 0.000000 -0.153160 
#    y 0.000000 4.021940 0.000000 
#    z -0.153160 0.000000 5.331260 
# 
# 
# High freq. dielectric constant tensor:
#      x y z
#    x 1.804800 0.000000 0.001900 
#    y 0.000000 1.811980 0.000000 
#    z 0.001900 0.000000 1.828750 
# 
# From -- ./inp_files/273265.got.cif
#   From: 2010.06.25/outbox.cif.g09.slc.cpg/sg15_137_cif.got.tgz:273265.got - 2010.06.28 07:06:18.
