data_PCOD8138926
_publ_section_title
;
Structure prediction by ZEFSAII (Michael W. Deem and Ramdas Pophale) SiO2 
 PCOD8138926
Probable space group: C 2/C
;
_chemical_formula_sum "Si O2"
_cell_formula_units_Z 40
_cell_length_a 6.235983
_cell_length_b 20.402185
_cell_length_c 15.762505
_cell_angle_alpha 90.000000
_cell_angle_beta 114.212538
_cell_angle_gamma 90.000000
_cell_volume 1829.010301
_symmetry_space_group_name_H-M "C 2/C"
_symmetry_group_IT_number 15
_symmetry_cell_setting 'monoclinic'
loop_
_space_group_symop_operation_xyz
x,y,z
-x,y,1/2-z
-x,-y,-z
x,-y,1/2+z
1/2+x,1/2+y,z
1/2-x,1/2+y,1/2-z
1/2-x,1/2-y,-z
1/2+x,1/2-y,1/2+z
loop_
_atom_site_type_symbol
_atom_site_label
_atom_site_fract_x
_atom_site_fract_y
_atom_site_fract_z
Si Si1 0.477908 0.259276 0.427796
Si Si2 0.000000 0.802428 0.250000
Si Si3 0.750457 0.857451 0.512516
Si Si4 0.520966 0.535499 0.154785
Si Si5 0.000000 0.491443 0.250000
Si Si6 0.704574 0.083000 0.630691
O O1 0.750000 0.250000 0.500000
O O2 0.423577 0.257481 0.317385
O O3 0.321858 0.200419 0.436909
O O4 0.375036 0.327701 0.448720
O O5 0.806943 0.846372 0.171052
O O6 0.528967 0.904467 0.459987
O O7 0.935340 0.903667 0.587304
O O8 0.500000 0.553356 0.250000
O O9 0.795637 0.532727 0.170407
O O10 0.382677 0.466887 0.111137
O O11 0.850507 0.448038 0.288640
#
# Coordination Sequence:
#
# PCOD8138926 Si02
#       6
#     8   4   8   8   4   8
#     4  11  26  45  67  98 131 186 227 277 333 395
#     4  12  22  46  73  92 139 174 230 278 328 408
#     4  11  25  44  68 101 136 170 236 279 332 399
#     4  10  23  41  65 102 135 175 216 277 342 400
#     4  10  20  38  63 102 133 182 210 256 362 396
#     4  11  21  41  70  99 131 174 224 281 334 402
#
# _framework density 21.869751999999998
#
# number of rings (size 3 to 8) (size 9 to 14) (size 15 to 20)
#    0.000    1.200    5.000    1.800    0.000    5.600 
#    0.000    1.000    0.000    0.000    0.000    0.000 
#    0.000    0.000    0.000    0.000    0.000    0.000 
#
# Total GULP energy -247882.860048 kJ/mol
# GULP energy per Si atom -12394.143002 kJ/mol
# Density = 2.181998 g / cm^3
# Si number density = 21.869752 Si / 1000 Ang^3
#
#
#
# Elastic Constant Matrix: (Units=GPa)
#
#
# Indices 1 2 3 4 5 6 
#
# 1 106.4651 36.8290 23.7174 0.0000 14.1326 0.0000
# 2 36.8290 91.3231 45.0325 0.0000 10.5216 0.0000
# 3 23.7174 45.0325 97.0923 0.0000 -5.2721 0.0000
# 4 0.0000 0.0000 0.0000 39.3861 0.0000 10.0815
# 5 14.1326 10.5216 -5.2721 0.0000 39.9999 0.0000
# 6 0.0000 0.0000 0.0000 10.0815 0.0000 17.2408
#
#
#
# Elastic Compliance Matrix: (Units=1/GPa)
#
#
# Indices 1 2 3 4 5 6 
#
# 1 0.011344 -0.003563 -0.001294 0.000000 -0.003241 0.000000
# 2 -0.003563 0.016224 -0.006867 0.000000 -0.003914 0.000000
# 3 -0.001294 -0.006867 0.014024 0.000000 0.004112 0.000000
# 4 0.000000 0.000000 0.000000 0.029859 0.000000 -0.017460
# 5 -0.003241 -0.003914 0.004112 0.000000 0.027717 0.000000
# 6 0.000000 0.000000 0.000000 -0.017460 0.000000 0.068212
#
#
# Mechanical properties :
#
#
# Convention : Reuss Voigt Hill
#
# Bulk Modulus (GPa) = 55.11800 56.22645 55.67223
# Shear Modulus (GPa) = 25.39663 31.94545 28.67104
#
# Velocity S-wave (km/s) = 3.41143 3.82608 3.62469
# Velocity P-wave (km/s) = 6.38551 6.72934 6.55968
#
# Compressibility (1/GPa) = 0.01814289
#
# Stress axis : x y z
#
# Youngs Moduli (GPa) = 88.15279 61.63615 71.30609
#
# Poissons Ratio (x) = 0.21961 0.09231
# Poissons Ratio (y) = 0.31409 0.48967
# Poissons Ratio (z) = 0.11411 0.42326
#
# Static dielectric constant tensor:
#      x y z
#    x 4.727770 0.000000 0.127180 
#    y 0.000000 4.032960 0.000000 
#    z 0.127180 0.000000 4.008640 
# 
# 
# High freq. dielectric constant tensor:
#      x y z
#    x 1.870420 0.000000 0.008230 
#    y 0.000000 1.858720 0.000000 
#    z 0.008230 0.000000 1.857710 
# 
# From -- ./inp_files/129081.got.cif
#   From: 2010.06.25/outbox.cif.g09.slc.cpg/sg15_65_cif.got.tgz:129081.got - 2010.06.28 07:06:18.
