data_PCOD8138852
_publ_section_title
;
Structure prediction by ZEFSAII (Michael W. Deem and Ramdas Pophale) SiO2 
 PCOD8138852
Probable space group: C 2/C
;
_chemical_formula_sum "Si O2"
_cell_formula_units_Z 64
_cell_length_a 25.939776
_cell_length_b 23.408194
_cell_length_c 9.023871
_cell_angle_alpha 90.000000
_cell_angle_beta 142.301434
_cell_angle_gamma 90.000000
_cell_volume 3350.646483
_symmetry_space_group_name_H-M "C 2/C"
_symmetry_group_IT_number 15
_symmetry_cell_setting 'monoclinic'
loop_
_space_group_symop_operation_xyz
x,y,z
-x,y,1/2-z
-x,-y,-z
x,-y,1/2+z
1/2+x,1/2+y,z
1/2-x,1/2+y,1/2-z
1/2-x,1/2-y,-z
1/2+x,1/2-y,1/2+z
loop_
_atom_site_type_symbol
_atom_site_label
_atom_site_fract_x
_atom_site_fract_y
_atom_site_fract_z
Si Si1 0.849043 0.148346 0.560248
Si Si2 0.170232 0.889407 0.953572
Si Si3 0.914196 0.941021 0.994830
Si Si4 0.100008 0.321328 0.464823
Si Si5 0.237861 0.691309 0.059669
Si Si6 0.199268 0.575620 0.299393
Si Si7 0.749797 0.011518 0.688347
Si Si8 0.405345 0.303403 0.482282
O O1 0.910460 0.113378 0.594309
O O2 0.793047 0.192627 0.336606
O O3 0.791131 0.103828 0.517550
O O4 0.904302 0.180327 0.807742
O O5 0.088557 0.916526 0.681185
O O6 0.230206 0.860089 0.968764
O O7 0.145701 0.845950 0.027371
O O8 0.228455 0.939067 0.147801
O O9 0.000000 0.971954 0.250000
O O10 0.837474 0.985399 0.828800
O O11 0.140994 0.322901 0.390931
O O12 0.130378 0.374188 0.634936
O O13 0.133096 0.260241 0.599837
O O14 0.000000 0.324117 0.250000
O O15 0.250000 0.750000 0.000000
O O16 0.190140 0.536460 0.423552
O O17 0.193297 0.536685 0.138847
O O18 0.500000 0.302870 0.750000
#
# Coordination Sequence:
#
# PCOD8138852 Si02
#       8
#     8   8   8   8   8   8   8   8
#     4   9  20  35  55  86 118 157 200 236 290 355
#     4  11  21  35  59  87 119 159 204 241 296 360
#     4  10  21  36  52  80 126 165 195 240 297 353
#     4  10  23  41  64  88 121 153 196 253 311 350
#     4  10  20  38  62  88 117 159 197 240 299 366
#     4  10  21  39  60  83 115 153 203 251 296 357
#     4  11  21  37  59  86 113 157 207 251 293 352
#     4  11  21  35  59  93 127 159 198 243 294 361
#
# _framework density 19.100791000000001
#
# number of rings (size 3 to 8) (size 9 to 14) (size 15 to 20)
#    0.000    1.750    3.750    1.500    0.000    4.000 
#    0.000    0.625    0.000    1.500    0.000    0.000 
#    0.000    0.000    0.000    0.000    0.000    0.000 
#
# Total GULP energy -396564.787626 kJ/mol
# GULP energy per Si atom -12392.649613 kJ/mol
# Density = 1.905732 g / cm^3
# Si number density = 19.100791 Si / 1000 Ang^3
#
#
#
# Elastic Constant Matrix: (Units=GPa)
#
#
# Indices 1 2 3 4 5 6 
#
# 1 71.3761 25.9693 40.2410 0.0000 -8.5679 0.0000
# 2 25.9693 110.4476 45.6189 0.0000 -13.0542 0.0000
# 3 40.2410 45.6189 79.7922 0.0000 -18.5753 0.0000
# 4 0.0000 0.0000 0.0000 32.9280 0.0000 -3.3030
# 5 -8.5679 -13.0542 -18.5753 0.0000 29.9581 0.0000
# 6 0.0000 0.0000 0.0000 -3.3030 0.0000 18.2054
#
#
#
# Elastic Compliance Matrix: (Units=1/GPa)
#
#
# Indices 1 2 3 4 5 6 
#
# 1 0.019628 -0.000709 -0.009652 0.000000 -0.000680 0.000000
# 2 -0.000709 0.011911 -0.006184 0.000000 0.001153 0.000000
# 3 -0.009652 -0.006184 0.022983 0.000000 0.008796 0.000000
# 4 0.000000 0.000000 0.000000 0.030932 0.000000 0.005612
# 5 -0.000680 0.001153 0.008796 0.000000 0.039142 0.000000
# 6 0.000000 0.000000 0.000000 0.005612 0.000000 0.055947
#
#
# Mechanical properties :
#
#
# Convention : Reuss Voigt Hill
#
# Bulk Modulus (GPa) = 46.65650 53.91937 50.28794
# Shear Modulus (GPa) = 22.64720 26.20407 24.42564
#
# Velocity S-wave (km/s) = 3.44709 3.70791 3.57988
# Velocity P-wave (km/s) = 6.35002 6.82800 6.59334
#
# Compressibility (1/GPa) = 0.02143324
#
# Stress axis : x y z
#
# Youngs Moduli (GPa) = 50.94698 83.95435 43.50984
#
# Poissons Ratio (x) = 0.05952 0.41996
# Poissons Ratio (y) = 0.03612 0.26906
# Poissons Ratio (z) = 0.49174 0.51917
#
# Static dielectric constant tensor:
#      x y z
#    x 3.503940 0.000000 -0.189690 
#    y 0.000000 3.815860 0.000000 
#    z -0.189690 0.000000 3.357480 
# 
# 
# High freq. dielectric constant tensor:
#      x y z
#    x 1.733880 0.000000 -0.020450 
#    y 0.000000 1.757470 0.000000 
#    z -0.020450 0.000000 1.721990 
# 
# From -- ./inp_files/70984.got.cif
#   From: 2010.06.25/outbox.cif.g09.slc.cpg/sg15_36_cif.got.tgz:70984.got - 2010.06.28 07:06:18.
