data_PCOD8138306
_publ_section_title
;
Structure prediction by ZEFSAII (Michael W. Deem and Ramdas Pophale) SiO2 
 PCOD8138306
Probable space group: C 2/C
;
_chemical_formula_sum "Si O2"
_cell_formula_units_Z 56
_cell_length_a 8.447931
_cell_length_b 17.424002
_cell_length_c 28.980716
_cell_angle_alpha 90.000000
_cell_angle_beta 137.351516
_cell_angle_gamma 90.000000
_cell_volume 2890.119459
_symmetry_space_group_name_H-M "C 2/C"
_symmetry_group_IT_number 15
_symmetry_cell_setting 'monoclinic'
loop_
_space_group_symop_operation_xyz
x,y,z
-x,y,1/2-z
-x,-y,-z
x,-y,1/2+z
1/2+x,1/2+y,z
1/2-x,1/2+y,1/2-z
1/2-x,1/2-y,-z
1/2+x,1/2-y,1/2+z
loop_
_atom_site_type_symbol
_atom_site_label
_atom_site_fract_x
_atom_site_fract_y
_atom_site_fract_z
Si Si1 0.708705 0.042925 0.595350
Si Si2 0.777806 0.015868 0.507802
Si Si3 0.803828 0.087870 0.419588
Si Si4 0.938471 0.784764 0.573669
Si Si5 0.389287 0.625985 0.154667
Si Si6 0.378682 0.693834 0.676746
Si Si7 0.146728 0.660784 0.196230
O O1 0.712338 0.055391 0.541326
O O2 0.857942 0.113437 0.646006
O O3 0.433293 0.043442 0.551235
O O4 0.828974 0.963690 0.637335
O O5 0.788459 0.081248 0.471422
O O6 0.034409 0.978442 0.567385
O O7 0.544157 0.091710 0.341966
O O8 0.919958 0.167551 0.433298
O O9 0.750000 0.750000 0.500000
O O10 0.830697 0.833364 0.593204
O O11 0.116890 0.722203 0.632075
O O12 0.246529 0.665149 0.165616
O O13 0.663281 0.637219 0.224705
O O14 0.500000 0.672960 0.750000
O O15 0.535160 0.756081 0.682875
#
# Coordination Sequence:
#
# PCOD8138306 Si02
#       7
#     8   8   8   8   8   8   8
#     4  11  23  39  65  92 127 168 209 266 321 377
#     4  10  21  38  60  94 131 157 212 268 310 377
#     4  10  20  37  62  91 123 166 208 263 316 368
#     4  11  23  40  65  93 124 174 211 259 319 385
#     4  11  22  43  67  91 124 169 221 253 320 390
#     4  11  24  41  62  92 129 158 209 265 321 368
#     4  10  23  41  65  88 125 173 212 260 316 390
#
# _framework density 19.376360999999999
#
# number of rings (size 3 to 8) (size 9 to 14) (size 15 to 20)
#    0.000    1.429    4.286    0.857    4.000    1.143 
#    0.000    2.857    6.286    0.000    0.000    0.000 
#    0.000    0.000    0.000    0.000    0.000    0.000 
#
# Total GULP energy -347008.315664 kJ/mol
# GULP energy per Si atom -12393.154131 kJ/mol
# Density = 1.933226 g / cm^3
# Si number density = 19.376361 Si / 1000 Ang^3
#
#
#
# Elastic Constant Matrix: (Units=GPa)
#
#
# Indices 1 2 3 4 5 6 
#
# 1 99.0376 33.6703 53.4003 0.0000 0.5008 0.0000
# 2 33.6703 92.7976 49.8756 0.0000 -0.7590 0.0000
# 3 53.4003 49.8756 127.5411 0.0000 9.8084 0.0000
# 4 0.0000 0.0000 0.0000 37.2890 0.0000 -1.0681
# 5 0.5008 -0.7590 9.8084 0.0000 32.4537 0.0000
# 6 0.0000 0.0000 0.0000 -1.0681 0.0000 17.4758
#
#
#
# Elastic Compliance Matrix: (Units=1/GPa)
#
#
# Indices 1 2 3 4 5 6 
#
# 1 0.013477 -0.002276 -0.004845 0.000000 0.001203 0.000000
# 2 -0.002276 0.014153 -0.004720 0.000000 0.001793 0.000000
# 3 -0.004845 -0.004720 0.011997 0.000000 -0.003661 0.000000
# 4 0.000000 0.000000 0.000000 0.026865 0.000000 0.001642
# 5 0.001203 0.001793 -0.003661 0.000000 0.031943 0.000000
# 6 0.000000 0.000000 0.000000 0.001642 0.000000 0.057322
#
#
# Mechanical properties :
#
#
# Convention : Reuss Voigt Hill
#
# Bulk Modulus (GPa) = 62.71472 65.91875 64.31674
# Shear Modulus (GPa) = 27.06295 29.60569 28.33432
#
# Velocity S-wave (km/s) = 3.74130 3.91311 3.82817
# Velocity P-wave (km/s) = 7.14842 7.38313 7.26673
#
# Compressibility (1/GPa) = 0.01594522
#
# Stress axis : x y z
#
# Youngs Moduli (GPa) = 74.19792 70.65507 83.35754
#
# Poissons Ratio (x) = 0.16081 0.40390
# Poissons Ratio (y) = 0.16888 0.39341
# Poissons Ratio (z) = 0.35952 0.33346
#
# Static dielectric constant tensor:
#      x y z
#    x 3.801560 0.000000 0.146420 
#    y 0.000000 3.358570 0.000000 
#    z 0.146420 0.000000 3.751180 
# 
# 
# High freq. dielectric constant tensor:
#      x y z
#    x 1.764660 0.000000 0.006940 
#    y 0.000000 1.736590 0.000000 
#    z 0.006940 0.000000 1.767860 
# 
# From -- ./inp_files/264577.got.cif
#   From: 2010.06.25/outbox.cif.g09.slc.cpg/sg15_133_cif.got.tgz:264577.got - 2010.06.28 07:06:18.
