data_PCOD8138419
_publ_section_title
;
Structure prediction by ZEFSAII (Michael W. Deem and Ramdas Pophale) SiO2 
 PCOD8138419
Probable space group: C 2/C
;
_chemical_formula_sum "Si O2"
_cell_formula_units_Z 52
_cell_length_a 29.288439
_cell_length_b 9.731854
_cell_length_c 14.792185
_cell_angle_alpha 90.000000
_cell_angle_beta 35.162371
_cell_angle_gamma 90.000000
_cell_volume 2428.107158
_symmetry_space_group_name_H-M "C 2/C"
_symmetry_group_IT_number 15
_symmetry_cell_setting 'monoclinic'
loop_
_space_group_symop_operation_xyz
x,y,z
-x,y,1/2-z
-x,-y,-z
x,-y,1/2+z
1/2+x,1/2+y,z
1/2-x,1/2+y,1/2-z
1/2-x,1/2-y,-z
1/2+x,1/2-y,1/2+z
loop_
_atom_site_type_symbol
_atom_site_label
_atom_site_fract_x
_atom_site_fract_y
_atom_site_fract_z
Si Si1 0.159729 0.845344 0.552105
Si Si2 0.972923 0.141621 0.640534
Si Si3 0.000000 0.070758 0.250000
Si Si4 0.622696 0.421532 0.803888
Si Si5 0.738691 0.108549 0.135397
Si Si6 0.214540 0.419346 0.876889
Si Si7 0.848118 0.351491 0.903119
O O1 0.152876 0.830832 0.671009
O O2 0.214911 0.727903 0.424246
O O3 0.076183 0.831455 0.634838
O O4 0.193752 0.995050 0.477097
O O5 0.933006 0.273611 0.754741
O O6 0.003242 0.024994 0.658168
O O7 0.054875 0.177660 0.456786
O O8 0.910067 0.071329 0.674206
O O9 0.693678 0.463291 0.757134
O O10 0.694244 0.096297 0.303766
O O11 0.675577 0.089471 0.156916
O O12 0.781667 0.253615 0.053362
O O13 0.150478 0.521272 0.028307
#
# Coordination Sequence:
#
# PCOD8138419 Si02
#       7
#     8   8   4   8   8   8   8
#     4  11  22  41  64  94 130 172 218 276 323 401
#     4  10  21  39  67  97 125 174 218 274 327 393
#     4  10  20  40  64  88 124 166 226 258 318 416
#     4  10  20  37  64  92 128 171 221 262 325 397
#     4  11  22  40  65  95 131 173 221 267 327 398
#     4  12  24  39  67  98 134 171 220 277 340 387
#     4  11  22  42  64 101 135 165 221 284 327 390
#
# _framework density 21.415858
#
# number of rings (size 3 to 8) (size 9 to 14) (size 15 to 20)
#    0.000    1.231    4.615    3.231    0.000    3.692 
#    0.000    1.538    0.000    0.000    0.000    0.000 
#    0.000    0.000    0.000    0.000    0.000    0.000 
#
# Total GULP energy -322326.277105 kJ/mol
# GULP energy per Si atom -12397.164504 kJ/mol
# Density = 2.136711 g / cm^3
# Si number density = 21.415858 Si / 1000 Ang^3
#
#
#
# Elastic Constant Matrix: (Units=GPa)
#
#
# Indices 1 2 3 4 5 6 
#
# 1 63.1006 32.6759 34.5946 0.0000 18.9914 0.0000
# 2 32.6759 61.5109 30.4926 0.0000 9.7376 0.0000
# 3 34.5946 30.4926 120.2822 0.0000 24.9496 0.0000
# 4 0.0000 0.0000 0.0000 26.2303 0.0000 4.9518
# 5 18.9914 9.7376 24.9496 0.0000 36.0039 0.0000
# 6 0.0000 0.0000 0.0000 4.9518 0.0000 15.5690
#
#
#
# Elastic Compliance Matrix: (Units=1/GPa)
#
#
# Indices 1 2 3 4 5 6 
#
# 1 0.025602 -0.010834 -0.002830 0.000000 -0.008613 0.000000
# 2 -0.010834 0.023310 -0.003119 0.000000 0.001572 0.000000
# 3 -0.002830 -0.003119 0.011018 0.000000 -0.005298 0.000000
# 4 0.000000 0.000000 0.000000 0.040559 0.000000 -0.012900
# 5 -0.008613 0.001572 -0.005298 0.000000 0.035564 0.000000
# 6 0.000000 0.000000 0.000000 -0.012900 0.000000 0.068333
#
#
# Mechanical properties :
#
#
# Convention : Reuss Voigt Hill
#
# Bulk Modulus (GPa) = 37.93274 48.93554 43.43414
# Shear Modulus (GPa) = 20.26424 25.36935 22.81680
#
# Velocity S-wave (km/s) = 3.07942 3.44554 3.26761
# Velocity P-wave (km/s) = 5.51313 6.22325 5.87892
#
# Compressibility (1/GPa) = 0.02636245
#
# Stress axis : x y z
#
# Youngs Moduli (GPa) = 39.05977 42.90028 90.76363
#
# Poissons Ratio (x) = 0.46476 0.25690
# Poissons Ratio (y) = 0.42316 0.28313
# Poissons Ratio (z) = 0.11055 0.13382
#
# Static dielectric constant tensor:
#      x y z
#    x 4.260910 0.000000 0.164610 
#    y 0.000000 3.627220 0.000000 
#    z 0.164610 0.000000 4.017990 
# 
# 
# High freq. dielectric constant tensor:
#      x y z
#    x 1.838310 0.000000 0.015160 
#    y 0.000000 1.813890 0.000000 
#    z 0.015160 0.000000 1.842500 
# 
# From -- ./inp_files/181046.got.cif
#   From: 2010.06.25/outbox.cif.g09.slc.cpg/sg15_91_cif.got.tgz:181046.got - 2010.06.28 07:06:18.
