data_PCOD8138718
_publ_section_title
;
Structure prediction by ZEFSAII (Michael W. Deem and Ramdas Pophale) SiO2 
 PCOD8138718
Probable space group: C 2/C
;
_chemical_formula_sum "Si O2"
_cell_formula_units_Z 52
_cell_length_a 8.402234
_cell_length_b 27.314157
_cell_length_c 15.909293
_cell_angle_alpha 90.000000
_cell_angle_beta 43.010140
_cell_angle_gamma 90.000000
_cell_volume 2490.572519
_symmetry_space_group_name_H-M "C 2/C"
_symmetry_group_IT_number 15
_symmetry_cell_setting 'monoclinic'
loop_
_space_group_symop_operation_xyz
x,y,z
-x,y,1/2-z
-x,-y,-z
x,-y,1/2+z
1/2+x,1/2+y,z
1/2-x,1/2+y,1/2-z
1/2-x,1/2-y,-z
1/2+x,1/2-y,1/2+z
loop_
_atom_site_type_symbol
_atom_site_label
_atom_site_fract_x
_atom_site_fract_y
_atom_site_fract_z
Si Si1 0.545508 0.861713 0.113780
Si Si2 0.516204 0.591820 0.985165
Si Si3 0.000000 0.718515 0.750000
Si Si4 0.166458 0.057857 0.264616
Si Si5 0.250884 0.811584 0.626486
Si Si6 0.178097 0.052835 0.754901
Si Si7 0.456864 0.138814 0.359693
O O1 0.750962 0.876124 0.098249
O O2 0.408756 0.816088 0.209164
O O3 0.387671 0.909087 0.159223
O O4 0.667036 0.841926 0.984218
O O5 0.560965 0.554017 0.892339
O O6 0.460067 0.565433 0.095813
O O7 0.315262 0.627422 0.027589
O O8 0.790343 0.752972 0.867658
O O9 0.396077 0.090709 0.172725
O O10 0.000000 0.070459 0.250000
O O11 0.265197 0.002954 0.214493
O O12 0.455714 0.817039 0.615907
O O13 0.000000 0.835396 0.750000
O O14 0.000000 0.065717 0.750000
O O15 0.500000 0.157479 0.250000
#
# Coordination Sequence:
#
# PCOD8138718 Si02
#       7
#     8   8   4   8   8   8   8
#     4  12  22  45  66  93 129 173 209 274 321 384
#     4  11  22  37  65  87 135 167 214 260 323 380
#     4  10  24  42  70  92 124 164 226 260 338 374
#     4  10  22  39  62  96 127 172 219 261 315 384
#     4  10  22  40  69  92 122 166 214 267 323 381
#     4  11  24  40  62  92 132 172 216 261 323 381
#     4  10  20  38  60  93 129 161 211 264 313 377
#
# _framework density 20.878733
#
# number of rings (size 3 to 8) (size 9 to 14) (size 15 to 20)
#    0.462    0.923    1.538    5.077    0.000    4.923 
#    0.000    5.385    0.000    0.000    0.000    0.000 
#    0.000    0.000    0.000    0.000    0.000    0.000 
#
# Total GULP energy -322185.300466 kJ/mol
# GULP energy per Si atom -12391.742326 kJ/mol
# Density = 2.083121 g / cm^3
# Si number density = 20.878733 Si / 1000 Ang^3
#
#
#
# Elastic Constant Matrix: (Units=GPa)
#
#
# Indices 1 2 3 4 5 6 
#
# 1 135.1742 36.1949 25.4293 0.0000 3.0984 0.0000
# 2 36.1949 108.5016 25.3739 0.0000 -0.1579 0.0000
# 3 25.4293 25.3739 71.7935 0.0000 8.3914 0.0000
# 4 0.0000 0.0000 0.0000 22.8351 0.0000 -5.1432
# 5 3.0984 -0.1579 8.3914 0.0000 42.5964 0.0000
# 6 0.0000 0.0000 0.0000 -5.1432 0.0000 23.4699
#
#
#
# Elastic Compliance Matrix: (Units=1/GPa)
#
#
# Indices 1 2 3 4 5 6 
#
# 1 0.008424 -0.002309 -0.002145 0.000000 -0.000199 0.000000
# 2 -0.002309 0.010703 -0.003060 0.000000 0.000810 0.000000
# 3 -0.002145 -0.003060 0.016124 0.000000 -0.003032 0.000000
# 4 0.000000 0.000000 0.000000 0.046066 0.000000 0.010095
# 5 -0.000199 0.000810 -0.003032 0.000000 0.024091 0.000000
# 6 0.000000 0.000000 0.000000 0.010095 0.000000 0.044820
#
#
# Mechanical properties :
#
#
# Convention : Reuss Voigt Hill
#
# Bulk Modulus (GPa) = 49.44327 54.38505 51.91416
# Shear Modulus (GPa) = 29.07030 33.01169 31.04099
#
# Velocity S-wave (km/s) = 3.73546 3.98064 3.85999
# Velocity P-wave (km/s) = 6.50672 6.87255 6.69213
#
# Compressibility (1/GPa) = 0.02022520
#
# Stress axis : x y z
#
# Youngs Moduli (GPa) = 118.70682 93.42793 62.01853
#
# Poissons Ratio (x) = 0.21572 0.13300
# Poissons Ratio (y) = 0.27409 0.18976
# Poissons Ratio (z) = 0.25457 0.28587
#
# Static dielectric constant tensor:
#      x y z
#    x 3.505310 0.000000 0.156650 
#    y 0.000000 3.689410 0.000000 
#    z 0.156650 0.000000 3.729490 
# 
# 
# High freq. dielectric constant tensor:
#      x y z
#    x 1.825690 0.000000 0.015170 
#    y 0.000000 1.815120 0.000000 
#    z 0.015170 0.000000 1.812940 
# 
# From -- ./inp_files/193991.got.cif
#   From: 2010.06.25/outbox.cif.g09.slc.cpg/sg15_97_cif.got.tgz:193991.got - 2010.06.28 07:06:18.
