data_PCOD8138513
_publ_section_title
;
Structure prediction by ZEFSAII (Michael W. Deem and Ramdas Pophale) SiO2 
 PCOD8138513
Probable space group: C 2/C
;
_chemical_formula_sum "Si O2"
_cell_formula_units_Z 40
_cell_length_a 14.471544
_cell_length_b 14.296874
_cell_length_c 7.968318
_cell_angle_alpha 90.000000
_cell_angle_beta 110.925950
_cell_angle_gamma 90.000000
_cell_volume 1539.888931
_symmetry_space_group_name_H-M "C 2/C"
_symmetry_group_IT_number 15
_symmetry_cell_setting 'monoclinic'
loop_
_space_group_symop_operation_xyz
x,y,z
-x,y,1/2-z
-x,-y,-z
x,-y,1/2+z
1/2+x,1/2+y,z
1/2-x,1/2+y,1/2-z
1/2-x,1/2-y,-z
1/2+x,1/2-y,1/2+z
loop_
_atom_site_type_symbol
_atom_site_label
_atom_site_fract_x
_atom_site_fract_y
_atom_site_fract_z
Si Si1 0.272937 0.538643 0.816523
Si Si2 0.678457 0.756523 0.110724
Si Si3 0.304960 0.138574 0.421938
Si Si4 0.989769 0.393045 0.546080
Si Si5 0.397326 0.411345 0.100751
O O1 0.210721 0.448568 0.716790
O O2 0.309833 0.602712 0.685200
O O3 0.212046 0.607276 0.898012
O O4 0.370085 0.503163 0.977130
O O5 0.734580 0.725563 0.320064
O O6 0.750000 0.750000 0.000000
O O7 0.617972 0.854669 0.086812
O O8 0.594504 0.678833 0.013192
O O9 0.420796 0.165784 0.481489
O O10 0.000000 0.380078 0.750000
O O11 0.000000 0.500000 0.500000
O O12 0.500000 0.434648 0.250000
#
# Coordination Sequence:
#
# PCOD8138513 Si02
#       5
#     8   8   8   8   8
#     4   9  20  38  69 104 137 180 226 296 353 419
#     4  11  24  43  65  96 137 186 228 292 362 418
#     4  10  21  42  70 102 142 180 236 294 356 425
#     4  12  25  44  73 103 137 190 246 291 360 435
#     4  10  20  37  67  97 137 178 230 281 354 430
#
# _framework density 25.975899999999999
#
# number of rings (size 3 to 8) (size 9 to 14) (size 15 to 20)
#    0.000    1.600    2.000    2.400    5.600    0.000 
#    0.000    5.000    0.000    0.000    0.000    0.000 
#    0.000    0.000    0.000    0.000    0.000    0.000 
#
# Total GULP energy -248023.758464 kJ/mol
# GULP energy per Si atom -12401.187923 kJ/mol
# Density = 2.591678 g / cm^3
# Si number density = 25.975900 Si / 1000 Ang^3
#
#
#
# Elastic Constant Matrix: (Units=GPa)
#
#
# Indices 1 2 3 4 5 6 
#
# 1 126.6036 45.3495 26.7007 0.0000 22.2072 0.0000
# 2 45.3495 132.9284 33.0715 0.0000 2.5157 0.0000
# 3 26.7007 33.0715 107.3882 0.0000 5.7782 0.0000
# 4 0.0000 0.0000 0.0000 35.7386 0.0000 6.5039
# 5 22.2072 2.5157 5.7782 0.0000 38.7358 0.0000
# 6 0.0000 0.0000 0.0000 6.5039 0.0000 31.3133
#
#
#
# Elastic Compliance Matrix: (Units=1/GPa)
#
#
# Indices 1 2 3 4 5 6 
#
# 1 0.010231 -0.003062 -0.001306 0.000000 -0.005471 0.000000
# 2 -0.003062 0.009064 -0.002110 0.000000 0.001481 0.000000
# 3 -0.001306 -0.002110 0.010322 0.000000 -0.000654 0.000000
# 4 0.000000 0.000000 0.000000 0.029080 0.000000 -0.006040
# 5 -0.005471 0.001481 -0.000654 0.000000 0.028954 0.000000
# 6 0.000000 0.000000 0.000000 -0.006040 0.000000 0.033190
#
#
# Mechanical properties :
#
#
# Convention : Reuss Voigt Hill
#
# Bulk Modulus (GPa) = 60.02170 64.12929 62.07549
# Shear Modulus (GPa) = 35.88083 38.61078 37.24581
#
# Velocity S-wave (km/s) = 3.72063 3.85958 3.79074
# Velocity P-wave (km/s) = 6.45092 6.67858 6.56573
#
# Compressibility (1/GPa) = 0.01666064
#
# Stress axis : x y z
#
# Youngs Moduli (GPa) = 97.74570 110.32350 96.88245
#
# Poissons Ratio (x) = 0.33777 0.12657
# Poissons Ratio (y) = 0.29927 0.20441
# Poissons Ratio (z) = 0.12770 0.23277
#
# Static dielectric constant tensor:
#      x y z
#    x 4.758620 0.000000 0.021890 
#    y 0.000000 4.879900 0.000000 
#    z 0.021890 0.000000 5.040490 
# 
# 
# High freq. dielectric constant tensor:
#      x y z
#    x 2.032470 0.000000 0.009740 
#    y 0.000000 2.044340 0.000000 
#    z 0.009740 0.000000 2.061750 
# 
# From -- ./inp_files/38053.got.cif
#   From: 2010.06.25/outbox.cif.g09.slc.cpg/sg15_20_cif.got.tgz:38053.got - 2010.06.28 07:06:18.
