data_PCOD8138943
_publ_section_title
;
Structure prediction by ZEFSAII (Michael W. Deem and Ramdas Pophale) SiO2 
 PCOD8138943
Probable space group: C 2/C
;
_chemical_formula_sum "Si O2"
_cell_formula_units_Z 64
_cell_length_a 17.652641
_cell_length_b 15.597238
_cell_length_c 12.377690
_cell_angle_alpha 90.000000
_cell_angle_beta 90.137061
_cell_angle_gamma 90.000000
_cell_volume 3407.969875
_symmetry_space_group_name_H-M "C 2/C"
_symmetry_group_IT_number 15
_symmetry_cell_setting 'monoclinic'
loop_
_space_group_symop_operation_xyz
x,y,z
-x,y,1/2-z
-x,-y,-z
x,-y,1/2+z
1/2+x,1/2+y,z
1/2-x,1/2+y,1/2-z
1/2-x,1/2-y,-z
1/2+x,1/2-y,1/2+z
loop_
_atom_site_type_symbol
_atom_site_label
_atom_site_fract_x
_atom_site_fract_y
_atom_site_fract_z
Si Si1 0.667533 0.348196 0.456109
Si Si2 0.657192 0.164420 0.533010
Si Si3 0.333123 0.089017 0.196841
Si Si4 0.330653 0.232895 0.366085
Si Si5 0.912300 0.880766 0.268546
Si Si6 0.588803 0.921293 0.239040
Si Si7 0.301720 0.147749 0.582273
Si Si8 0.692501 0.495044 0.615968
O O1 0.634244 0.263954 0.515947
O O2 0.755764 0.337446 0.430510
O O3 0.625951 0.358324 0.343785
O O4 0.654691 0.432925 0.527696
O O5 0.642126 0.107835 0.426039
O O6 0.608051 0.120679 0.624972
O O7 0.336338 0.177417 0.259128
O O8 0.388401 0.021211 0.254822
O O9 0.246323 0.056559 0.198839
O O10 0.396185 0.304889 0.355211
O O11 0.343274 0.175092 0.471936
O O12 0.247296 0.274562 0.369599
O O13 0.876601 0.967388 0.315710
O O14 0.000000 0.895724 0.250000
O O15 0.500000 0.911669 0.250000
O O16 0.631614 0.872156 0.334710
O O17 0.245761 0.067385 0.559891
#
# Coordination Sequence:
#
# PCOD8138943 Si02
#       8
#     8   8   8   8   8   8   8   8
#     4  10  20  38  63  88 113 151 208 254 284 343
#     4  10  21  39  64  89 113 155 209 253 290 337
#     4  10  21  37  64  89 111 155 204 253 288 342
#     4  10  20  39  64  88 113 154 205 251 290 344
#     4  11  23  39  56  87 127 157 189 238 302 371
#     4  11  25  39  56  88 131 160 189 239 304 375
#     4   9  21  39  61  90 118 153 202 251 299 343
#     4   9  21  36  61  89 110 154 198 250 294 335
#
# _framework density 18.779508
#
# number of rings (size 3 to 8) (size 9 to 14) (size 15 to 20)
#    0.000    2.000    1.250    2.250   10.500    2.500 
#    0.000    0.625    0.000    0.000    0.000    0.000 
#    0.000    0.000    0.000    0.000    0.000    0.000 
#
# Total GULP energy -396831.590452 kJ/mol
# GULP energy per Si atom -12400.987202 kJ/mol
# Density = 1.873676 g / cm^3
# Si number density = 18.779508 Si / 1000 Ang^3
#
#
#
# Elastic Constant Matrix: (Units=GPa)
#
#
# Indices 1 2 3 4 5 6 
#
# 1 90.3073 41.6654 50.3491 0.0000 -20.0326 0.0000
# 2 41.6654 113.0939 60.4156 0.0000 -7.7834 0.0000
# 3 50.3491 60.4156 107.4554 0.0000 -6.9281 0.0000
# 4 0.0000 0.0000 0.0000 41.8659 0.0000 -0.9189
# 5 -20.0326 -7.7834 -6.9281 0.0000 17.7747 0.0000
# 6 0.0000 0.0000 0.0000 -0.9189 0.0000 7.1696
#
#
#
# Elastic Compliance Matrix: (Units=1/GPa)
#
#
# Indices 1 2 3 4 5 6 
#
# 1 0.020293 -0.002487 -0.006879 0.000000 0.019100 0.000000
# 2 -0.002487 0.013084 -0.006157 0.000000 0.000527 0.000000
# 3 -0.006879 -0.006157 0.015712 0.000000 -0.004324 0.000000
# 4 0.000000 0.000000 0.000000 0.023953 0.000000 0.003070
# 5 0.019100 0.000527 -0.004324 0.000000 0.076332 0.000000
# 6 0.000000 0.000000 0.000000 0.003070 0.000000 0.139870
#
#
# Mechanical properties :
#
#
# Convention : Reuss Voigt Hill
#
# Bulk Modulus (GPa) = 55.42152 68.41296 61.91724
# Shear Modulus (GPa) = 15.32317 23.92382 19.62350
#
# Velocity S-wave (km/s) = 2.85959 3.57309 3.23606
# Velocity P-wave (km/s) = 6.36229 7.31651 6.85602
#
# Compressibility (1/GPa) = 0.01804353
#
# Stress axis : x y z
#
# Youngs Moduli (GPa) = 49.27878 76.43051 63.64535
#
# Poissons Ratio (x) = 0.19008 0.43779
# Poissons Ratio (y) = 0.12256 0.39186
# Poissons Ratio (z) = 0.33897 0.47058
#
# Static dielectric constant tensor:
#      x y z
#    x 3.319460 0.000000 -0.027330 
#    y 0.000000 3.825730 0.000000 
#    z -0.027330 0.000000 3.440030 
# 
# 
# High freq. dielectric constant tensor:
#      x y z
#    x 1.701280 0.000000 -0.000160 
#    y 0.000000 1.746510 0.000000 
#    z -0.000160 0.000000 1.733280 
# 
# From -- ./inp_files/105740.got.cif
#   From: 2010.06.25/outbox.cif.g09.slc.cpg/sg15_53_cif.got.tgz:105740.got - 2010.06.28 07:06:18.
