data_PCOD8138248
_publ_section_title
;
Structure prediction by ZEFSAII (Michael W. Deem and Ramdas Pophale) SiO2 
 PCOD8138248
Probable space group: C 2/C
;
_chemical_formula_sum "Si O2"
_cell_formula_units_Z 48
_cell_length_a 11.414469
_cell_length_b 16.842043
_cell_length_c 21.650079
_cell_angle_alpha 90.000000
_cell_angle_beta 145.970951
_cell_angle_gamma 90.000000
_cell_volume 2329.152285
_symmetry_space_group_name_H-M "C 2/C"
_symmetry_group_IT_number 15
_symmetry_cell_setting 'monoclinic'
loop_
_space_group_symop_operation_xyz
x,y,z
-x,y,1/2-z
-x,-y,-z
x,-y,1/2+z
1/2+x,1/2+y,z
1/2-x,1/2+y,1/2-z
1/2-x,1/2-y,-z
1/2+x,1/2-y,1/2+z
loop_
_atom_site_type_symbol
_atom_site_label
_atom_site_fract_x
_atom_site_fract_y
_atom_site_fract_z
Si Si1 0.461592 0.159221 0.318618
Si Si2 0.990390 0.365790 0.970084
Si Si3 0.336554 0.429759 0.423682
Si Si4 0.645292 0.709500 0.087068
Si Si5 0.071456 0.475170 0.194086
Si Si6 0.260026 0.509076 0.642605
O O1 0.476128 0.175344 0.397422
O O2 0.244284 0.196754 0.198270
O O3 0.664593 0.200436 0.378047
O O4 0.452672 0.066859 0.296915
O O5 0.776650 0.415678 0.890038
O O6 0.045556 0.297761 0.043160
O O7 0.167978 0.434781 0.048599
O O8 0.500000 0.500000 0.500000
O O9 0.455538 0.347972 0.487285
O O10 0.234800 0.431867 0.311041
O O11 0.157427 0.436231 0.397908
O O12 0.149782 0.466541 0.158639
O O13 0.500000 0.527910 0.750000
#
# Coordination Sequence:
#
# PCOD8138248 Si02
#       6
#     8   8   8   8   8   8
#     4  10  20  37  61  95 124 157 214 255 293 377
#     4  10  24  42  60  93 121 161 217 249 313 368
#     4  11  19  35  62  95 127 160 196 257 314 363
#     4  11  21  36  64  92 129 161 199 260 314 361
#     4  10  21  38  61  95 123 160 218 242 309 376
#     4  10  24  44  66  84 122 170 213 259 299 372
#
# _framework density 20.608355
#
# number of rings (size 3 to 8) (size 9 to 14) (size 15 to 20)
#    0.000    1.667    3.333    1.500    4.667    2.667 
#    3.000    0.833    0.000    0.000    0.000    0.000 
#    0.000    0.000    0.000    0.000    0.000    0.000 
#
# Total GULP energy -297526.640925 kJ/mol
# GULP energy per Si atom -12396.943372 kJ/mol
# Density = 2.056145 g / cm^3
# Si number density = 20.608355 Si / 1000 Ang^3
#
#
#
# Elastic Constant Matrix: (Units=GPa)
#
#
# Indices 1 2 3 4 5 6 
#
# 1 61.8651 26.0505 49.9714 0.0002 -2.3962 0.0000
# 2 26.0505 102.8150 38.8211 0.0003 -5.4588 0.0001
# 3 49.9714 38.8211 133.7234 0.0021 -0.3782 0.0007
# 4 0.0002 0.0003 0.0021 31.6080 0.0000 -5.5564
# 5 -2.3962 -5.4588 -0.3782 0.0000 31.2809 0.0000
# 6 0.0000 0.0001 0.0007 -5.5564 0.0000 14.9364
#
#
#
# Elastic Compliance Matrix: (Units=1/GPa)
#
#
# Indices 1 2 3 4 5 6 
#
# 1 0.024007 -0.002956 -0.008110 0.000001 0.001225 0.000001
# 2 -0.002956 0.011398 -0.002199 0.000000 0.001736 0.000000
# 3 -0.008110 -0.002199 0.011145 -0.000001 -0.000870 -0.000001
# 4 0.000001 0.000000 -0.000001 0.033851 0.000000 0.012593
# 5 0.001225 0.001736 -0.000870 0.000000 0.032355 0.000000
# 6 0.000001 0.000000 -0.000001 0.012593 0.000000 0.071635
#
#
# Mechanical properties :
#
#
# Convention : Reuss Voigt Hill
#
# Bulk Modulus (GPa) = 49.95052 58.67661 54.31356
# Shear Modulus (GPa) = 22.97868 27.80242 25.39055
#
# Velocity S-wave (km/s) = 3.34281 3.67697 3.51387
# Velocity P-wave (km/s) = 6.26017 6.82356 6.54793
#
# Compressibility (1/GPa) = 0.02001981
#
# Stress axis : x y z
#
# Youngs Moduli (GPa) = 41.65493 87.73692 89.72863
#
# Poissons Ratio (x) = 0.25931 0.72767
# Poissons Ratio (y) = 0.12311 0.19736
# Poissons Ratio (z) = 0.33781 0.19298
#
# Static dielectric constant tensor:
#      x y z
#    x 3.502440 0.000000 -0.090390 
#    y 0.000000 3.704980 0.000000 
#    z -0.090390 0.000000 4.123650 
# 
# 
# High freq. dielectric constant tensor:
#      x y z
#    x 1.779710 0.000000 -0.010500 
#    y 0.000000 1.797090 0.000000 
#    z -0.010500 0.000000 1.830730 
# 
# From -- ./inp_files/270643.got.cif
#   From: 2010.06.25/outbox.cif.g09.slc.cpg/sg15_136_cif.got.tgz:270643.got - 2010.06.28 07:06:18.
