data_PCOD8138596
_publ_section_title
;
Structure prediction by ZEFSAII (Michael W. Deem and Ramdas Pophale) SiO2 
 PCOD8138596
Probable space group: C 2/C
;
_chemical_formula_sum "Si O2"
_cell_formula_units_Z 56
_cell_length_a 8.407451
_cell_length_b 33.418363
_cell_length_c 10.952607
_cell_angle_alpha 90.000000
_cell_angle_beta 119.374090
_cell_angle_gamma 90.000000
_cell_volume 2681.651746
_symmetry_space_group_name_H-M "C 2/C"
_symmetry_group_IT_number 15
_symmetry_cell_setting 'monoclinic'
loop_
_space_group_symop_operation_xyz
x,y,z
-x,y,1/2-z
-x,-y,-z
x,-y,1/2+z
1/2+x,1/2+y,z
1/2-x,1/2+y,1/2-z
1/2-x,1/2-y,-z
1/2+x,1/2-y,1/2+z
loop_
_atom_site_type_symbol
_atom_site_label
_atom_site_fract_x
_atom_site_fract_y
_atom_site_fract_z
Si Si1 0.335877 0.495301 0.595220
Si Si2 0.529971 0.359875 0.400115
Si Si3 0.794697 0.217005 0.845395
Si Si4 0.068626 0.061146 0.037052
Si Si5 0.049227 0.641332 0.406553
Si Si6 0.012172 0.714157 0.957152
Si Si7 0.391293 0.056432 0.324235
O O1 0.500000 0.501501 0.750000
O O2 0.303959 0.538387 0.517912
O O3 0.396101 0.465426 0.510370
O O4 0.152248 0.477967 0.591175
O O5 0.500000 0.370359 0.250000
O O6 0.404563 0.323871 0.396030
O O7 0.473308 0.399108 0.453045
O O8 0.738444 0.350318 0.503275
O O9 0.648168 0.217369 0.896469
O O10 0.693221 0.220602 0.675044
O O11 0.939779 0.252776 0.921680
O O12 0.196150 0.072185 0.200161
O O13 0.955963 0.671041 0.468193
O O14 0.000000 0.652198 0.250000
O O15 0.995868 0.595266 0.417979
O O16 0.500000 0.037295 0.250000
#
# Coordination Sequence:
#
# PCOD8138596 Si02
#       7
#     8   8   8   8   8   8   8
#     4   9  20  37  62  88 121 164 211 267 317 383
#     4  12  23  40  61  93 126 166 210 261 316 375
#     4  10  24  42  67  94 127 168 211 264 315 383
#     4  10  20  38  60  89 122 162 214 258 321 378
#     4  11  23  41  60  91 129 167 210 264 314 379
#     4  10  23  45  64  94 130 165 214 260 317 385
#     4  10  20  38  58  89 123 163 209 263 317 378
#
# _framework density 20.882653000000001
#
# number of rings (size 3 to 8) (size 9 to 14) (size 15 to 20)
#    0.000    1.714    4.286    0.429    4.000    1.714 
#    0.000    0.000    0.000    0.000    0.000    0.000 
#    0.000    0.000    0.000    0.000    0.000    0.000 
#
# Total GULP energy -347074.365990 kJ/mol
# GULP energy per Si atom -12395.513071 kJ/mol
# Density = 2.083512 g / cm^3
# Si number density = 20.882653 Si / 1000 Ang^3
#
#
#
# Elastic Constant Matrix: (Units=GPa)
#
#
# Indices 1 2 3 4 5 6 
#
# 1 58.3784 43.4215 23.4282 0.0000 -0.3855 0.0000
# 2 43.4215 115.3214 32.0470 0.0000 8.6657 0.0000
# 3 23.4282 32.0470 101.5301 0.0000 17.4243 0.0000
# 4 0.0000 0.0000 0.0000 34.9794 0.0000 -0.5490
# 5 -0.3855 8.6657 17.4243 0.0000 31.3982 0.0000
# 6 0.0000 0.0000 0.0000 -0.5490 0.0000 39.7219
#
#
#
# Elastic Compliance Matrix: (Units=1/GPa)
#
#
# Indices 1 2 3 4 5 6 
#
# 1 0.025271 -0.008801 -0.003894 0.000000 0.004900 0.000000
# 2 -0.008801 0.012602 -0.001472 0.000000 -0.002770 0.000000
# 3 -0.003894 -0.001472 0.012325 0.000000 -0.006481 0.000000
# 4 0.000000 0.000000 0.000000 0.028594 0.000000 0.000395
# 5 0.004900 -0.002770 -0.006481 0.000000 0.036270 0.000000
# 6 0.000000 0.000000 0.000000 0.000395 0.000000 0.025180
#
#
# Mechanical properties :
#
#
# Convention : Reuss Voigt Hill
#
# Bulk Modulus (GPa) = 45.73766 52.55816 49.14791
# Shear Modulus (GPa) = 28.43076 32.97544 30.70310
#
# Velocity S-wave (km/s) = 3.69379 3.97808 3.83857
# Velocity P-wave (km/s) = 6.33576 6.80611 6.57514
#
# Compressibility (1/GPa) = 0.02186382
#
# Stress axis : x y z
#
# Youngs Moduli (GPa) = 39.57080 79.34992 81.13788
#
# Poissons Ratio (x) = 0.69838 0.31598
# Poissons Ratio (y) = 0.34827 0.11940
# Poissons Ratio (z) = 0.15410 0.11677
#
# Static dielectric constant tensor:
#      x y z
#    x 3.728040 0.000000 0.012860 
#    y 0.000000 3.912100 0.000000 
#    z 0.012860 0.000000 3.988480 
# 
# 
# High freq. dielectric constant tensor:
#      x y z
#    x 1.807750 0.000000 0.004320 
#    y 0.000000 1.816260 0.000000 
#    z 0.004320 0.000000 1.826230 
# 
# From -- ./inp_files/82706.got.cif
#   From: 2010.06.25/outbox.cif.g09.slc.cpg/sg15_42_cif.got.tgz:82706.got - 2010.06.28 07:06:18.
