data_PCOD8138412
_publ_section_title
;
Structure prediction by ZEFSAII (Michael W. Deem and Ramdas Pophale) SiO2 
 PCOD8138412
Probable space group: C 2/C
;
_chemical_formula_sum "Si O2"
_cell_formula_units_Z 48
_cell_length_a 6.496866
_cell_length_b 26.000859
_cell_length_c 13.397132
_cell_angle_alpha 90.000000
_cell_angle_beta 84.715006
_cell_angle_gamma 90.000000
_cell_volume 2253.477666
_symmetry_space_group_name_H-M "C 2/C"
_symmetry_group_IT_number 15
_symmetry_cell_setting 'monoclinic'
loop_
_space_group_symop_operation_xyz
x,y,z
-x,y,1/2-z
-x,-y,-z
x,-y,1/2+z
1/2+x,1/2+y,z
1/2-x,1/2+y,1/2-z
1/2-x,1/2-y,-z
1/2+x,1/2-y,1/2+z
loop_
_atom_site_type_symbol
_atom_site_label
_atom_site_fract_x
_atom_site_fract_y
_atom_site_fract_z
Si Si1 0.142829 0.257349 0.648263
Si Si2 0.010451 0.417236 0.489010
Si Si3 0.838936 0.128947 0.385979
Si Si4 0.500000 0.539289 0.250000
Si Si5 0.291270 0.501613 0.575872
Si Si6 0.193261 0.165451 0.513661
Si Si7 0.500000 0.285620 0.750000
O O1 0.082957 0.204179 0.596306
O O2 0.151497 0.303834 0.568227
O O3 0.377826 0.250084 0.678116
O O4 0.000000 0.268339 0.750000
O O5 0.887525 0.375698 0.560071
O O6 0.841759 0.445510 0.426441
O O7 0.135539 0.456699 0.552007
O O8 0.179256 0.378837 0.430802
O O9 0.869340 0.074617 0.329710
O O10 0.017055 0.136134 0.459996
O O11 0.833862 0.177329 0.311846
O O12 0.649718 0.503410 0.310140
O O13 0.500000 0.500000 0.500000
#
# Coordination Sequence:
#
# PCOD8138412 Si02
#       7
#     8   8   8   4   8   8   4
#     4  10  21  38  63  91 131 165 209 263 324 385
#     4  11  21  39  65  87 126 165 210 256 329 381
#     4  10  20  37  64  91 121 154 213 268 311 371
#     4  11  20  40  64  88 126 156 206 278 314 363
#     4  11  23  41  62  92 126 160 207 273 317 381
#     4  10  21  39  63  93 126 168 211 268 318 381
#     4   9  20  36  58 100 116 150 216 258 310 389
#
# _framework density 21.300412999999999
#
# number of rings (size 3 to 8) (size 9 to 14) (size 15 to 20)
#    0.000    1.667    3.333    1.000    0.000    2.000 
#    0.000    5.000   18.333    0.000    0.000    0.000 
#    0.000    0.000    0.000    0.000    0.000    0.000 
#
# Total GULP energy -297341.818631 kJ/mol
# GULP energy per Si atom -12389.242443 kJ/mol
# Density = 2.125193 g / cm^3
# Si number density = 21.300413 Si / 1000 Ang^3
#
#
#
# Elastic Constant Matrix: (Units=GPa)
#
#
# Indices 1 2 3 4 5 6 
#
# 1 89.0634 49.6026 38.2961 0.0000 13.1443 0.0000
# 2 49.6026 77.5904 36.4153 0.0000 14.5884 0.0000
# 3 38.2961 36.4153 84.8098 0.0000 20.3528 0.0000
# 4 0.0000 0.0000 0.0000 15.2786 0.0000 12.4965
# 5 13.1443 14.5884 20.3528 0.0000 37.4984 0.0000
# 6 0.0000 0.0000 0.0000 12.4965 0.0000 20.5978
#
#
#
# Elastic Compliance Matrix: (Units=1/GPa)
#
#
# Indices 1 2 3 4 5 6 
#
# 1 0.018518 -0.009866 -0.004011 0.000000 -0.000475 0.000000
# 2 -0.009866 0.021676 -0.004206 0.000000 -0.002691 0.000000
# 3 -0.004011 -0.004206 0.016876 0.000000 -0.006118 0.000000
# 4 0.000000 0.000000 0.000000 0.129919 0.000000 -0.078820
# 5 -0.000475 -0.002691 -0.006118 0.000000 0.031202 0.000000
# 6 0.000000 0.000000 0.000000 -0.078820 0.000000 0.096368
#
#
# Mechanical properties :
#
#
# Convention : Reuss Voigt Hill
#
# Bulk Modulus (GPa) = 47.84046 55.56573 51.70309
# Shear Modulus (GPa) = 13.97846 23.15162 18.56504
#
# Velocity S-wave (km/s) = 2.56452 3.30041 2.95546
# Velocity P-wave (km/s) = 5.59264 6.37706 5.99769
#
# Compressibility (1/GPa) = 0.02090281
#
# Stress axis : x y z
#
# Youngs Moduli (GPa) = 54.00217 46.13502 59.25403
#
# Poissons Ratio (x) = 0.45517 0.23769
# Poissons Ratio (y) = 0.53279 0.24922
# Poissons Ratio (z) = 0.21662 0.19404
#
# Static dielectric constant tensor:
#      x y z
#    x 3.905840 0.000000 0.186610 
#    y 0.000000 3.864250 0.000000 
#    z 0.186610 0.000000 3.792300 
# 
# 
# High freq. dielectric constant tensor:
#      x y z
#    x 1.844120 0.000000 0.012660 
#    y 0.000000 1.836440 0.000000 
#    z 0.012660 0.000000 1.804920 
# 
# From -- ./inp_files/130093.got.cif
#   From: 2010.06.25/outbox.cif.g09.slc.cpg/sg15_66_cif.got.tgz:130093.got - 2010.06.28 07:06:18.
