data_PCOD8138817
_publ_section_title
;
Structure prediction by ZEFSAII (Michael W. Deem and Ramdas Pophale) SiO2 
 PCOD8138817
Probable space group: C 2/C
;
_chemical_formula_sum "Si O2"
_cell_formula_units_Z 48
_cell_length_a 8.219438
_cell_length_b 11.951025
_cell_length_c 24.528589
_cell_angle_alpha 90.000000
_cell_angle_beta 114.531124
_cell_angle_gamma 90.000000
_cell_volume 2191.972812
_symmetry_space_group_name_H-M "C 2/C"
_symmetry_group_IT_number 15
_symmetry_cell_setting 'monoclinic'
loop_
_space_group_symop_operation_xyz
x,y,z
-x,y,1/2-z
-x,-y,-z
x,-y,1/2+z
1/2+x,1/2+y,z
1/2-x,1/2+y,1/2-z
1/2-x,1/2-y,-z
1/2+x,1/2-y,1/2+z
loop_
_atom_site_type_symbol
_atom_site_label
_atom_site_fract_x
_atom_site_fract_y
_atom_site_fract_z
Si Si1 0.064434 0.792723 0.086938
Si Si2 0.351471 0.347214 0.772220
Si Si3 0.548493 0.514951 0.379081
Si Si4 0.057391 0.199707 0.465218
Si Si5 0.382353 0.075774 0.350960
Si Si6 0.485157 0.163823 0.638686
O O1 0.007787 0.669853 0.100533
O O2 0.281143 0.796452 0.119917
O O3 0.981293 0.884341 0.115416
O O4 0.976730 0.810064 0.014853
O O5 0.500000 0.381933 0.750000
O O6 0.372227 0.432041 0.825991
O O7 0.165831 0.367433 0.714433
O O8 0.384875 0.219151 0.797363
O O9 0.573235 0.577260 0.440373
O O10 0.717428 0.531545 0.363615
O O11 0.250000 0.250000 0.500000
O O12 0.950699 0.286664 0.411187
O O13 0.509382 0.969821 0.357758
#
# Coordination Sequence:
#
# PCOD8138817 Si02
#       6
#     8   8   8   8   8   8
#     4  11  21  39  61  87 118 152 195 234 292 343
#     4   9  18  38  60  78 115 157 187 235 292 337
#     4  10  20  38  62  84 117 153 191 241 289 334
#     4   9  17  39  62  82 115 162 186 233 293 344
#     4  11  22  38  60  86 115 157 191 239 294 337
#     4  10  21  38  63  82 118 154 195 234 291 347
#
# _framework density 21.898081999999999
#
# number of rings (size 3 to 8) (size 9 to 14) (size 15 to 20)
#    0.000    2.000    6.667    0.500    2.333    0.667 
#    6.000    0.833    0.000    0.000    0.000    0.000 
#    0.000    0.000    0.000    0.000    0.000    0.000 
#
# Total GULP energy -297416.060901 kJ/mol
# GULP energy per Si atom -12392.335871 kJ/mol
# Density = 2.184824 g / cm^3
# Si number density = 21.898082 Si / 1000 Ang^3
#
#
#
# Elastic Constant Matrix: (Units=GPa)
#
#
# Indices 1 2 3 4 5 6 
#
# 1 8.2413 21.8725 12.9932 0.0000 -3.8630 0.0000
# 2 21.8725 170.7159 42.0908 0.0000 -10.8837 0.0000
# 3 12.9932 42.0908 109.7770 0.0000 -9.8146 0.0000
# 4 0.0000 0.0000 0.0000 32.0884 0.0000 -5.3273
# 5 -3.8630 -10.8837 -9.8146 0.0000 16.4513 0.0000
# 6 0.0000 0.0000 0.0000 -5.3273 0.0000 33.3538
#
#
#
# Elastic Compliance Matrix: (Units=1/GPa)
#
#
# Indices 1 2 3 4 5 6 
#
# 1 0.216676 -0.022417 -0.014607 0.000000 0.027334 0.000000
# 2 -0.022417 0.008928 -0.000752 0.000000 0.000193 0.000000
# 3 -0.014607 -0.000752 0.011383 0.000000 0.002863 0.000000
# 4 0.000000 0.000000 0.000000 0.032013 0.000000 0.005113
# 5 0.027334 0.000193 0.002863 0.000000 0.069040 0.000000
# 6 0.000000 0.000000 0.000000 0.005113 0.000000 0.030798
#
#
# Mechanical properties :
#
#
# Convention : Reuss Voigt Hill
#
# Bulk Modulus (GPa) = 6.19449 49.18305 27.68877
# Shear Modulus (GPa) = 10.03609 30.49721 20.26665
#
# Velocity S-wave (km/s) = 2.14314 3.73592 3.04550
# Velocity P-wave (km/s) = 2.99316 6.41235 5.00386
#
# Compressibility (1/GPa) = 0.16143387
#
# Stress axis : x y z
#
# Youngs Moduli (GPa) = 4.61518 112.01133 87.85238
#
# Poissons Ratio (x) = 2.51096 1.28325
# Poissons Ratio (y) = 0.10346 0.06611
# Poissons Ratio (z) = 0.06741 0.08428
#
# Static dielectric constant tensor:
#      x y z
#    x 3.355370 0.000000 -0.137770 
#    y 0.000000 3.949600 0.000000 
#    z -0.137770 0.000000 5.290350 
# 
# 
# High freq. dielectric constant tensor:
#      x y z
#    x 1.804840 0.000000 -0.011550 
#    y 0.000000 1.864220 0.000000 
#    z -0.011550 0.000000 1.879370 
# 
# From -- ./inp_files/263067.got.cif
#   From: 2010.06.25/outbox.cif.g09.slc.cpg/sg15_132_cif.got.tgz:263067.got - 2010.06.28 07:06:18.
