data_PCOD8138933
_publ_section_title
;
Structure prediction by ZEFSAII (Michael W. Deem and Ramdas Pophale) SiO2 
 PCOD8138933
Probable space group: C 2/C
;
_chemical_formula_sum "Si O2"
_cell_formula_units_Z 60
_cell_length_a 21.461982
_cell_length_b 8.908335
_cell_length_c 17.881422
_cell_angle_alpha 90.000000
_cell_angle_beta 66.516023
_cell_angle_gamma 90.000000
_cell_volume 3135.588004
_symmetry_space_group_name_H-M "C 2/C"
_symmetry_group_IT_number 15
_symmetry_cell_setting 'monoclinic'
loop_
_space_group_symop_operation_xyz
x,y,z
-x,y,1/2-z
-x,-y,-z
x,-y,1/2+z
1/2+x,1/2+y,z
1/2-x,1/2+y,1/2-z
1/2-x,1/2-y,-z
1/2+x,1/2-y,1/2+z
loop_
_atom_site_type_symbol
_atom_site_label
_atom_site_fract_x
_atom_site_fract_y
_atom_site_fract_z
Si Si1 0.245792 0.330277 0.078369
Si Si2 0.684838 0.664129 0.317897
Si Si3 0.950807 0.761616 0.193104
Si Si4 0.392518 0.261003 0.785163
Si Si5 0.684380 0.312922 0.313813
Si Si6 0.201517 0.140380 0.478135
Si Si7 0.000000 0.490154 0.250000
Si Si8 0.420299 0.428766 0.351446
O O1 0.180639 0.273404 0.150503
O O2 0.307720 0.280515 0.101893
O O3 0.246882 0.507399 0.066166
O O4 0.250000 0.250000 0.000000
O O5 0.620351 0.722658 0.298739
O O6 0.689586 0.489327 0.295552
O O7 0.757859 0.735240 0.263623
O O8 0.671894 0.700623 0.412544
O O9 0.891014 0.748613 0.162331
O O10 0.912964 0.805728 0.289161
O O11 0.987511 0.599159 0.184308
O O12 0.006616 0.889980 0.144669
O O13 0.436031 0.118231 0.788745
O O14 0.422920 0.407126 0.812100
O O15 0.250000 0.250000 0.500000
O O16 0.139453 0.085306 0.559664
#
# Coordination Sequence:
#
# PCOD8138933 Si02
#       8
#     8   8   8   8   8   8   4   8
#     4  10  22  39  58  91 119 158 194 255 306 356
#     4  10  23  37  63  93 118 159 201 252 302 360
#     4  10  22  39  63  88 121 157 209 241 308 357
#     4  11  21  40  62  87 125 157 211 244 308 361
#     4  10  21  38  62  88 121 154 203 250 294 364
#     4  11  23  37  62  91 126 154 205 250 311 357
#     4  10  24  36  64  88 116 162 206 254 282 374
#     4  10  20  38  63  86 117 166 195 248 301 369
#
# _framework density 19.135166000000002
#
# number of rings (size 3 to 8) (size 9 to 14) (size 15 to 20)
#    0.000    1.867    2.667    1.600    9.333    0.000 
#    0.000    4.000    0.000    4.000    0.000    0.000 
#    0.000    0.000    0.000    0.000    0.000    0.000 
#
# Total GULP energy -371653.677778 kJ/mol
# GULP energy per Si atom -12388.455926 kJ/mol
# Density = 1.909161 g / cm^3
# Si number density = 19.135166 Si / 1000 Ang^3
#
#
#
# Elastic Constant Matrix: (Units=GPa)
#
#
# Indices 1 2 3 4 5 6 
#
# 1 137.6757 63.9191 24.2322 -0.0002 19.4411 -0.0001
# 2 63.9191 107.5270 32.7893 -0.0002 13.8640 0.0000
# 3 24.2322 32.7893 72.5879 -0.0001 20.3080 0.0000
# 4 -0.0002 -0.0002 -0.0001 16.3024 -0.0001 -3.6297
# 5 19.4411 13.8640 20.3080 -0.0001 22.6091 -0.0001
# 6 -0.0001 0.0000 0.0000 -3.6297 -0.0001 37.1805
#
#
#
# Elastic Compliance Matrix: (Units=1/GPa)
#
#
# Indices 1 2 3 4 5 6 
#
# 1 0.010712 -0.005796 0.000835 0.000000 -0.006407 0.000000
# 2 -0.005796 0.014075 -0.004545 0.000000 0.000435 0.000000
# 3 0.000835 -0.004545 0.019997 0.000000 -0.015892 0.000000
# 4 0.000000 0.000000 0.000000 0.062704 0.000000 0.006121
# 5 -0.006407 0.000435 -0.015892 0.000000 0.063747 0.000000
# 6 0.000000 0.000000 0.000000 0.006121 0.000000 0.027493
#
#
# Mechanical properties :
#
#
# Convention : Reuss Voigt Hill
#
# Bulk Modulus (GPa) = 38.80277 62.18575 50.49426
# Shear Modulus (GPa) = 22.09140 28.34174 25.21657
#
# Velocity S-wave (km/s) = 3.40147 3.85273 3.63411
# Velocity P-wave (km/s) = 5.97904 7.23602 6.63735
#
# Compressibility (1/GPa) = 0.02577136
#
# Stress axis : x y z
#
# Youngs Moduli (GPa) = 93.35043 71.04583 50.00737
#
# Poissons Ratio (x) = 0.41181 -0.04173
# Poissons Ratio (y) = 0.54109 0.22728
# Poissons Ratio (z) = -0.07791 0.32290
#
# Static dielectric constant tensor:
#      x y z
#    x 4.566590 0.000000 0.502350 
#    y 0.000000 3.566020 0.000000 
#    z 0.502350 0.000000 3.514410 
# 
# 
# High freq. dielectric constant tensor:
#      x y z
#    x 1.756870 0.000000 0.011100 
#    y 0.000000 1.749780 0.000000 
#    z 0.011100 0.000000 1.722450 
# 
# From -- ./inp_files/213855.got.cif
#   From: 2010.06.25/outbox.cif.g09.slc.cpg/sg15_107_cif.got.tgz:213855.got - 2010.06.28 07:06:18.
