data_PCOD8138269
_publ_section_title
;
Structure prediction by ZEFSAII (Michael W. Deem and Ramdas Pophale) SiO2 
 PCOD8138269
Probable space group: C 2/C
;
_chemical_formula_sum "Si O2"
_cell_formula_units_Z 48
_cell_length_a 17.061185
_cell_length_b 8.626661
_cell_length_c 15.338222
_cell_angle_alpha 90.000000
_cell_angle_beta 90.227250
_cell_angle_gamma 90.000000
_cell_volume 2257.478004
_symmetry_space_group_name_H-M "C 2/C"
_symmetry_group_IT_number 15
_symmetry_cell_setting 'monoclinic'
loop_
_space_group_symop_operation_xyz
x,y,z
-x,y,1/2-z
-x,-y,-z
x,-y,1/2+z
1/2+x,1/2+y,z
1/2-x,1/2+y,1/2-z
1/2-x,1/2-y,-z
1/2+x,1/2-y,1/2+z
loop_
_atom_site_type_symbol
_atom_site_label
_atom_site_fract_x
_atom_site_fract_y
_atom_site_fract_z
Si Si1 0.422850 0.700876 0.049502
Si Si2 0.710072 0.665840 0.692559
Si Si3 0.847671 0.424691 0.924769
Si Si4 0.355037 0.368886 0.734068
Si Si5 0.700094 0.486583 0.523956
Si Si6 0.094596 0.248156 0.089759
O O1 0.405075 0.671437 0.150199
O O2 0.516005 0.708507 0.035922
O O3 0.384525 0.860331 0.014453
O O4 0.384547 0.565733 0.992065
O O5 0.652370 0.799090 0.653406
O O6 0.669578 0.551841 0.763430
O O7 0.781297 0.752442 0.739863
O O8 0.738624 0.557993 0.611874
O O9 0.899556 0.568588 0.894365
O O10 0.757804 0.479408 0.943611
O O11 0.409470 0.338571 0.817835
O O12 0.673299 0.307640 0.537158
#
# Coordination Sequence:
#
# PCOD8138269 Si02
#       6
#     8   8   8   8   8   8
#     4  11  21  40  61  85 122 160 192 247 299 350
#     4  10  20  37  62  87 113 158 199 255 286 349
#     4  11  20  41  63  88 117 159 205 242 288 353
#     4  11  21  37  60  87 121 153 201 246 307 344
#     4  10  20  39  62  84 119 159 202 236 290 354
#     4  11  24  35  60  94 124 154 193 244 305 356
#
# _framework density 21.262667
#
# number of rings (size 3 to 8) (size 9 to 14) (size 15 to 20)
#    0.000    1.333    3.333    4.000    0.000    0.000 
#    0.000    0.000    0.000   10.000    0.000    0.000 
#    0.000    0.000    0.000    0.000    0.000    0.000 
#
# Total GULP energy -297492.699015 kJ/mol
# GULP energy per Si atom -12395.529126 kJ/mol
# Density = 2.121427 g / cm^3
# Si number density = 21.262667 Si / 1000 Ang^3
#
#
#
# Elastic Constant Matrix: (Units=GPa)
#
#
# Indices 1 2 3 4 5 6 
#
# 1 92.8737 33.7108 23.7057 0.0000 16.9069 0.0000
# 2 33.7108 113.1321 16.1738 0.0000 -0.6742 0.0000
# 3 23.7057 16.1738 50.7635 0.0000 4.1452 0.0000
# 4 0.0000 0.0000 0.0000 28.2094 0.0000 2.5761
# 5 16.9069 -0.6742 4.1452 0.0000 27.2219 0.0000
# 6 0.0000 0.0000 0.0000 2.5761 0.0000 18.9601
#
#
#
# Elastic Compliance Matrix: (Units=1/GPa)
#
#
# Indices 1 2 3 4 5 6 
#
# 1 0.015022 -0.003799 -0.005098 0.000000 -0.008647 0.000000
# 2 -0.003799 0.010234 -0.001722 0.000000 0.002875 0.000000
# 3 -0.005098 -0.001722 0.022655 0.000000 -0.000326 0.000000
# 4 0.000000 0.000000 0.000000 0.035895 0.000000 -0.004877
# 5 -0.008647 0.002875 -0.000326 0.000000 0.042227 0.000000
# 6 0.000000 0.000000 0.000000 -0.004877 0.000000 0.053405
#
#
# Mechanical properties :
#
#
# Convention : Reuss Voigt Hill
#
# Bulk Modulus (GPa) = 37.49006 44.88332 41.18669
# Shear Modulus (GPa) = 23.85880 27.09021 25.47451
#
# Velocity S-wave (km/s) = 3.35341 3.57329 3.46509
# Velocity P-wave (km/s) = 5.71524 6.17894 5.95161
#
# Compressibility (1/GPa) = 0.02667374
#
# Stress axis : x y z
#
# Youngs Moduli (GPa) = 66.57035 97.70943 44.13998
#
# Poissons Ratio (x) = 0.37118 0.22504
# Poissons Ratio (y) = 0.25289 0.07599
# Poissons Ratio (z) = 0.33940 0.16822
#
# Static dielectric constant tensor:
#      x y z
#    x 3.625330 0.000000 0.285460 
#    y 0.000000 3.964160 0.000000 
#    z 0.285460 0.000000 3.637920 
# 
# 
# High freq. dielectric constant tensor:
#      x y z
#    x 1.812490 0.000000 0.026060 
#    y 0.000000 1.842720 0.000000 
#    z 0.026060 0.000000 1.823370 
# 
# From -- ./inp_files/159724.got.cif
#   From: 2010.06.25/outbox.cif.g09.slc.cpg/sg15_80_cif.got.tgz:159724.got - 2010.06.28 07:06:18.
