data_PCOD8138359
_publ_section_title
;
Structure prediction by ZEFSAII (Michael W. Deem and Ramdas Pophale) SiO2 
 PCOD8138359
Probable space group: C 2/C
;
_chemical_formula_sum "Si O2"
_cell_formula_units_Z 48
_cell_length_a 18.223769
_cell_length_b 14.081138
_cell_length_c 18.378287
_cell_angle_alpha 90.000000
_cell_angle_beta 153.019784
_cell_angle_gamma 90.000000
_cell_volume 2139.603559
_symmetry_space_group_name_H-M "C 2/C"
_symmetry_group_IT_number 15
_symmetry_cell_setting 'monoclinic'
loop_
_space_group_symop_operation_xyz
x,y,z
-x,y,1/2-z
-x,-y,-z
x,-y,1/2+z
1/2+x,1/2+y,z
1/2-x,1/2+y,1/2-z
1/2-x,1/2-y,-z
1/2+x,1/2-y,1/2+z
loop_
_atom_site_type_symbol
_atom_site_label
_atom_site_fract_x
_atom_site_fract_y
_atom_site_fract_z
Si Si1 0.500000 0.283156 0.250000
Si Si2 0.741110 0.360972 0.577551
Si Si3 0.917135 0.444987 0.247844
Si Si4 0.218304 0.581664 0.097419
Si Si5 0.648460 0.698562 0.519643
Si Si6 0.500000 0.613472 0.250000
Si Si7 0.100160 0.093734 0.104996
O O1 0.598083 0.349042 0.392607
O O2 0.622897 0.219122 0.311752
O O3 0.818285 0.463767 0.634215
O O4 0.669705 0.355284 0.595356
O O5 0.799598 0.366437 0.177860
O O6 0.000000 0.399815 0.250000
O O7 0.054915 0.472472 0.428849
O O8 0.197399 0.693695 0.069624
O O9 0.371405 0.549424 0.182137
O O10 0.254022 0.558942 0.213307
O O11 0.599962 0.679199 0.393649
O O12 0.502233 0.673930 0.444470
O O13 0.000000 0.000000 0.000000
#
# Coordination Sequence:
#
# PCOD8138359 Si02
#       7
#     4   8   8   8   8   4   8
#     4  10  26  51  79  98 124 180 246 304 347 399
#     4  11  25  49  72 101 130 175 238 294 351 403
#     4  12  23  40  69 101 138 177 232 280 328 412
#     4  11  25  39  65 101 137 187 218 265 337 410
#     4  11  23  41  64 101 140 181 221 263 336 409
#     4  10  20  37  63  90 140 178 216 256 309 401
#     4  11  25  46  63  98 140 178 217 281 348 412
#
# _framework density 22.434062000000001
#
# number of rings (size 3 to 8) (size 9 to 14) (size 15 to 20)
#    0.000    1.000    4.167    2.500    4.667    2.667 
#    0.000    0.000    0.000    0.000    0.000    0.000 
#    0.000    0.000    0.000    0.000    0.000    0.000 
#
# Total GULP energy -297655.486830 kJ/mol
# GULP energy per Si atom -12402.311951 kJ/mol
# Density = 2.238300 g / cm^3
# Si number density = 22.434062 Si / 1000 Ang^3
#
#
#
# Elastic Constant Matrix: (Units=GPa)
#
#
# Indices 1 2 3 4 5 6 
#
# 1 147.1369 20.5522 54.6216 0.0012 -7.9021 0.0009
# 2 20.5522 65.7151 34.1759 0.0012 -1.0176 0.0022
# 3 54.6216 34.1759 175.5546 0.0020 -13.1242 0.0034
# 4 0.0012 0.0012 0.0020 27.3632 0.0011 0.3900
# 5 -7.9021 -1.0176 -13.1242 0.0011 37.4235 0.0015
# 6 0.0009 0.0022 0.0034 0.3900 0.0015 15.1570
#
#
#
# Elastic Compliance Matrix: (Units=1/GPa)
#
#
# Indices 1 2 3 4 5 6 
#
# 1 0.007811 -0.001335 -0.002105 0.000000 0.000875 0.000000
# 2 -0.001335 0.017178 -0.002993 0.000000 -0.000865 -0.000002
# 3 -0.002105 -0.002993 0.007080 0.000000 0.001957 -0.000001
# 4 0.000000 0.000000 0.000000 0.036559 -0.000001 -0.000941
# 5 0.000875 -0.000865 0.001957 -0.000001 0.027569 -0.000003
# 6 0.000000 -0.000002 -0.000001 -0.000941 -0.000003 0.066000
#
#
# Mechanical properties :
#
#
# Convention : Reuss Voigt Hill
#
# Bulk Modulus (GPa) = 52.07502 67.45624 59.76563
# Shear Modulus (GPa) = 27.55350 34.59252 31.07301
#
# Velocity S-wave (km/s) = 3.50837 3.93105 3.72571
# Velocity P-wave (km/s) = 6.29876 7.12307 6.72356
#
# Compressibility (1/GPa) = 0.01920306
#
# Stress axis : x y z
#
# Youngs Moduli (GPa) = 128.01971 58.21398 141.23698
#
# Poissons Ratio (x) = 0.07769 0.29733
# Poissons Ratio (y) = 0.17085 0.42279
# Poissons Ratio (z) = 0.26950 0.17426
#
# Static dielectric constant tensor:
#      x y z
#    x 4.329300 -0.000010 0.158830 
#    y -0.000010 3.676180 -0.000020 
#    z 0.158830 -0.000020 4.667590 
# 
# 
# High freq. dielectric constant tensor:
#      x y z
#    x 1.886350 0.000000 0.005910 
#    y 0.000000 1.859840 0.000000 
#    z 0.005910 0.000000 1.909720 
# 
# From -- ./inp_files/211465.got.cif
#   From: 2010.06.25/outbox.cif.g09.slc.cpg/sg15_106_cif.got.tgz:211465.got - 2010.06.28 07:06:18.
