data_PCOD8138663
_publ_section_title
;
Structure prediction by ZEFSAII (Michael W. Deem and Ramdas Pophale) SiO2 
 PCOD8138663
Probable space group: C 2/C
;
_chemical_formula_sum "Si O2"
_cell_formula_units_Z 52
_cell_length_a 18.572515
_cell_length_b 8.737189
_cell_length_c 23.221636
_cell_angle_alpha 90.000000
_cell_angle_beta 41.231114
_cell_angle_gamma 90.000000
_cell_volume 2483.620443
_symmetry_space_group_name_H-M "C 2/C"
_symmetry_group_IT_number 15
_symmetry_cell_setting 'monoclinic'
loop_
_space_group_symop_operation_xyz
x,y,z
-x,y,1/2-z
-x,-y,-z
x,-y,1/2+z
1/2+x,1/2+y,z
1/2-x,1/2+y,1/2-z
1/2-x,1/2-y,-z
1/2+x,1/2-y,1/2+z
loop_
_atom_site_type_symbol
_atom_site_label
_atom_site_fract_x
_atom_site_fract_y
_atom_site_fract_z
Si Si1 0.035758 0.164712 0.837130
Si Si2 0.312964 0.315257 0.517500
Si Si3 0.658526 0.901813 0.202563
Si Si4 0.954826 0.812101 0.644382
Si Si5 0.304187 0.674376 0.521617
Si Si6 0.000000 0.355151 0.750000
Si Si7 0.257268 0.314362 0.679730
O O1 0.982048 0.238929 0.812942
O O2 0.157202 0.231746 0.773176
O O3 0.945099 0.215274 0.939086
O O4 0.045956 0.981189 0.828057
O O5 0.250000 0.250000 0.500000
O O6 0.298344 0.494418 0.519447
O O7 0.267723 0.255801 0.606734
O O8 0.567353 0.806683 0.290795
O O9 0.731918 0.782956 0.121371
O O10 0.603741 0.033983 0.195702
O O11 0.738385 0.001606 0.195576
O O12 0.868000 0.782223 0.646704
O O13 0.071526 0.768820 0.546742
O O14 0.250000 0.750000 0.500000
#
# Coordination Sequence:
#
# PCOD8138663 Si02
#       7
#     8   8   8   8   8   4   8
#     4  10  21  37  60  85 115 150 195 242 285 340
#     4  10  21  38  62  85 112 152 194 237 286 344
#     4  10  21  38  59  80 117 154 188 239 292 344
#     4  11  23  37  58  87 116 152 196 240 288 345
#     4  10  22  37  57  84 114 149 192 241 290 341
#     4  10  20  38  60  84 112 154 194 236 294 344
#     4  10  22  39  58  84 117 155 193 233 292 351
#
# _framework density 20.937176999999998
#
# number of rings (size 3 to 8) (size 9 to 14) (size 15 to 20)
#    0.000    1.846    0.000    4.615    0.000   12.308 
#    0.000    0.000    0.000    7.385    0.000    0.000 
#    0.000    0.000    0.000    0.000    0.000    0.000 
#
# Total GULP energy -322137.421587 kJ/mol
# GULP energy per Si atom -12389.900830 kJ/mol
# Density = 2.088952 g / cm^3
# Si number density = 20.937177 Si / 1000 Ang^3
#
#
#
# Elastic Constant Matrix: (Units=GPa)
#
#
# Indices 1 2 3 4 5 6 
#
# 1 115.0591 25.8370 37.6863 0.0001 -15.4927 0.0000
# 2 25.8370 41.6969 29.4720 0.0003 7.7719 -0.0001
# 3 37.6863 29.4720 131.9058 0.0000 -19.1278 -0.0001
# 4 0.0001 0.0003 0.0000 33.2776 -0.0001 -1.8393
# 5 -15.4927 7.7719 -19.1278 -0.0001 29.9853 0.0000
# 6 0.0000 -0.0001 -0.0001 -1.8393 0.0000 29.2562
#
#
#
# Elastic Compliance Matrix: (Units=1/GPa)
#
#
# Indices 1 2 3 4 5 6 
#
# 1 0.011826 -0.008680 -0.000250 0.000000 0.008200 0.000000
# 2 -0.008680 0.039950 -0.009475 0.000000 -0.020883 0.000000
# 3 -0.000250 -0.009475 0.011137 0.000000 0.009431 0.000000
# 4 0.000000 0.000000 0.000000 0.030155 0.000000 0.001896
# 5 0.008200 -0.020883 0.009431 0.000000 0.049015 0.000000
# 6 0.000000 0.000000 0.000000 0.001896 0.000000 0.034300
#
#
# Mechanical properties :
#
#
# Convention : Reuss Voigt Hill
#
# Bulk Modulus (GPa) = 38.30764 52.73913 45.52339
# Shear Modulus (GPa) = 22.53321 31.54826 27.04074
#
# Velocity S-wave (km/s) = 3.28415 3.88597 3.59767
# Velocity P-wave (km/s) = 5.71988 6.73634 6.24881
#
# Compressibility (1/GPa) = 0.02610445
#
# Stress axis : x y z
#
# Youngs Moduli (GPa) = 84.55641 25.03129 89.78891
#
# Poissons Ratio (x) = 0.21726 0.02249
# Poissons Ratio (y) = 0.73391 0.85071
# Poissons Ratio (z) = 0.02118 0.23716
#
# Static dielectric constant tensor:
#      x y z
#    x 3.799630 0.000000 -0.311380 
#    y 0.000000 3.363610 0.000000 
#    z -0.311380 0.000000 4.807840 
# 
# 
# High freq. dielectric constant tensor:
#      x y z
#    x 1.816660 0.000000 -0.024610 
#    y 0.000000 1.804350 0.000000 
#    z -0.024610 0.000000 1.837800 
# 
# From -- ./inp_files/247765.got.cif
#   From: 2010.06.25/outbox.cif.g09.slc.cpg/sg15_124_cif.got.tgz:247765.got - 2010.06.28 07:06:18.
