data_PCOD8138703
_publ_section_title
;
Structure prediction by ZEFSAII (Michael W. Deem and Ramdas Pophale) SiO2 
 PCOD8138703
Probable space group: C 2/C
;
_chemical_formula_sum "Si O2"
_cell_formula_units_Z 56
_cell_length_a 14.739688
_cell_length_b 11.423534
_cell_length_c 17.003728
_cell_angle_alpha 90.000000
_cell_angle_beta 112.788370
_cell_angle_gamma 90.000000
_cell_volume 2639.589672
_symmetry_space_group_name_H-M "C 2/C"
_symmetry_group_IT_number 15
_symmetry_cell_setting 'monoclinic'
loop_
_space_group_symop_operation_xyz
x,y,z
-x,y,1/2-z
-x,-y,-z
x,-y,1/2+z
1/2+x,1/2+y,z
1/2-x,1/2+y,1/2-z
1/2-x,1/2-y,-z
1/2+x,1/2-y,1/2+z
loop_
_atom_site_type_symbol
_atom_site_label
_atom_site_fract_x
_atom_site_fract_y
_atom_site_fract_z
Si Si1 0.566702 0.411779 0.199930
Si Si2 0.053050 0.223918 0.963202
Si Si3 0.285360 0.848848 0.124748
Si Si4 0.377428 0.192207 0.502902
Si Si5 0.277896 0.813429 0.297683
Si Si6 0.829857 0.927533 0.887835
Si Si7 0.890353 0.447826 0.463266
O O1 0.500000 0.458220 0.250000
O O2 0.507109 0.308271 0.134739
O O3 0.666313 0.358266 0.268131
O O4 0.592340 0.514418 0.147020
O O5 0.987562 0.275986 0.013801
O O6 0.111830 0.110401 0.013481
O O7 0.121526 0.341223 0.975619
O O8 0.186169 0.791527 0.059067
O O9 0.313674 0.804007 0.220122
O O10 0.259474 0.986655 0.119651
O O11 0.374236 0.811004 0.097132
O O12 0.329869 0.065328 0.463841
O O13 0.279520 0.684647 0.333155
O O14 0.350725 0.902721 0.366114
O O15 0.000000 0.500000 0.500000
#
# Coordination Sequence:
#
# PCOD8138703 Si02
#       7
#     8   8   8   8   8   8   8
#     4  11  24  38  60  93 125 161 205 263 314 368
#     4  10  20  41  60  84 121 163 201 248 315 371
#     4  10  22  35  61  93 119 160 205 259 309 369
#     4  10  20  38  60  89 122 158 206 249 316 367
#     4  10  22  41  62  92 124 165 212 259 312 374
#     4  10  22  40  61  86 122 163 204 253 312 370
#     4   9  21  39  64  86 122 169 204 253 309 377
#
# _framework density 21.215418
#
# number of rings (size 3 to 8) (size 9 to 14) (size 15 to 20)
#    0.000    2.000    2.857    0.429    4.000    3.429 
#    0.000    8.571    0.000    0.000    0.000    0.000 
#    0.000    0.000    0.000    0.000    0.000    0.000 
#
# Total GULP energy -346935.743668 kJ/mol
# GULP energy per Si atom -12390.562274 kJ/mol
# Density = 2.116713 g / cm^3
# Si number density = 21.215418 Si / 1000 Ang^3
#
#
#
# Elastic Constant Matrix: (Units=GPa)
#
#
# Indices 1 2 3 4 5 6 
#
# 1 34.4581 1.5866 22.8301 0.0000 2.6705 0.0000
# 2 1.5866 97.8618 19.9416 0.0000 16.8621 0.0000
# 3 22.8301 19.9416 101.1023 0.0000 17.5715 0.0000
# 4 0.0000 0.0000 0.0000 29.8705 0.0000 6.8314
# 5 2.6705 16.8621 17.5715 0.0000 22.8857 0.0000
# 6 0.0000 0.0000 0.0000 6.8314 0.0000 16.1289
#
#
#
# Elastic Compliance Matrix: (Units=1/GPa)
#
#
# Indices 1 2 3 4 5 6 
#
# 1 0.034283 0.000824 -0.008197 0.000000 0.001686 0.000000
# 2 0.000824 0.011801 -0.001138 0.000000 -0.007918 0.000000
# 3 -0.008197 -0.001138 0.013449 0.000000 -0.008531 0.000000
# 4 0.000000 0.000000 0.000000 0.037068 0.000000 -0.015700
# 5 0.001686 -0.007918 -0.008531 0.000000 0.055883 0.000000
# 6 0.000000 0.000000 0.000000 -0.015700 0.000000 0.068650
#
#
# Mechanical properties :
#
#
# Convention : Reuss Voigt Hill
#
# Bulk Modulus (GPa) = 23.52282 35.79320 29.65801
# Shear Modulus (GPa) = 19.81554 26.38127 23.09841
#
# Velocity S-wave (km/s) = 3.05948 3.53015 3.30321
# Velocity P-wave (km/s) = 4.85719 5.78998 5.34397
#
# Compressibility (1/GPa) = 0.04251190
#
# Stress axis : x y z
#
# Youngs Moduli (GPa) = 29.16892 84.73697 74.35428
#
# Poissons Ratio (x) = -0.06982 0.60949
# Poissons Ratio (y) = -0.02404 0.08459
# Poissons Ratio (z) = 0.23910 0.09640
#
# Static dielectric constant tensor:
#      x y z
#    x 3.711850 0.000000 -0.064860 
#    y 0.000000 4.497750 0.000000 
#    z -0.064860 0.000000 3.812800 
# 
# 
# High freq. dielectric constant tensor:
#      x y z
#    x 1.811250 0.000000 0.005920 
#    y 0.000000 1.853060 0.000000 
#    z 0.005920 0.000000 1.826420 
# 
# From -- ./inp_files/160998.got.cif
#   From: 2010.06.25/outbox.cif.g09.slc.cpg/sg15_81_cif.got.tgz:160998.got - 2010.06.28 07:06:18.
