data_PCOD8138008
_publ_section_title
;
Structure prediction by ZEFSAII (Michael W. Deem and Ramdas Pophale) SiO2 
 PCOD8138008
Probable space group: C 2/C
;
_chemical_formula_sum "Si O2"
_cell_formula_units_Z 52
_cell_length_a 10.740592
_cell_length_b 25.029576
_cell_length_c 9.079237
_cell_angle_alpha 90.000000
_cell_angle_beta 78.738750
_cell_angle_gamma 90.000000
_cell_volume 2393.800943
_symmetry_space_group_name_H-M "C 2/C"
_symmetry_group_IT_number 15
_symmetry_cell_setting 'monoclinic'
loop_
_space_group_symop_operation_xyz
x,y,z
-x,y,1/2-z
-x,-y,-z
x,-y,1/2+z
1/2+x,1/2+y,z
1/2-x,1/2+y,1/2-z
1/2-x,1/2-y,-z
1/2+x,1/2-y,1/2+z
loop_
_atom_site_type_symbol
_atom_site_label
_atom_site_fract_x
_atom_site_fract_y
_atom_site_fract_z
Si Si1 0.705122 0.890195 0.422635
Si Si2 0.513048 0.347180 0.573185
Si Si3 0.500000 0.861994 0.250000
Si Si4 0.126769 0.208620 0.625308
Si Si5 0.440282 0.451140 0.423298
Si Si6 0.355371 0.178037 0.297497
Si Si7 0.218454 0.312135 0.007417
O O1 0.584219 0.899179 0.341076
O O2 0.782636 0.839441 0.338078
O O3 0.787736 0.945195 0.422978
O O4 0.661397 0.873406 0.596166
O O5 0.500000 0.344059 0.750000
O O6 0.415156 0.302538 0.534575
O O7 0.467141 0.403235 0.525427
O O8 0.653243 0.340984 0.471442
O O9 0.594863 0.824590 0.133788
O O10 0.199005 0.266122 0.620453
O O11 0.000000 0.205280 0.750000
O O12 0.500000 0.447707 0.250000
O O13 0.500000 0.500000 0.500000
O O14 0.500000 0.192493 0.250000
O O15 0.299144 0.165249 0.152296
O O16 0.250000 0.250000 0.000000
#
# Coordination Sequence:
#
# PCOD8138008 Si02
#       7
#     8   8   4   8   8   8   8
#     4  11  22  39  63  93 130 175 212 274 330 395
#     4  11  23  40  65  98 128 170 226 278 329 388
#     4  12  24  38  60  94 136 178 228 264 342 394
#     4  10  20  37  56  84 133 180 227 270 318 365
#     4  11  24  46  74 101 125 159 212 277 344 397
#     4  11  21  38  52  87 133 181 222 260 316 383
#     4  12  24  37  59  90 132 182 232 276 318 395
#
# _framework density 21.722774999999999
#
# number of rings (size 3 to 8) (size 9 to 14) (size 15 to 20)
#    0.000    0.923    1.538    9.231    1.077    0.000 
#    0.000    0.000    0.000    3.692    2.000    0.000 
#    0.000    0.000    0.000    0.000    0.000    0.000 
#
# Total GULP energy -322103.767963 kJ/mol
# GULP energy per Si atom -12388.606460 kJ/mol
# Density = 2.167333 g / cm^3
# Si number density = 21.722775 Si / 1000 Ang^3
#
#
#
# Elastic Constant Matrix: (Units=GPa)
#
#
# Indices 1 2 3 4 5 6 
#
# 1 149.6482 46.1276 42.9833 0.0000 17.4178 0.0000
# 2 46.1276 57.5125 31.9775 0.0000 7.8543 0.0000
# 3 42.9833 31.9775 140.6972 0.0000 15.1506 0.0000
# 4 0.0000 0.0000 0.0000 18.1797 0.0000 7.5109
# 5 17.4178 7.8543 15.1506 0.0000 44.4891 0.0000
# 6 0.0000 0.0000 0.0000 7.5109 0.0000 36.4899
#
#
#
# Elastic Compliance Matrix: (Units=1/GPa)
#
#
# Indices 1 2 3 4 5 6 
#
# 1 0.009256 -0.006514 -0.001122 0.000000 -0.002092 0.000000
# 2 -0.006514 0.024669 -0.003552 0.000000 -0.000595 0.000000
# 3 -0.001122 -0.003552 0.008453 0.000000 -0.001812 0.000000
# 4 0.000000 0.000000 0.000000 0.060119 0.000000 -0.012375
# 5 -0.002092 -0.000595 -0.001812 0.000000 0.024018 0.000000
# 6 0.000000 0.000000 0.000000 -0.012375 0.000000 0.029952
#
#
# Mechanical properties :
#
#
# Convention : Reuss Voigt Hill
#
# Bulk Modulus (GPa) = 49.99978 65.55941 57.77960
# Shear Modulus (GPa) = 26.95257 34.94969 30.95113
#
# Velocity S-wave (km/s) = 3.52625 4.01546 3.77878
# Velocity P-wave (km/s) = 6.29654 7.19334 6.75983
#
# Compressibility (1/GPa) = 0.02000009
#
# Stress axis : x y z
#
# Youngs Moduli (GPa) = 108.03803 40.53718 118.30452
#
# Poissons Ratio (x) = 0.26407 0.13273
# Poissons Ratio (y) = 0.70379 0.42028
# Poissons Ratio (z) = 0.12121 0.14401
#
# Static dielectric constant tensor:
#      x y z
#    x 4.778240 0.000000 0.333740 
#    y 0.000000 4.213350 0.000000 
#    z 0.333740 0.000000 4.260710 
# 
# 
# High freq. dielectric constant tensor:
#      x y z
#    x 1.882350 0.000000 0.001520 
#    y 0.000000 1.792060 0.000000 
#    z 0.001520 0.000000 1.881280 
# 
# From -- ./inp_files/34786.got.cif
#   From: 2010.06.25/outbox.cif.g09.slc.cpg/sg15_18_cif.got.tgz:34786.got - 2010.06.28 07:06:18.
