data_PCOD8138823
_publ_section_title
;
Structure prediction by ZEFSAII (Michael W. Deem and Ramdas Pophale) SiO2 
 PCOD8138823
Probable space group: C 2/C
;
_chemical_formula_sum "Si O2"
_cell_formula_units_Z 48
_cell_length_a 12.106990
_cell_length_b 12.310849
_cell_length_c 17.730933
_cell_angle_alpha 90.000000
_cell_angle_beta 113.757290
_cell_angle_gamma 90.000000
_cell_volume 2418.802272
_symmetry_space_group_name_H-M "C 2/C"
_symmetry_group_IT_number 15
_symmetry_cell_setting 'monoclinic'
loop_
_space_group_symop_operation_xyz
x,y,z
-x,y,1/2-z
-x,-y,-z
x,-y,1/2+z
1/2+x,1/2+y,z
1/2-x,1/2+y,1/2-z
1/2-x,1/2-y,-z
1/2+x,1/2-y,1/2+z
loop_
_atom_site_type_symbol
_atom_site_label
_atom_site_fract_x
_atom_site_fract_y
_atom_site_fract_z
Si Si1 0.085834 0.651290 0.841291
Si Si2 0.481275 0.557354 0.658681
Si Si3 0.629422 0.302107 0.494135
Si Si4 0.819201 0.021989 0.906248
Si Si5 0.465532 0.115082 0.519184
Si Si6 0.819779 0.127505 0.063077
O O1 0.184661 0.560263 0.845141
O O2 0.145412 0.753532 0.900206
O O3 0.000000 0.687310 0.750000
O O4 0.001449 0.603319 0.883275
O O5 0.500000 0.593270 0.750000
O O6 0.429694 0.658597 0.599393
O O7 0.604268 0.527532 0.649032
O O8 0.386422 0.458280 0.635059
O O9 0.750000 0.250000 0.500000
O O10 0.666709 0.398455 0.561567
O O11 0.539696 0.214850 0.505648
O O12 0.862119 0.100426 0.987779
O O13 0.322804 0.124058 0.466263
O O14 0.500000 0.000000 0.500000
#
# Coordination Sequence:
#
# PCOD8138823 Si02
#       6
#     8   8   8   8   8   8
#     4  11  22  37  60  89 117 150 197 252 297 344
#     4  11  22  38  59  89 120 153 198 247 298 355
#     4  11  22  40  62  85 117 161 200 241 303 368
#     4  10  21  39  60  83 119 159 197 241 296 368
#     4  11  22  40  62  85 115 156 201 242 297 373
#     4  10  20  38  62  85 114 157 199 239 293 360
#
# _framework density 19.844532999999998
#
# number of rings (size 3 to 8) (size 9 to 14) (size 15 to 20)
#    0.000    1.333    0.000   10.500    0.000    2.667 
#    0.000    5.000    0.000    0.000    0.000    0.000 
#    0.000    0.000    0.000    0.000    0.000    0.000 
#
# Total GULP energy -297344.605586 kJ/mol
# GULP energy per Si atom -12389.358566 kJ/mol
# Density = 1.979937 g / cm^3
# Si number density = 19.844533 Si / 1000 Ang^3
#
#
#
# Elastic Constant Matrix: (Units=GPa)
#
#
# Indices 1 2 3 4 5 6 
#
# 1 143.1748 71.5403 64.5386 0.0000 -19.5602 0.0000
# 2 71.5403 136.0920 45.1409 0.0000 -7.4602 0.0000
# 3 64.5386 45.1409 109.7877 0.0000 -17.7301 0.0000
# 4 0.0000 0.0000 0.0000 12.6921 0.0000 -1.6665
# 5 -19.5602 -7.4602 -17.7301 0.0000 26.8352 0.0000
# 6 0.0000 0.0000 0.0000 -1.6665 0.0000 35.7407
#
#
#
# Elastic Compliance Matrix: (Units=1/GPa)
#
#
# Indices 1 2 3 4 5 6 
#
# 1 0.011825 -0.004521 -0.004369 0.000000 0.004475 0.000000
# 2 -0.004521 0.010237 -0.001818 0.000000 -0.001651 0.000000
# 3 -0.004369 -0.001818 0.013241 0.000000 0.005058 0.000000
# 4 0.000000 0.000000 0.000000 0.079274 0.000000 0.003696
# 5 0.004475 -0.001651 0.005058 0.000000 0.043410 0.000000
# 6 0.000000 0.000000 0.000000 0.003696 0.000000 0.028152
#
#
# Mechanical properties :
#
#
# Convention : Reuss Voigt Hill
#
# Bulk Modulus (GPa) = 72.01486 83.49933 77.75710
# Shear Modulus (GPa) = 23.56435 28.90923 26.23679
#
# Velocity S-wave (km/s) = 3.44968 3.82093 3.64004
# Velocity P-wave (km/s) = 7.22740 7.85074 7.54551
#
# Compressibility (1/GPa) = 0.01388602
#
# Stress axis : x y z
#
# Youngs Moduli (GPa) = 84.56954 97.68274 75.52077
#
# Poissons Ratio (x) = 0.44165 0.32998
# Poissons Ratio (y) = 0.38236 0.13729
# Poissons Ratio (z) = 0.36951 0.17758
#
# Static dielectric constant tensor:
#      x y z
#    x 3.870980 0.000000 -0.031280 
#    y 0.000000 3.850750 0.000000 
#    z -0.031280 0.000000 3.563100 
# 
# 
# High freq. dielectric constant tensor:
#      x y z
#    x 1.788910 0.000000 -0.003170 
#    y 0.000000 1.786050 0.000000 
#    z -0.003170 0.000000 1.760410 
# 
# From -- ./inp_files/196475.got.cif
#   From: 2010.06.25/outbox.cif.g09.slc.cpg/sg15_99_cif.got.tgz:196475.got - 2010.06.28 07:06:18.
