data_PCOD8138426
_publ_section_title
;
Structure prediction by ZEFSAII (Michael W. Deem and Ramdas Pophale) SiO2 
 PCOD8138426
Probable space group: C 2/C
;
_chemical_formula_sum "Si O2"
_cell_formula_units_Z 40
_cell_length_a 13.122795
_cell_length_b 5.126320
_cell_length_c 32.135891
_cell_angle_alpha 90.000000
_cell_angle_beta 130.720954
_cell_angle_gamma 90.000000
_cell_volume 1638.445140
_symmetry_space_group_name_H-M "C 2/C"
_symmetry_group_IT_number 15
_symmetry_cell_setting 'monoclinic'
loop_
_space_group_symop_operation_xyz
x,y,z
-x,y,1/2-z
-x,-y,-z
x,-y,1/2+z
1/2+x,1/2+y,z
1/2-x,1/2+y,1/2-z
1/2-x,1/2-y,-z
1/2+x,1/2-y,1/2+z
loop_
_atom_site_type_symbol
_atom_site_label
_atom_site_fract_x
_atom_site_fract_y
_atom_site_fract_z
Si Si1 0.304503 0.330892 0.785832
Si Si2 0.686578 0.473879 0.123271
Si Si3 0.109924 0.233096 0.937740
Si Si4 0.908768 0.251130 0.475562
Si Si5 0.888164 0.751544 0.616306
O O1 0.264049 0.554987 0.742493
O O2 0.253769 0.417095 0.817894
O O3 0.464039 0.298908 0.826815
O O4 0.546409 0.325080 0.093834
O O5 0.676133 0.724970 0.089438
O O6 0.791161 0.275548 0.130094
O O7 0.116262 0.506261 0.915677
O O8 0.167294 0.999249 0.924249
O O9 0.177794 0.243041 0.003787
O O10 0.000000 0.500000 0.500000
O O11 0.000000 0.000000 0.500000
#
# Coordination Sequence:
#
# PCOD8138426 Si02
#       5
#     8   8   8   8   8
#     4  11  24  45  65  87 124 163 211 274 324 373
#     4  10  24  43  67  94 129 168 213 263 316 379
#     4  10  22  41  63  97 135 164 205 257 311 382
#     4  10  20  37  64  94 132 174 205 250 315 377
#     4  11  24  42  67  95 125 167 213 260 321 383
#
# _framework density 24.413388000000001
#
# number of rings (size 3 to 8) (size 9 to 14) (size 15 to 20)
#    0.000    1.600    0.000    6.000    0.000   12.000 
#    0.000    6.000    0.000    0.000    0.000    0.000 
#    0.000    0.000    0.000    0.000    0.000    0.000 
#
# Total GULP energy -248059.326376 kJ/mol
# GULP energy per Si atom -12402.966319 kJ/mol
# Density = 2.435782 g / cm^3
# Si number density = 24.413388 Si / 1000 Ang^3
#
#
#
# Elastic Constant Matrix: (Units=GPa)
#
#
# Indices 1 2 3 4 5 6 
#
# 1 174.1641 32.6325 43.6602 0.0001 -16.3226 -0.0004
# 2 32.6325 141.6391 33.2628 0.0006 10.8928 -0.0004
# 3 43.6602 33.2628 127.7541 0.0007 5.9528 -0.0003
# 4 0.0001 0.0006 0.0007 54.6700 -0.0001 -1.6059
# 5 -16.3226 10.8928 5.9528 -0.0001 40.3840 0.0001
# 6 -0.0004 -0.0004 -0.0003 -1.6059 0.0001 45.5964
#
#
#
# Elastic Compliance Matrix: (Units=1/GPa)
#
#
# Indices 1 2 3 4 5 6 
#
# 1 0.006856 -0.001339 -0.002155 0.000000 0.003450 0.000000
# 2 -0.001339 0.007907 -0.001487 0.000000 -0.002455 0.000000
# 3 -0.002155 -0.001487 0.009035 0.000000 -0.001802 0.000000
# 4 0.000000 0.000000 0.000000 0.018311 0.000000 0.000645
# 5 0.003450 -0.002455 -0.001802 0.000000 0.027084 0.000000
# 6 0.000000 0.000000 0.000000 0.000645 0.000000 0.021954
#
#
# Mechanical properties :
#
#
# Convention : Reuss Voigt Hill
#
# Bulk Modulus (GPa) = 72.27330 73.62980 72.95155
# Shear Modulus (GPa) = 47.29441 50.39686 48.84564
#
# Velocity S-wave (km/s) = 4.40618 4.54840 4.47785
# Velocity P-wave (km/s) = 7.45346 7.60322 7.52871
#
# Compressibility (1/GPa) = 0.01383637
#
# Stress axis : x y z
#
# Youngs Moduli (GPa) = 145.85371 126.47740 110.67869
#
# Poissons Ratio (x) = 0.16933 0.23855
# Poissons Ratio (y) = 0.19527 0.16454
# Poissons Ratio (z) = 0.31436 0.18803
#
# Static dielectric constant tensor:
#      x y z
#    x 5.196890 -0.000010 -0.276530 
#    y -0.000010 4.815360 0.000010 
#    z -0.276530 0.000010 5.085100 
# 
# 
# High freq. dielectric constant tensor:
#      x y z
#    x 2.011230 0.000000 -0.000840 
#    y 0.000000 1.985880 0.000000 
#    z -0.000840 0.000000 1.980250 
# 
# From -- ./inp_files/312187.got.cif
#   From: 2010.06.25/outbox.cif.g09.slc.cpg/sg15_157_cif.got.tgz:312187.got - 2010.06.28 07:06:18.
