data_PCOD8138831
_publ_section_title
;
Structure prediction by ZEFSAII (Michael W. Deem and Ramdas Pophale) SiO2 
 PCOD8138831
Probable space group: C 2/C
;
_chemical_formula_sum "Si O2"
_cell_formula_units_Z 64
_cell_length_a 9.308401
_cell_length_b 19.245535
_cell_length_c 17.779806
_cell_angle_alpha 90.000000
_cell_angle_beta 90.909721
_cell_angle_gamma 90.000000
_cell_volume 3184.764661
_symmetry_space_group_name_H-M "C 2/C"
_symmetry_group_IT_number 15
_symmetry_cell_setting 'monoclinic'
loop_
_space_group_symop_operation_xyz
x,y,z
-x,y,1/2-z
-x,-y,-z
x,-y,1/2+z
1/2+x,1/2+y,z
1/2-x,1/2+y,1/2-z
1/2-x,1/2-y,-z
1/2+x,1/2-y,1/2+z
loop_
_atom_site_type_symbol
_atom_site_label
_atom_site_fract_x
_atom_site_fract_y
_atom_site_fract_z
Si Si1 0.838320 0.797580 0.767266
Si Si2 0.591581 0.548669 0.449606
Si Si3 0.361084 0.904089 0.795643
Si Si4 0.858187 0.359826 0.291338
Si Si5 0.129671 0.828348 0.564389
Si Si6 0.348621 0.483296 0.209764
Si Si7 0.907593 0.564429 0.467032
Si Si8 0.394561 0.829135 0.463283
O O1 0.733201 0.833308 0.705334
O O2 0.818110 0.715251 0.757624
O O3 0.801264 0.821825 0.851880
O O4 0.000000 0.820181 0.750000
O O5 0.500000 0.500000 0.500000
O O6 0.506323 0.620322 0.434820
O O7 0.626984 0.506010 0.375303
O O8 0.742490 0.562124 0.493346
O O9 0.500000 0.887526 0.750000
O O10 0.408865 0.932645 0.876765
O O11 0.262180 0.962007 0.753759
O O12 0.719739 0.407775 0.278673
O O13 0.888134 0.358235 0.379659
O O14 0.000000 0.389136 0.250000
O O15 0.252234 0.853383 0.507553
O O16 0.077266 0.753061 0.535599
O O17 0.500000 0.484970 0.250000
O O18 0.000000 0.500000 0.500000
O O19 0.968735 0.636907 0.496537
#
# Coordination Sequence:
#
# PCOD8138831 Si02
#       8
#     8   8   8   8   8   8   8   8
#     4  10  20  38  62  86 116 154 195 244 300 359
#     4  11  23  38  58  83 114 152 197 244 291 350
#     4  11  22  37  60  87 117 154 199 246 295 356
#     4  10  22  40  61  86 119 155 194 244 304 363
#     4  10  20  38  63  87 118 158 198 242 300 360
#     4  11  23  38  58  83 115 150 194 245 293 353
#     4  11  23  38  58  86 122 158 199 249 298 358
#     4  10  21  39  61  88 122 158 196 243 299 362
#
# _framework density 20.095675
#
# number of rings (size 3 to 8) (size 9 to 14) (size 15 to 20)
#    0.000    1.500    0.000    6.750    0.000    3.000 
#    0.000    1.250    0.000    0.000    0.000    0.000 
#    0.000    0.000    0.000    0.000    0.000    0.000 
#
# Total GULP energy -396775.499851 kJ/mol
# GULP energy per Si atom -12399.234370 kJ/mol
# Density = 2.004994 g / cm^3
# Si number density = 20.095675 Si / 1000 Ang^3
#
#
#
# Elastic Constant Matrix: (Units=GPa)
#
#
# Indices 1 2 3 4 5 6 
#
# 1 128.5831 62.2969 45.7570 0.0000 8.2352 0.0000
# 2 62.2969 103.4370 32.4715 0.0000 11.9789 0.0000
# 3 45.7570 32.4715 80.0497 0.0000 -4.9703 0.0000
# 4 0.0000 0.0000 0.0000 26.2213 0.0000 3.1058
# 5 8.2352 11.9789 -4.9703 0.0000 39.4565 0.0000
# 6 0.0000 0.0000 0.0000 3.1058 0.0000 46.4427
#
#
#
# Elastic Compliance Matrix: (Units=1/GPa)
#
#
# Indices 1 2 3 4 5 6 
#
# 1 0.012386 -0.005778 -0.004825 0.000000 -0.001439 0.000000
# 2 -0.005778 0.014424 -0.002767 0.000000 -0.003522 0.000000
# 3 -0.004825 -0.002767 0.016617 0.000000 0.003940 0.000000
# 4 0.000000 0.000000 0.000000 0.038441 0.000000 -0.002571
# 5 -0.001439 -0.003522 0.003940 0.000000 0.027210 0.000000
# 6 0.000000 0.000000 0.000000 -0.002571 0.000000 0.021704
#
#
# Mechanical properties :
#
#
# Convention : Reuss Voigt Hill
#
# Bulk Modulus (GPa) = 59.92776 65.90230 62.91503
# Shear Modulus (GPa) = 30.65876 33.86040 32.25958
#
# Velocity S-wave (km/s) = 3.91018 4.10928 4.01097
# Velocity P-wave (km/s) = 7.09027 7.44180 7.26816
#
# Compressibility (1/GPa) = 0.01668676
#
# Stress axis : x y z
#
# Youngs Moduli (GPa) = 80.73786 69.32812 60.17787
#
# Poissons Ratio (x) = 0.40059 0.29037
# Poissons Ratio (y) = 0.46652 0.16650
# Poissons Ratio (z) = 0.38958 0.19182
#
# Static dielectric constant tensor:
#      x y z
#    x 4.056610 0.000000 -0.116520 
#    y 0.000000 3.887600 0.000000 
#    z -0.116520 0.000000 3.663650 
# 
# 
# High freq. dielectric constant tensor:
#      x y z
#    x 1.792070 0.000000 -0.012060 
#    y 0.000000 1.794340 0.000000 
#    z -0.012060 0.000000 1.780800 
# 
# From -- ./inp_files/192179.got.cif
#   From: 2010.06.25/outbox.cif.g09.slc.cpg/sg15_97_cif.got.tgz:192179.got - 2010.06.28 07:06:18.
