data_PCOD8138838
_publ_section_title
;
Structure prediction by ZEFSAII (Michael W. Deem and Ramdas Pophale) SiO2 
 PCOD8138838
Probable space group: C 2/C
;
_chemical_formula_sum "Si O2"
_cell_formula_units_Z 56
_cell_length_a 19.882455
_cell_length_b 8.514932
_cell_length_c 15.998403
_cell_angle_alpha 90.000000
_cell_angle_beta 107.038090
_cell_angle_gamma 90.000000
_cell_volume 2589.618361
_symmetry_space_group_name_H-M "C 2/C"
_symmetry_group_IT_number 15
_symmetry_cell_setting 'monoclinic'
loop_
_space_group_symop_operation_xyz
x,y,z
-x,y,1/2-z
-x,-y,-z
x,-y,1/2+z
1/2+x,1/2+y,z
1/2-x,1/2+y,1/2-z
1/2-x,1/2-y,-z
1/2+x,1/2-y,1/2+z
loop_
_atom_site_type_symbol
_atom_site_label
_atom_site_fract_x
_atom_site_fract_y
_atom_site_fract_z
Si Si1 0.637598 0.130222 0.462207
Si Si2 0.508322 0.580596 0.092820
Si Si3 0.267927 0.452828 0.445012
Si Si4 0.046507 0.613133 0.848635
Si Si5 0.819261 0.227629 0.179047
Si Si6 0.625840 0.542173 0.887370
Si Si7 0.342810 0.683354 0.365368
O O1 0.706182 0.021053 0.481531
O O2 0.646757 0.276576 0.401283
O O3 0.630552 0.194448 0.554215
O O4 0.565695 0.041767 0.409772
O O5 0.487335 0.763978 0.098114
O O6 0.459100 0.481868 0.139634
O O7 0.591296 0.576153 0.142543
O O8 0.500000 0.500000 0.000000
O O9 0.249601 0.281743 0.399063
O O10 0.341023 0.442389 0.522307
O O11 0.279580 0.574635 0.373874
O O12 0.118403 0.674947 0.837780
O O13 0.000000 0.572553 0.750000
O O14 0.811520 0.273419 0.273469
O O15 0.836994 0.040553 0.178695
#
# Coordination Sequence:
#
# PCOD8138838 Si02
#       7
#     8   8   8   8   8   8   8
#     4  10  22  39  61  87 121 165 201 253 312 361
#     4  11  20  38  63  90 118 158 201 248 315 363
#     4  10  21  38  61  85 119 161 205 247 315 372
#     4  10  21  41  62  88 126 161 203 253 309 372
#     4  10  22  38  62  87 120 162 202 256 316 362
#     4  10  20  38  62  86 119 157 205 256 301 374
#     4  11  21  38  62  87 127 153 206 259 306 371
#
# _framework density 21.624807000000001
#
# number of rings (size 3 to 8) (size 9 to 14) (size 15 to 20)
#    0.000    1.714    4.286    2.143    0.000    2.857 
#    2.571    0.000    6.286    0.000    0.000    0.000 
#    0.000    0.000    0.000    0.000    0.000    0.000 
#
# Total GULP energy -346877.256313 kJ/mol
# GULP energy per Si atom -12388.473440 kJ/mol
# Density = 2.157559 g / cm^3
# Si number density = 21.624807 Si / 1000 Ang^3
#
#
#
# Elastic Constant Matrix: (Units=GPa)
#
#
# Indices 1 2 3 4 5 6 
#
# 1 67.1817 4.1135 15.2376 0.0000 -2.7895 0.0000
# 2 4.1135 77.9338 30.5678 0.0000 -12.7351 0.0000
# 3 15.2376 30.5678 93.5481 0.0000 -10.2328 0.0000
# 4 0.0000 0.0000 0.0000 28.2672 0.0000 -0.9241
# 5 -2.7895 -12.7351 -10.2328 0.0000 26.5917 0.0000
# 6 0.0000 0.0000 0.0000 -0.9241 0.0000 22.2014
#
#
#
# Elastic Compliance Matrix: (Units=1/GPa)
#
#
# Indices 1 2 3 4 5 6 
#
# 1 0.015474 0.000307 -0.002534 0.000000 0.000795 0.000000
# 2 0.000307 0.015514 -0.004492 0.000000 0.005733 0.000000
# 3 -0.002534 -0.004492 0.012847 0.000000 0.002526 0.000000
# 4 0.000000 0.000000 0.000000 0.035425 0.000000 0.001475
# 5 0.000795 0.005733 0.002526 0.000000 0.041407 0.000000
# 6 0.000000 0.000000 0.000000 0.001475 0.000000 0.045104
#
#
# Mechanical properties :
#
#
# Convention : Reuss Voigt Hill
#
# Bulk Modulus (GPa) = 32.89843 37.61126 35.25484
# Shear Modulus (GPa) = 26.40747 27.99505 27.20126
#
# Velocity S-wave (km/s) = 3.49831 3.60193 3.55050
# Velocity P-wave (km/s) = 5.61817 5.89313 5.75729
#
# Compressibility (1/GPa) = 0.03039659
#
# Stress axis : x y z
#
# Youngs Moduli (GPa) = 64.62488 64.45761 77.84137
#
# Poissons Ratio (x) = -0.01979 0.19724
# Poissons Ratio (y) = -0.01984 0.34968
# Poissons Ratio (z) = 0.16375 0.28956
#
# Static dielectric constant tensor:
#      x y z
#    x 4.097770 0.000000 0.067510 
#    y 0.000000 3.991690 0.000000 
#    z 0.067510 0.000000 4.102630 
# 
# 
# High freq. dielectric constant tensor:
#      x y z
#    x 1.848050 0.000000 0.005600 
#    y 0.000000 1.831890 0.000000 
#    z 0.005600 0.000000 1.843130 
# 
# From -- ./inp_files/214032.got.cif
#   From: 2010.06.25/outbox.cif.g09.slc.cpg/sg15_108_cif.got.tgz:214032.got - 2010.06.28 07:06:18.
