data_PCOD8138702
_publ_section_title
;
Structure prediction by ZEFSAII (Michael W. Deem and Ramdas Pophale) SiO2 
 PCOD8138702
Probable space group: C 2/C
;
_chemical_formula_sum "Si O2"
_cell_formula_units_Z 40
_cell_length_a 4.981316
_cell_length_b 18.192273
_cell_length_c 21.672943
_cell_angle_alpha 90.000000
_cell_angle_beta 97.357386
_cell_angle_gamma 90.000000
_cell_volume 1947.863232
_symmetry_space_group_name_H-M "C 2/C"
_symmetry_group_IT_number 15
_symmetry_cell_setting 'monoclinic'
loop_
_space_group_symop_operation_xyz
x,y,z
-x,y,1/2-z
-x,-y,-z
x,-y,1/2+z
1/2+x,1/2+y,z
1/2-x,1/2+y,1/2-z
1/2-x,1/2-y,-z
1/2+x,1/2-y,1/2+z
loop_
_atom_site_type_symbol
_atom_site_label
_atom_site_fract_x
_atom_site_fract_y
_atom_site_fract_z
Si Si1 0.861206 0.346122 0.182041
Si Si2 0.879844 0.079245 0.483515
Si Si3 0.735685 0.816676 0.708271
Si Si4 0.808565 0.576761 0.402934
Si Si5 0.825350 0.091373 0.617501
O O1 0.808997 0.259336 0.177082
O O2 0.579912 0.389312 0.167817
O O3 0.000000 0.370120 0.250000
O O4 0.058535 0.366947 0.132160
O O5 0.578263 0.071422 0.450341
O O6 0.877248 0.121029 0.549166
O O7 0.075755 0.116137 0.438015
O O8 0.000000 0.000000 0.500000
O O9 0.500000 0.801710 0.750000
O O10 0.634401 0.875156 0.655561
O O11 0.000000 0.848877 0.750000
O O12 0.716265 0.495919 0.379773
#
# Coordination Sequence:
#
# PCOD8138702 Si02
#       5
#     8   8   8   8   8
#     4  11  23  40  59  84 120 158 192 239 297 344
#     4  10  20  38  60  89 122 153 185 240 303 342
#     4  11  24  43  60  83 121 161 192 238 299 348
#     4  11  22  39  63  89 117 154 197 240 286 349
#     4  11  21  38  63  89 115 152 198 241 284 347
#
# _framework density 20.535321
#
# number of rings (size 3 to 8) (size 9 to 14) (size 15 to 20)
#    0.000    1.200    0.000   10.200    0.000    2.400 
#    0.000    6.000    0.000    0.000    0.000    0.000 
#    0.000    0.000    0.000    0.000    0.000    0.000 
#
# Total GULP energy -248051.553554 kJ/mol
# GULP energy per Si atom -12402.577678 kJ/mol
# Density = 2.048858 g / cm^3
# Si number density = 20.535321 Si / 1000 Ang^3
#
#
#
# Elastic Constant Matrix: (Units=GPa)
#
#
# Indices 1 2 3 4 5 6 
#
# 1 91.9557 29.2426 1.6566 0.0000 -3.9359 0.0000
# 2 29.2426 79.3240 50.9132 0.0000 -4.6283 0.0000
# 3 1.6566 50.9132 73.1865 0.0000 0.1769 0.0000
# 4 0.0000 0.0000 0.0000 6.9199 0.0000 0.2640
# 5 -3.9359 -4.6283 0.1769 0.0000 61.2519 0.0000
# 6 0.0000 0.0000 0.0000 0.2640 0.0000 14.9265
#
#
#
# Elastic Compliance Matrix: (Units=1/GPa)
#
#
# Indices 1 2 3 4 5 6 
#
# 1 0.013526 -0.008632 0.005698 0.000000 0.000200 0.000000
# 2 -0.008632 0.028478 -0.019620 0.000000 0.001654 0.000000
# 3 0.005698 -0.019620 0.027186 0.000000 -0.001195 0.000000
# 4 0.000000 0.000000 0.000000 0.144607 0.000000 -0.002558
# 5 0.000200 0.001654 -0.001195 0.000000 0.016467 0.000000
# 6 0.000000 0.000000 0.000000 -0.002558 0.000000 0.067040
#
#
# Mechanical properties :
#
#
# Convention : Reuss Voigt Hill
#
# Bulk Modulus (GPa) = 41.52249 45.34345 43.43297
# Shear Modulus (GPa) = 14.26783 27.46325 20.86554
#
# Velocity S-wave (km/s) = 2.63876 3.66097 3.19106
# Velocity P-wave (km/s) = 5.43580 6.32447 5.89690
#
# Compressibility (1/GPa) = 0.02408333
#
# Stress axis : x y z
#
# Youngs Moduli (GPa) = 73.93317 35.11519 36.78331
#
# Poissons Ratio (x) = 0.30311 -0.20960
# Poissons Ratio (y) = 0.63818 0.72167
# Poissons Ratio (z) = -0.42129 0.68894
#
# Static dielectric constant tensor:
#      x y z
#    x 4.083290 0.000000 -0.131540 
#    y 0.000000 3.409530 0.000000 
#    z -0.131540 0.000000 3.901870 
# 
# 
# High freq. dielectric constant tensor:
#      x y z
#    x 1.831650 0.000000 -0.001680 
#    y 0.000000 1.772070 0.000000 
#    z -0.001680 0.000000 1.816490 
# 
# From -- ./inp_files/184754.got.cif
#   From: 2010.06.25/outbox.cif.g09.slc.cpg/sg15_93_cif.got.tgz:184754.got - 2010.06.28 07:06:18.
