data_PCOD8138428
_publ_section_title
;
Structure prediction by ZEFSAII (Michael W. Deem and Ramdas Pophale) SiO2 
 PCOD8138428
Probable space group: C 2/C
;
_chemical_formula_sum "Si O2"
_cell_formula_units_Z 32
_cell_length_a 15.975479
_cell_length_b 4.813099
_cell_length_c 24.574413
_cell_angle_alpha 90.000000
_cell_angle_beta 135.099862
_cell_angle_gamma 90.000000
_cell_volume 1333.793439
_symmetry_space_group_name_H-M "C 2/C"
_symmetry_group_IT_number 15
_symmetry_cell_setting 'monoclinic'
loop_
_space_group_symop_operation_xyz
x,y,z
-x,y,1/2-z
-x,-y,-z
x,-y,1/2+z
1/2+x,1/2+y,z
1/2-x,1/2+y,1/2-z
1/2-x,1/2-y,-z
1/2+x,1/2-y,1/2+z
loop_
_atom_site_type_symbol
_atom_site_label
_atom_site_fract_x
_atom_site_fract_y
_atom_site_fract_z
Si Si1 0.746890 0.124210 0.395865
Si Si2 0.023927 0.599633 0.857745
Si Si3 0.104091 0.378724 0.512057
Si Si4 0.586784 0.375246 0.240847
O O1 0.797779 0.381362 0.454698
O O2 0.714524 0.276297 0.323046
O O3 0.642902 0.955810 0.378198
O O4 0.846651 0.889481 0.432931
O O5 0.950099 0.312922 0.828025
O O6 0.056044 0.719710 0.931300
O O7 0.932050 0.805845 0.784153
O O8 0.000000 0.500000 0.500000
O O9 0.500000 0.295443 0.250000
#
# Coordination Sequence:
#
# PCOD8138428 Si02
#       4
#     8   8   8   8
#     4  11  22  41  66  92 123 165 209 257 311 369
#     4  11  21  39  66  94 121 158 207 259 309 367
#     4  12  25  41  61  93 131 169 207 253 307 371
#     4  10  20  37  64  95 120 152 206 265 309 359
#
# _framework density 23.991719
#
# number of rings (size 3 to 8) (size 9 to 14) (size 15 to 20)
#    0.000    1.000    0.000   10.500    0.000    0.000 
#    0.000    5.000    0.000    6.000    0.000    0.000 
#    0.000    0.000    0.000    0.000    0.000    0.000 
#
# Total GULP energy -198264.347451 kJ/mol
# GULP energy per Si atom -12391.521716 kJ/mol
# Density = 2.393711 g / cm^3
# Si number density = 23.991719 Si / 1000 Ang^3
#
#
#
# Elastic Constant Matrix: (Units=GPa)
#
#
# Indices 1 2 3 4 5 6 
#
# 1 36.5424 19.8578 39.8905 0.0004 -5.1243 0.0004
# 2 19.8578 151.2742 59.4653 0.0016 1.3448 0.0063
# 3 39.8905 59.4653 134.1647 0.0009 -2.2955 0.0008
# 4 0.0004 0.0016 0.0009 74.3201 -0.0009 13.7915
# 5 -5.1243 1.3448 -2.2955 -0.0009 8.8562 0.0014
# 6 0.0004 0.0063 0.0008 13.7915 0.0014 24.8360
#
#
#
# Elastic Compliance Matrix: (Units=1/GPa)
#
#
# Indices 1 2 3 4 5 6 
#
# 1 0.044737 -0.001212 -0.012373 0.000000 0.022863 -0.000002
# 2 -0.001212 0.008079 -0.003268 0.000000 -0.002775 -0.000002
# 3 -0.012373 -0.003268 0.012522 0.000000 -0.003417 0.000001
# 4 0.000000 0.000000 0.000000 0.015001 0.000003 -0.008330
# 5 0.022863 -0.002775 -0.003417 0.000003 0.125680 -0.000008
# 6 -0.000002 -0.000002 0.000001 -0.008330 -0.000008 0.044890
#
#
# Mechanical properties :
#
#
# Convention : Reuss Voigt Hill
#
# Bulk Modulus (GPa) = 31.61347 62.26761 46.94054
# Shear Modulus (GPa) = 16.94001 35.12031 26.03016
#
# Velocity S-wave (km/s) = 2.66009 3.83018 3.29745
# Velocity P-wave (km/s) = 4.75818 6.75059 5.83998
#
# Compressibility (1/GPa) = 0.03163209
#
# Stress axis : x y z
#
# Youngs Moduli (GPa) = 22.35294 123.77956 79.85780
#
# Poissons Ratio (x) = 0.15003 0.98808
# Poissons Ratio (y) = 0.02709 0.26096
# Poissons Ratio (z) = 0.27657 0.40449
#
# Static dielectric constant tensor:
#      x y z
#    x 3.660490 -0.000010 0.238830 
#    y -0.000010 4.487190 0.000000 
#    z 0.238830 0.000000 5.017180 
# 
# 
# High freq. dielectric constant tensor:
#      x y z
#    x 1.889350 0.000000 0.012090 
#    y 0.000000 1.974800 0.000000 
#    z 0.012090 0.000000 1.972980 
# 
# From -- ./inp_files/271793.got.cif
#   From: 2010.06.25/outbox.cif.g09.slc.cpg/sg15_136_cif.got.tgz:271793.got - 2010.06.28 07:06:18.
