data_PCOD8138950
_publ_section_title
;
Structure prediction by ZEFSAII (Michael W. Deem and Ramdas Pophale) SiO2 
 PCOD8138950
Probable space group: C 2/C
;
_chemical_formula_sum "Si O2"
_cell_formula_units_Z 40
_cell_length_a 7.654795
_cell_length_b 21.022443
_cell_length_c 12.592811
_cell_angle_alpha 90.000000
_cell_angle_beta 77.874904
_cell_angle_gamma 90.000000
_cell_volume 1981.258746
_symmetry_space_group_name_H-M "C 2/C"
_symmetry_group_IT_number 15
_symmetry_cell_setting 'monoclinic'
loop_
_space_group_symop_operation_xyz
x,y,z
-x,y,1/2-z
-x,-y,-z
x,-y,1/2+z
1/2+x,1/2+y,z
1/2-x,1/2+y,1/2-z
1/2-x,1/2-y,-z
1/2+x,1/2-y,1/2+z
loop_
_atom_site_type_symbol
_atom_site_label
_atom_site_fract_x
_atom_site_fract_y
_atom_site_fract_z
Si Si1 0.625100 0.510508 0.332312
Si Si2 0.500000 0.706694 0.250000
Si Si3 0.555602 0.260481 0.977731
Si Si4 0.929351 0.098848 0.514103
Si Si5 0.162923 0.647447 0.395752
Si Si6 0.500000 0.064861 0.250000
O O1 0.500000 0.525294 0.250000
O O2 0.578802 0.560042 0.430735
O O3 0.600490 0.437293 0.371256
O O4 0.829946 0.519411 0.274815
O O5 0.452493 0.747374 0.150010
O O6 0.328182 0.662846 0.295617
O O7 0.750000 0.250000 0.000000
O O8 0.497321 0.329998 0.023847
O O9 0.415864 0.211519 0.045208
O O10 0.738931 0.101439 0.477884
O O11 0.009656 0.610236 0.352030
#
# Coordination Sequence:
#
# PCOD8138950 Si02
#       6
#     8   4   8   8   8   4
#     4  11  23  44  63  91 126 171 216 262 311 377
#     4  10  20  38  63  88 131 166 198 258 326 386
#     4  11  23  41  64  99 130 166 212 267 326 389
#     4  10  22  42  64  88 132 163 210 270 311 371
#     4  11  21  40  66  96 125 163 216 260 323 392
#     4  12  22  40  73  88 121 176 218 250 326 386
#
# _framework density 20.189184999999998
#
# number of rings (size 3 to 8) (size 9 to 14) (size 15 to 20)
#    0.000    1.200    2.000    7.200    1.400    0.800 
#   12.600    1.000    0.000    0.000    0.000    0.000 
#    0.000    0.000    0.000    0.000    0.000    0.000 
#
# Total GULP energy -248012.245149 kJ/mol
# GULP energy per Si atom -12400.612257 kJ/mol
# Density = 2.014323 g / cm^3
# Si number density = 20.189185 Si / 1000 Ang^3
#
#
#
# Elastic Constant Matrix: (Units=GPa)
#
#
# Indices 1 2 3 4 5 6 
#
# 1 134.5903 38.1708 46.8823 0.0000 6.8696 0.0000
# 2 38.1708 106.0092 48.7937 0.0000 -7.0397 0.0000
# 3 46.8823 48.7937 93.5334 0.0000 0.2158 0.0000
# 4 0.0000 0.0000 0.0000 21.4300 0.0000 -5.2486
# 5 6.8696 -7.0397 0.2158 0.0000 33.7552 0.0000
# 6 0.0000 0.0000 0.0000 -5.2486 0.0000 12.2353
#
#
#
# Elastic Compliance Matrix: (Units=1/GPa)
#
#
# Indices 1 2 3 4 5 6 
#
# 1 0.009360 -0.001794 -0.003751 0.000000 -0.002255 0.000000
# 2 -0.001794 0.012996 -0.005888 0.000000 0.003113 0.000000
# 3 -0.003751 -0.005888 0.015644 0.000000 -0.000565 0.000000
# 4 0.000000 0.000000 0.000000 0.052142 0.000000 0.022367
# 5 -0.002255 0.003113 -0.000565 0.000000 0.030737 0.000000
# 6 0.000000 0.000000 0.000000 0.022367 0.000000 0.091325
#
#
# Mechanical properties :
#
#
# Convention : Reuss Voigt Hill
#
# Bulk Modulus (GPa) = 66.06814 66.86960 66.46887
# Shear Modulus (GPa) = 20.82354 26.83654 23.83004
#
# Velocity S-wave (km/s) = 3.21506 3.64985 3.43933
# Velocity P-wave (km/s) = 6.82478 7.13829 6.98330
#
# Compressibility (1/GPa) = 0.01513589
#
# Stress axis : x y z
#
# Youngs Moduli (GPa) = 106.83439 76.94888 63.92199
#
# Poissons Ratio (x) = 0.13802 0.23976
# Poissons Ratio (y) = 0.19163 0.37634
# Poissons Ratio (z) = 0.40071 0.45304
#
# Static dielectric constant tensor:
#      x y z
#    x 3.932850 0.000000 0.103150 
#    y 0.000000 3.642200 0.000000 
#    z 0.103150 0.000000 3.777630 
# 
# 
# High freq. dielectric constant tensor:
#      x y z
#    x 1.801680 0.000000 0.008010 
#    y 0.000000 1.784650 0.000000 
#    z 0.008010 0.000000 1.782640 
# 
# From -- ./inp_files/77786.got.cif
#   From: 2010.06.25/outbox.cif.g09.slc.cpg/sg15_39_cif.got.tgz:77786.got - 2010.06.28 07:06:18.
