data_PCOD8138061
_publ_section_title
;
Structure prediction by ZEFSAII (Michael W. Deem and Ramdas Pophale) SiO2 
 PCOD8138061
Probable space group: C 2/C
;
_chemical_formula_sum "Si O2"
_cell_formula_units_Z 44
_cell_length_a 8.588669
_cell_length_b 23.912071
_cell_length_c 14.175896
_cell_angle_alpha 90.000000
_cell_angle_beta 129.774369
_cell_angle_gamma 90.000000
_cell_volume 2237.571332
_symmetry_space_group_name_H-M "C 2/C"
_symmetry_group_IT_number 15
_symmetry_cell_setting 'monoclinic'
loop_
_space_group_symop_operation_xyz
x,y,z
-x,y,1/2-z
-x,-y,-z
x,-y,1/2+z
1/2+x,1/2+y,z
1/2-x,1/2+y,1/2-z
1/2-x,1/2-y,-z
1/2+x,1/2-y,1/2+z
loop_
_atom_site_type_symbol
_atom_site_label
_atom_site_fract_x
_atom_site_fract_y
_atom_site_fract_z
Si Si1 0.000000 0.233488 0.250000
Si Si2 0.500000 0.209150 0.250000
Si Si3 0.920630 0.837565 0.888615
Si Si4 0.909404 0.204866 0.857588
Si Si5 0.000000 0.110160 0.750000
Si Si6 0.724942 0.991834 0.126390
Si Si7 0.957522 0.033267 0.387154
O O1 0.950536 0.190284 0.146062
O O2 0.181230 0.273531 0.286558
O O3 0.318805 0.170297 0.213667
O O4 0.452786 0.249790 0.143355
O O5 0.946213 0.902823 0.911573
O O6 0.988357 0.803283 0.004209
O O7 0.911332 0.146731 0.800984
O O8 0.189833 0.071260 0.855973
O O9 0.760540 0.010431 0.250707
O O10 0.852624 0.031828 0.108639
O O11 0.500000 0.000000 0.000000
O O12 0.000000 0.000000 0.500000
#
# Coordination Sequence:
#
# PCOD8138061 Si02
#       7
#     4   4   8   8   4   8   8
#     4  10  22  35  54  86 114 145 186 228 286 346
#     4   9  22  36  56  84 110 148 190 225 282 344
#     4  11  20  37  57  80 116 149 182 236 285 333
#     4  10  20  37  58  83 113 147 190 233 282 341
#     4   9  20  39  58  82 114 149 190 241 282 336
#     4  10  22  40  58  83 117 152 191 240 293 345
#     4  10  22  39  59  87 115 149 196 239 284 347
#
# _framework density 19.664176999999999
#
# number of rings (size 3 to 8) (size 9 to 14) (size 15 to 20)
#    0.000    2.182    0.000    4.364    0.000    5.091 
#    0.000    5.455    0.000    0.000    0.000    0.000 
#    0.000    0.000    0.000    0.000    0.000    0.000 
#
# Total GULP energy -272568.401262 kJ/mol
# GULP energy per Si atom -12389.472785 kJ/mol
# Density = 1.961942 g / cm^3
# Si number density = 19.664177 Si / 1000 Ang^3
#
#
#
# Elastic Constant Matrix: (Units=GPa)
#
#
# Indices 1 2 3 4 5 6 
#
# 1 87.1732 45.9462 41.9315 0.0000 -11.9642 0.0000
# 2 45.9462 134.0565 41.6479 0.0000 -9.8591 0.0000
# 3 41.9315 41.6479 136.0272 0.0000 -14.5031 0.0000
# 4 0.0000 0.0000 0.0000 25.5077 0.0000 -10.8746
# 5 -11.9642 -9.8591 -14.5031 0.0000 42.9597 0.0000
# 6 0.0000 0.0000 0.0000 -10.8746 0.0000 30.2263
#
#
#
# Elastic Compliance Matrix: (Units=1/GPa)
#
#
# Indices 1 2 3 4 5 6 
#
# 1 0.015544 -0.004141 -0.003282 0.000000 0.002271 0.000000
# 2 -0.004141 0.009395 -0.001549 0.000000 0.000480 0.000000
# 3 -0.003282 -0.001549 0.009027 0.000000 0.001778 0.000000
# 4 0.000000 0.000000 0.000000 0.046306 0.000000 0.016660
# 5 0.002271 0.000480 0.001778 0.000000 0.024620 0.000000
# 6 0.000000 0.000000 0.000000 0.016660 0.000000 0.039077
#
#
# Mechanical properties :
#
#
# Convention : Reuss Voigt Hill
#
# Bulk Modulus (GPa) = 62.40949 68.47869 65.44409
# Shear Modulus (GPa) = 29.89449 34.92084 32.40766
#
# Velocity S-wave (km/s) = 3.90327 4.21867 4.06403
# Velocity P-wave (km/s) = 7.21946 7.65697 7.44143
#
# Compressibility (1/GPa) = 0.01602320
#
# Stress axis : x y z
#
# Youngs Moduli (GPa) = 64.33266 106.43561 110.78033
#
# Poissons Ratio (x) = 0.44076 0.36354
# Poissons Ratio (y) = 0.26641 0.17159
# Poissons Ratio (z) = 0.21112 0.16486
#
# Static dielectric constant tensor:
#      x y z
#    x 3.848370 0.000000 -0.176800 
#    y 0.000000 3.624850 0.000000 
#    z -0.176800 0.000000 3.740200 
# 
# 
# High freq. dielectric constant tensor:
#      x y z
#    x 1.767240 0.000000 -0.020610 
#    y 0.000000 1.777950 0.000000 
#    z -0.020610 0.000000 1.763890 
# 
# From -- ./inp_files/79999.got.cif
#   From: 2010.06.25/outbox.cif.g09.slc.cpg/sg15_40_cif.got.tgz:79999.got - 2010.06.28 07:06:18.
