data_PCOD8138166
_publ_section_title
;
Structure prediction by ZEFSAII (Michael W. Deem and Ramdas Pophale) SiO2 
 PCOD8138166
Probable space group: C 2/C
;
_chemical_formula_sum "Si O2"
_cell_formula_units_Z 56
_cell_length_a 22.237651
_cell_length_b 5.313126
_cell_length_c 22.283461
_cell_angle_alpha 90.000000
_cell_angle_beta 83.760698
_cell_angle_gamma 90.000000
_cell_volume 2617.227906
_symmetry_space_group_name_H-M "C 2/C"
_symmetry_group_IT_number 15
_symmetry_cell_setting 'monoclinic'
loop_
_space_group_symop_operation_xyz
x,y,z
-x,y,1/2-z
-x,-y,-z
x,-y,1/2+z
1/2+x,1/2+y,z
1/2-x,1/2+y,1/2-z
1/2-x,1/2-y,-z
1/2+x,1/2-y,1/2+z
loop_
_atom_site_type_symbol
_atom_site_label
_atom_site_fract_x
_atom_site_fract_y
_atom_site_fract_z
Si Si1 0.336643 0.027710 0.114144
Si Si2 0.661772 0.556441 0.969676
Si Si3 0.167131 0.655063 0.630981
Si Si4 0.440790 0.202700 0.544787
Si Si5 0.070274 0.646115 0.558256
Si Si6 0.276087 0.339980 0.427371
Si Si7 0.212342 0.467754 0.253130
O O1 0.330719 0.029201 0.185949
O O2 0.408079 0.012227 0.089358
O O3 0.295274 0.811741 0.085527
O O4 0.307568 0.280150 0.086917
O O5 0.629579 0.732196 0.022296
O O6 0.712814 0.400449 0.002102
O O7 0.605183 0.427501 0.943991
O O8 0.094492 0.630138 0.623908
O O9 0.196325 0.430812 0.589050
O O10 0.171642 0.603439 0.700989
O O11 0.195076 0.933435 0.615614
O O12 0.506170 0.293963 0.562314
O O13 0.445026 0.116525 0.474363
O O14 0.252096 0.224170 0.266058
#
# Coordination Sequence:
#
# PCOD8138166 Si02
#       7
#     8   8   8   8   8   8   8
#     4  11  24  36  57  94 121 162 205 256 318 369
#     4  10  21  36  59  94 126 161 198 260 311 380
#     4  11  21  41  63  90 118 165 213 252 300 372
#     4  10  20  37  60  87 126 161 201 250 309 372
#     4   9  20  38  60  89 118 165 207 243 307 370
#     4  11  22  38  62  91 127 159 199 257 318 369
#     4  12  24  42  64  87 123 165 209 255 305 373
#
# _framework density 21.396685999999999
#
# number of rings (size 3 to 8) (size 9 to 14) (size 15 to 20)
#    0.000    1.429    4.286    0.857    4.000    0.571 
#    0.000    0.714    0.000    0.000    0.000    0.000 
#    0.000    0.000    0.000    0.000    0.000    0.000 
#
# Total GULP energy -346925.766697 kJ/mol
# GULP energy per Si atom -12390.205953 kJ/mol
# Density = 2.134799 g / cm^3
# Si number density = 21.396686 Si / 1000 Ang^3
#
#
#
# Elastic Constant Matrix: (Units=GPa)
#
#
# Indices 1 2 3 4 5 6 
#
# 1 119.3837 14.4661 28.8752 0.0000 28.3768 0.0000
# 2 14.4661 84.7032 11.0355 0.0000 5.2600 0.0000
# 3 28.8752 11.0355 130.9750 0.0000 21.9890 0.0000
# 4 0.0000 0.0000 0.0000 24.6042 0.0000 7.0983
# 5 28.3768 5.2600 21.9890 0.0000 28.9621 0.0000
# 6 0.0000 0.0000 0.0000 7.0983 0.0000 20.7655
#
#
#
# Elastic Compliance Matrix: (Units=1/GPa)
#
#
# Indices 1 2 3 4 5 6 
#
# 1 0.011090 -0.001180 -0.000639 0.000000 -0.010167 0.000000
# 2 -0.001180 0.012128 -0.000672 0.000000 -0.000537 0.000000
# 3 -0.000639 -0.000672 0.008833 0.000000 -0.005958 0.000000
# 4 0.000000 0.000000 0.000000 0.045090 0.000000 -0.015413
# 5 -0.010167 -0.000537 -0.005958 0.000000 0.049111 0.000000
# 6 0.000000 0.000000 0.000000 -0.015413 0.000000 0.053425
#
#
# Mechanical properties :
#
#
# Convention : Reuss Voigt Hill
#
# Bulk Modulus (GPa) = 36.93901 49.31284 43.12592
# Shear Modulus (GPa) = 25.81557 33.57871 29.69714
#
# Velocity S-wave (km/s) = 3.47727 3.96579 3.72954
# Velocity P-wave (km/s) = 5.78128 6.63830 6.22456
#
# Compressibility (1/GPa) = 0.02707165
#
# Stress axis : x y z
#
# Youngs Moduli (GPa) = 90.16784 82.45222 113.21455
#
# Poissons Ratio (x) = 0.09725 0.07231
# Poissons Ratio (y) = 0.10635 0.07604
# Poissons Ratio (z) = 0.05759 0.05538
#
# Static dielectric constant tensor:
#      x y z
#    x 4.282040 0.000000 0.116050 
#    y 0.000000 4.208050 0.000000 
#    z 0.116050 0.000000 3.787330 
# 
# 
# High freq. dielectric constant tensor:
#      x y z
#    x 1.836160 0.000000 0.014750 
#    y 0.000000 1.858880 0.000000 
#    z 0.014750 0.000000 1.816290 
# 
# From -- ./inp_files/254014.got.cif
#   From: 2010.06.25/outbox.cif.g09.slc.cpg/sg15_128_cif.got.tgz:254014.got - 2010.06.28 07:06:18.
