data_PCOD8138321
_publ_section_title
;
Structure prediction by ZEFSAII (Michael W. Deem and Ramdas Pophale) SiO2 
 PCOD8138321
Probable space group: C 2/C
;
_chemical_formula_sum "Si O2"
_cell_formula_units_Z 44
_cell_length_a 19.347594
_cell_length_b 15.262139
_cell_length_c 11.727181
_cell_angle_alpha 90.000000
_cell_angle_beta 43.615576
_cell_angle_gamma 90.000000
_cell_volume 2388.743425
_symmetry_space_group_name_H-M "C 2/C"
_symmetry_group_IT_number 15
_symmetry_cell_setting 'monoclinic'
loop_
_space_group_symop_operation_xyz
x,y,z
-x,y,1/2-z
-x,-y,-z
x,-y,1/2+z
1/2+x,1/2+y,z
1/2-x,1/2+y,1/2-z
1/2-x,1/2-y,-z
1/2+x,1/2-y,1/2+z
loop_
_atom_site_type_symbol
_atom_site_label
_atom_site_fract_x
_atom_site_fract_y
_atom_site_fract_z
Si Si1 0.679085 0.385034 0.812132
Si Si2 0.287313 0.848212 0.465808
Si Si3 0.527985 0.318918 0.504334
Si Si4 0.213043 0.919863 0.328889
Si Si5 0.000000 0.297468 0.250000
Si Si6 0.281430 0.732349 0.832977
O O1 0.712710 0.395348 0.641609
O O2 0.711958 0.476084 0.827407
O O3 0.734192 0.305943 0.809158
O O4 0.559847 0.368062 0.959666
O O5 0.250000 0.750000 0.500000
O O6 0.283996 0.896047 0.349199
O O7 0.400005 0.855375 0.381332
O O8 0.598259 0.389028 0.486311
O O9 0.481419 0.257582 0.657060
O O10 0.597224 0.264885 0.330100
O O11 0.254534 0.865100 0.167974
O O12 0.250000 0.750000 0.000000
#
# Coordination Sequence:
#
# PCOD8138321 Si02
#       6
#     8   8   8   8   4   8
#     4  12  22  39  66  90 125 162 202 263 311 359
#     4  12  20  40  64  91 122 161 208 261 298 369
#     4  10  20  37  62  95 121 153 208 254 312 359
#     4  10  23  38  61  97 121 161 205 255 313 361
#     4  12  18  38  70  92 116 162 214 258 308 348
#     4  10  23  41  54  89 129 164 196 244 318 370
#
# _framework density 18.419727000000002
#
# number of rings (size 3 to 8) (size 9 to 14) (size 15 to 20)
#    1.091    0.000    7.273    0.545    2.545    0.727 
#    0.000    2.727    0.000    0.000    0.000    0.000 
#    0.000    0.000    0.000    0.000    0.000    0.000 
#
# Total GULP energy -272605.926526 kJ/mol
# GULP energy per Si atom -12391.178478 kJ/mol
# Density = 1.837780 g / cm^3
# Si number density = 18.419727 Si / 1000 Ang^3
#
#
#
# Elastic Constant Matrix: (Units=GPa)
#
#
# Indices 1 2 3 4 5 6 
#
# 1 99.8414 44.5155 35.2537 0.0000 -5.7328 0.0000
# 2 44.5155 91.3793 19.8094 0.0000 -7.4946 0.0000
# 3 35.2537 19.8094 97.4008 0.0000 5.7857 0.0000
# 4 0.0000 0.0000 0.0000 14.5163 0.0000 3.2058
# 5 -5.7328 -7.4946 5.7857 0.0000 37.5290 0.0000
# 6 0.0000 0.0000 0.0000 3.2058 0.0000 31.5802
#
#
#
# Elastic Compliance Matrix: (Units=1/GPa)
#
#
# Indices 1 2 3 4 5 6 
#
# 1 0.014155 -0.005892 -0.004020 0.000000 0.001605 0.000000
# 2 -0.005892 0.014172 -0.000872 0.000000 0.002065 0.000000
# 3 -0.004020 -0.000872 0.012057 0.000000 -0.002647 0.000000
# 4 0.000000 0.000000 0.000000 0.070468 0.000000 -0.007153
# 5 0.001605 0.002065 -0.002647 0.000000 0.027712 0.000000
# 6 0.000000 0.000000 0.000000 -0.007153 0.000000 0.032392
#
#
# Mechanical properties :
#
#
# Convention : Reuss Voigt Hill
#
# Bulk Modulus (GPa) = 53.15206 54.19762 53.67484
# Shear Modulus (GPa) = 25.15145 29.32796 27.23970
#
# Velocity S-wave (km/s) = 3.69923 3.99457 3.84973
# Velocity P-wave (km/s) = 6.86763 7.12482 6.99741
#
# Compressibility (1/GPa) = 0.01881395
#
# Stress axis : x y z
#
# Youngs Moduli (GPa) = 70.64763 70.56027 82.94216
#
# Poissons Ratio (x) = 0.41576 0.33344
# Poissons Ratio (y) = 0.41628 0.07235
# Poissons Ratio (z) = 0.28402 0.06155
#
# Static dielectric constant tensor:
#      x y z
#    x 2.995490 0.000000 -0.247930 
#    y 0.000000 3.309280 0.000000 
#    z -0.247930 0.000000 3.336220 
# 
# 
# High freq. dielectric constant tensor:
#      x y z
#    x 1.714650 0.000000 -0.003660 
#    y 0.000000 1.695480 0.000000 
#    z -0.003660 0.000000 1.709790 
# 
# From -- ./inp_files/105179.got.cif
#   From: 2010.06.25/outbox.cif.g09.slc.cpg/sg15_53_cif.got.tgz:105179.got - 2010.06.28 07:06:18.
