data_PCOD8138409
_publ_section_title
;
Structure prediction by ZEFSAII (Michael W. Deem and Ramdas Pophale) SiO2 
 PCOD8138409
Probable space group: C 2/C
;
_chemical_formula_sum "Si O2"
_cell_formula_units_Z 64
_cell_length_a 8.760506
_cell_length_b 18.165227
_cell_length_c 30.068977
_cell_angle_alpha 90.000000
_cell_angle_beta 41.308074
_cell_angle_gamma 90.000000
_cell_volume 3158.663480
_symmetry_space_group_name_H-M "C 2/C"
_symmetry_group_IT_number 15
_symmetry_cell_setting 'monoclinic'
loop_
_space_group_symop_operation_xyz
x,y,z
-x,y,1/2-z
-x,-y,-z
x,-y,1/2+z
1/2+x,1/2+y,z
1/2-x,1/2+y,1/2-z
1/2-x,1/2-y,-z
1/2+x,1/2-y,1/2+z
loop_
_atom_site_type_symbol
_atom_site_label
_atom_site_fract_x
_atom_site_fract_y
_atom_site_fract_z
Si Si1 0.765796 0.962812 0.065588
Si Si2 0.023330 0.134412 0.632157
Si Si3 0.305195 0.687928 0.595312
Si Si4 0.511803 0.064089 0.533979
Si Si5 0.802790 0.801643 0.947945
Si Si6 0.216966 0.502523 0.676274
Si Si7 0.757939 0.836499 0.693983
Si Si8 0.639565 0.219878 0.762883
O O1 0.845141 0.878101 0.052296
O O2 0.569867 0.970481 0.069849
O O3 0.674704 0.999123 0.132029
O O4 0.000000 0.000000 0.000000
O O5 0.988925 0.185491 0.595798
O O6 0.880682 0.174632 0.703206
O O7 0.289505 0.118748 0.586273
O O8 0.932375 0.053653 0.639882
O O9 0.328411 0.766943 0.566306
O O10 0.037519 0.672187 0.668417
O O11 0.723336 0.115063 0.472222
O O12 0.500000 0.000000 0.500000
O O13 0.080523 0.802624 0.880093
O O14 0.750000 0.750000 0.000000
O O15 0.266974 0.424201 0.688159
O O16 0.000000 0.537698 0.750000
O O17 0.500000 0.805589 0.750000
O O18 0.837351 0.802969 0.723526
O O19 0.500000 0.236628 0.750000
#
# Coordination Sequence:
#
# PCOD8138409 Si02
#       8
#     8   8   8   8   8   8   8   8
#     4  11  21  38  64  86 119 166 213 251 324 394
#     4  10  20  37  64  90 128 161 211 266 320 385
#     4   9  19  38  61  89 118 170 208 249 319 386
#     4  12  25  40  61  98 133 165 213 277 332 385
#     4  11  22  39  62  89 130 164 210 264 320 384
#     4  10  21  42  63  89 125 174 216 262 322 394
#     4  10  22  38  62  88 120 161 216 260 304 380
#     4   9  19  37  62  89 123 162 202 258 318 378
#
# _framework density 20.261733
#
# number of rings (size 3 to 8) (size 9 to 14) (size 15 to 20)
#    0.000    1.750    1.250    4.875    1.750    0.500 
#    0.000   11.875    0.000    0.000    0.000    0.000 
#    0.000    0.000    0.000    0.000    0.000    0.000 
#
# Total GULP energy -396449.682645 kJ/mol
# GULP energy per Si atom -12389.052583 kJ/mol
# Density = 2.021562 g / cm^3
# Si number density = 20.261733 Si / 1000 Ang^3
#
#
#
# Elastic Constant Matrix: (Units=GPa)
#
#
# Indices 1 2 3 4 5 6 
#
# 1 91.6994 38.0262 53.0832 0.0089 -0.5046 -0.0072
# 2 38.0262 94.1026 39.3391 0.0033 12.1300 -0.0042
# 3 53.0832 39.3391 130.2429 0.0291 -0.7005 -0.0073
# 4 0.0089 0.0033 0.0291 31.4408 -0.0036 6.4551
# 5 -0.5046 12.1300 -0.7005 -0.0036 31.7616 0.0055
# 6 -0.0072 -0.0042 -0.0073 6.4551 0.0055 30.4868
#
#
#
# Elastic Compliance Matrix: (Units=1/GPa)
#
#
# Indices 1 2 3 4 5 6 
#
# 1 0.015682 -0.004472 -0.005031 0.000001 0.001846 0.000001
# 2 -0.004472 0.014191 -0.002494 0.000001 -0.005546 0.000001
# 3 -0.005031 -0.002494 0.010488 -0.000008 0.001104 0.000003
# 4 0.000001 0.000001 -0.000008 0.033251 0.000004 -0.007040
# 5 0.001846 -0.005546 0.001104 0.000004 0.033656 -0.000007
# 6 0.000001 0.000001 0.000003 -0.007040 -0.000007 0.034292
#
#
# Mechanical properties :
#
#
# Convention : Reuss Voigt Hill
#
# Bulk Modulus (GPa) = 61.09488 64.10464 62.59976
# Shear Modulus (GPa) = 29.23832 31.11093 30.17463
#
# Velocity S-wave (km/s) = 3.80285 3.92274 3.86326
# Velocity P-wave (km/s) = 7.03566 7.22663 7.13178
#
# Compressibility (1/GPa) = 0.01636798
#
# Stress axis : x y z
#
# Youngs Moduli (GPa) = 63.76713 70.46720 95.35138
#
# Poissons Ratio (x) = 0.31512 0.47971
# Poissons Ratio (y) = 0.28515 0.23776
# Poissons Ratio (z) = 0.32081 0.17571
#
# Static dielectric constant tensor:
#      x y z
#    x 3.744670 0.000000 0.163220 
#    y 0.000000 3.758310 -0.000220 
#    z 0.163220 -0.000220 4.704690 
# 
# 
# High freq. dielectric constant tensor:
#      x y z
#    x 1.774330 0.000000 0.004650 
#    y 0.000000 1.792180 0.000000 
#    z 0.004650 0.000000 1.804520 
# 
# From -- ./inp_files/308737.got.cif
#   From: 2010.06.25/outbox.cif.g09.slc.cpg/sg15_155_cif.got.tgz:308737.got - 2010.06.28 07:06:18.
