data_PCOD8138814
_publ_section_title
;
Structure prediction by ZEFSAII (Michael W. Deem and Ramdas Pophale) SiO2 
 PCOD8138814
Probable space group: C 2/C
;
_chemical_formula_sum "Si O2"
_cell_formula_units_Z 40
_cell_length_a 8.054866
_cell_length_b 19.289915
_cell_length_c 10.609136
_cell_angle_alpha 90.000000
_cell_angle_beta 89.283617
_cell_angle_gamma 90.000000
_cell_volume 1648.294095
_symmetry_space_group_name_H-M "C 2/C"
_symmetry_group_IT_number 15
_symmetry_cell_setting 'monoclinic'
loop_
_space_group_symop_operation_xyz
x,y,z
-x,y,1/2-z
-x,-y,-z
x,-y,1/2+z
1/2+x,1/2+y,z
1/2-x,1/2+y,1/2-z
1/2-x,1/2-y,-z
1/2+x,1/2-y,1/2+z
loop_
_atom_site_type_symbol
_atom_site_label
_atom_site_fract_x
_atom_site_fract_y
_atom_site_fract_z
Si Si1 0.408057 0.899725 0.877845
Si Si2 0.609804 0.500159 0.374310
Si Si3 0.106700 0.768935 0.634628
Si Si4 0.899385 0.396784 0.372390
Si Si5 0.527508 0.754928 0.878764
O O1 0.500000 0.925197 0.750000
O O2 0.226197 0.932209 0.880736
O O3 0.389685 0.815674 0.880967
O O4 0.508091 0.922693 0.002303
O O5 0.500000 0.505247 0.250000
O O6 0.500000 0.500000 0.500000
O O7 0.717099 0.429776 0.369976
O O8 0.117900 0.685882 0.635105
O O9 0.294746 0.796342 0.631258
O O10 0.017352 0.792182 0.503975
O O11 0.000000 0.799787 0.750000
O O12 0.000000 0.423849 0.250000
O O13 0.500000 0.710213 0.750000
#
# Coordination Sequence:
#
# PCOD8138814 Si02
#       5
#     8   8   8   8   8
#     4  10  20  39  60  80 113 157 193 227 288 352
#     4  12  24  37  57  88 118 148 195 246 283 332
#     4   9  19  36  58  85 111 142 191 239 279 337
#     4  10  20  38  62  83 114 156 191 232 292 349
#     4   9  19  36  57  81 112 151 186 226 284 344
#
# _framework density 24.267513000000001
#
# number of rings (size 3 to 8) (size 9 to 14) (size 15 to 20)
#    0.000    2.000    0.000    3.600    0.000    1.600 
#    0.000   16.000    0.000    0.000    0.000    0.000 
#    0.000    0.000    0.000    0.000    0.000    0.000 
#
# Total GULP energy -247857.460829 kJ/mol
# GULP energy per Si atom -12392.873041 kJ/mol
# Density = 2.421228 g / cm^3
# Si number density = 24.267513 Si / 1000 Ang^3
#
#
#
# Elastic Constant Matrix: (Units=GPa)
#
#
# Indices 1 2 3 4 5 6 
#
# 1 113.2594 7.8616 76.4856 0.0000 10.0580 0.0000
# 2 7.8616 24.0433 -3.7238 0.0000 6.4414 0.0000
# 3 76.4856 -3.7238 259.3488 0.0000 11.8539 0.0000
# 4 0.0000 0.0000 0.0000 4.3948 0.0000 -3.0036
# 5 10.0580 6.4414 11.8539 0.0000 64.1055 0.0000
# 6 0.0000 0.0000 0.0000 -3.0036 0.0000 35.1560
#
#
#
# Elastic Compliance Matrix: (Units=1/GPa)
#
#
# Indices 1 2 3 4 5 6 
#
# 1 0.011483 -0.004079 -0.003410 0.000000 -0.000761 0.000000
# 2 -0.004079 0.044363 0.002032 0.000000 -0.004193 0.000000
# 3 -0.003410 0.002032 0.004917 0.000000 -0.000578 0.000000
# 4 0.000000 0.000000 0.000000 0.241655 0.000000 0.020646
# 5 -0.000761 -0.004193 -0.000578 0.000000 0.016247 0.000000
# 6 0.000000 0.000000 0.000000 0.020646 0.000000 0.030209
#
#
# Mechanical properties :
#
#
# Convention : Reuss Voigt Hill
#
# Bulk Modulus (GPa) = 20.06085 61.98870 41.02477
# Shear Modulus (GPa) = 13.28356 41.79979 27.54168
#
# Velocity S-wave (km/s) = 2.34215 4.15475 3.37251
# Velocity P-wave (km/s) = 3.94952 6.97247 5.66631
#
# Compressibility (1/GPa) = 0.04984833
#
# Stress axis : x y z
#
# Youngs Moduli (GPa) = 87.08508 22.54111 203.36970
#
# Poissons Ratio (x) = 0.09194 0.69355
# Poissons Ratio (y) = 0.35521 -0.41316
# Poissons Ratio (z) = 0.29698 -0.04579
#
# Static dielectric constant tensor:
#      x y z
#    x 4.283090 0.000000 0.111510 
#    y 0.000000 3.903550 0.000000 
#    z 0.111510 0.000000 5.109440 
# 
# 
# High freq. dielectric constant tensor:
#      x y z
#    x 1.958820 0.000000 0.010080 
#    y 0.000000 1.927050 0.000000 
#    z 0.010080 0.000000 2.001450 
# 
# From -- ./inp_files/73090.got.cif
#   From: 2010.06.25/outbox.cif.g09.slc.cpg/sg15_37_cif.got.tgz:73090.got - 2010.06.28 07:06:18.
