data_PCOD8138909
_publ_section_title
;
Structure prediction by ZEFSAII (Michael W. Deem and Ramdas Pophale) SiO2 
 PCOD8138909
Probable space group: C 2/C
;
_chemical_formula_sum "Si O2"
_cell_formula_units_Z 40
_cell_length_a 24.152337
_cell_length_b 8.777446
_cell_length_c 15.105759
_cell_angle_alpha 90.000000
_cell_angle_beta 144.606516
_cell_angle_gamma 90.000000
_cell_volume 1854.768808
_symmetry_space_group_name_H-M "C 2/C"
_symmetry_group_IT_number 15
_symmetry_cell_setting 'monoclinic'
loop_
_space_group_symop_operation_xyz
x,y,z
-x,y,1/2-z
-x,-y,-z
x,-y,1/2+z
1/2+x,1/2+y,z
1/2-x,1/2+y,1/2-z
1/2-x,1/2-y,-z
1/2+x,1/2-y,1/2+z
loop_
_atom_site_type_symbol
_atom_site_label
_atom_site_fract_x
_atom_site_fract_y
_atom_site_fract_z
Si Si1 0.183766 0.320966 0.716690
Si Si2 0.003027 0.757055 0.607496
Si Si3 0.838023 0.679035 0.814181
Si Si4 0.000000 0.006204 0.750000
Si Si5 0.862308 0.264367 0.536198
Si Si6 0.000000 0.510771 0.750000
O O1 0.182439 0.501312 0.726606
O O2 0.238149 0.272401 0.695757
O O3 0.245606 0.248768 0.880210
O O4 0.078514 0.246654 0.575293
O O5 0.106424 0.746748 0.697277
O O6 0.998638 0.908878 0.658884
O O7 0.982184 0.611010 0.640591
O O8 0.899960 0.707110 0.984181
O O9 0.904754 0.107730 0.628960
O O10 0.905523 0.407044 0.646934
#
# Coordination Sequence:
#
# PCOD8138909 Si02
#       6
#     8   8   8   4   8   4
#     4  10  20  40  64  88 116 157 209 242 270 380
#     4  11  21  39  68  86 119 160 201 239 304 348
#     4  10  22  39  67  86 116 162 206 237 292 361
#     4  10  22  38  58  96 126 148 190 266 298 344
#     4   9  21  40  61  83 130 153 194 247 300 338
#     4  10  20  38  62  94 126 152 188 260 296 346
#
# _framework density 21.566030000000001
#
# number of rings (size 3 to 8) (size 9 to 14) (size 15 to 20)
#    1.200    0.800    2.000    1.800    0.000    0.800 
#    0.000   10.000    4.400    0.000    0.000    0.000 
#    0.000    0.000    0.000    0.000    0.000    0.000 
#
# Total GULP energy -247807.227424 kJ/mol
# GULP energy per Si atom -12390.361371 kJ/mol
# Density = 2.151694 g / cm^3
# Si number density = 21.566030 Si / 1000 Ang^3
#
#
#
# Elastic Constant Matrix: (Units=GPa)
#
#
# Indices 1 2 3 4 5 6 
#
# 1 19.0081 -0.5088 -2.3194 0.0000 18.9530 0.0000
# 2 -0.5088 91.3981 34.5789 0.0000 -3.2633 0.0000
# 3 -2.3194 34.5789 114.3557 0.0000 -0.4300 0.0000
# 4 0.0000 0.0000 0.0000 28.1357 0.0000 1.3120
# 5 18.9530 -3.2633 -0.4300 0.0000 25.0199 0.0000
# 6 0.0000 0.0000 0.0000 1.3120 0.0000 3.0068
#
#
#
# Elastic Compliance Matrix: (Units=1/GPa)
#
#
# Indices 1 2 3 4 5 6 
#
# 1 0.220536 -0.007023 0.005965 0.000000 -0.167873 0.000000
# 2 -0.007023 0.012638 -0.003938 0.000000 0.006901 0.000000
# 3 0.005965 -0.003938 0.010038 0.000000 -0.004860 0.000000
# 4 0.000000 0.000000 0.000000 0.036280 0.000000 -0.015831
# 5 -0.167873 0.006901 -0.004860 0.000000 0.167952 0.000000
# 6 0.000000 0.000000 0.000000 -0.015831 0.000000 0.339490
#
#
# Mechanical properties :
#
#
# Convention : Reuss Voigt Hill
#
# Bulk Modulus (GPa) = 4.28777 32.02925 18.15851
# Shear Modulus (GPa) = 5.71646 24.09989 14.90818
#
# Velocity S-wave (km/s) = 1.62986 3.34652 2.63207
# Velocity P-wave (km/s) = 2.35254 5.46042 4.20420
#
# Compressibility (1/GPa) = 0.23322128
#
# Stress axis : x y z
#
# Youngs Moduli (GPa) = 4.53441 79.12443 99.61991
#
# Poissons Ratio (x) = 0.55568 -0.59426
# Poissons Ratio (y) = 0.03184 0.39231
# Poissons Ratio (z) = -0.02705 0.31160
#
# Static dielectric constant tensor:
#      x y z
#    x 3.434220 0.000000 -0.050090 
#    y 0.000000 3.840990 0.000000 
#    z -0.050090 0.000000 3.921540 
# 
# 
# High freq. dielectric constant tensor:
#      x y z
#    x 1.804310 0.000000 -0.002310 
#    y 0.000000 1.855510 0.000000 
#    z -0.002310 0.000000 1.854270 
# 
# From -- ./inp_files/165882.got.cif
#   From: 2010.06.25/outbox.cif.g09.slc.cpg/sg15_83_cif.got.tgz:165882.got - 2010.06.28 07:06:18.
