data_PCOD8138346
_publ_section_title
;
Structure prediction by ZEFSAII (Michael W. Deem and Ramdas Pophale) SiO2 
 PCOD8138346
Probable space group: C 2/C
;
_chemical_formula_sum "Si O2"
_cell_formula_units_Z 56
_cell_length_a 17.027348
_cell_length_b 8.667957
_cell_length_c 24.828255
_cell_angle_alpha 90.000000
_cell_angle_beta 46.600463
_cell_angle_gamma 90.000000
_cell_volume 2662.523993
_symmetry_space_group_name_H-M "C 2/C"
_symmetry_group_IT_number 15
_symmetry_cell_setting 'monoclinic'
loop_
_space_group_symop_operation_xyz
x,y,z
-x,y,1/2-z
-x,-y,-z
x,-y,1/2+z
1/2+x,1/2+y,z
1/2-x,1/2+y,1/2-z
1/2-x,1/2-y,-z
1/2+x,1/2-y,1/2+z
loop_
_atom_site_type_symbol
_atom_site_label
_atom_site_fract_x
_atom_site_fract_y
_atom_site_fract_z
Si Si1 0.158350 0.355516 0.318831
Si Si2 0.971276 0.573715 0.442193
Si Si3 0.276364 0.421655 0.154168
Si Si4 0.602913 0.214398 0.471014
Si Si5 0.833321 0.728867 0.311326
Si Si6 0.042386 0.204423 0.644950
Si Si7 0.020753 0.070502 0.396391
O O1 0.083053 0.499238 0.368258
O O2 0.235111 0.386799 0.232844
O O3 0.231871 0.323428 0.336476
O O4 0.088348 0.206472 0.335987
O O5 0.001632 0.681372 0.478678
O O6 0.920390 0.678014 0.419385
O O7 0.883114 0.443271 0.500767
O O8 0.286854 0.266875 0.112092
O O9 0.199647 0.549896 0.163464
O O10 0.400814 0.474246 0.101390
O O11 0.574651 0.356466 0.523392
O O12 0.931605 0.734527 0.223117
O O13 0.864455 0.801764 0.353989
O O14 0.029262 0.033716 0.627227
#
# Coordination Sequence:
#
# PCOD8138346 Si02
#       7
#     8   8   8   8   8   8   8
#     4  10  20  37  63  91 112 149 204 249 284 338
#     4  10  20  37  63  88 115 156 200 242 289 353
#     4  11  19  35  60  90 115 154 198 251 279 349
#     4  10  21  35  61  86 119 155 202 239 289 345
#     4  10  22  35  61  90 117 151 194 250 298 343
#     4  11  20  38  61  85 121 153 193 241 305 350
#     4  10  21  35  62  86 121 152 197 240 291 352
#
# _framework density 21.032672999999999
#
# number of rings (size 3 to 8) (size 9 to 14) (size 15 to 20)
#    0.000    1.714    4.286    0.429    2.000    0.000 
#    0.000    1.429   18.857    0.000    0.000    0.000 
#    0.000    0.000    0.000    0.000    0.000    0.000 
#
# Total GULP energy -347164.224098 kJ/mol
# GULP energy per Si atom -12398.722289 kJ/mol
# Density = 2.098480 g / cm^3
# Si number density = 21.032673 Si / 1000 Ang^3
#
#
#
# Elastic Constant Matrix: (Units=GPa)
#
#
# Indices 1 2 3 4 5 6 
#
# 1 101.6667 55.2384 27.3683 0.0001 22.3622 0.0004
# 2 55.2384 106.0884 32.2276 0.0002 12.9904 0.0008
# 3 27.3683 32.2276 57.6076 -0.0001 11.9119 -0.0001
# 4 0.0001 0.0002 -0.0001 32.8760 0.0000 10.5048
# 5 22.3622 12.9904 11.9119 0.0000 25.1677 0.0000
# 6 0.0004 0.0008 -0.0001 10.5048 0.0000 27.4638
#
#
#
# Elastic Compliance Matrix: (Units=1/GPa)
#
#
# Indices 1 2 3 4 5 6 
#
# 1 0.016140 -0.006597 -0.001902 0.000000 -0.010035 0.000000
# 2 -0.006597 0.014285 -0.005038 0.000000 0.000873 0.000000
# 3 -0.001902 -0.005038 0.022384 0.000000 -0.006304 0.000000
# 4 0.000000 0.000000 0.000000 0.034653 0.000000 -0.013254
# 5 -0.010035 0.000873 -0.006304 0.000000 0.051183 0.000000
# 6 0.000000 0.000000 0.000000 -0.013254 0.000000 0.041481
#
#
# Mechanical properties :
#
#
# Convention : Reuss Voigt Hill
#
# Bulk Modulus (GPa) = 38.85741 55.00350 46.93045
# Shear Modulus (GPa) = 23.17200 27.13671 25.15436
#
# Velocity S-wave (km/s) = 3.32281 3.59586 3.46203
# Velocity P-wave (km/s) = 5.76509 6.59154 6.19212
#
# Compressibility (1/GPa) = 0.02573512
#
# Stress axis : x y z
#
# Youngs Moduli (GPa) = 61.95862 70.00584 44.67437
#
# Poissons Ratio (x) = 0.46184 0.08497
# Poissons Ratio (y) = 0.40875 0.22505
# Poissons Ratio (z) = 0.11785 0.35266
#
# Static dielectric constant tensor:
#      x y z
#    x 3.400400 0.000000 0.133930 
#    y 0.000000 4.018470 0.000000 
#    z 0.133930 0.000000 3.850950 
# 
# 
# High freq. dielectric constant tensor:
#      x y z
#    x 1.778420 0.000000 0.015660 
#    y 0.000000 1.835200 0.000000 
#    z 0.015660 0.000000 1.832530 
# 
# From -- ./inp_files/298119.got.cif
#   From: 2010.06.25/outbox.cif.g09.slc.cpg/sg15_150_cif.got.tgz:298119.got - 2010.06.28 07:06:18.
