data_PCOD8138649
_publ_section_title
;
Structure prediction by ZEFSAII (Michael W. Deem and Ramdas Pophale) SiO2 
 PCOD8138649
Probable space group: C 2/C
;
_chemical_formula_sum "Si O2"
_cell_formula_units_Z 52
_cell_length_a 18.782683
_cell_length_b 6.840705
_cell_length_c 17.800440
_cell_angle_alpha 90.000000
_cell_angle_beta 89.431575
_cell_angle_gamma 90.000000
_cell_volume 2287.008906
_symmetry_space_group_name_H-M "C 2/C"
_symmetry_group_IT_number 15
_symmetry_cell_setting 'monoclinic'
loop_
_space_group_symop_operation_xyz
x,y,z
-x,y,1/2-z
-x,-y,-z
x,-y,1/2+z
1/2+x,1/2+y,z
1/2-x,1/2+y,1/2-z
1/2-x,1/2-y,-z
1/2+x,1/2-y,1/2+z
loop_
_atom_site_type_symbol
_atom_site_label
_atom_site_fract_x
_atom_site_fract_y
_atom_site_fract_z
Si Si1 0.331111 0.179256 0.772255
Si Si2 0.967479 0.218319 0.630773
Si Si3 0.448472 0.266821 0.649138
Si Si4 0.130113 0.514119 0.451557
Si Si5 0.500000 0.019882 0.250000
Si Si6 0.126365 0.365861 0.612078
Si Si7 0.767542 0.965540 0.351760
O O1 0.389826 0.260406 0.714996
O O2 0.260938 0.120801 0.726459
O O3 0.311680 0.339127 0.834446
O O4 0.363221 0.987316 0.811570
O O5 0.912528 0.285739 0.567090
O O6 0.943796 0.327908 0.710181
O O7 0.047159 0.283476 0.612192
O O8 0.970273 0.986823 0.635156
O O9 0.416724 0.173603 0.573732
O O10 0.515522 0.133276 0.679356
O O11 0.140922 0.503135 0.540246
O O12 0.205554 0.520859 0.410090
O O13 0.181968 0.189073 0.607859
#
# Coordination Sequence:
#
# PCOD8138649 Si02
#       7
#     8   8   8   8   4   8   8
#     4  11  24  42  69  98 133 175 233 282 338 407
#     4  11  24  40  73  96 138 179 229 282 355 401
#     4  10  23  40  65  99 136 172 228 281 346 398
#     4  10  26  45  64 101 143 180 228 285 342 418
#     4  10  20  38  60 100 132 166 216 288 334 400
#     4  12  25  45  69 100 140 182 230 280 349 421
#     4  11  25  42  68  97 135 182 227 285 340 408
#
# _framework density 22.737120999999998
#
# number of rings (size 3 to 8) (size 9 to 14) (size 15 to 20)
#    0.000    1.231    3.077    1.385    6.462    2.462 
#    0.000    0.000    0.000    0.000    0.000    0.000 
#    0.000    0.000    0.000    0.000    0.000    0.000 
#
# Total GULP energy -322155.961214 kJ/mol
# GULP energy per Si atom -12390.613893 kJ/mol
# Density = 2.268537 g / cm^3
# Si number density = 22.737121 Si / 1000 Ang^3
#
#
#
# Elastic Constant Matrix: (Units=GPa)
#
#
# Indices 1 2 3 4 5 6 
#
# 1 76.1170 -1.8329 8.4839 0.0000 5.5994 0.0000
# 2 -1.8329 94.6538 0.0334 0.0000 0.1343 0.0000
# 3 8.4839 0.0334 81.9062 0.0000 -3.4528 0.0000
# 4 0.0000 0.0000 0.0000 26.0189 0.0000 -1.1228
# 5 5.5994 0.1343 -3.4528 0.0000 21.5971 0.0000
# 6 0.0000 0.0000 0.0000 -1.1228 0.0000 19.6147
#
#
#
# Elastic Compliance Matrix: (Units=1/GPa)
#
#
# Indices 1 2 3 4 5 6 
#
# 1 0.013597 0.000269 -0.001568 0.000000 -0.003777 0.000000
# 2 0.000269 0.010570 -0.000038 0.000000 -0.000142 0.000000
# 3 -0.001568 -0.000038 0.012473 0.000000 0.002401 0.000000
# 4 0.000000 0.000000 0.000000 0.038529 0.000000 0.002205
# 5 -0.003777 -0.000142 0.002401 0.000000 0.047667 0.000000
# 6 0.000000 0.000000 0.000000 0.002205 0.000000 0.051109
#
#
# Mechanical properties :
#
#
# Convention : Reuss Voigt Hill
#
# Bulk Modulus (GPa) = 29.44089 29.56063 29.50076
# Shear Modulus (GPa) = 26.60438 29.84565 28.22501
#
# Velocity S-wave (km/s) = 3.42436 3.62697 3.52712
# Velocity P-wave (km/s) = 5.34897 5.52894 5.43970
#
# Compressibility (1/GPa) = 0.03396637
#
# Stress axis : x y z
#
# Youngs Moduli (GPa) = 73.54687 94.60519 80.17518
#
# Poissons Ratio (x) = -0.02547 0.12569
# Poissons Ratio (y) = -0.01980 0.00306
# Poissons Ratio (z) = 0.11530 0.00361
#
# Static dielectric constant tensor:
#      x y z
#    x 4.184580 0.000000 0.188340 
#    y 0.000000 4.210730 0.000000 
#    z 0.188340 0.000000 4.207140 
# 
# 
# High freq. dielectric constant tensor:
#      x y z
#    x 1.898280 0.000000 0.010980 
#    y 0.000000 1.902800 0.000000 
#    z 0.010980 0.000000 1.897320 
# 
# From -- ./inp_files/251108.got.cif
#   From: 2010.06.25/outbox.cif.g09.slc.cpg/sg15_126_cif.got.tgz:251108.got - 2010.06.28 07:06:18.
