data_PCOD8138465
_publ_section_title
;
Structure prediction by ZEFSAII (Michael W. Deem and Ramdas Pophale) SiO2 
 PCOD8138465
Probable space group: C 2/C
;
_chemical_formula_sum "Si O2"
_cell_formula_units_Z 56
_cell_length_a 19.777532
_cell_length_b 27.008007
_cell_length_c 5.247983
_cell_angle_alpha 90.000000
_cell_angle_beta 114.167400
_cell_angle_gamma 90.000000
_cell_volume 2557.525986
_symmetry_space_group_name_H-M "C 2/C"
_symmetry_group_IT_number 15
_symmetry_cell_setting 'monoclinic'
loop_
_space_group_symop_operation_xyz
x,y,z
-x,y,1/2-z
-x,-y,-z
x,-y,1/2+z
1/2+x,1/2+y,z
1/2-x,1/2+y,1/2-z
1/2-x,1/2-y,-z
1/2+x,1/2-y,1/2+z
loop_
_atom_site_type_symbol
_atom_site_label
_atom_site_fract_x
_atom_site_fract_y
_atom_site_fract_z
Si Si1 0.207468 0.191627 0.089811
Si Si2 0.915265 0.476284 0.602639
Si Si3 0.500000 0.193477 0.750000
Si Si4 0.500000 0.532268 0.250000
Si Si5 0.764618 0.134206 0.889742
Si Si6 0.339556 0.466868 0.507763
Si Si7 0.864901 0.723929 0.266977
Si Si8 0.102640 0.637070 0.541639
O O1 0.215131 0.158946 0.847502
O O2 0.140161 0.230907 0.944656
O O3 0.188258 0.158512 0.306703
O O4 0.283548 0.221755 0.272268
O O5 0.876124 0.502695 0.298806
O O6 0.910767 0.417487 0.583685
O O7 0.000000 0.494222 0.750000
O O8 0.433647 0.231041 0.566080
O O9 0.530879 0.156621 0.580576
O O10 0.500000 0.500000 0.500000
O O11 0.578967 0.560832 0.373046
O O12 0.779400 0.075995 0.894385
O O13 0.677539 0.139484 0.826439
O O14 0.328819 0.503556 0.253699
O O15 0.883536 0.671037 0.179031
#
# Coordination Sequence:
#
# PCOD8138465 Si02
#       8
#     8   8   4   4   8   8   8   8
#     4  10  23  42  65  92 123 167 207 269 335 390
#     4  10  23  38  56  81 120 164 207 264 319 360
#     4  12  22  40  65  94 120 170 220 275 306 386
#     4   8  16  32  57  88 116 152 202 249 302 368
#     4  11  23  41  64  94 131 168 213 264 323 382
#     4  10  20  37  65  95 128 169 214 258 311 384
#     4  10  23  40  67  89 122 160 222 269 325 384
#     4  11  25  39  63  92 124 169 225 266 316 382
#
# _framework density 21.896159999999998
#
# number of rings (size 3 to 8) (size 9 to 14) (size 15 to 20)
#    0.000    1.714    1.429    2.143    7.000    2.857 
#    0.000    0.714    0.000    0.000    0.000    0.000 
#    0.000    0.000    0.000    0.000    0.000    0.000 
#
# Total GULP energy -347006.788106 kJ/mol
# GULP energy per Si atom -12393.099575 kJ/mol
# Density = 2.184632 g / cm^3
# Si number density = 21.896160 Si / 1000 Ang^3
#
#
#
# Elastic Constant Matrix: (Units=GPa)
#
#
# Indices 1 2 3 4 5 6 
#
# 1 54.3356 18.4235 35.4840 0.0000 7.6268 0.0000
# 2 18.4235 86.0394 46.3963 0.0000 12.4542 0.0000
# 3 35.4840 46.3963 130.9346 0.0000 -7.5071 0.0000
# 4 0.0000 0.0000 0.0000 39.3526 0.0000 -0.1534
# 5 7.6268 12.4542 -7.5071 0.0000 37.3180 0.0000
# 6 0.0000 0.0000 0.0000 -0.1534 0.0000 21.0211
#
#
#
# Elastic Compliance Matrix: (Units=1/GPa)
#
#
# Indices 1 2 3 4 5 6 
#
# 1 0.023735 -0.000708 -0.006521 0.000000 -0.005926 0.000000
# 2 -0.000708 0.015792 -0.005765 0.000000 -0.006285 0.000000
# 3 -0.006521 -0.005765 0.011770 0.000000 0.005624 0.000000
# 4 0.000000 0.000000 0.000000 0.025412 0.000000 0.000185
# 5 -0.005926 -0.006285 0.005624 0.000000 0.031237 0.000000
# 6 0.000000 0.000000 0.000000 0.000185 0.000000 0.047572
#
#
# Mechanical properties :
#
#
# Convention : Reuss Voigt Hill
#
# Bulk Modulus (GPa) = 39.51060 52.43525 45.97292
# Shear Modulus (GPa) = 26.32380 30.93873 28.63126
#
# Velocity S-wave (km/s) = 3.47105 3.76303 3.61999
# Velocity P-wave (km/s) = 5.84363 6.54827 6.20596
#
# Compressibility (1/GPa) = 0.02530966
#
# Stress axis : x y z
#
# Youngs Moduli (GPa) = 42.13245 63.32122 84.96343
#
# Poissons Ratio (x) = 0.04483 0.55406
# Poissons Ratio (y) = 0.02983 0.48977
# Poissons Ratio (z) = 0.27475 0.36502
#
# Static dielectric constant tensor:
#      x y z
#    x 4.123710 0.000000 0.280810 
#    y 0.000000 3.691190 0.000000 
#    z 0.280810 0.000000 4.329210 
# 
# 
# High freq. dielectric constant tensor:
#      x y z
#    x 1.846980 0.000000 0.000970 
#    y 0.000000 1.840250 0.000000 
#    z 0.000970 0.000000 1.879630 
# 
# From -- ./inp_files/14339.got.cif
#   From: 2010.06.25/outbox.cif.g09.slc.cpg/sg15_8_cif.got.tgz:14339.got - 2010.06.28 07:06:18.
