data_PCOD8138225
_publ_section_title
;
Structure prediction by ZEFSAII (Michael W. Deem and Ramdas Pophale) SiO2 
 PCOD8138225
Probable space group: C 2/C
;
_chemical_formula_sum "Si O2"
_cell_formula_units_Z 56
_cell_length_a 14.922713
_cell_length_b 14.576309
_cell_length_c 12.603605
_cell_angle_alpha 90.000000
_cell_angle_beta 87.032434
_cell_angle_gamma 90.000000
_cell_volume 2737.835543
_symmetry_space_group_name_H-M "C 2/C"
_symmetry_group_IT_number 15
_symmetry_cell_setting 'monoclinic'
loop_
_space_group_symop_operation_xyz
x,y,z
-x,y,1/2-z
-x,-y,-z
x,-y,1/2+z
1/2+x,1/2+y,z
1/2-x,1/2+y,1/2-z
1/2-x,1/2-y,-z
1/2+x,1/2-y,1/2+z
loop_
_atom_site_type_symbol
_atom_site_label
_atom_site_fract_x
_atom_site_fract_y
_atom_site_fract_z
Si Si1 0.875359 0.391677 0.985155
Si Si2 0.145422 0.977736 0.515831
Si Si3 0.765648 0.900364 0.331677
Si Si4 0.514869 0.824033 0.128562
Si Si5 0.471383 0.633997 0.039706
Si Si6 0.422495 0.270230 0.335865
Si Si7 0.688005 0.077815 0.612959
O O1 0.881057 0.320068 0.889600
O O2 0.860865 0.488802 0.930714
O O3 0.794431 0.360991 0.067954
O O4 0.965182 0.393030 0.050893
O O5 0.215471 0.912513 0.449625
O O6 0.060839 0.920607 0.557645
O O7 0.186449 0.009452 0.625140
O O8 0.114769 0.065276 0.442953
O O9 0.839197 0.825469 0.289173
O O10 0.703786 0.930560 0.237793
O O11 0.500000 0.855812 0.250000
O O12 0.473071 0.721796 0.117392
O O13 0.621755 0.835013 0.096387
O O14 0.471908 0.666556 0.918633
O O15 0.500000 0.241803 0.250000
#
# Coordination Sequence:
#
# PCOD8138225 Si02
#       7
#     8   8   8   8   8   8   8
#     4  10  22  41  59  84 119 166 201 243 309 375
#     4   9  20  39  61  88 122 156 202 252 308 371
#     4  10  20  38  60  86 120 156 197 250 309 364
#     4  11  22  39  61  86 122 162 205 250 306 366
#     4   9  20  39  61  87 121 160 198 251 309 371
#     4  10  20  37  61  88 116 156 200 249 306 369
#     4  11  22  38  60  89 119 160 203 257 302 363
#
# _framework density 20.454115000000002
#
# number of rings (size 3 to 8) (size 9 to 14) (size 15 to 20)
#    0.000    2.000    1.429    1.714    0.000    3.429 
#   12.857    1.429    0.000    0.000    0.000    0.000 
#    0.000    0.000    0.000    0.000    0.000    0.000 
#
# Total GULP energy -347023.995656 kJ/mol
# GULP energy per Si atom -12393.714131 kJ/mol
# Density = 2.040756 g / cm^3
# Si number density = 20.454115 Si / 1000 Ang^3
#
#
#
# Elastic Constant Matrix: (Units=GPa)
#
#
# Indices 1 2 3 4 5 6 
#
# 1 105.0791 22.1702 30.9279 0.0000 6.2216 0.0000
# 2 22.1702 52.3089 25.9698 0.0000 6.2528 0.0000
# 3 30.9279 25.9698 84.5382 0.0000 9.0017 0.0000
# 4 0.0000 0.0000 0.0000 16.1681 0.0000 -4.5235
# 5 6.2216 6.2528 9.0017 0.0000 37.5636 0.0000
# 6 0.0000 0.0000 0.0000 -4.5235 0.0000 29.1134
#
#
#
# Elastic Compliance Matrix: (Units=1/GPa)
#
#
# Indices 1 2 3 4 5 6 
#
# 1 0.011106 -0.003128 -0.003039 0.000000 -0.000590 0.000000
# 2 -0.003128 0.023609 -0.005895 0.000000 -0.001999 0.000000
# 3 -0.003039 -0.005895 0.014976 0.000000 -0.002104 0.000000
# 4 0.000000 0.000000 0.000000 0.064661 0.000000 0.010047
# 5 -0.000590 -0.001999 -0.002104 0.000000 0.027556 0.000000
# 6 0.000000 0.000000 0.000000 0.010047 0.000000 0.035909
#
#
# Mechanical properties :
#
#
# Convention : Reuss Voigt Hill
#
# Bulk Modulus (GPa) = 39.11457 44.45133 41.78295
# Shear Modulus (GPa) = 23.75700 27.42624 25.59162
#
# Velocity S-wave (km/s) = 3.41174 3.66576 3.54103
# Velocity P-wave (km/s) = 5.88936 6.30051 6.09840
#
# Compressibility (1/GPa) = 0.02556592
#
# Stress axis : x y z
#
# Youngs Moduli (GPa) = 90.04083 42.35743 66.77334
#
# Poissons Ratio (x) = 0.13247 0.20296
# Poissons Ratio (y) = 0.28161 0.39366
# Poissons Ratio (z) = 0.27368 0.24971
#
# Static dielectric constant tensor:
#      x y z
#    x 3.997920 0.000000 0.180360 
#    y 0.000000 3.583290 0.000000 
#    z 0.180360 0.000000 3.536770 
# 
# 
# High freq. dielectric constant tensor:
#      x y z
#    x 1.818190 0.000000 0.014890 
#    y 0.000000 1.782550 0.000000 
#    z 0.014890 0.000000 1.786300 
# 
# From -- ./inp_files/97011.got.cif
#   From: 2010.06.25/outbox.cif.g09.slc.cpg/sg15_49_cif.got.tgz:97011.got - 2010.06.28 07:06:18.
