data_PCOD8138384
_publ_section_title
;
Structure prediction by ZEFSAII (Michael W. Deem and Ramdas Pophale) SiO2 
 PCOD8138384
Probable space group: C 2/C
;
_chemical_formula_sum "Si O2"
_cell_formula_units_Z 52
_cell_length_a 13.938248
_cell_length_b 32.487783
_cell_length_c 5.331923
_cell_angle_alpha 90.000000
_cell_angle_beta 77.851371
_cell_angle_gamma 90.000000
_cell_volume 2360.345263
_symmetry_space_group_name_H-M "C 2/C"
_symmetry_group_IT_number 15
_symmetry_cell_setting 'monoclinic'
loop_
_space_group_symop_operation_xyz
x,y,z
-x,y,1/2-z
-x,-y,-z
x,-y,1/2+z
1/2+x,1/2+y,z
1/2-x,1/2+y,1/2-z
1/2-x,1/2-y,-z
1/2+x,1/2-y,1/2+z
loop_
_atom_site_type_symbol
_atom_site_label
_atom_site_fract_x
_atom_site_fract_y
_atom_site_fract_z
Si Si1 0.500000 0.623527 0.250000
Si Si2 0.312305 0.244451 0.217579
Si Si3 0.319500 0.159325 0.029546
Si Si4 0.374094 0.670821 0.674097
Si Si5 0.500000 0.934849 0.750000
Si Si6 0.206767 0.475221 0.576858
Si Si7 0.000000 0.618316 0.750000
Si Si8 0.190245 0.105115 0.392053
O O1 0.473157 0.652482 0.500887
O O2 0.596235 0.596012 0.261717
O O3 0.250000 0.250000 0.500000
O O4 0.357352 0.198100 0.177989
O O5 0.394609 0.280469 0.207042
O O6 0.250000 0.250000 0.000000
O O7 0.292238 0.118608 0.204639
O O8 0.217510 0.171169 0.961337
O O9 0.403572 0.147116 0.784140
O O10 0.342993 0.643670 0.925828
O O11 0.592635 0.963758 0.644633
O O12 0.487513 0.907639 0.508825
O O13 0.231359 0.505397 0.333835
O O14 0.279755 0.436672 0.484322
#
# Coordination Sequence:
#
# PCOD8138384 Si02
#       8
#     4   8   8   8   4   8   4   8
#     4  10  24  39  70 100 123 180 235 284 332 409
#     4  10  20  37  63  96 133 179 226 276 332 384
#     4  10  22  38  64  96 139 181 225 276 331 401
#     4  10  21  40  68  93 133 180 231 278 341 397
#     4  12  24  45  70 100 143 176 229 268 338 421
#     4  12  27  45  71 103 135 176 222 280 345 413
#     4  12  24  38  68 106 136 188 222 264 336 406
#     4  11  22  44  69  94 135 179 228 281 343 409
#
# _framework density 22.030677000000001
#
# number of rings (size 3 to 8) (size 9 to 14) (size 15 to 20)
#    0.000    1.231    3.077    2.769    4.308    0.615 
#    0.000    0.769    3.385    0.000    0.000    0.000 
#    0.000    0.000    0.000    0.000    0.000    0.000 
#
# Total GULP energy -322137.448217 kJ/mol
# GULP energy per Si atom -12389.901855 kJ/mol
# Density = 2.198053 g / cm^3
# Si number density = 22.030677 Si / 1000 Ang^3
#
#
#
# Elastic Constant Matrix: (Units=GPa)
#
#
# Indices 1 2 3 4 5 6 
#
# 1 74.6999 44.1185 21.2995 0.0000 -18.1239 0.0000
# 2 44.1185 97.2063 9.6902 0.0000 5.3847 0.0000
# 3 21.2995 9.6902 105.4599 0.0000 2.9546 0.0000
# 4 0.0000 0.0000 0.0000 40.9912 0.0000 1.3679
# 5 -18.1239 5.3847 2.9546 0.0000 29.8892 0.0000
# 6 0.0000 0.0000 0.0000 1.3679 0.0000 20.6660
#
#
#
# Elastic Compliance Matrix: (Units=1/GPa)
#
#
# Indices 1 2 3 4 5 6 
#
# 1 0.026976 -0.012825 -0.004806 0.000000 0.019143 0.000000
# 2 -0.012825 0.016575 0.001373 0.000000 -0.010898 0.000000
# 3 -0.004806 0.001373 0.010444 0.000000 -0.004194 0.000000
# 4 0.000000 0.000000 0.000000 0.024449 0.000000 -0.001618
# 5 0.019143 -0.010898 -0.004194 0.000000 0.047443 0.000000
# 6 0.000000 0.000000 0.000000 -0.001618 0.000000 0.048496
#
#
# Mechanical properties :
#
#
# Convention : Reuss Voigt Hill
#
# Bulk Modulus (GPa) = 46.55807 47.50917 47.03362
# Shear Modulus (GPa) = 23.35784 31.79314 27.57549
#
# Velocity S-wave (km/s) = 3.25967 3.80298 3.54176
# Velocity P-wave (km/s) = 5.94529 6.39495 6.17421
#
# Compressibility (1/GPa) = 0.02147855
#
# Stress axis : x y z
#
# Youngs Moduli (GPa) = 37.06936 60.33152 95.74531
#
# Poissons Ratio (x) = 0.77375 0.46018
# Poissons Ratio (y) = 0.47541 -0.13142
# Poissons Ratio (z) = 0.17817 -0.08281
#
# Static dielectric constant tensor:
#      x y z
#    x 3.934460 0.000000 0.022610 
#    y 0.000000 4.471060 0.000000 
#    z 0.022610 0.000000 4.079020 
# 
# 
# High freq. dielectric constant tensor:
#      x y z
#    x 1.857330 0.000000 -0.000730 
#    y 0.000000 1.870050 0.000000 
#    z -0.000730 0.000000 1.872120 
# 
# From -- ./inp_files/9050.got.cif
#   From: 2010.06.25/outbox.cif.g09.slc.cpg/sg15_5_cif.got.tgz:9050.got - 2010.06.28 07:06:18.
