data_PCOD8138862
_publ_section_title
;
Structure prediction by ZEFSAII (Michael W. Deem and Ramdas Pophale) SiO2 
 PCOD8138862
Probable space group: C 2/C
;
_chemical_formula_sum "Si O2"
_cell_formula_units_Z 64
_cell_length_a 8.492306
_cell_length_b 32.417058
_cell_length_c 14.450342
_cell_angle_alpha 90.000000
_cell_angle_beta 132.902321
_cell_angle_gamma 90.000000
_cell_volume 2914.030359
_symmetry_space_group_name_H-M "C 2/C"
_symmetry_group_IT_number 15
_symmetry_cell_setting 'monoclinic'
loop_
_space_group_symop_operation_xyz
x,y,z
-x,y,1/2-z
-x,-y,-z
x,-y,1/2+z
1/2+x,1/2+y,z
1/2-x,1/2+y,1/2-z
1/2-x,1/2-y,-z
1/2+x,1/2-y,1/2+z
loop_
_atom_site_type_symbol
_atom_site_label
_atom_site_fract_x
_atom_site_fract_y
_atom_site_fract_z
Si Si1 0.779485 0.333895 0.196856
Si Si2 0.214565 0.895317 0.008758
Si Si3 0.600041 0.017753 0.892900
Si Si4 0.543870 0.806054 0.912566
Si Si5 0.140187 0.374510 0.081249
Si Si6 0.083405 0.830424 0.682955
Si Si7 0.722619 0.537177 0.882927
Si Si8 0.041666 0.225131 0.005344
O O1 0.755603 0.373372 0.121643
O O2 0.767395 0.351475 0.293898
O O3 0.000000 0.312051 0.250000
O O4 0.593489 0.299970 0.124595
O O5 0.229958 0.943993 0.038835
O O6 0.390104 0.885290 0.999785
O O7 0.988270 0.876859 0.878433
O O8 0.500000 0.008183 0.750000
O O9 0.402172 0.025935 0.880522
O O10 0.732706 0.980586 0.995279
O O11 0.338616 0.824664 0.777564
O O12 0.702587 0.782429 0.906101
O O13 0.664913 0.844870 0.003878
O O14 0.483531 0.773440 0.970867
O O15 0.283248 0.413601 0.110484
O O16 0.973683 0.794507 0.576529
O O17 0.000000 0.820680 0.750000
O O18 0.500000 0.520557 0.750000
#
# Coordination Sequence:
#
# PCOD8138862 Si02
#       8
#     8   8   8   8   8   8   8   8
#     4   9  19  37  63  94 117 164 220 264 308 380
#     4   9  18  39  63  91 122 161 209 259 320 369
#     4  10  21  43  70  96 136 171 211 271 332 402
#     4  11  24  41  60  89 129 168 210 266 327 387
#     4  10  20  38  62  88 123 164 211 257 319 381
#     4  11  22  41  63  91 125 165 219 274 317 380
#     4  10  23  40  65 101 132 166 218 269 325 406
#     4  10  25  41  59  89 127 170 214 266 330 383
#
# _framework density 21.962709
#
# number of rings (size 3 to 8) (size 9 to 14) (size 15 to 20)
#    0.000    2.000    1.250    2.250    3.500    2.000 
#    2.250    1.250    0.000    0.000    0.000    0.000 
#    0.000    0.000    0.000    0.000    0.000    0.000 
#
# Total GULP energy -396523.859745 kJ/mol
# GULP energy per Si atom -12391.370617 kJ/mol
# Density = 2.191272 g / cm^3
# Si number density = 21.962709 Si / 1000 Ang^3
#
#
#
# Elastic Constant Matrix: (Units=GPa)
#
#
# Indices 1 2 3 4 5 6 
#
# 1 28.0789 3.5973 31.4201 0.0000 9.0107 0.0000
# 2 3.5973 77.0547 60.0647 0.0000 5.9009 0.0000
# 3 31.4201 60.0647 144.2510 0.0000 3.9418 0.0000
# 4 0.0000 0.0000 0.0000 12.0919 0.0000 11.4375
# 5 9.0107 5.9009 3.9418 0.0000 39.3343 0.0000
# 6 0.0000 0.0000 0.0000 11.4375 0.0000 20.9147
#
#
#
# Elastic Compliance Matrix: (Units=1/GPa)
#
#
# Indices 1 2 3 4 5 6 
#
# 1 0.057288 0.011518 -0.016915 0.000000 -0.013156 0.000000
# 2 0.011518 0.021703 -0.011416 0.000000 -0.004750 0.000000
# 3 -0.016915 -0.011416 0.015259 0.000000 0.004058 0.000000
# 4 0.000000 0.000000 0.000000 0.171317 0.000000 -0.093687
# 5 -0.013156 -0.004750 0.004058 0.000000 0.028743 0.000000
# 6 0.000000 0.000000 0.000000 -0.093687 0.000000 0.099047
#
#
# Mechanical properties :
#
#
# Convention : Reuss Voigt Hill
#
# Bulk Modulus (GPa) = 16.49491 48.83876 32.66683
# Shear Modulus (GPa) = 11.18095 24.75501 17.96798
#
# Velocity S-wave (km/s) = 2.25875 3.36093 2.86337
# Velocity P-wave (km/s) = 3.78541 6.11118 5.08310
#
# Compressibility (1/GPa) = 0.06062476
#
# Stress axis : x y z
#
# Youngs Moduli (GPa) = 17.45578 46.07761 65.53447
#
# Poissons Ratio (x) = -0.53073 1.10849
# Poissons Ratio (y) = -0.20106 0.74812
# Poissons Ratio (z) = 0.29526 0.52601
#
# Static dielectric constant tensor:
#      x y z
#    x 3.830940 0.000000 0.103090 
#    y 0.000000 4.016030 0.000000 
#    z 0.103090 0.000000 4.200610 
# 
# 
# High freq. dielectric constant tensor:
#      x y z
#    x 1.850820 0.000000 -0.000160 
#    y 0.000000 1.851580 0.000000 
#    z -0.000160 0.000000 1.871990 
# 
# From -- ./inp_files/139866.got.cif
#   From: 2010.06.25/outbox.cif.g09.slc.cpg/sg15_70_cif.got.tgz:139866.got - 2010.06.28 07:06:18.
