data_PCOD8138622
_publ_section_title
;
Structure prediction by ZEFSAII (Michael W. Deem and Ramdas Pophale) SiO2 
 PCOD8138622
Probable space group: C 2/C
;
_chemical_formula_sum "Si O2"
_cell_formula_units_Z 48
_cell_length_a 6.891619
_cell_length_b 14.387106
_cell_length_c 22.780701
_cell_angle_alpha 90.000000
_cell_angle_beta 58.267650
_cell_angle_gamma 90.000000
_cell_volume 1921.070926
_symmetry_space_group_name_H-M "C 2/C"
_symmetry_group_IT_number 15
_symmetry_cell_setting 'monoclinic'
loop_
_space_group_symop_operation_xyz
x,y,z
-x,y,1/2-z
-x,-y,-z
x,-y,1/2+z
1/2+x,1/2+y,z
1/2-x,1/2+y,1/2-z
1/2-x,1/2-y,-z
1/2+x,1/2-y,1/2+z
loop_
_atom_site_type_symbol
_atom_site_label
_atom_site_fract_x
_atom_site_fract_y
_atom_site_fract_z
Si Si1 0.056019 0.788804 0.969085
Si Si2 0.828983 0.091946 0.416066
Si Si3 0.690893 0.464176 0.769768
Si Si4 0.945213 0.657434 0.148935
Si Si5 0.902799 0.158368 0.703606
Si Si6 0.285753 0.609930 0.947047
O O1 0.293065 0.815167 0.899514
O O2 0.057468 0.676588 0.982333
O O3 0.853686 0.820870 0.957607
O O4 0.040206 0.846244 0.032525
O O5 0.638583 0.112899 0.398039
O O6 0.080003 0.076304 0.347138
O O7 0.743897 0.999843 0.465731
O O8 0.500000 0.454915 0.750000
O O9 0.914871 0.410450 0.710143
O O10 0.772396 0.572126 0.762518
O O11 0.800041 0.751900 0.186451
O O12 0.000000 0.193562 0.750000
O O13 0.111324 0.113318 0.634178
#
# Coordination Sequence:
#
# PCOD8138622 Si02
#       6
#     8   8   8   8   8   8
#     4  10  21  38  63  84 118 161 196 243 296 362
#     4  10  20  38  59  82 122 155 188 252 298 342
#     4   8  17  34  55  82 114 146 191 238 291 345
#     4  10  21  35  61  91 113 148 209 238 290 368
#     4   9  18  35  61  78 116 154 183 247 293 339
#     4   9  20  39  59  89 117 155 203 236 302 360
#
# _framework density 24.986062
#
# number of rings (size 3 to 8) (size 9 to 14) (size 15 to 20)
#    0.000    2.667    0.000    1.500    4.667    0.667 
#    0.000   12.500   22.000    0.000    0.000    0.000 
#    0.000    0.000    0.000    0.000    0.000    0.000 
#
# Total GULP energy -297389.148788 kJ/mol
# GULP energy per Si atom -12391.214533 kJ/mol
# Density = 2.492919 g / cm^3
# Si number density = 24.986062 Si / 1000 Ang^3
#
#
#
# Elastic Constant Matrix: (Units=GPa)
#
#
# Indices 1 2 3 4 5 6 
#
# 1 33.6746 -18.2725 -4.8782 -0.0007 6.4139 0.0019
# 2 -18.2725 164.3942 17.2783 -0.0005 15.2901 0.0010
# 3 -4.8782 17.2783 79.4568 0.0006 9.0176 -0.0005
# 4 -0.0007 -0.0005 0.0006 49.3532 -0.0001 12.9867
# 5 6.4139 15.2901 9.0176 -0.0001 38.0926 -0.0007
# 6 0.0019 0.0010 -0.0005 12.9867 -0.0007 17.0934
#
#
#
# Elastic Compliance Matrix: (Units=1/GPa)
#
#
# Indices 1 2 3 4 5 6 
#
# 1 0.033817 0.004278 0.002042 0.000002 -0.007895 -0.000006
# 2 0.004278 0.006958 -0.000875 0.000000 -0.003306 -0.000001
# 3 0.002042 -0.000875 0.013256 0.000000 -0.003131 0.000000
# 4 0.000002 0.000000 0.000000 0.025325 -0.000001 -0.019241
# 5 -0.007895 -0.003306 -0.003131 -0.000001 0.029649 0.000003
# 6 -0.000006 -0.000001 0.000000 -0.019241 0.000003 0.073120
#
#
# Mechanical properties :
#
#
# Convention : Reuss Voigt Hill
#
# Bulk Modulus (GPa) = 15.40322 29.53121 22.46721
# Shear Modulus (GPa) = 25.92332 39.80104 32.86218
#
# Velocity S-wave (km/s) = 3.22454 3.99548 3.63053
# Velocity P-wave (km/s) = 4.47679 5.75586 5.15614
#
# Compressibility (1/GPa) = 0.06492151
#
# Stress axis : x y z
#
# Youngs Moduli (GPa) = 29.57092 143.72002 75.43518
#
# Poissons Ratio (x) = -0.61490 -0.15402
# Poissons Ratio (y) = -0.12652 0.06602
# Poissons Ratio (z) = -0.06038 0.12578
#
# Static dielectric constant tensor:
#      x y z
#    x 3.728230 0.000000 0.014870 
#    y 0.000000 5.094900 0.000000 
#    z 0.014870 0.000000 4.807860 
# 
# 
# High freq. dielectric constant tensor:
#      x y z
#    x 1.947350 0.000000 0.006030 
#    y 0.000000 2.014530 0.000000 
#    z 0.006030 0.000000 2.015350 
# 
# From -- ./inp_files/263865.got.cif
#   From: 2010.06.25/outbox.cif.g09.slc.cpg/sg15_132_cif.got.tgz:263865.got - 2010.06.28 07:06:18.
