data_PCOD8138984
_publ_section_title
;
Structure prediction by ZEFSAII (Michael W. Deem and Ramdas Pophale) SiO2 
 PCOD8138984
Probable space group: C 2/C
;
_chemical_formula_sum "Si O2"
_cell_formula_units_Z 60
_cell_length_a 21.798670
_cell_length_b 22.222077
_cell_length_c 8.626829
_cell_angle_alpha 90.000000
_cell_angle_beta 41.567315
_cell_angle_gamma 90.000000
_cell_volume 2772.722741
_symmetry_space_group_name_H-M "C 2/C"
_symmetry_group_IT_number 15
_symmetry_cell_setting 'monoclinic'
loop_
_space_group_symop_operation_xyz
x,y,z
-x,y,1/2-z
-x,-y,-z
x,-y,1/2+z
1/2+x,1/2+y,z
1/2-x,1/2+y,1/2-z
1/2-x,1/2-y,-z
1/2+x,1/2-y,1/2+z
loop_
_atom_site_type_symbol
_atom_site_label
_atom_site_fract_x
_atom_site_fract_y
_atom_site_fract_z
Si Si1 0.748784 0.685004 0.156467
Si Si2 0.278990 0.490032 0.607984
Si Si3 0.676401 0.924801 0.535261
Si Si4 0.987332 0.166331 0.457673
Si Si5 0.896056 0.722357 0.661418
Si Si6 0.222076 0.181210 0.550213
Si Si7 0.000000 0.371781 0.750000
Si Si8 0.635227 0.579809 0.283281
O O1 0.688909 0.746719 0.270403
O O2 0.745961 0.657566 0.333162
O O3 0.705752 0.635415 0.121489
O O4 0.853728 0.696975 0.902879
O O5 0.206144 0.452401 0.643754
O O6 0.349585 0.528720 0.372405
O O7 0.346853 0.448109 0.580995
O O8 0.214705 0.533102 0.829179
O O9 0.717847 0.857399 0.442860
O O10 0.566326 0.916127 0.723571
O O11 0.882157 0.167610 0.706892
O O12 0.000000 0.159851 0.250000
O O13 0.026815 0.228981 0.444861
O O14 0.033035 0.108452 0.456890
O O15 0.940897 0.669032 0.478682
O O16 0.250000 0.250000 0.500000
#
# Coordination Sequence:
#
# PCOD8138984 Si02
#       8
#     8   8   8   8   8   8   4   8
#     4  10  20  38  63  93 128 180 210 263 336 397
#     4  10  22  45  69  94 133 183 227 277 333 410
#     4  11  24  43  68  96 132 176 229 276 349 396
#     4  11  23  39  63 100 137 174 223 273 333 400
#     4  10  21  37  62  96 137 169 215 268 332 406
#     4  12  23  40  67  98 135 176 221 272 340 408
#     4  12  24  42  68 106 128 168 222 294 336 404
#     4  10  21  41  67  93 133 174 227 276 331 398
#
# _framework density 21.639381
#
# number of rings (size 3 to 8) (size 9 to 14) (size 15 to 20)
#    0.000    1.333    1.333    4.800    0.000    4.267 
#    0.000    7.333    0.000    0.000    0.000    0.000 
#    0.000    0.000    0.000    0.000    0.000    0.000 
#
# Total GULP energy -371950.696262 kJ/mol
# GULP energy per Si atom -12398.356542 kJ/mol
# Density = 2.159013 g / cm^3
# Si number density = 21.639381 Si / 1000 Ang^3
#
#
#
# Elastic Constant Matrix: (Units=GPa)
#
#
# Indices 1 2 3 4 5 6 
#
# 1 126.3452 56.9648 58.0905 0.0000 -5.0761 0.0000
# 2 56.9648 121.0202 37.7298 0.0000 -4.8238 0.0000
# 3 58.0905 37.7298 126.9138 0.0000 -3.1753 0.0000
# 4 0.0000 0.0000 0.0000 -10.5903 0.0000 -10.3678
# 5 -5.0761 -4.8238 -3.1753 0.0000 37.4474 0.0000
# 6 0.0000 0.0000 0.0000 -10.3678 0.0000 36.2640
#
#
#
# Elastic Compliance Matrix: (Units=1/GPa)
#
#
# Indices 1 2 3 4 5 6 
#
# 1 0.011727 -0.004215 -0.004097 0.000000 0.000699 0.000000
# 2 -0.004215 0.010655 -0.001221 0.000000 0.000698 0.000000
# 3 -0.004097 -0.001221 0.010121 0.000000 0.000146 0.000000
# 4 0.000000 0.000000 0.000000 -0.073777 0.000000 -0.021093
# 5 0.000699 0.000698 0.000146 0.000000 0.026901 0.000000
# 6 0.000000 0.000000 0.000000 -0.021093 0.000000 0.021545
#
#
# Mechanical properties :
#
#
# Convention : Reuss Voigt Hill
#
# Bulk Modulus (GPa) = 74.41685 75.53882 74.97783
# Shear Modulus (GPa) = 162.76681 27.39049 95.07865
#
# Velocity S-wave (km/s) = 8.68223 3.56163 6.63575
# Velocity P-wave (km/s) = 11.61776 7.20398 9.66617
#
# Compressibility (1/GPa) = 0.01343782
#
# Stress axis : x y z
#
# Youngs Moduli (GPa) = 85.27351 93.84831 98.80091
#
# Poissons Ratio (x) = 0.39554 0.40480
# Poissons Ratio (y) = 0.35940 0.12065
# Poissons Ratio (z) = 0.34938 0.11460
#
# Static dielectric constant tensor:
#      x y z
#    x 4.159460 0.000000 0.086880 
#    y 0.000000 4.131230 0.000000 
#    z 0.086880 0.000000 3.754200 
# 
# 
# High freq. dielectric constant tensor:
#      x y z
#    x 1.854600 0.000000 0.005740 
#    y 0.000000 1.866710 0.000000 
#    z 0.005740 0.000000 1.839110 
# 
# From -- ./inp_files/58747.got.cif
#   From: 2010.06.25/outbox.cif.g09.slc.cpg/sg15_30_cif.got.tgz:58747.got - 2010.06.28 07:06:18.
