data_PCOD8138139
_publ_section_title
;
Structure prediction by ZEFSAII (Michael W. Deem and Ramdas Pophale) SiO2 
 PCOD8138139
Probable space group: C 2/C
;
_chemical_formula_sum "Si O2"
_cell_formula_units_Z 64
_cell_length_a 26.356999
_cell_length_b 12.891697
_cell_length_c 8.678035
_cell_angle_alpha 90.000000
_cell_angle_beta 89.229869
_cell_angle_gamma 90.000000
_cell_volume 2948.412298
_symmetry_space_group_name_H-M "C 2/C"
_symmetry_group_IT_number 15
_symmetry_cell_setting 'monoclinic'
loop_
_space_group_symop_operation_xyz
x,y,z
-x,y,1/2-z
-x,-y,-z
x,-y,1/2+z
1/2+x,1/2+y,z
1/2-x,1/2+y,1/2-z
1/2-x,1/2-y,-z
1/2+x,1/2-y,1/2+z
loop_
_atom_site_type_symbol
_atom_site_label
_atom_site_fract_x
_atom_site_fract_y
_atom_site_fract_z
Si Si1 0.293134 0.264711 0.871183
Si Si2 0.474096 0.408201 0.591031
Si Si3 0.108657 0.949679 0.326708
Si Si4 0.880482 0.633046 0.018413
Si Si5 0.179159 0.014124 0.080733
Si Si6 0.030531 0.237580 0.891552
Si Si7 0.838970 0.454195 0.828090
Si Si8 0.278009 0.105700 0.617662
O O1 0.300101 0.385472 0.827936
O O2 0.276870 0.214434 0.708211
O O3 0.250000 0.250000 0.000000
O O4 0.344555 0.216767 0.938301
O O5 0.500000 0.390819 0.750000
O O6 0.500000 0.500000 0.500000
O O7 0.416021 0.440124 0.621739
O O8 0.483785 0.302925 0.497309
O O9 0.161291 0.937480 0.418324
O O10 0.069423 0.854635 0.340117
O O11 0.128030 0.962708 0.151923
O O12 0.938029 0.675421 0.017758
O O13 0.866065 0.617437 0.199756
O O14 0.878965 0.528174 0.917287
O O15 0.222350 0.927726 0.063534
O O16 0.000000 0.286501 0.750000
O O17 0.797368 0.521529 0.740228
O O18 0.812679 0.385395 0.963028
#
# Coordination Sequence:
#
# PCOD8138139 Si02
#       8
#     8   8   8   8   8   8   8   8
#     4  11  22  39  60  88 127 168 210 257 311 374
#     4  10  20  37  60  84 125 169 200 247 319 373
#     4  11  21  37  59  89 129 163 202 254 310 377
#     4  10  21  40  68  88 121 163 214 260 318 384
#     4  12  22  37  59  92 124 167 212 253 306 368
#     4  11  22  41  61  93 124 166 207 263 324 377
#     4   9  19  41  63  86 119 166 207 257 325 364
#     4  10  21  38  60  88 127 166 204 258 313 375
#
# _framework density 21.706596999999999
#
# number of rings (size 3 to 8) (size 9 to 14) (size 15 to 20)
#    0.000    1.500    1.250    7.500    0.000    0.000 
#    4.500    5.000    0.000    0.000    0.000    0.000 
#    0.000    0.000    0.000    0.000    0.000    0.000 
#
# Total GULP energy -396602.590561 kJ/mol
# GULP energy per Si atom -12393.830955 kJ/mol
# Density = 2.165719 g / cm^3
# Si number density = 21.706597 Si / 1000 Ang^3
#
#
#
# Elastic Constant Matrix: (Units=GPa)
#
#
# Indices 1 2 3 4 5 6 
#
# 1 78.1712 15.2695 1.1365 0.0000 18.6925 0.0000
# 2 15.2695 49.9189 3.3791 0.0000 2.5291 0.0000
# 3 1.1365 3.3791 81.8622 0.0000 9.3301 0.0000
# 4 0.0000 0.0000 0.0000 24.2751 0.0000 5.8927
# 5 18.6925 2.5291 9.3301 0.0000 37.5945 0.0000
# 6 0.0000 0.0000 0.0000 5.8927 0.0000 33.8115
#
#
#
# Elastic Compliance Matrix: (Units=1/GPa)
#
#
# Indices 1 2 3 4 5 6 
#
# 1 0.015456 -0.004399 0.000833 0.000000 -0.007596 0.000000
# 2 -0.004399 0.021392 -0.000934 0.000000 0.000980 0.000000
# 3 0.000833 -0.000934 0.012640 0.000000 -0.003488 0.000000
# 4 0.000000 0.000000 0.000000 0.043014 0.000000 -0.007497
# 5 -0.007596 0.000980 -0.003488 0.000000 0.031176 0.000000
# 6 0.000000 0.000000 0.000000 -0.007497 0.000000 0.030882
#
#
# Mechanical properties :
#
#
# Convention : Reuss Voigt Hill
#
# Bulk Modulus (GPa) = 24.69903 27.72474 26.21188
# Shear Modulus (GPa) = 28.23955 31.81403 30.02679
#
# Velocity S-wave (km/s) = 3.61080 3.83252 3.72331
# Velocity P-wave (km/s) = 5.36537 5.69074 5.53045
#
# Compressibility (1/GPa) = 0.04048742
#
# Stress axis : x y z
#
# Youngs Moduli (GPa) = 64.70006 46.74701 79.11277
#
# Poissons Ratio (x) = 0.20565 -0.06588
# Poissons Ratio (y) = 0.28464 0.07386
# Poissons Ratio (z) = -0.05388 0.04364
#
# Static dielectric constant tensor:
#      x y z
#    x 4.087650 0.000000 -0.012830 
#    y 0.000000 3.867040 0.000000 
#    z -0.012830 0.000000 4.153150 
# 
# 
# High freq. dielectric constant tensor:
#      x y z
#    x 1.842560 0.000000 0.011960 
#    y 0.000000 1.824270 0.000000 
#    z 0.011960 0.000000 1.868540 
# 
# From -- ./inp_files/61925.got.cif
#   From: 2010.06.25/outbox.cif.g09.slc.cpg/sg15_31_cif.got.tgz:61925.got - 2010.06.28 07:06:18.
