data_PCOD8138027
_publ_section_title
;
Structure prediction by ZEFSAII (Michael W. Deem and Ramdas Pophale) SiO2 
 PCOD8138027
Probable space group: C 2/C
;
_chemical_formula_sum "Si O2"
_cell_formula_units_Z 40
_cell_length_a 12.318392
_cell_length_b 13.943774
_cell_length_c 22.967693
_cell_angle_alpha 90.000000
_cell_angle_beta 30.034994
_cell_angle_gamma 90.000000
_cell_volume 1974.607748
_symmetry_space_group_name_H-M "C 2/C"
_symmetry_group_IT_number 15
_symmetry_cell_setting 'monoclinic'
loop_
_space_group_symop_operation_xyz
x,y,z
-x,y,1/2-z
-x,-y,-z
x,-y,1/2+z
1/2+x,1/2+y,z
1/2-x,1/2+y,1/2-z
1/2-x,1/2-y,-z
1/2+x,1/2-y,1/2+z
loop_
_atom_site_type_symbol
_atom_site_label
_atom_site_fract_x
_atom_site_fract_y
_atom_site_fract_z
Si Si1 0.620634 0.097135 0.549784
Si Si2 0.160285 0.124976 0.722178
Si Si3 0.219796 0.113226 0.519816
Si Si4 0.320415 0.243762 0.879463
Si Si5 0.367431 0.744412 0.039453
O O1 0.386307 0.071134 0.630427
O O2 0.587094 0.157007 0.624475
O O3 0.771784 0.159882 0.437762
O O4 0.744367 0.999026 0.504229
O O5 0.224557 0.227856 0.662800
O O6 0.000000 0.069932 0.750000
O O7 0.025605 0.137436 0.844209
O O8 0.385488 0.160862 0.489390
O O9 0.249662 0.160052 0.442307
O O10 0.500000 0.272944 0.750000
O O11 0.102656 0.207967 0.949127
#
# Coordination Sequence:
#
# PCOD8138027 Si02
#       5
#     8   8   8   8   8
#     4  10  22  37  57  85 109 140 189 226 266 328
#     4   9  19  36  56  78 110 143 178 222 271 321
#     4  10  20  37  57  81 112 144 182 227 267 322
#     4  10  21  38  57  81 114 145 177 227 277 319
#     4   9  20  36  56  80 111 145 181 220 272 329
#
# _framework density 20.257187999999999
#
# number of rings (size 3 to 8) (size 9 to 14) (size 15 to 20)
#    0.000    2.400    0.000    1.200    0.000   12.000 
#    0.000   15.000    0.000    0.000    0.000    0.000 
#    0.000    0.000    0.000    0.000    0.000    0.000 
#
# Total GULP energy -247869.815380 kJ/mol
# GULP energy per Si atom -12393.490769 kJ/mol
# Density = 2.021108 g / cm^3
# Si number density = 20.257188 Si / 1000 Ang^3
#
#
#
# Elastic Constant Matrix: (Units=GPa)
#
#
# Indices 1 2 3 4 5 6 
#
# 1 78.8678 43.1604 39.1991 -0.0048 -9.8572 -0.0034
# 2 43.1604 122.7748 39.8063 0.0006 2.0901 -0.0017
# 3 39.1991 39.8063 113.8789 -0.0184 -0.3277 -0.0017
# 4 -0.0048 0.0006 -0.0184 10.8971 0.0018 -4.2480
# 5 -9.8572 2.0901 -0.3277 0.0018 34.9320 0.0020
# 6 -0.0034 -0.0017 -0.0017 -4.2480 0.0020 15.7271
#
#
#
# Elastic Compliance Matrix: (Units=1/GPa)
#
#
# Indices 1 2 3 4 5 6 
#
# 1 0.018403 -0.005091 -0.004540 0.000001 0.005455 0.000002
# 2 -0.005091 0.010606 -0.001961 -0.000006 -0.002089 -0.000002
# 3 -0.004540 -0.001961 0.011026 0.000019 -0.001060 0.000005
# 4 0.000001 -0.000006 0.000019 0.102567 -0.000006 0.027704
# 5 0.005455 -0.002089 -0.001060 -0.000006 0.030281 -0.000005
# 6 0.000002 -0.000002 0.000005 0.027704 -0.000005 0.071068
#
#
# Mechanical properties :
#
#
# Convention : Reuss Voigt Hill
#
# Bulk Modulus (GPa) = 59.33631 62.20589 60.77110
# Shear Modulus (GPa) = 18.33166 25.20164 21.76665
#
# Velocity S-wave (km/s) = 3.01150 3.53098 3.28154
# Velocity P-wave (km/s) = 6.43795 6.88466 6.66505
#
# Compressibility (1/GPa) = 0.01685309
#
# Stress axis : x y z
#
# Youngs Moduli (GPa) = 54.33796 94.28702 90.69212
#
# Poissons Ratio (x) = 0.47997 0.41171
# Poissons Ratio (y) = 0.27661 0.17785
# Poissons Ratio (z) = 0.24668 0.18490
#
# Static dielectric constant tensor:
#      x y z
#    x 3.871970 0.000000 -0.036380 
#    y 0.000000 3.270220 0.000000 
#    z -0.036380 0.000000 3.706020 
# 
# 
# High freq. dielectric constant tensor:
#      x y z
#    x 1.802510 0.000000 -0.001920 
#    y 0.000000 1.754690 0.000000 
#    z -0.001920 0.000000 1.789590 
# 
# From -- ./inp_files/118673.got.cif
#   From: 2010.06.25/outbox.cif.g09.slc.cpg/sg15_60_cif.got.tgz:118673.got - 2010.06.28 07:06:18.
