data_PCOD8138552
_publ_section_title
;
Structure prediction by ZEFSAII (Michael W. Deem and Ramdas Pophale) SiO2 
 PCOD8138552
Probable space group: C 2/C
;
_chemical_formula_sum "Si O2"
_cell_formula_units_Z 60
_cell_length_a 25.867577
_cell_length_b 14.463444
_cell_length_c 20.410415
_cell_angle_alpha 90.000000
_cell_angle_beta 158.361649
_cell_angle_gamma 90.000000
_cell_volume 2815.837475
_symmetry_space_group_name_H-M "C 2/C"
_symmetry_group_IT_number 15
_symmetry_cell_setting 'monoclinic'
loop_
_space_group_symop_operation_xyz
x,y,z
-x,y,1/2-z
-x,-y,-z
x,-y,1/2+z
1/2+x,1/2+y,z
1/2-x,1/2+y,1/2-z
1/2-x,1/2-y,-z
1/2+x,1/2-y,1/2+z
loop_
_atom_site_type_symbol
_atom_site_label
_atom_site_fract_x
_atom_site_fract_y
_atom_site_fract_z
Si Si1 0.710943 0.664663 0.911109
Si Si2 0.847678 0.077291 0.261921
Si Si3 0.148115 0.703095 0.230042
Si Si4 0.500000 0.573168 0.750000
Si Si5 0.176013 0.937650 0.150299
Si Si6 0.154090 0.525479 0.916798
Si Si7 0.670659 0.252174 0.669870
Si Si8 0.232069 0.512263 0.373548
O O1 0.687384 0.699001 0.809486
O O2 0.563043 0.632733 0.765429
O O3 0.750000 0.750000 0.000000
O O4 0.827265 0.584664 0.050460
O O5 0.823398 0.181167 0.260063
O O6 0.010846 0.056315 0.440608
O O7 0.789981 0.998400 0.244515
O O8 0.766911 0.074327 0.097347
O O9 0.268930 0.684075 0.317842
O O10 0.163041 0.614796 0.295539
O O11 0.985852 0.711124 0.018000
O O12 0.390785 0.509627 0.584584
O O13 0.216764 0.830456 0.202167
O O14 0.275704 0.972804 0.208540
O O15 0.162530 0.550071 0.848913
O O16 0.000000 0.560270 0.750000
#
# Coordination Sequence:
#
# PCOD8138552 Si02
#       8
#     8   8   8   4   8   8   8   8
#     4  11  22  33  59  93 137 172 214 276 350 425
#     4  11  25  47  70 101 143 184 229 289 355 423
#     4  12  24  40  63 102 139 178 226 289 348 418
#     4  10  20  38  56  92 132 180 218 272 350 430
#     4  11  24  45  73 101 134 185 234 292 348 412
#     4  11  26  42  64  98 138 184 227 286 348 415
#     4  12  26  44  70 101 137 182 234 286 351 413
#     4  11  23  40  67  96 135 177 233 286 347 413
#
# _framework density 21.308049
#
# number of rings (size 3 to 8) (size 9 to 14) (size 15 to 20)
#    0.000    0.800    5.333    3.200    6.533    1.600 
#    0.000    0.667    1.467    0.000    0.000    0.000 
#    0.000    0.000    0.000    0.000    0.000    0.000 
#
# Total GULP energy -371672.125274 kJ/mol
# GULP energy per Si atom -12389.070842 kJ/mol
# Density = 2.125955 g / cm^3
# Si number density = 21.308049 Si / 1000 Ang^3
#
#
#
# Elastic Constant Matrix: (Units=GPa)
#
#
# Indices 1 2 3 4 5 6 
#
# 1 124.2647 11.3649 16.8782 -0.0004 4.4131 -0.0003
# 2 11.3649 66.0050 6.3649 0.0002 -7.3004 -0.0004
# 3 16.8782 6.3649 74.9175 -0.0002 10.5654 -0.0007
# 4 -0.0004 0.0002 -0.0002 0.4614 -0.0004 9.8012
# 5 4.4131 -7.3004 10.5654 -0.0004 34.0079 -0.0002
# 6 -0.0003 -0.0004 -0.0007 9.8012 -0.0002 24.5228
#
#
#
# Elastic Compliance Matrix: (Units=1/GPa)
#
#
# Indices 1 2 3 4 5 6 
#
# 1 0.008431 -0.001389 -0.001658 -0.000001 -0.000877 0.000000
# 2 -0.001389 0.016002 -0.001628 0.000001 0.004121 0.000000
# 3 -0.001658 -0.001628 0.014515 0.000001 -0.004644 0.000000
# 4 -0.000001 0.000001 0.000001 -0.289360 -0.000002 0.115650
# 5 -0.000877 0.004121 -0.004644 -0.000002 0.031846 0.000001
# 6 0.000000 0.000000 0.000000 0.115650 0.000001 -0.005444
#
#
# Mechanical properties :
#
#
# Convention : Reuss Voigt Hill
#
# Bulk Modulus (GPa) = 33.78490 37.15592 35.47041
# Shear Modulus (GPa) = -24.41462 27.17037 1.37788
#
# Velocity S-wave (km/s) = -3.38863 3.57476 0.80502
# Velocity P-wave (km/s) = 0.76124 5.87485 4.18888
#
# Compressibility (1/GPa) = 0.02959902
#
# Stress axis : x y z
#
# Youngs Moduli (GPa) = 118.61480 62.49110 68.89591
#
# Poissons Ratio (x) = 0.08679 0.11421
# Poissons Ratio (y) = 0.16473 0.11215
# Poissons Ratio (z) = 0.19662 0.10173
#
# Static dielectric constant tensor:
#      x y z
#    x 4.339720 0.000000 0.061050 
#    y 0.000000 3.703700 0.000000 
#    z 0.061050 0.000000 3.732620 
# 
# 
# High freq. dielectric constant tensor:
#      x y z
#    x 1.853690 0.000000 0.005310 
#    y 0.000000 1.813390 0.000000 
#    z 0.005310 0.000000 1.827710 
# 
# From -- ./inp_files/257870.got.cif
#   From: 2010.06.25/outbox.cif.g09.slc.cpg/sg15_129_cif.got.tgz:257870.got - 2010.06.28 07:06:18.
