data_PCOD8138422
_publ_section_title
;
Structure prediction by ZEFSAII (Michael W. Deem and Ramdas Pophale) SiO2 
 PCOD8138422
Probable space group: C 2/C
;
_chemical_formula_sum "Si O2"
_cell_formula_units_Z 64
_cell_length_a 20.106269
_cell_length_b 9.081196
_cell_length_c 26.202278
_cell_angle_alpha 90.000000
_cell_angle_beta 137.667493
_cell_angle_gamma 90.000000
_cell_volume 3221.865168
_symmetry_space_group_name_H-M "C 2/C"
_symmetry_group_IT_number 15
_symmetry_cell_setting 'monoclinic'
loop_
_space_group_symop_operation_xyz
x,y,z
-x,y,1/2-z
-x,-y,-z
x,-y,1/2+z
1/2+x,1/2+y,z
1/2-x,1/2+y,1/2-z
1/2-x,1/2-y,-z
1/2+x,1/2-y,1/2+z
loop_
_atom_site_type_symbol
_atom_site_label
_atom_site_fract_x
_atom_site_fract_y
_atom_site_fract_z
Si Si1 0.850867 0.070273 0.284432
Si Si2 0.768108 0.761316 0.203139
Si Si3 0.111953 0.816714 0.804277
Si Si4 0.140611 0.464081 0.386970
Si Si5 0.710083 0.718084 0.060339
Si Si6 0.519528 0.817275 0.703061
Si Si7 0.772251 0.019137 0.049123
Si Si8 0.949006 0.929909 0.088935
O O1 0.791405 0.170626 0.289174
O O2 0.869519 0.170695 0.245315
O O3 0.789719 0.924356 0.235882
O O4 0.953792 0.023457 0.370289
O O5 0.705731 0.774345 0.115813
O O6 0.865929 0.668563 0.245578
O O7 0.125561 0.653198 0.833585
O O8 0.000000 0.875071 0.750000
O O9 0.199209 0.910499 0.880725
O O10 0.208597 0.592674 0.402569
O O11 0.186467 0.400761 0.466286
O O12 0.032347 0.527345 0.338868
O O13 0.736358 0.851856 0.037188
O O14 0.600101 0.654265 0.987005
O O15 0.500000 0.771197 0.750000
O O16 0.473396 0.686422 0.645713
O O17 0.868156 0.036451 0.067889
#
# Coordination Sequence:
#
# PCOD8138422 Si02
#       8
#     8   8   8   8   8   8   8   8
#     4  11  26  43  63  90 129 173 222 264 323 378
#     4  11  25  40  65  89 127 174 215 269 314 383
#     4  12  25  39  63  95 133 167 207 266 328 373
#     4  11  22  35  63  99 133 159 205 263 313 396
#     4  11  20  39  69  94 125 168 216 260 316 388
#     4  11  19  35  63  96 121 158 210 264 309 370
#     4  11  19  40  64 100 127 165 208 262 327 379
#     4  10  20  37  64  94 123 162 212 262 310 387
#
# _framework density 19.864270000000001
#
# number of rings (size 3 to 8) (size 9 to 14) (size 15 to 20)
#    0.000    1.000    6.250    1.500    3.500    0.500 
#    0.000    0.000    0.000    3.750    0.000    0.000 
#    0.000    0.000    0.000    0.000    0.000    0.000 
#
# Total GULP energy -396650.534716 kJ/mol
# GULP energy per Si atom -12395.329210 kJ/mol
# Density = 1.981906 g / cm^3
# Si number density = 19.864270 Si / 1000 Ang^3
#
#
#
# Elastic Constant Matrix: (Units=GPa)
#
#
# Indices 1 2 3 4 5 6 
#
# 1 116.4214 39.1404 46.0170 0.0000 -3.0639 0.0000
# 2 39.1404 60.9213 19.1473 0.0000 15.7870 0.0000
# 3 46.0170 19.1473 114.4338 0.0000 11.3437 0.0000
# 4 0.0000 0.0000 0.0000 35.0710 0.0000 -5.5556
# 5 -3.0639 15.7870 11.3437 0.0000 17.3628 0.0000
# 6 0.0000 0.0000 0.0000 -5.5556 0.0000 29.5150
#
#
#
# Elastic Compliance Matrix: (Units=1/GPa)
#
#
# Indices 1 2 3 4 5 6 
#
# 1 0.015900 -0.013168 -0.006047 0.000000 0.018729 0.000000
# 2 -0.013168 0.032722 0.003207 0.000000 -0.034171 0.000000
# 3 -0.006047 0.003207 0.011792 0.000000 -0.011688 0.000000
# 4 0.000000 0.000000 0.000000 0.029390 0.000000 0.005532
# 5 0.018729 -0.034171 -0.011688 0.000000 0.099605 0.000000
# 6 0.000000 0.000000 0.000000 0.005532 0.000000 0.034922
#
#
# Mechanical properties :
#
#
# Convention : Reuss Voigt Hill
#
# Bulk Modulus (GPa) = 35.21310 55.59843 45.40576
# Shear Modulus (GPa) = 18.81029 28.88787 23.84908
#
# Velocity S-wave (km/s) = 3.08058 3.81762 3.46873
# Velocity P-wave (km/s) = 5.51531 6.89073 6.24103
#
# Compressibility (1/GPa) = 0.02839852
#
# Stress axis : x y z
#
# Youngs Moduli (GPa) = 62.89494 30.56083 84.80160
#
# Poissons Ratio (x) = 0.40242 0.51279
# Poissons Ratio (y) = 0.82820 -0.27200
# Poissons Ratio (z) = 0.38032 -0.09802
#
# Static dielectric constant tensor:
#      x y z
#    x 3.423300 0.000000 0.290510 
#    y 0.000000 3.691930 0.000000 
#    z 0.290510 0.000000 4.341290 
# 
# 
# High freq. dielectric constant tensor:
#      x y z
#    x 1.740230 0.000000 0.007940 
#    y 0.000000 1.770330 0.000000 
#    z 0.007940 0.000000 1.803050 
# 
# From -- ./inp_files/279608.got.cif
#   From: 2010.06.25/outbox.cif.g09.slc.cpg/sg15_140_cif.got.tgz:279608.got - 2010.06.28 07:06:18.
