data_PCOD8138623
_publ_section_title
;
Structure prediction by ZEFSAII (Michael W. Deem and Ramdas Pophale) SiO2 
 PCOD8138623
Probable space group: C 2/C
;
_chemical_formula_sum "Si O2"
_cell_formula_units_Z 56
_cell_length_a 10.861106
_cell_length_b 11.318717
_cell_length_c 24.165533
_cell_angle_alpha 90.000000
_cell_angle_beta 69.666010
_cell_angle_gamma 90.000000
_cell_volume 2785.631427
_symmetry_space_group_name_H-M "C 2/C"
_symmetry_group_IT_number 15
_symmetry_cell_setting 'monoclinic'
loop_
_space_group_symop_operation_xyz
x,y,z
-x,y,1/2-z
-x,-y,-z
x,-y,1/2+z
1/2+x,1/2+y,z
1/2-x,1/2+y,1/2-z
1/2-x,1/2-y,-z
1/2+x,1/2-y,1/2+z
loop_
_atom_site_type_symbol
_atom_site_label
_atom_site_fract_x
_atom_site_fract_y
_atom_site_fract_z
Si Si1 0.985790 0.805163 0.914255
Si Si2 0.461425 0.568148 0.872319
Si Si3 0.842060 0.616762 0.868632
Si Si4 0.508316 0.895841 0.685578
Si Si5 0.234976 0.790193 0.155016
Si Si6 0.929213 0.111283 0.536027
Si Si7 0.688218 0.696671 0.788654
O O1 0.130367 0.751364 0.892389
O O2 0.891716 0.732609 0.890159
O O3 0.931141 0.793798 0.985884
O O4 0.982604 0.935354 0.888936
O O5 0.316987 0.591656 0.868911
O O6 0.569957 0.601048 0.808869
O O7 0.491003 0.653073 0.921467
O O8 0.956345 0.516536 0.852614
O O9 0.801874 0.658560 0.813236
O O10 0.716171 0.572121 0.922501
O O11 0.500000 0.934379 0.750000
O O12 0.627945 0.807786 0.658061
O O13 0.372653 0.828732 0.689182
O O14 0.251539 0.810625 0.217949
O O15 0.000000 0.000000 0.500000
#
# Coordination Sequence:
#
# PCOD8138623 Si02
#       7
#     8   8   8   8   8   8   8
#     4  11  23  36  55  90 118 150 190 237 300 347
#     4   9  19  39  61  82 110 153 198 241 286 345
#     4  11  22  37  57  85 122 148 188 240 298 351
#     4   9  19  36  57  79 109 152 192 232 286 347
#     4  10  20  38  59  83 114 150 198 238 287 350
#     4   9  19  39  63  79 108 156 200 240 288 339
#     4   9  20  38  58  83 113 153 196 237 285 349
#
# _framework density 20.103161
#
# number of rings (size 3 to 8) (size 9 to 14) (size 15 to 20)
#    0.000    2.286    0.000    4.286    2.000    1.714 
#    7.714    4.286    0.000   12.857    0.000    0.000 
#    0.000    0.000    0.000    0.000    0.000    0.000 
#
# Total GULP energy -346955.063381 kJ/mol
# GULP energy per Si atom -12391.252264 kJ/mol
# Density = 2.005741 g / cm^3
# Si number density = 20.103161 Si / 1000 Ang^3
#
#
#
# Elastic Constant Matrix: (Units=GPa)
#
#
# Indices 1 2 3 4 5 6 
#
# 1 67.2195 22.2504 8.8971 0.0000 4.3843 0.0000
# 2 22.2504 60.6620 18.1752 0.0000 2.5459 0.0000
# 3 8.8971 18.1752 68.8448 0.0000 -7.1537 0.0000
# 4 0.0000 0.0000 0.0000 27.7886 0.0000 -1.3490
# 5 4.3843 2.5459 -7.1537 0.0000 24.5949 0.0000
# 6 0.0000 0.0000 0.0000 -1.3490 0.0000 27.7007
#
#
#
# Elastic Compliance Matrix: (Units=1/GPa)
#
#
# Indices 1 2 3 4 5 6 
#
# 1 0.017127 -0.005886 -0.000942 0.000000 -0.002718 0.000000
# 2 -0.005886 0.020192 -0.004824 0.000000 -0.002444 0.000000
# 3 -0.000942 -0.004824 0.016488 0.000000 0.005463 0.000000
# 4 0.000000 0.000000 0.000000 0.036071 0.000000 0.001757
# 5 -0.002718 -0.002444 0.005463 0.000000 0.042985 0.000000
# 6 0.000000 0.000000 0.000000 0.001757 0.000000 0.036186
#
#
# Mechanical properties :
#
#
# Convention : Reuss Voigt Hill
#
# Bulk Modulus (GPa) = 32.78309 32.81907 32.80108
# Shear Modulus (GPa) = 24.68892 25.84374 25.26633
#
# Velocity S-wave (km/s) = 3.50824 3.58935 3.54903
# Velocity P-wave (km/s) = 5.72304 5.79126 5.75725
#
# Compressibility (1/GPa) = 0.03050353
#
# Stress axis : x y z
#
# Youngs Moduli (GPa) = 58.38803 49.52573 60.64891
#
# Poissons Ratio (x) = 0.29149 0.05713
# Poissons Ratio (y) = 0.34366 0.29257
# Poissons Ratio (z) = 0.05500 0.23891
#
# Static dielectric constant tensor:
#      x y z
#    x 3.757080 0.000000 0.086010 
#    y 0.000000 3.630460 0.000000 
#    z 0.086010 0.000000 4.518650 
# 
# 
# High freq. dielectric constant tensor:
#      x y z
#    x 1.778210 0.000000 -0.000900 
#    y 0.000000 1.767880 0.000000 
#    z -0.000900 0.000000 1.791450 
# 
# From -- ./inp_files/237059.got.cif
#   From: 2010.06.25/outbox.cif.g09.slc.cpg/sg15_119_cif.got.tgz:237059.got - 2010.06.28 07:06:18.
