data_PCOD8138342
_publ_section_title
;
Structure prediction by ZEFSAII (Michael W. Deem and Ramdas Pophale) SiO2 
 PCOD8138342
Probable space group: C 2/C
;
_chemical_formula_sum "Si O2"
_cell_formula_units_Z 52
_cell_length_a 26.207937
_cell_length_b 20.545707
_cell_length_c 13.252551
_cell_angle_alpha 90.000000
_cell_angle_beta 158.515144
_cell_angle_gamma 90.000000
_cell_volume 2613.589160
_symmetry_space_group_name_H-M "C 2/C"
_symmetry_group_IT_number 15
_symmetry_cell_setting 'monoclinic'
loop_
_space_group_symop_operation_xyz
x,y,z
-x,y,1/2-z
-x,-y,-z
x,-y,1/2+z
1/2+x,1/2+y,z
1/2-x,1/2+y,1/2-z
1/2-x,1/2-y,-z
1/2+x,1/2-y,1/2+z
loop_
_atom_site_type_symbol
_atom_site_label
_atom_site_fract_x
_atom_site_fract_y
_atom_site_fract_z
Si Si1 0.880992 0.075680 0.774762
Si Si2 0.047488 0.563271 0.647453
Si Si3 0.000000 0.492300 0.750000
Si Si4 0.677017 0.828661 0.807679
Si Si5 0.142536 0.273078 0.956708
Si Si6 0.247564 0.405978 0.235804
Si Si7 0.157251 0.063197 0.381107
O O1 0.818078 0.137686 0.605125
O O2 0.806707 0.060167 0.744246
O O3 0.860126 0.014698 0.661775
O O4 0.040489 0.094526 0.093925
O O5 0.076886 0.539717 0.814342
O O6 0.000000 0.500000 0.500000
O O7 0.932481 0.619787 0.436435
O O8 0.193045 0.591114 0.875654
O O9 0.891662 0.445980 0.491066
O O10 0.606759 0.793250 0.775070
O O11 0.733641 0.781048 0.823213
O O12 0.000000 0.248908 0.750000
O O13 0.207868 0.331247 0.142951
O O14 0.358623 0.414677 0.531134
#
# Coordination Sequence:
#
# PCOD8138342 Si02
#       7
#     8   8   4   8   8   8   8
#     4  10  21  37  53  92 125 152 186 253 310 369
#     4  12  20  37  59  89 119 154 194 253 301 367
#     4  12  20  32  60  92 116 148 200 254 304 362
#     4  10  21  39  62  85 123 157 208 257 299 361
#     4  10  20  37  63  87 113 164 217 250 295 367
#     4  11  19  35  61  89 116 156 206 250 298 370
#     4  11  21  34  61  88 124 152 190 245 318 359
#
# _framework density 19.896011000000001
#
# number of rings (size 3 to 8) (size 9 to 14) (size 15 to 20)
#    0.000    1.231    5.385    2.308    0.000    0.000 
#    2.769    1.538   10.154    9.231    0.000    0.000 
#    0.000    0.000    0.000    0.000    0.000    0.000 
#
# Total GULP energy -322284.289364 kJ/mol
# GULP energy per Si atom -12395.549591 kJ/mol
# Density = 1.985073 g / cm^3
# Si number density = 19.896011 Si / 1000 Ang^3
#
#
#
# Elastic Constant Matrix: (Units=GPa)
#
#
# Indices 1 2 3 4 5 6 
#
# 1 88.1244 42.2938 34.3085 0.0000 2.5133 0.0000
# 2 42.2938 94.2338 48.2007 0.0000 3.1850 0.0000
# 3 34.3085 48.2007 115.5816 0.0000 9.0593 0.0000
# 4 0.0000 0.0000 0.0000 27.8042 0.0000 6.3829
# 5 2.5133 3.1850 9.0593 0.0000 32.5855 0.0000
# 6 0.0000 0.0000 0.0000 6.3829 0.0000 30.0611
#
#
#
# Elastic Compliance Matrix: (Units=1/GPa)
#
#
# Indices 1 2 3 4 5 6 
#
# 1 0.014842 -0.005603 -0.002067 0.000000 -0.000022 0.000000
# 2 -0.005603 0.015607 -0.004866 0.000000 0.000259 0.000000
# 3 -0.002067 -0.004866 0.011495 0.000000 -0.002561 0.000000
# 4 0.000000 0.000000 0.000000 0.037809 0.000000 -0.008028
# 5 -0.000022 0.000259 -0.002561 0.000000 0.031377 0.000000
# 6 0.000000 0.000000 0.000000 -0.008028 0.000000 0.034970
#
#
# Mechanical properties :
#
#
# Convention : Reuss Voigt Hill
#
# Bulk Modulus (GPa) = 59.26908 60.83841 60.05375
# Shear Modulus (GPa) = 28.28117 29.63262 28.95690
#
# Velocity S-wave (km/s) = 3.77430 3.86343 3.81913
# Velocity P-wave (km/s) = 6.98913 7.10957 7.04961
#
# Compressibility (1/GPa) = 0.01687220
#
# Stress axis : x y z
#
# Youngs Moduli (GPa) = 67.37526 64.07500 86.99228
#
# Poissons Ratio (x) = 0.35903 0.17983
# Poissons Ratio (y) = 0.37753 0.42326
# Poissons Ratio (z) = 0.13928 0.31176
#
# Static dielectric constant tensor:
#      x y z
#    x 4.178350 0.000000 -0.087580 
#    y 0.000000 3.458190 0.000000 
#    z -0.087580 0.000000 3.829150 
# 
# 
# High freq. dielectric constant tensor:
#      x y z
#    x 1.779490 0.000000 0.008900 
#    y 0.000000 1.753730 0.000000 
#    z 0.008900 0.000000 1.772870 
# 
# From -- ./inp_files/183038.got.cif
#   From: 2010.06.25/outbox.cif.g09.slc.cpg/sg15_92_cif.got.tgz:183038.got - 2010.06.28 07:06:18.
