data_PCOD8138383
_publ_section_title
;
Structure prediction by ZEFSAII (Michael W. Deem and Ramdas Pophale) SiO2 
 PCOD8138383
Probable space group: C 2/C
;
_chemical_formula_sum "Si O2"
_cell_formula_units_Z 60
_cell_length_a 8.851690
_cell_length_b 22.984083
_cell_length_c 20.012502
_cell_angle_alpha 90.000000
_cell_angle_beta 43.843777
_cell_angle_gamma 90.000000
_cell_volume 2820.307510
_symmetry_space_group_name_H-M "C 2/C"
_symmetry_group_IT_number 15
_symmetry_cell_setting 'monoclinic'
loop_
_space_group_symop_operation_xyz
x,y,z
-x,y,1/2-z
-x,-y,-z
x,-y,1/2+z
1/2+x,1/2+y,z
1/2-x,1/2+y,1/2-z
1/2-x,1/2-y,-z
1/2+x,1/2-y,1/2+z
loop_
_atom_site_type_symbol
_atom_site_label
_atom_site_fract_x
_atom_site_fract_y
_atom_site_fract_z
Si Si1 0.245011 0.360584 0.198425
Si Si2 0.543099 0.912235 0.383957
Si Si3 0.665090 0.135848 0.423103
Si Si4 0.767868 0.967496 0.797520
Si Si5 0.081076 0.934408 0.466311
Si Si6 0.000000 0.301110 0.750000
Si Si7 0.010783 0.256069 0.603800
Si Si8 0.119232 0.114317 0.348816
O O1 0.218374 0.374416 0.285642
O O2 0.392542 0.412707 0.118545
O O3 0.363569 0.300997 0.143244
O O4 0.000000 0.358660 0.250000
O O5 0.520657 0.880577 0.462861
O O6 0.306424 0.918258 0.428668
O O7 0.614099 0.978800 0.361087
O O8 0.659751 0.085815 0.370348
O O9 0.612266 0.194775 0.400309
O O10 0.904462 0.139388 0.380171
O O11 0.796910 0.946356 0.711414
O O12 0.000000 0.986614 0.750000
O O13 0.908062 0.896491 0.563374
O O14 0.000000 0.000000 0.500000
O O15 0.057974 0.263587 0.667191
O O16 0.800151 0.337445 0.785029
O O17 0.250000 0.250000 0.500000
#
# Coordination Sequence:
#
# PCOD8138383 Si02
#       8
#     8   8   8   8   8   4   8   8
#     4  10  24  44  66  95 131 178 219 266 338 395
#     4  10  22  39  63  96 129 175 220 269 327 396
#     4  10  23  44  65  94 134 177 218 265 339 396
#     4  10  20  37  63  96 130 172 218 260 324 390
#     4  10  21  39  64  97 137 169 215 267 330 389
#     4  12  26  42  68 100 126 168 230 272 324 384
#     4  12  28  45  68  98 134 169 225 281 330 394
#     4  10  22  40  65  99 128 175 222 265 324 397
#
# _framework density 21.274276
#
# number of rings (size 3 to 8) (size 9 to 14) (size 15 to 20)
#    0.000    1.600    1.333    2.000    5.600    2.133 
#    0.000    2.667    0.000    0.000    0.000    0.000 
#    0.000    0.000    0.000    0.000    0.000    0.000 
#
# Total GULP energy -371747.917941 kJ/mol
# GULP energy per Si atom -12391.597265 kJ/mol
# Density = 2.122586 g / cm^3
# Si number density = 21.274276 Si / 1000 Ang^3
#
#
#
# Elastic Constant Matrix: (Units=GPa)
#
#
# Indices 1 2 3 4 5 6 
#
# 1 42.6503 20.6166 37.0852 0.0000 13.4739 0.0000
# 2 20.6166 109.4002 50.1655 0.0000 -6.1053 0.0000
# 3 37.0852 50.1655 153.7816 0.0002 16.2433 -0.0001
# 4 0.0000 0.0000 0.0002 41.2897 0.0000 -3.2607
# 5 13.4739 -6.1053 16.2433 0.0000 20.4709 0.0000
# 6 0.0000 0.0000 -0.0001 -3.2607 0.0000 23.8083
#
#
#
# Elastic Compliance Matrix: (Units=1/GPa)
#
#
# Indices 1 2 3 4 5 6 
#
# 1 0.037804 -0.006292 -0.004625 0.000000 -0.023089 0.000000
# 2 -0.006292 0.012661 -0.003765 0.000000 0.010905 0.000000
# 3 -0.004625 -0.003765 0.009434 0.000000 -0.005564 0.000000
# 4 0.000000 0.000000 0.000000 0.024484 0.000000 0.003353
# 5 -0.023089 0.010905 -0.005564 0.000000 0.071714 0.000000
# 6 0.000000 0.000000 0.000000 0.003353 0.000000 0.042461
#
#
# Mechanical properties :
#
#
# Convention : Reuss Voigt Hill
#
# Bulk Modulus (GPa) = 32.74900 57.95187 45.35044
# Shear Modulus (GPa) = 20.99950 30.31143 25.65547
#
# Velocity S-wave (km/s) = 3.14520 3.77874 3.47643
# Velocity P-wave (km/s) = 5.34947 6.80720 6.12188
#
# Compressibility (1/GPa) = 0.03053528
#
# Stress axis : x y z
#
# Youngs Moduli (GPa) = 26.45241 78.98040 105.99952
#
# Poissons Ratio (x) = 0.49692 0.49028
# Poissons Ratio (y) = 0.16643 0.39907
# Poissons Ratio (z) = 0.12235 0.29735
#
# Static dielectric constant tensor:
#      x y z
#    x 3.875400 0.000000 0.654340 
#    y 0.000000 3.865050 0.000000 
#    z 0.654340 0.000000 5.324020 
# 
# 
# High freq. dielectric constant tensor:
#      x y z
#    x 1.822130 0.000000 0.007170 
#    y 0.000000 1.829250 0.000000 
#    z 0.007170 0.000000 1.866310 
# 
# From -- ./inp_files/234549.got.cif
#   From: 2010.06.25/outbox.cif.g09.slc.cpg/sg15_118_cif.got.tgz:234549.got - 2010.06.28 07:06:18.
