data_PCOD8138443
_publ_section_title
;
Structure prediction by ZEFSAII (Michael W. Deem and Ramdas Pophale) SiO2 
 PCOD8138443
Probable space group: C 2/C
;
_chemical_formula_sum "Si O2"
_cell_formula_units_Z 36
_cell_length_a 5.842602
_cell_length_b 19.143788
_cell_length_c 14.241591
_cell_angle_alpha 90.000000
_cell_angle_beta 91.444776
_cell_angle_gamma 90.000000
_cell_volume 1592.408916
_symmetry_space_group_name_H-M "C 2/C"
_symmetry_group_IT_number 15
_symmetry_cell_setting 'monoclinic'
loop_
_space_group_symop_operation_xyz
x,y,z
-x,y,1/2-z
-x,-y,-z
x,-y,1/2+z
1/2+x,1/2+y,z
1/2-x,1/2+y,1/2-z
1/2-x,1/2-y,-z
1/2+x,1/2-y,1/2+z
loop_
_atom_site_type_symbol
_atom_site_label
_atom_site_fract_x
_atom_site_fract_y
_atom_site_fract_z
Si Si1 0.500000 0.804933 0.750000
Si Si2 0.327210 0.762970 0.394918
Si Si3 0.312891 0.471779 0.928383
Si Si4 0.856251 0.137740 0.121903
Si Si5 0.554591 0.101854 0.948812
O O1 0.386081 0.751437 0.675196
O O2 0.335723 0.860993 0.799794
O O3 0.250000 0.750000 0.500000
O O4 0.528203 0.712246 0.367103
O O5 0.434963 0.840409 0.381605
O O6 0.454265 0.423774 0.855565
O O7 0.164783 0.538265 0.887209
O O8 0.500000 0.500000 0.000000
O O9 0.138751 0.423246 0.981889
O O10 0.755936 0.133092 0.015707
#
# Coordination Sequence:
#
# PCOD8138443 Si02
#       5
#     4   8   8   8   8
#     4  12  26  36  62 104 136 182 222 294 348 416
#     4  12  23  40  65 103 134 174 228 290 343 406
#     4   9  19  35  63 101 125 172 221 276 336 418
#     4  11  21  40  62 102 132 169 230 284 341 409
#     4  10  20  37  65 101 129 170 223 278 343 411
#
# _framework density 22.607258999999999
#
# number of rings (size 3 to 8) (size 9 to 14) (size 15 to 20)
#    0.000    1.333    4.444    1.333    0.000    0.000 
#    0.000    0.000    0.000    0.000  260.000    0.000 
#    0.000    0.000    0.000    0.000    0.000    0.000 
#
# Total GULP energy -223027.929221 kJ/mol
# GULP energy per Si atom -12390.440512 kJ/mol
# Density = 2.255580 g / cm^3
# Si number density = 22.607259 Si / 1000 Ang^3
#
#
#
# Elastic Constant Matrix: (Units=GPa)
#
#
# Indices 1 2 3 4 5 6 
#
# 1 134.6028 82.2511 42.9908 0.0000 -9.5788 0.0000
# 2 82.2511 189.5067 43.4917 0.0000 -11.0273 0.0000
# 3 42.9908 43.4917 75.7872 0.0000 1.0709 0.0000
# 4 0.0000 0.0000 0.0000 6.8706 0.0000 3.9641
# 5 -9.5788 -11.0273 1.0709 0.0000 43.4282 0.0000
# 6 0.0000 0.0000 0.0000 3.9641 0.0000 48.3985
#
#
#
# Elastic Compliance Matrix: (Units=1/GPa)
#
#
# Indices 1 2 3 4 5 6 
#
# 1 0.011212 -0.003810 -0.004197 0.000000 0.001609 0.000000
# 2 -0.003810 0.007489 -0.002153 0.000000 0.001114 0.000000
# 3 -0.004197 -0.002153 0.016837 0.000000 -0.001887 0.000000
# 4 0.000000 0.000000 0.000000 0.152766 0.000000 -0.012512
# 5 0.001609 0.001114 -0.001887 0.000000 0.023711 0.000000
# 6 0.000000 0.000000 0.000000 -0.012512 0.000000 0.021687
#
#
# Mechanical properties :
#
#
# Convention : Reuss Voigt Hill
#
# Bulk Modulus (GPa) = 65.69845 81.92931 73.81388
# Shear Modulus (GPa) = 19.29805 35.15034 27.22420
#
# Velocity S-wave (km/s) = 2.92485 3.94741 3.47396
# Velocity P-wave (km/s) = 6.36633 7.55612 6.98660
#
# Compressibility (1/GPa) = 0.01522106
#
# Stress axis : x y z
#
# Youngs Moduli (GPa) = 89.18976 133.52622 59.39180
#
# Poissons Ratio (x) = 0.50868 0.24925
# Poissons Ratio (y) = 0.33977 0.12784
# Poissons Ratio (z) = 0.37430 0.28742
#
# Static dielectric constant tensor:
#      x y z
#    x 4.517640 0.000000 -0.108010 
#    y 0.000000 4.635930 0.000000 
#    z -0.108010 0.000000 3.674310 
# 
# 
# High freq. dielectric constant tensor:
#      x y z
#    x 1.924580 0.000000 -0.001520 
#    y 0.000000 1.900020 0.000000 
#    z -0.001520 0.000000 1.838760 
# 
# From -- ./inp_files/128722.got.cif
#   From: 2010.06.25/outbox.cif.g09.slc.cpg/sg15_65_cif.got.tgz:128722.got - 2010.06.28 07:06:18.
