data_PCOD8138784
_publ_section_title
;
Structure prediction by ZEFSAII (Michael W. Deem and Ramdas Pophale) SiO2 
 PCOD8138784
Probable space group: C 2/C
;
_chemical_formula_sum "Si O2"
_cell_formula_units_Z 52
_cell_length_a 13.668598
_cell_length_b 27.988642
_cell_length_c 9.020797
_cell_angle_alpha 90.000000
_cell_angle_beta 50.567000
_cell_angle_gamma 90.000000
_cell_volume 2665.476790
_symmetry_space_group_name_H-M "C 2/C"
_symmetry_group_IT_number 15
_symmetry_cell_setting 'monoclinic'
loop_
_space_group_symop_operation_xyz
x,y,z
-x,y,1/2-z
-x,-y,-z
x,-y,1/2+z
1/2+x,1/2+y,z
1/2-x,1/2+y,1/2-z
1/2-x,1/2-y,-z
1/2+x,1/2-y,1/2+z
loop_
_atom_site_type_symbol
_atom_site_label
_atom_site_fract_x
_atom_site_fract_y
_atom_site_fract_z
Si Si1 0.855353 0.905578 0.868367
Si Si2 0.321527 0.731593 0.075605
Si Si3 0.000000 0.841820 0.250000
Si Si4 0.095947 0.009305 0.775670
Si Si5 0.101161 0.674652 0.854741
Si Si6 0.820783 0.671542 0.052817
Si Si7 0.794842 0.896167 0.258775
O O1 0.779620 0.871751 0.826812
O O2 0.000000 0.890032 0.750000
O O3 0.838331 0.959952 0.832658
O O4 0.793706 0.898290 0.084637
O O5 0.405877 0.774544 0.057521
O O6 0.225389 0.714960 0.298383
O O7 0.250000 0.750000 0.000000
O O8 0.414025 0.689113 0.941573
O O9 0.083224 0.873428 0.281284
O O10 0.208749 0.047997 0.689418
O O11 0.000000 0.031154 0.750000
O O12 0.000000 0.000000 0.000000
O O13 0.171152 0.684827 0.629544
O O14 0.171278 0.637169 0.900447
O O15 0.959643 0.654677 0.971230
#
# Coordination Sequence:
#
# PCOD8138784 Si02
#       7
#     8   8   4   8   8   8   8
#     4  10  20  38  61  90 114 156 200 253 307 362
#     4  12  23  40  61  88 124 159 204 255 307 356
#     4  12  24  36  60  92 124 160 202 260 314 352
#     4  11  20  34  60  91 123 150 199 259 312 358
#     4  10  23  43  60  89 122 170 203 250 301 367
#     4  10  23  42  65  84 124 165 210 245 305 371
#     4  11  21  37  58  89 125 154 201 254 304 364
#
# _framework density 19.508706
#
# number of rings (size 3 to 8) (size 9 to 14) (size 15 to 20)
#    0.000    1.231    5.385    2.308    0.000    0.000 
#    5.538    0.769    0.000    0.000    0.000    0.000 
#    0.000    0.000    0.000    0.000    0.000    0.000 
#
# Total GULP energy -322134.600401 kJ/mol
# GULP energy per Si atom -12389.792323 kJ/mol
# Density = 1.946430 g / cm^3
# Si number density = 19.508706 Si / 1000 Ang^3
#
#
#
# Elastic Constant Matrix: (Units=GPa)
#
#
# Indices 1 2 3 4 5 6 
#
# 1 123.3772 67.2823 28.2572 0.0000 -0.5777 0.0000
# 2 67.2823 126.8567 33.6006 0.0000 -2.6098 0.0000
# 3 28.2572 33.6006 59.4202 0.0000 0.5351 0.0000
# 4 0.0000 0.0000 0.0000 28.8574 0.0000 7.0085
# 5 -0.5777 -2.6098 0.5351 0.0000 29.0874 0.0000
# 6 0.0000 0.0000 0.0000 7.0085 0.0000 34.1629
#
#
#
# Elastic Compliance Matrix: (Units=1/GPa)
#
#
# Indices 1 2 3 4 5 6 
#
# 1 0.011692 -0.005568 -0.002410 0.000000 -0.000223 0.000000
# 2 -0.005568 0.011948 -0.004118 0.000000 0.001037 0.000000
# 3 -0.002410 -0.004118 0.020311 0.000000 -0.000791 0.000000
# 4 0.000000 0.000000 0.000000 0.036470 0.000000 -0.007482
# 5 -0.000223 0.001037 -0.000791 0.000000 0.034482 0.000000
# 6 0.000000 0.000000 0.000000 -0.007482 0.000000 0.030806
#
#
# Mechanical properties :
#
#
# Convention : Reuss Voigt Hill
#
# Bulk Modulus (GPa) = 50.60635 63.10380 56.85508
# Shear Modulus (GPa) = 28.33052 30.45581 29.39317
#
# Velocity S-wave (km/s) = 3.81491 3.95541 3.88579
# Velocity P-wave (km/s) = 6.73806 7.29912 7.02419
#
# Compressibility (1/GPa) = 0.01976037
#
# Stress axis : x y z
#
# Youngs Moduli (GPa) = 85.52562 83.69635 49.23445
#
# Poissons Ratio (x) = 0.46600 0.11865
# Poissons Ratio (y) = 0.47618 0.20274
# Poissons Ratio (z) = 0.20611 0.34465
#
# Static dielectric constant tensor:
#      x y z
#    x 3.730630 0.000000 0.003200 
#    y 0.000000 3.173070 0.000000 
#    z 0.003200 0.000000 3.722600 
# 
# 
# High freq. dielectric constant tensor:
#      x y z
#    x 1.764530 0.000000 0.018920 
#    y 0.000000 1.765670 0.000000 
#    z 0.018920 0.000000 1.747600 
# 
# From -- ./inp_files/34103.got.cif
#   From: 2010.06.25/outbox.cif.g09.slc.cpg/sg15_18_cif.got.tgz:34103.got - 2010.06.28 07:06:18.
