data_PCOD8138151
_publ_section_title
;
Structure prediction by ZEFSAII (Michael W. Deem and Ramdas Pophale) SiO2 
 PCOD8138151
Probable space group: C 2/C
;
_chemical_formula_sum "Si O2"
_cell_formula_units_Z 64
_cell_length_a 14.753302
_cell_length_b 15.463241
_cell_length_c 15.199892
_cell_angle_alpha 90.000000
_cell_angle_beta 125.354150
_cell_angle_gamma 90.000000
_cell_volume 2828.151918
_symmetry_space_group_name_H-M "C 2/C"
_symmetry_group_IT_number 15
_symmetry_cell_setting 'monoclinic'
loop_
_space_group_symop_operation_xyz
x,y,z
-x,y,1/2-z
-x,-y,-z
x,-y,1/2+z
1/2+x,1/2+y,z
1/2-x,1/2+y,1/2-z
1/2-x,1/2-y,-z
1/2+x,1/2-y,1/2+z
loop_
_atom_site_type_symbol
_atom_site_label
_atom_site_fract_x
_atom_site_fract_y
_atom_site_fract_z
Si Si1 0.185556 0.829262 0.546625
Si Si2 0.012107 0.512902 0.356581
Si Si3 0.272121 0.758971 0.763699
Si Si4 0.788774 0.430971 0.282088
Si Si5 0.403869 0.461964 0.889484
Si Si6 0.008395 0.717758 0.354531
Si Si7 0.748889 0.983472 0.047039
Si Si8 0.384291 0.379719 0.707860
O O1 0.279146 0.788637 0.663687
O O2 0.103852 0.865883 0.575122
O O3 0.223499 0.911863 0.511101
O O4 0.126012 0.754691 0.456785
O O5 0.127144 0.477315 0.460144
O O6 0.000000 0.482450 0.250000
O O7 0.911563 0.470813 0.353744
O O8 0.012248 0.615594 0.365957
O O9 0.208137 0.669392 0.742291
O O10 0.404633 0.748823 0.856379
O O11 0.212733 0.824510 0.798756
O O12 0.711046 0.482488 0.168513
O O13 0.741775 0.437250 0.353855
O O14 0.431138 0.452474 0.801980
O O15 0.500000 0.500000 0.000000
O O16 0.000000 0.750223 0.250000
O O17 0.830710 0.067762 0.095098
O O18 0.500000 0.328087 0.750000
#
# Coordination Sequence:
#
# PCOD8138151 Si02
#       8
#     8   8   8   8   8   8   8   8
#     4  11  22  38  62  91 123 156 199 257 318 375
#     4  11  23  40  63  90 127 170 211 257 315 384
#     4  11  24  41  61  92 128 163 211 261 311 376
#     4  11  23  39  62  90 125 170 211 257 315 378
#     4  10  20  37  60  86 118 158 206 254 308 370
#     4  11  22  38  63  97 130 160 202 262 325 379
#     4  11  22  39  64  93 124 161 208 262 326 386
#     4  10  23  41  62  87 121 165 213 264 311 371
#
# _framework density 22.629619000000002
#
# number of rings (size 3 to 8) (size 9 to 14) (size 15 to 20)
#    0.000    1.250    0.000    7.875    0.000    5.500 
#    0.000    0.000    0.000   10.500    0.000    0.000 
#    0.000    0.000    0.000    0.000    0.000    0.000 
#
# Total GULP energy -396496.199242 kJ/mol
# GULP energy per Si atom -12390.506226 kJ/mol
# Density = 2.257811 g / cm^3
# Si number density = 22.629619 Si / 1000 Ang^3
#
#
#
# Elastic Constant Matrix: (Units=GPa)
#
#
# Indices 1 2 3 4 5 6 
#
# 1 95.4246 12.9558 19.4520 0.0000 19.4768 0.0000
# 2 12.9558 70.0973 20.8288 0.0000 -1.9830 0.0000
# 3 19.4520 20.8288 90.1107 0.0000 16.4374 0.0000
# 4 0.0000 0.0000 0.0000 28.9636 0.0000 1.4830
# 5 19.4768 -1.9830 16.4374 0.0000 40.4235 0.0000
# 6 0.0000 0.0000 0.0000 1.4830 0.0000 29.8969
#
#
#
# Elastic Compliance Matrix: (Units=1/GPa)
#
#
# Indices 1 2 3 4 5 6 
#
# 1 0.012107 -0.002053 -0.001141 0.000000 -0.005470 0.000000
# 2 -0.002053 0.015879 -0.003834 0.000000 0.003327 0.000000
# 3 -0.001141 -0.003834 0.013139 0.000000 -0.004981 0.000000
# 4 0.000000 0.000000 0.000000 0.034614 0.000000 -0.001717
# 5 -0.005470 0.003327 -0.004981 0.000000 0.029562 0.000000
# 6 0.000000 0.000000 0.000000 -0.001717 0.000000 0.033533
#
#
# Mechanical properties :
#
#
# Convention : Reuss Voigt Hill
#
# Bulk Modulus (GPa) = 36.94447 40.23399 38.58923
# Shear Modulus (GPa) = 30.88054 33.34987 32.11520
#
# Velocity S-wave (km/s) = 3.69807 3.84308 3.77127
# Velocity P-wave (km/s) = 5.88179 6.12456 6.00440
#
# Compressibility (1/GPa) = 0.02706765
#
# Stress axis : x y z
#
# Youngs Moduli (GPa) = 82.59406 62.97708 76.11172
#
# Poissons Ratio (x) = 0.12932 0.08685
# Poissons Ratio (y) = 0.16960 0.29181
# Poissons Ratio (z) = 0.09425 0.24146
#
# Static dielectric constant tensor:
#      x y z
#    x 4.085430 0.000000 -0.029110 
#    y 0.000000 3.557830 0.000000 
#    z -0.029110 0.000000 4.137510 
# 
# 
# High freq. dielectric constant tensor:
#      x y z
#    x 1.895830 0.000000 0.009680 
#    y 0.000000 1.873190 0.000000 
#    z 0.009680 0.000000 1.903290 
# 
# From -- ./inp_files/155526.got.cif
#   From: 2010.06.25/outbox.cif.g09.slc.cpg/sg15_78_cif.got.tgz:155526.got - 2010.06.28 07:06:18.
