data_PCOD8138588
_publ_section_title
;
Structure prediction by ZEFSAII (Michael W. Deem and Ramdas Pophale) SiO2 
 PCOD8138588
Probable space group: C 2/C
;
_chemical_formula_sum "Si O2"
_cell_formula_units_Z 60
_cell_length_a 15.352220
_cell_length_b 11.660440
_cell_length_c 17.171724
_cell_angle_alpha 90.000000
_cell_angle_beta 85.954242
_cell_angle_gamma 90.000000
_cell_volume 3066.312551
_symmetry_space_group_name_H-M "C 2/C"
_symmetry_group_IT_number 15
_symmetry_cell_setting 'monoclinic'
loop_
_space_group_symop_operation_xyz
x,y,z
-x,y,1/2-z
-x,-y,-z
x,-y,1/2+z
1/2+x,1/2+y,z
1/2-x,1/2+y,1/2-z
1/2-x,1/2-y,-z
1/2+x,1/2-y,1/2+z
loop_
_atom_site_type_symbol
_atom_site_label
_atom_site_fract_x
_atom_site_fract_y
_atom_site_fract_z
Si Si1 0.042626 0.034251 0.578045
Si Si2 0.677517 0.643360 0.087890
Si Si3 0.244097 0.985261 0.197387
Si Si4 0.151730 0.422685 0.667369
Si Si5 0.000000 0.678023 0.250000
Si Si6 0.387047 0.371241 0.186182
Si Si7 0.733624 0.113319 0.573810
Si Si8 0.792957 0.198586 0.918114
O O1 0.113992 0.137724 0.566582
O O2 0.968776 0.063776 0.644684
O O3 0.084376 0.915926 0.605417
O O4 0.000000 0.000000 0.500000
O O5 0.733848 0.611300 0.160351
O O6 0.668559 0.778328 0.075378
O O7 0.723544 0.584691 0.010834
O O8 0.151230 0.943066 0.239057
O O9 0.267299 0.893183 0.126608
O O10 0.315499 0.005869 0.259007
O O11 0.172376 0.505450 0.594381
O O12 0.196926 0.301774 0.644759
O O13 0.048074 0.402811 0.683633
O O14 0.077320 0.749175 0.286219
O O15 0.310401 0.355697 0.128876
O O16 0.750000 0.250000 0.000000
#
# Coordination Sequence:
#
# PCOD8138588 Si02
#       8
#     8   8   8   8   4   8   8   8
#     4  11  21  38  63  97 118 153 209 262 308 353
#     4  10  20  38  58  85 121 156 202 246 303 370
#     4  10  22  37  63  91 115 161 212 250 303 369
#     4  11  22  38  61  90 124 158 207 248 308 380
#     4  12  20  38  60  88 124 160 194 258 300 376
#     4  11  20  38  62  90 113 158 206 251 306 359
#     4  10  22  38  62  83 119 165 197 244 309 372
#     4  11  23  40  64  93 125 164 207 263 314 368
#
# _framework density 19.567477
#
# number of rings (size 3 to 8) (size 9 to 14) (size 15 to 20)
#    0.000    1.333    4.000    3.200    3.733    0.000 
#    0.000    2.667    0.000    5.600    0.000    0.000 
#    0.000    0.000    0.000    0.000    0.000    0.000 
#
# Total GULP energy -371699.719825 kJ/mol
# GULP energy per Si atom -12389.990661 kJ/mol
# Density = 1.952294 g / cm^3
# Si number density = 19.567477 Si / 1000 Ang^3
#
#
#
# Elastic Constant Matrix: (Units=GPa)
#
#
# Indices 1 2 3 4 5 6 
#
# 1 75.3025 37.0299 30.8569 0.0000 -14.5451 0.0000
# 2 37.0299 90.8406 32.8557 0.0000 -6.5815 0.0000
# 3 30.8569 32.8557 79.7812 0.0000 -3.1277 0.0000
# 4 0.0000 0.0000 0.0000 37.0806 0.0000 -1.9796
# 5 -14.5451 -6.5815 -3.1277 0.0000 26.6724 0.0000
# 6 0.0000 0.0000 0.0000 -1.9796 0.0000 30.3965
#
#
#
# Elastic Compliance Matrix: (Units=1/GPa)
#
#
# Indices 1 2 3 4 5 6 
#
# 1 0.019796 -0.005624 -0.004995 0.000000 0.008822 0.000000
# 2 -0.005624 0.014712 -0.003879 0.000000 0.000108 0.000000
# 3 -0.004995 -0.003879 0.015993 0.000000 -0.001805 0.000000
# 4 0.000000 0.000000 0.000000 0.027062 0.000000 0.001762
# 5 0.008822 0.000108 -0.001805 0.000000 0.042118 0.000000
# 6 0.000000 0.000000 0.000000 0.001762 0.000000 0.033013
#
#
# Mechanical properties :
#
#
# Convention : Reuss Voigt Hill
#
# Bulk Modulus (GPa) = 46.50068 49.71215 48.10642
# Shear Modulus (GPa) = 26.47498 28.50868 27.49183
#
# Velocity S-wave (km/s) = 3.68232 3.82113 3.75237
# Velocity P-wave (km/s) = 6.47265 6.70289 6.58877
#
# Compressibility (1/GPa) = 0.02150506
#
# Stress axis : x y z
#
# Youngs Moduli (GPa) = 50.51540 67.97299 62.52816
#
# Poissons Ratio (x) = 0.38228 0.31230
# Poissons Ratio (y) = 0.28409 0.24256
# Poissons Ratio (z) = 0.25230 0.26368
#
# Static dielectric constant tensor:
#      x y z
#    x 3.540930 0.000000 -0.174970 
#    y 0.000000 3.736890 0.000000 
#    z -0.174970 0.000000 4.000320 
# 
# 
# High freq. dielectric constant tensor:
#      x y z
#    x 1.734580 0.000000 -0.004210 
#    y 0.000000 1.767220 0.000000 
#    z -0.004210 0.000000 1.782470 
# 
# From -- ./inp_files/204010.got.cif
#   From: 2010.06.25/outbox.cif.g09.slc.cpg/sg15_103_cif.got.tgz:204010.got - 2010.06.28 07:06:18.
