data_PCOD8138601
_publ_section_title
;
Structure prediction by ZEFSAII (Michael W. Deem and Ramdas Pophale) SiO2 
 PCOD8138601
Probable space group: C 2/C
;
_chemical_formula_sum "Si O2"
_cell_formula_units_Z 56
_cell_length_a 8.585563
_cell_length_b 23.318206
_cell_length_c 20.899137
_cell_angle_alpha 90.000000
_cell_angle_beta 138.552561
_cell_angle_gamma 90.000000
_cell_volume 2769.530210
_symmetry_space_group_name_H-M "C 2/C"
_symmetry_group_IT_number 15
_symmetry_cell_setting 'monoclinic'
loop_
_space_group_symop_operation_xyz
x,y,z
-x,y,1/2-z
-x,-y,-z
x,-y,1/2+z
1/2+x,1/2+y,z
1/2-x,1/2+y,1/2-z
1/2-x,1/2-y,-z
1/2+x,1/2-y,1/2+z
loop_
_atom_site_type_symbol
_atom_site_label
_atom_site_fract_x
_atom_site_fract_y
_atom_site_fract_z
Si Si1 0.555532 0.537280 0.598926
Si Si2 0.882881 0.484508 0.088541
Si Si3 0.449777 0.867819 0.043751
Si Si4 0.461699 0.365828 0.167591
Si Si5 0.294387 0.059219 0.236647
Si Si6 0.492835 0.332529 0.823319
Si Si7 0.402158 0.795654 0.291750
O O1 0.300940 0.533934 0.488393
O O2 0.770538 0.547480 0.615753
O O3 0.566787 0.589384 0.650541
O O4 0.578260 0.475873 0.640502
O O5 0.941892 0.436452 0.053819
O O6 0.116671 0.521416 0.175495
O O7 0.454433 0.835458 0.113776
O O8 0.684091 0.852760 0.074284
O O9 0.233240 0.849345 0.932953
O O10 0.500000 0.391858 0.250000
O O11 0.622474 0.309328 0.207610
O O12 0.500000 0.064974 0.250000
O O13 0.213742 0.123158 0.225580
O O14 0.500000 0.332987 0.750000
O O15 0.425574 0.268925 0.825033
O O16 0.500000 0.803895 0.250000
#
# Coordination Sequence:
#
# PCOD8138601 Si02
#       7
#     8   8   8   8   8   8   8
#     4  10  20  38  58  90 122 158 207 245 298 375
#     4  10  21  36  63  89 123 162 206 244 303 370
#     4  11  22  41  65  96 122 163 203 261 315 367
#     4  10  22  37  63  93 118 153 206 255 311 363
#     4  10  21  38  59  87 123 165 204 254 300 360
#     4  11  25  42  60  90 129 164 203 258 316 366
#     4  10  22  44  66  88 117 164 212 259 309 370
#
# _framework density 20.220036
#
# number of rings (size 3 to 8) (size 9 to 14) (size 15 to 20)
#    0.000    1.714    1.429    3.000    2.000    5.143 
#    0.000    2.857    0.000    0.000    0.000    0.000 
#    0.000    0.000    0.000    0.000    0.000    0.000 
#
# Total GULP energy -347070.938028 kJ/mol
# GULP energy per Si atom -12395.390644 kJ/mol
# Density = 2.017401 g / cm^3
# Si number density = 20.220036 Si / 1000 Ang^3
#
#
#
# Elastic Constant Matrix: (Units=GPa)
#
#
# Indices 1 2 3 4 5 6 
#
# 1 64.5990 30.7417 46.0578 0.0000 9.1361 0.0000
# 2 30.7417 104.8518 48.9012 0.0000 8.8453 0.0000
# 3 46.0578 48.9012 114.2528 0.0002 10.5941 0.0000
# 4 0.0000 0.0000 0.0002 27.5327 0.0001 -3.0776
# 5 9.1361 8.8453 10.5941 0.0001 27.8735 0.0000
# 6 0.0000 0.0000 0.0000 -3.0776 0.0000 34.0425
#
#
#
# Elastic Compliance Matrix: (Units=1/GPa)
#
#
# Indices 1 2 3 4 5 6 
#
# 1 0.022784 -0.002806 -0.007644 0.000000 -0.003673 0.000000
# 2 -0.002806 0.012360 -0.004023 0.000000 -0.001474 0.000000
# 3 -0.007644 -0.004023 0.013687 0.000000 -0.001420 0.000000
# 4 0.000000 0.000000 0.000000 0.036691 0.000000 0.003317
# 5 -0.003673 -0.001474 -0.001420 0.000000 0.038088 0.000000
# 6 0.000000 0.000000 0.000000 0.003317 0.000000 0.029675
#
#
# Mechanical properties :
#
#
# Convention : Reuss Voigt Hill
#
# Bulk Modulus (GPa) = 50.28065 59.45611 54.86838
# Shear Modulus (GPa) = 26.47486 28.42328 27.44907
#
# Velocity S-wave (km/s) = 3.62240 3.75333 3.68845
# Velocity P-wave (km/s) = 6.51279 6.94635 6.73306
#
# Compressibility (1/GPa) = 0.01988837
#
# Stress axis : x y z
#
# Youngs Moduli (GPa) = 43.88989 80.90441 73.06085
#
# Poissons Ratio (x) = 0.22698 0.55844
# Poissons Ratio (y) = 0.12313 0.29390
# Poissons Ratio (z) = 0.33547 0.32545
#
# Static dielectric constant tensor:
#      x y z
#    x 3.658070 0.000000 -0.033820 
#    y 0.000000 3.986790 0.000000 
#    z -0.033820 0.000000 3.907510 
# 
# 
# High freq. dielectric constant tensor:
#      x y z
#    x 1.783540 0.000000 0.001060 
#    y 0.000000 1.783580 0.000000 
#    z 0.001060 0.000000 1.801610 
# 
# From -- ./inp_files/192251.got.cif
#   From: 2010.06.25/outbox.cif.g09.slc.cpg/sg15_97_cif.got.tgz:192251.got - 2010.06.28 07:06:18.
