data_PCOD8138744
_publ_section_title
;
Structure prediction by ZEFSAII (Michael W. Deem and Ramdas Pophale) SiO2 
 PCOD8138744
Probable space group: C 2/C
;
_chemical_formula_sum "Si O2"
_cell_formula_units_Z 48
_cell_length_a 30.528897
_cell_length_b 15.800106
_cell_length_c 14.602760
_cell_angle_alpha 90.000000
_cell_angle_beta 18.605721
_cell_angle_gamma 90.000000
_cell_volume 2247.347222
_symmetry_space_group_name_H-M "C 2/C"
_symmetry_group_IT_number 15
_symmetry_cell_setting 'monoclinic'
loop_
_space_group_symop_operation_xyz
x,y,z
-x,y,1/2-z
-x,-y,-z
x,-y,1/2+z
1/2+x,1/2+y,z
1/2-x,1/2+y,1/2-z
1/2-x,1/2-y,-z
1/2+x,1/2-y,1/2+z
loop_
_atom_site_type_symbol
_atom_site_label
_atom_site_fract_x
_atom_site_fract_y
_atom_site_fract_z
Si Si1 0.108386 0.318957 0.109454
Si Si2 0.182432 0.421734 0.142326
Si Si3 0.027371 0.310461 0.865371
Si Si4 0.543678 0.328144 0.864523
Si Si5 0.865247 0.816397 0.476037
Si Si6 0.269274 0.389990 0.479923
O O1 0.128748 0.385324 0.151739
O O2 0.049542 0.228976 0.261474
O O3 0.000000 0.355723 0.250000
O O4 0.254458 0.303046 0.773872
O O5 0.072104 0.392523 0.439253
O O6 0.331679 0.392823 0.878529
O O7 0.190238 0.522186 0.121085
O O8 0.086106 0.278332 0.652070
O O9 0.157597 0.319964 0.674541
O O10 0.938891 0.232741 0.082083
O O11 0.402043 0.381657 0.150740
O O12 0.808721 0.875519 0.507089
O O13 0.000000 0.863059 0.250000
#
# Coordination Sequence:
#
# PCOD8138744 Si02
#       6
#     8   8   8   8   8   8
#     4  11  21  37  61  88 116 154 202 252 290 337
#     4  11  22  39  62  88 120 158 194 239 300 362
#     4  10  20  38  61  84 112 156 201 233 283 361
#     4  10  20  38  61  84 112 156 201 233 283 361
#     4  11  21  37  61  88 116 154 202 252 290 337
#     4  11  22  39  62  88 120 158 194 239 300 362
#
# _framework density 21.358514
#
# number of rings (size 3 to 8) (size 9 to 14) (size 15 to 20)
#    0.000    1.333    0.000   11.000    0.000    0.000 
#    0.000    6.667    0.000    4.000    0.000    0.000 
#    0.000    0.000    0.000    0.000    0.000    0.000 
#
# Total GULP energy -297522.953488 kJ/mol
# GULP energy per Si atom -12396.789729 kJ/mol
# Density = 2.130990 g / cm^3
# Si number density = 21.358514 Si / 1000 Ang^3
#
#
#
# Elastic Constant Matrix: (Units=GPa)
#
#
# Indices 1 2 3 4 5 6 
#
# 1 78.6482 26.6272 8.2100 -0.0002 -0.9267 0.0002
# 2 26.6272 76.4448 24.8804 0.0001 10.9341 0.0000
# 3 8.2100 24.8804 106.5750 -0.0001 7.7623 0.0001
# 4 -0.0002 0.0001 -0.0001 38.9983 0.0001 -8.8963
# 5 -0.9267 10.9341 7.7623 0.0001 33.8615 -0.0001
# 6 0.0002 0.0000 0.0001 -8.8963 -0.0001 18.3145
#
#
#
# Elastic Compliance Matrix: (Units=1/GPa)
#
#
# Indices 1 2 3 4 5 6 
#
# 1 0.014561 -0.005370 -0.000024 0.000000 0.002138 0.000000
# 2 -0.005370 0.016657 -0.003125 0.000000 -0.004809 0.000000
# 3 -0.000024 -0.003125 0.010211 0.000000 -0.001333 0.000000
# 4 0.000000 0.000000 0.000000 0.028838 0.000000 0.014008
# 5 0.002138 -0.004809 -0.001333 0.000000 0.031449 0.000000
# 6 0.000000 0.000000 0.000000 0.014008 0.000000 0.061406
#
#
# Mechanical properties :
#
#
# Convention : Reuss Voigt Hill
#
# Bulk Modulus (GPa) = 40.99678 42.34483 41.67081
# Shear Modulus (GPa) = 26.55507 31.69823 29.12665
#
# Velocity S-wave (km/s) = 3.52987 3.85659 3.69684
# Velocity P-wave (km/s) = 5.98745 6.30078 6.14611
#
# Compressibility (1/GPa) = 0.02439216
#
# Stress axis : x y z
#
# Youngs Moduli (GPa) = 68.67896 60.03643 97.92977
#
# Poissons Ratio (x) = 0.32238 0.00233
# Poissons Ratio (y) = 0.36879 0.30599
# Poissons Ratio (z) = 0.00163 0.18759
#
# Static dielectric constant tensor:
#      x y z
#    x 3.738980 0.000000 0.036200 
#    y 0.000000 3.577280 0.000000 
#    z 0.036200 0.000000 4.289960 
# 
# 
# High freq. dielectric constant tensor:
#      x y z
#    x 1.825360 0.000000 -0.009670 
#    y 0.000000 1.808790 0.000000 
#    z -0.009670 0.000000 1.870610 
# 
# From -- ./inp_files/182426.got.cif
#   From: 2010.06.25/outbox.cif.g09.slc.cpg/sg15_92_cif.got.tgz:182426.got - 2010.06.28 07:06:18.
