data_PCOD8138493
_publ_section_title
;
Structure prediction by ZEFSAII (Michael W. Deem and Ramdas Pophale) SiO2 
 PCOD8138493
Probable space group: C 2/C
;
_chemical_formula_sum "Si O2"
_cell_formula_units_Z 52
_cell_length_a 8.615514
_cell_length_b 13.538342
_cell_length_c 31.246376
_cell_angle_alpha 90.000000
_cell_angle_beta 43.728092
_cell_angle_gamma 90.000000
_cell_volume 2519.261079
_symmetry_space_group_name_H-M "C 2/C"
_symmetry_group_IT_number 15
_symmetry_cell_setting 'monoclinic'
loop_
_space_group_symop_operation_xyz
x,y,z
-x,y,1/2-z
-x,-y,-z
x,-y,1/2+z
1/2+x,1/2+y,z
1/2-x,1/2+y,1/2-z
1/2-x,1/2-y,-z
1/2+x,1/2-y,1/2+z
loop_
_atom_site_type_symbol
_atom_site_label
_atom_site_fract_x
_atom_site_fract_y
_atom_site_fract_z
Si Si1 0.573148 0.209887 0.568679
Si Si2 0.580171 0.327677 0.430702
Si Si3 0.880400 0.475057 0.067750
Si Si4 0.908132 0.904767 0.164683
Si Si5 0.000000 0.549250 0.250000
Si Si6 0.869396 0.636574 0.441245
Si Si7 0.382327 0.790877 0.842826
O O1 0.750000 0.250000 0.500000
O O2 0.698571 0.164221 0.584389
O O3 0.429693 0.136425 0.568792
O O4 0.372849 0.281385 0.624889
O O5 0.654080 0.362356 0.369358
O O6 0.377309 0.392145 0.491305
O O7 0.488423 0.215986 0.448518
O O8 0.612562 0.482009 0.118397
O O9 0.973510 0.541080 0.087862
O O10 0.000000 0.500000 0.000000
O O11 0.967577 0.811946 0.185347
O O12 0.705039 0.974803 0.219878
O O13 0.990298 0.622475 0.292865
O O14 0.853161 0.671982 0.396574
#
# Coordination Sequence:
#
# PCOD8138493 Si02
#       7
#     8   8   8   8   4   8   8
#     4  11  22  36  65 101 135 169 213 281 354 402
#     4  10  20  37  66  97 137 165 206 285 339 411
#     4  11  22  37  64 101 135 166 211 279 340 420
#     4  10  25  47  66  99 133 176 235 277 340 409
#     4  12  28  48  76  86 140 198 236 278 340 406
#     4  10  20  38  63  99 133 166 212 269 353 404
#     4  10  25  47  66  99 134 175 234 283 328 421
#
# _framework density 20.640972999999999
#
# number of rings (size 3 to 8) (size 9 to 14) (size 15 to 20)
#    0.000    1.538    3.077    0.923    6.462    1.846 
#    5.538    0.000    0.000    0.000    0.000    0.000 
#    0.000    0.000    0.000    0.000    0.000    0.000 
#
# Total GULP energy -322202.981885 kJ/mol
# GULP energy per Si atom -12392.422380 kJ/mol
# Density = 2.059399 g / cm^3
# Si number density = 20.640973 Si / 1000 Ang^3
#
#
#
# Elastic Constant Matrix: (Units=GPa)
#
#
# Indices 1 2 3 4 5 6 
#
# 1 117.4806 33.3774 41.5807 -0.0003 -20.0940 0.0000
# 2 33.3774 87.1917 47.9701 -0.0004 -16.5937 0.0001
# 3 41.5807 47.9701 92.7741 -0.0013 -22.8403 0.0005
# 4 -0.0003 -0.0004 -0.0013 40.6239 0.0005 -1.9441
# 5 -20.0940 -16.5937 -22.8403 0.0005 35.0140 -0.0001
# 6 0.0000 0.0001 0.0005 -1.9441 -0.0001 35.7439
#
#
#
# Elastic Compliance Matrix: (Units=1/GPa)
#
#
# Indices 1 2 3 4 5 6 
#
# 1 0.010658 -0.001777 -0.003049 0.000000 0.003285 0.000000
# 2 -0.001777 0.016528 -0.007234 0.000000 0.002094 0.000000
# 3 -0.003049 -0.007234 0.017406 0.000000 0.006176 0.000000
# 4 0.000000 0.000000 0.000000 0.024680 0.000000 0.001342
# 5 0.003285 0.002094 0.006176 0.000000 0.035467 0.000000
# 6 0.000000 0.000000 0.000000 0.001342 0.000000 0.028050
#
#
# Mechanical properties :
#
#
# Convention : Reuss Voigt Hill
#
# Bulk Modulus (GPa) = 48.84748 60.36698 54.60723
# Shear Modulus (GPa) = 30.53749 33.91089 32.22419
#
# Velocity S-wave (km/s) = 3.85055 4.05766 3.95546
# Velocity P-wave (km/s) = 6.59436 7.15978 6.88288
#
# Compressibility (1/GPa) = 0.02047188
#
# Stress axis : x y z
#
# Youngs Moduli (GPa) = 93.82553 60.50481 57.45018
#
# Poissons Ratio (x) = 0.10753 0.17517
# Poissons Ratio (y) = 0.16675 0.41558
# Poissons Ratio (z) = 0.28609 0.43768
#
# Static dielectric constant tensor:
#      x y z
#    x 3.533830 -0.000010 0.191440 
#    y -0.000010 4.030120 0.000000 
#    z 0.191440 0.000000 3.382580 
# 
# 
# High freq. dielectric constant tensor:
#      x y z
#    x 1.820680 0.000000 -0.008110 
#    y 0.000000 1.809020 0.000000 
#    z -0.008110 0.000000 1.789330 
# 
# From -- ./inp_files/264179.got.cif
#   From: 2010.06.25/outbox.cif.g09.slc.cpg/sg15_133_cif.got.tgz:264179.got - 2010.06.28 07:06:18.
