data_PCOD8138947
_publ_section_title
;
Structure prediction by ZEFSAII (Michael W. Deem and Ramdas Pophale) SiO2 
 PCOD8138947
Probable space group: C 2/C
;
_chemical_formula_sum "Si O2"
_cell_formula_units_Z 44
_cell_length_a 7.970724
_cell_length_b 19.010212
_cell_length_c 17.829378
_cell_angle_alpha 90.000000
_cell_angle_beta 53.343491
_cell_angle_gamma 90.000000
_cell_volume 2167.301376
_symmetry_space_group_name_H-M "C 2/C"
_symmetry_group_IT_number 15
_symmetry_cell_setting 'monoclinic'
loop_
_space_group_symop_operation_xyz
x,y,z
-x,y,1/2-z
-x,-y,-z
x,-y,1/2+z
1/2+x,1/2+y,z
1/2-x,1/2+y,1/2-z
1/2-x,1/2-y,-z
1/2+x,1/2-y,1/2+z
loop_
_atom_site_type_symbol
_atom_site_label
_atom_site_fract_x
_atom_site_fract_y
_atom_site_fract_z
Si Si1 0.000000 0.390830 0.250000
Si Si2 0.916096 0.194331 0.482659
Si Si3 0.066696 0.818262 0.356571
Si Si4 0.634942 0.936112 0.055494
Si Si5 0.809283 0.409678 0.013247
Si Si6 0.623697 0.182253 0.150772
O O1 0.195010 0.341529 0.220529
O O2 0.044704 0.438036 0.164504
O O3 0.750000 0.250000 0.500000
O O4 0.960784 0.216667 0.555241
O O5 0.833114 0.114991 0.499802
O O6 0.140230 0.196364 0.382052
O O7 0.912158 0.885678 0.392975
O O8 0.995644 0.757081 0.320147
O O9 0.470194 0.907430 0.038989
O O10 0.717750 0.012558 0.012140
O O11 0.885819 0.359829 0.924903
O O12 0.500000 0.140286 0.250000
#
# Coordination Sequence:
#
# PCOD8138947 Si02
#       6
#     4   8   8   8   8   8
#     4  10  24  36  64  94 116 158 208 264 284 374
#     4  10  20  38  63  88 121 162 201 250 303 365
#     4  10  22  38  60  88 123 161 207 246 309 357
#     4  10  22  41  66  88 123 162 203 246 310 363
#     4  10  22  43  62  88 124 169 196 248 313 371
#     4  11  24  37  61  94 125 162 205 259 296 355
#
# _framework density 20.301746999999999
#
# number of rings (size 3 to 8) (size 9 to 14) (size 15 to 20)
#    0.000    1.818    0.000    4.364    8.909    6.545 
#    0.000    0.000    0.000    0.000    0.000    0.000 
#    0.000    0.000    0.000    0.000    0.000    0.000 
#
# Total GULP energy -272693.999263 kJ/mol
# GULP energy per Si atom -12395.181785 kJ/mol
# Density = 2.025554 g / cm^3
# Si number density = 20.301747 Si / 1000 Ang^3
#
#
#
# Elastic Constant Matrix: (Units=GPa)
#
#
# Indices 1 2 3 4 5 6 
#
# 1 115.1384 46.9700 50.6136 0.0000 -7.8151 0.0000
# 2 46.9700 98.4260 34.9775 0.0000 -2.5131 0.0000
# 3 50.6136 34.9775 96.6843 0.0000 -8.7071 0.0000
# 4 0.0000 0.0000 0.0000 21.1719 0.0000 0.9295
# 5 -7.8151 -2.5131 -8.7071 0.0000 38.1428 0.0000
# 6 0.0000 0.0000 0.0000 0.9295 0.0000 33.4552
#
#
#
# Elastic Compliance Matrix: (Units=1/GPa)
#
#
# Indices 1 2 3 4 5 6 
#
# 1 0.012699 -0.004252 -0.005004 0.000000 0.001180 0.000000
# 2 -0.004252 0.013084 -0.002561 0.000000 -0.000594 0.000000
# 3 -0.005004 -0.002561 0.014070 0.000000 0.002018 0.000000
# 4 0.000000 0.000000 0.000000 0.047290 0.000000 -0.001314
# 5 0.001180 -0.000594 0.002018 0.000000 0.026880 0.000000
# 6 0.000000 0.000000 0.000000 -0.001314 0.000000 0.029927
#
#
# Mechanical properties :
#
#
# Convention : Reuss Voigt Hill
#
# Bulk Modulus (GPa) = 61.64948 63.93011 62.78980
# Shear Modulus (GPa) = 28.90312 30.39982 29.65147
#
# Velocity S-wave (km/s) = 3.77726 3.87382 3.82584
# Velocity P-wave (km/s) = 7.03250 7.18102 7.10715
#
# Compressibility (1/GPa) = 0.01622074
#
# Stress axis : x y z
#
# Youngs Moduli (GPa) = 78.74401 76.42939 71.07081
#
# Poissons Ratio (x) = 0.32498 0.35561
# Poissons Ratio (y) = 0.33482 0.18201
# Poissons Ratio (z) = 0.39400 0.19573
#
# Static dielectric constant tensor:
#      x y z
#    x 4.356260 0.000000 -0.045820 
#    y 0.000000 3.574710 0.000000 
#    z -0.045820 0.000000 3.809800 
# 
# 
# High freq. dielectric constant tensor:
#      x y z
#    x 1.812170 0.000000 0.001570 
#    y 0.000000 1.785510 0.000000 
#    z 0.001570 0.000000 1.793330 
# 
# From -- ./inp_files/134357.got.cif
#   From: 2010.06.25/outbox.cif.g09.slc.cpg/sg15_68_cif.got.tgz:134357.got - 2010.06.28 07:06:18.
