data_PCOD8138869
_publ_section_title
;
Structure prediction by ZEFSAII (Michael W. Deem and Ramdas Pophale) SiO2 
 PCOD8138869
Probable space group: C 2/C
;
_chemical_formula_sum "Si O2"
_cell_formula_units_Z 40
_cell_length_a 9.877629
_cell_length_b 16.096001
_cell_length_c 11.412356
_cell_angle_alpha 90.000000
_cell_angle_beta 103.331408
_cell_angle_gamma 90.000000
_cell_volume 1765.559416
_symmetry_space_group_name_H-M "C 2/C"
_symmetry_group_IT_number 15
_symmetry_cell_setting 'monoclinic'
loop_
_space_group_symop_operation_xyz
x,y,z
-x,y,1/2-z
-x,-y,-z
x,-y,1/2+z
1/2+x,1/2+y,z
1/2-x,1/2+y,1/2-z
1/2-x,1/2-y,-z
1/2+x,1/2-y,1/2+z
loop_
_atom_site_type_symbol
_atom_site_label
_atom_site_fract_x
_atom_site_fract_y
_atom_site_fract_z
Si Si1 0.289636 0.602570 0.312372
Si Si2 0.915869 0.283938 0.850709
Si Si3 0.641501 0.486875 0.372054
Si Si4 0.904465 0.426035 0.523784
Si Si5 0.545438 0.382057 0.024297
O O1 0.229823 0.672330 0.212163
O O2 0.364679 0.529236 0.255770
O O3 0.159813 0.563290 0.358044
O O4 0.407882 0.640767 0.419821
O O5 0.000000 0.260916 0.750000
O O6 0.007190 0.341428 0.956344
O O7 0.879338 0.201314 0.916891
O O8 0.775308 0.425827 0.407507
O O9 0.504146 0.432535 0.370019
O O10 0.652548 0.559957 0.473876
O O11 0.000000 0.500000 0.500000
#
# Coordination Sequence:
#
# PCOD8138869 Si02
#       5
#     8   8   8   8   8
#     4  10  21  39  65  87 127 165 199 261 300 362
#     4  10  22  39  64  89 127 159 203 258 309 359
#     4  10  21  39  64  85 127 159 206 254 301 362
#     4  10  20  38  62  89 115 161 206 250 305 365
#     4  10  23  40  62  96 120 166 207 247 309 373
#
# _framework density 22.655709000000002
#
# number of rings (size 3 to 8) (size 9 to 14) (size 15 to 20)
#    0.000    2.000    2.000    0.600    0.000   12.800 
#    0.000    0.000    4.400    0.000    0.000    0.000 
#    0.000    0.000    0.000    0.000    0.000    0.000 
#
# Total GULP energy -247877.102008 kJ/mol
# GULP energy per Si atom -12393.855100 kJ/mol
# Density = 2.260414 g / cm^3
# Si number density = 22.655709 Si / 1000 Ang^3
#
#
#
# Elastic Constant Matrix: (Units=GPa)
#
#
# Indices 1 2 3 4 5 6 
#
# 1 56.5010 18.9134 15.5517 0.0000 11.2225 0.0000
# 2 18.9134 125.7179 44.7361 0.0000 8.3328 0.0000
# 3 15.5517 44.7361 73.4028 0.0000 9.7555 0.0000
# 4 0.0000 0.0000 0.0000 48.9054 0.0000 4.5431
# 5 11.2225 8.3328 9.7555 0.0000 38.8261 0.0000
# 6 0.0000 0.0000 0.0000 4.5431 0.0000 21.8100
#
#
#
# Elastic Compliance Matrix: (Units=1/GPa)
#
#
# Indices 1 2 3 4 5 6 
#
# 1 0.019930 -0.001795 -0.002498 0.000000 -0.004748 0.000000
# 2 -0.001795 0.010334 -0.005889 0.000000 -0.000219 0.000000
# 3 -0.002498 -0.005889 0.018082 0.000000 -0.002557 0.000000
# 4 0.000000 0.000000 0.000000 0.020851 0.000000 -0.004343
# 5 -0.004748 -0.000219 -0.002557 0.000000 0.027818 0.000000
# 6 0.000000 0.000000 0.000000 -0.004343 0.000000 0.046755
#
#
# Mechanical properties :
#
#
# Convention : Reuss Voigt Hill
#
# Bulk Modulus (GPa) = 35.73572 46.00269 40.86921
# Shear Modulus (GPa) = 28.82486 33.66965 31.24726
#
# Velocity S-wave (km/s) = 3.57080 3.85924 3.71782
# Velocity P-wave (km/s) = 5.72787 6.34094 6.04218
#
# Compressibility (1/GPa) = 0.02798320
#
# Stress axis : x y z
#
# Youngs Moduli (GPa) = 50.17519 96.76354 55.30470
#
# Poissons Ratio (x) = 0.17368 0.13813
# Poissons Ratio (y) = 0.09006 0.32569
# Poissons Ratio (z) = 0.12532 0.56984
#
# Static dielectric constant tensor:
#      x y z
#    x 4.129700 0.000000 0.046240 
#    y 0.000000 3.939810 0.000000 
#    z 0.046240 0.000000 4.143370 
# 
# 
# High freq. dielectric constant tensor:
#      x y z
#    x 1.890780 0.000000 0.005220 
#    y 0.000000 1.874850 0.000000 
#    z 0.005220 0.000000 1.896250 
# 
# From -- ./inp_files/85547.got.cif
#   From: 2010.06.25/outbox.cif.g09.slc.cpg/sg15_43_cif.got.tgz:85547.got - 2010.06.28 07:06:18.
