data_PCOD8138144
_publ_section_title
;
Structure prediction by ZEFSAII (Michael W. Deem and Ramdas Pophale) SiO2 
 PCOD8138144
Probable space group: C 2/C
;
_chemical_formula_sum "Si O2"
_cell_formula_units_Z 48
_cell_length_a 13.032946
_cell_length_b 14.190354
_cell_length_c 21.188359
_cell_angle_alpha 90.000000
_cell_angle_beta 34.106799
_cell_angle_gamma 90.000000
_cell_volume 2197.316199
_symmetry_space_group_name_H-M "C 2/C"
_symmetry_group_IT_number 15
_symmetry_cell_setting 'monoclinic'
loop_
_space_group_symop_operation_xyz
x,y,z
-x,y,1/2-z
-x,-y,-z
x,-y,1/2+z
1/2+x,1/2+y,z
1/2-x,1/2+y,1/2-z
1/2-x,1/2-y,-z
1/2+x,1/2-y,1/2+z
loop_
_atom_site_type_symbol
_atom_site_label
_atom_site_fract_x
_atom_site_fract_y
_atom_site_fract_z
Si Si1 0.974136 0.275145 0.960398
Si Si2 0.283450 0.605181 0.470465
Si Si3 0.519827 0.438734 0.310141
Si Si4 0.410835 0.220418 0.359369
Si Si5 0.804106 0.275129 0.370309
Si Si6 0.073945 0.426049 0.412696
O O1 0.991749 0.328528 0.882569
O O2 0.171799 0.231395 0.876329
O O3 0.807689 0.200790 0.033898
O O4 0.902802 0.333198 0.056692
O O5 0.403002 0.510019 0.413035
O O6 0.303400 0.656761 0.527124
O O7 0.343464 0.673626 0.382435
O O8 0.069084 0.582885 0.571024
O O9 0.500000 0.478449 0.250000
O O10 0.448502 0.332244 0.349876
O O11 0.733969 0.448423 0.218770
O O12 0.500000 0.179791 0.250000
O O13 0.000000 0.317017 0.250000
O O14 0.000000 0.500000 0.500000
#
# Coordination Sequence:
#
# PCOD8138144 Si02
#       6
#     8   8   8   8   8   8
#     4  10  21  36  58  87 117 152 204 243 302 363
#     4  10  22  38  58  89 121 151 210 249 298 364
#     4  11  19  36  60  85 114 154 200 254 303 344
#     4  10  20  37  60  85 115 153 194 255 303 359
#     4  10  23  38  58  86 123 164 193 250 305 363
#     4  11  20  35  60  88 115 155 205 257 291 350
#
# _framework density 21.844830000000002
#
# number of rings (size 3 to 8) (size 9 to 14) (size 15 to 20)
#    0.000    1.667    5.000    0.500    4.667    1.333 
#    0.000    0.833    0.000    2.000    0.000    0.000 
#    0.000    0.000    0.000    0.000    0.000    0.000 
#
# Total GULP energy -297375.702034 kJ/mol
# GULP energy per Si atom -12390.654251 kJ/mol
# Density = 2.179511 g / cm^3
# Si number density = 21.844830 Si / 1000 Ang^3
#
#
#
# Elastic Constant Matrix: (Units=GPa)
#
#
# Indices 1 2 3 4 5 6 
#
# 1 135.1319 -5.2683 55.0357 0.0007 -15.8369 0.0001
# 2 -5.2683 38.1845 1.0380 -0.0002 -12.4607 0.0001
# 3 55.0357 1.0380 112.6935 0.0008 -21.2944 0.0006
# 4 0.0007 -0.0002 0.0008 26.4631 -0.0003 -1.6486
# 5 -15.8369 -12.4607 -21.2944 -0.0003 37.0596 -0.0002
# 6 0.0001 0.0001 0.0006 -1.6486 -0.0002 11.4381
#
#
#
# Elastic Compliance Matrix: (Units=1/GPa)
#
#
# Indices 1 2 3 4 5 6 
#
# 1 0.009474 0.002196 -0.004198 0.000000 0.002375 0.000000
# 2 0.002196 0.030252 0.000839 0.000000 0.011592 0.000000
# 3 -0.004198 0.000839 0.011925 0.000000 0.005340 -0.000001
# 4 0.000000 0.000000 0.000000 0.038131 0.000000 0.005496
# 5 0.002375 0.011592 0.005340 0.000000 0.034965 0.000000
# 6 0.000000 0.000000 -0.000001 0.005496 0.000000 0.088219
#
#
# Mechanical properties :
#
#
# Convention : Reuss Voigt Hill
#
# Bulk Modulus (GPa) = 20.27354 43.06897 31.67125
# Shear Modulus (GPa) = 21.57656 30.67245 26.12450
#
# Velocity S-wave (km/s) = 3.14621 3.75120 3.46195
# Velocity P-wave (km/s) = 4.74331 6.20651 5.52357
#
# Compressibility (1/GPa) = 0.04932538
#
# Stress axis : x y z
#
# Youngs Moduli (GPa) = 105.55261 33.05595 83.85529
#
# Poissons Ratio (x) = -0.07260 0.35205
# Poissons Ratio (y) = -0.23181 -0.07038
# Poissons Ratio (z) = 0.44314 -0.02774
#
# Static dielectric constant tensor:
#      x y z
#    x 4.185890 0.000010 -0.047190 
#    y 0.000010 3.656960 -0.000020 
#    z -0.047190 -0.000020 4.093240 
# 
# 
# High freq. dielectric constant tensor:
#      x y z
#    x 1.861510 0.000000 -0.010420 
#    y 0.000000 1.812080 0.000000 
#    z -0.010420 0.000000 1.864660 
# 
# From -- ./inp_files/144388.got.cif
#   From: 2010.06.25/outbox.cif.g09.slc.cpg/sg15_73_cif.got.tgz:144388.got - 2010.06.28 07:06:18.
