data_PCOD8138895
_publ_section_title
;
Structure prediction by ZEFSAII (Michael W. Deem and Ramdas Pophale) SiO2 
 PCOD8138895
Probable space group: C 2/C
;
_chemical_formula_sum "Si O2"
_cell_formula_units_Z 44
_cell_length_a 12.718578
_cell_length_b 23.785713
_cell_length_c 8.508311
_cell_angle_alpha 90.000000
_cell_angle_beta 58.958503
_cell_angle_gamma 90.000000
_cell_volume 2205.334809
_symmetry_space_group_name_H-M "C 2/C"
_symmetry_group_IT_number 15
_symmetry_cell_setting 'monoclinic'
loop_
_space_group_symop_operation_xyz
x,y,z
-x,y,1/2-z
-x,-y,-z
x,-y,1/2+z
1/2+x,1/2+y,z
1/2-x,1/2+y,1/2-z
1/2-x,1/2-y,-z
1/2+x,1/2-y,1/2+z
loop_
_atom_site_type_symbol
_atom_site_label
_atom_site_fract_x
_atom_site_fract_y
_atom_site_fract_z
Si Si1 0.238158 0.540488 0.129199
Si Si2 0.318915 0.827104 0.073776
Si Si3 0.500000 0.100774 0.250000
Si Si4 0.401535 0.291830 0.464648
Si Si5 0.300160 0.429407 0.226575
Si Si6 0.542321 0.397976 0.895506
O O1 0.233702 0.473780 0.164066
O O2 0.328060 0.570696 0.184855
O O3 0.100313 0.562450 0.260776
O O4 0.283581 0.553060 0.919375
O O5 0.219962 0.821185 0.010091
O O6 0.256747 0.866251 0.257317
O O7 0.438717 0.860050 0.926753
O O8 0.363133 0.764906 0.088762
O O9 0.500000 0.279230 0.250000
O O10 0.455355 0.332995 0.553915
O O11 0.444426 0.429828 0.080398
O O12 0.500000 0.401149 0.750000
#
# Coordination Sequence:
#
# PCOD8138895 Si02
#       6
#     8   8   4   8   8   8
#     4  11  23  39  64  92 127 166 211 258 313 374
#     4  10  21  35  67  92 121 163 212 257 304 376
#     4  10  20  38  62  92 124 168 210 252 310 386
#     4  11  19  39  68  94 120 160 219 264 303 370
#     4  11  22  41  62  95 125 166 211 261 315 372
#     4  12  23  40  64  96 129 163 208 265 317 370
#
# _framework density 19.951619000000001
#
# number of rings (size 3 to 8) (size 9 to 14) (size 15 to 20)
#    0.000    1.091    6.364    2.182    0.000    2.909 
#    0.000    0.909    6.000    0.000    0.000    0.000 
#    0.000    0.000    0.000    0.000    0.000    0.000 
#
# Total GULP energy -272739.355403 kJ/mol
# GULP energy per Si atom -12397.243427 kJ/mol
# Density = 1.990621 g / cm^3
# Si number density = 19.951619 Si / 1000 Ang^3
#
#
#
# Elastic Constant Matrix: (Units=GPa)
#
#
# Indices 1 2 3 4 5 6 
#
# 1 121.6207 53.7529 49.3165 0.0000 -22.9643 0.0000
# 2 53.7529 151.5720 39.4882 0.0000 -8.7152 0.0000
# 3 49.3165 39.4882 70.4968 0.0000 -2.9524 0.0000
# 4 0.0000 0.0000 0.0000 27.0154 0.0000 -2.4331
# 5 -22.9643 -8.7152 -2.9524 0.0000 28.4544 0.0000
# 6 0.0000 0.0000 0.0000 -2.4331 0.0000 43.9426
#
#
#
# Elastic Compliance Matrix: (Units=1/GPa)
#
#
# Indices 1 2 3 4 5 6 
#
# 1 0.014646 -0.002399 -0.008474 0.000000 0.010206 0.000000
# 2 -0.002399 0.008224 -0.002917 0.000000 0.000280 0.000000
# 3 -0.008474 -0.002917 0.021517 0.000000 -0.005500 0.000000
# 4 0.000000 0.000000 0.000000 0.037201 0.000000 0.002060
# 5 0.010206 0.000280 -0.005500 0.000000 0.042896 0.000000
# 6 0.000000 0.000000 0.000000 0.002060 0.000000 0.022871
#
#
# Mechanical properties :
#
#
# Convention : Reuss Voigt Hill
#
# Bulk Modulus (GPa) = 59.50074 69.86718 64.68396
# Shear Modulus (GPa) = 27.69495 33.29129 30.49312
#
# Velocity S-wave (km/s) = 3.72977 4.08928 3.91366
# Velocity P-wave (km/s) = 6.95956 7.57566 7.27414
#
# Compressibility (1/GPa) = 0.01680651
#
# Stress axis : x y z
#
# Youngs Moduli (GPa) = 68.27720 121.58972 46.47556
#
# Poissons Ratio (x) = 0.29175 0.39385
# Poissons Ratio (y) = 0.16383 0.13555
# Poissons Ratio (z) = 0.57861 0.35462
#
# Static dielectric constant tensor:
#      x y z
#    x 3.635510 0.000000 -0.381870 
#    y 0.000000 4.117420 0.000000 
#    z -0.381870 0.000000 3.466150 
# 
# 
# High freq. dielectric constant tensor:
#      x y z
#    x 1.769180 0.000000 -0.032180 
#    y 0.000000 1.801430 0.000000 
#    z -0.032180 0.000000 1.751400 
# 
# From -- ./inp_files/31860.got.cif
#   From: 2010.06.25/outbox.cif.g09.slc.cpg/sg15_16_cif.got.tgz:31860.got - 2010.06.28 07:06:18.
