data_PCOD8138559
_publ_section_title
;
Structure prediction by ZEFSAII (Michael W. Deem and Ramdas Pophale) SiO2 
 PCOD8138559
Probable space group: C 2/C
;
_chemical_formula_sum "Si O2"
_cell_formula_units_Z 44
_cell_length_a 18.230232
_cell_length_b 24.418936
_cell_length_c 11.179059
_cell_angle_alpha 90.000000
_cell_angle_beta 27.726701
_cell_angle_gamma 90.000000
_cell_volume 2315.340467
_symmetry_space_group_name_H-M "C 2/C"
_symmetry_group_IT_number 15
_symmetry_cell_setting 'monoclinic'
loop_
_space_group_symop_operation_xyz
x,y,z
-x,y,1/2-z
-x,-y,-z
x,-y,1/2+z
1/2+x,1/2+y,z
1/2-x,1/2+y,1/2-z
1/2-x,1/2-y,-z
1/2+x,1/2-y,1/2+z
loop_
_atom_site_type_symbol
_atom_site_label
_atom_site_fract_x
_atom_site_fract_y
_atom_site_fract_z
Si Si1 0.667640 0.399194 0.053020
Si Si2 0.608364 0.144829 0.445573
Si Si3 0.639339 0.026097 0.372076
Si Si4 0.373691 0.453704 0.147081
Si Si5 0.275826 0.813763 0.475115
Si Si6 0.000000 0.882784 0.750000
O O1 0.500000 0.378700 0.250000
O O2 0.657062 0.406695 0.210123
O O3 0.795550 0.354021 0.820141
O O4 0.714936 0.458099 0.927165
O O5 0.579775 0.081192 0.524283
O O6 0.710709 0.171974 0.403691
O O7 0.439858 0.173017 0.670920
O O8 0.500000 0.000000 0.500000
O O9 0.704945 0.982919 0.372896
O O10 0.500000 0.500000 0.000000
O O11 0.422429 0.422016 0.958686
O O12 0.250000 0.750000 0.500000
O O13 0.132412 0.845415 0.620561
#
# Coordination Sequence:
#
# PCOD8138559 Si02
#       6
#     8   8   8   8   8   4
#     4  10  20  38  57  82 124 175 204 256 312 365
#     4   9  22  41  60  90 126 159 211 268 316 376
#     4  10  21  36  54  89 128 170 205 245 310 378
#     4  12  21  36  60  89 130 174 214 243 313 396
#     4  11  22  43  68  89 117 163 216 281 328 369
#     4  12  24  36  62  96 124 160 224 262 310 388
#
# _framework density 19.003684
#
# number of rings (size 3 to 8) (size 9 to 14) (size 15 to 20)
#    1.091    0.364    1.818    5.455    0.000    3.636 
#    0.000    0.000    0.000   12.000    0.000    0.000 
#    0.000    0.000    0.000    0.000    0.000    0.000 
#
# Total GULP energy -272616.807648 kJ/mol
# GULP energy per Si atom -12391.673075 kJ/mol
# Density = 1.896043 g / cm^3
# Si number density = 19.003684 Si / 1000 Ang^3
#
#
#
# Elastic Constant Matrix: (Units=GPa)
#
#
# Indices 1 2 3 4 5 6 
#
# 1 102.8424 51.7348 39.9315 0.0078 -15.2190 -0.0033
# 2 51.7348 124.3011 42.3639 0.0164 -10.1711 -0.0010
# 3 39.9315 42.3639 111.3659 0.0728 -6.4105 0.0047
# 4 0.0078 0.0164 0.0728 24.4766 -0.0111 -5.5129
# 5 -15.2190 -10.1711 -6.4105 -0.0111 50.2762 -0.0023
# 6 -0.0033 -0.0010 0.0047 -5.5129 -0.0023 29.9921
#
#
#
# Elastic Compliance Matrix: (Units=1/GPa)
#
#
# Indices 1 2 3 4 5 6 
#
# 1 0.013509 -0.004361 -0.003022 0.000010 0.002821 0.000004
# 2 -0.004361 0.010755 -0.002496 0.000002 0.000537 0.000001
# 3 -0.003022 -0.002496 0.011012 -0.000032 -0.000016 -0.000008
# 4 0.000010 0.000002 -0.000032 0.042620 0.000009 0.007834
# 5 0.002821 0.000537 -0.000016 0.000009 0.020851 0.000004
# 6 0.000004 0.000001 -0.000008 0.007834 0.000004 0.034782
#
#
# Mechanical properties :
#
#
# Convention : Reuss Voigt Hill
#
# Bulk Modulus (GPa) = 64.45258 67.39664 65.92461
# Shear Modulus (GPa) = 31.55362 34.58090 33.06726
#
# Velocity S-wave (km/s) = 4.07921 4.27042 4.17591
# Velocity P-wave (km/s) = 7.49507 7.73675 7.61687
#
# Compressibility (1/GPa) = 0.01551528
#
# Stress axis : x y z
#
# Youngs Moduli (GPa) = 74.02675 92.97955 90.81167
#
# Poissons Ratio (x) = 0.40553 0.27445
# Poissons Ratio (y) = 0.32287 0.22671
# Poissons Ratio (z) = 0.22372 0.23212
#
# Static dielectric constant tensor:
#      x y z
#    x 2.059090 0.000140 -0.576440 
#    y 0.000140 3.247790 0.000110 
#    z -0.576440 0.000110 3.230880 
# 
# 
# High freq. dielectric constant tensor:
#      x y z
#    x 1.740240 0.000000 -0.008950 
#    y 0.000000 1.714420 0.000000 
#    z -0.008950 0.000000 1.747600 
# 
# From -- ./inp_files/107894.got.cif
#   From: 2010.06.25/outbox.cif.g09.slc.cpg/sg15_54_cif.got.tgz:107894.got - 2010.06.28 07:06:18.
