data_PCOD8138542
_publ_section_title
;
Structure prediction by ZEFSAII (Michael W. Deem and Ramdas Pophale) SiO2 
 PCOD8138542
Probable space group: C 2/C
;
_chemical_formula_sum "Si O2"
_cell_formula_units_Z 40
_cell_length_a 8.279570
_cell_length_b 31.819226
_cell_length_c 13.633588
_cell_angle_alpha 90.000000
_cell_angle_beta 143.732938
_cell_angle_gamma 90.000000
_cell_volume 2124.706029
_symmetry_space_group_name_H-M "C 2/C"
_symmetry_group_IT_number 15
_symmetry_cell_setting 'monoclinic'
loop_
_space_group_symop_operation_xyz
x,y,z
-x,y,1/2-z
-x,-y,-z
x,-y,1/2+z
1/2+x,1/2+y,z
1/2-x,1/2+y,1/2-z
1/2-x,1/2-y,-z
1/2+x,1/2-y,1/2+z
loop_
_atom_site_type_symbol
_atom_site_label
_atom_site_fract_x
_atom_site_fract_y
_atom_site_fract_z
Si Si1 0.000000 0.374337 0.750000
Si Si2 0.989700 0.915349 0.898225
Si Si3 0.500000 0.955135 0.250000
Si Si4 0.500000 0.655351 0.250000
Si Si5 0.741097 0.498222 0.804396
Si Si6 0.002600 0.695398 0.092983
Si Si7 0.500000 0.736284 0.750000
O O1 0.263845 0.404363 0.869466
O O2 0.940648 0.346074 0.626003
O O3 0.050709 0.873068 0.869350
O O4 0.280799 0.927419 0.085661
O O5 0.865463 0.951204 0.767560
O O6 0.682747 0.981911 0.263216
O O7 0.244420 0.686058 0.136566
O O8 0.500000 0.521291 0.750000
O O9 0.000000 0.500000 0.000000
O O10 0.091040 0.734436 0.204196
O O11 0.743234 0.705995 0.900192
#
# Coordination Sequence:
#
# PCOD8138542 Si02
#       7
#     4   8   4   4   8   8   4
#     4   9  21  36  58  78 110 158 182 226 296 338
#     4  11  22  40  57  82 117 151 191 245 292 349
#     4  12  25  40  59  89 116 152 206 252 294 353
#     4  10  20  38  56  81 117 148 188 226 289 345
#     4  12  24  41  61  85 115 153 202 253 298 349
#     4   9  19  35  57  83 111 146 184 227 274 342
#     4   9  18  36  57  82 113 140 186 226 273 330
#
# _framework density 18.826134
#
# number of rings (size 3 to 8) (size 9 to 14) (size 15 to 20)
#    0.000    1.600    3.000    1.200    2.800    2.400 
#    0.000    0.000    0.000    0.000    0.000    0.000 
#    0.000    0.000    0.000    0.000    0.000    0.000 
#
# Total GULP energy -247959.672460 kJ/mol
# GULP energy per Si atom -12397.983623 kJ/mol
# Density = 1.878328 g / cm^3
# Si number density = 18.826134 Si / 1000 Ang^3
#
#
#
# Elastic Constant Matrix: (Units=GPa)
#
#
# Indices 1 2 3 4 5 6 
#
# 1 150.1581 44.8207 50.7183 0.0000 26.8246 0.0000
# 2 44.8207 77.8575 58.2466 0.0000 15.0511 0.0000
# 3 50.7183 58.2466 154.5788 0.0000 12.4558 0.0000
# 4 0.0000 0.0000 0.0000 21.3221 0.0000 13.3249
# 5 26.8246 15.0511 12.4558 0.0000 29.8720 0.0000
# 6 0.0000 0.0000 0.0000 13.3249 0.0000 22.5988
#
#
#
# Elastic Compliance Matrix: (Units=1/GPa)
#
#
# Indices 1 2 3 4 5 6 
#
# 1 0.009115 -0.003065 -0.001346 0.000000 -0.006080 0.000000
# 2 -0.003065 0.020190 -0.006213 0.000000 -0.004830 0.000000
# 3 -0.001346 -0.006213 0.009212 0.000000 0.000498 0.000000
# 4 0.000000 0.000000 0.000000 0.074265 0.000000 -0.043789
# 5 -0.006080 -0.004830 0.000498 0.000000 0.041162 0.000000
# 6 0.000000 0.000000 0.000000 -0.043789 0.000000 0.070069
#
#
# Mechanical properties :
#
#
# Convention : Reuss Voigt Hill
#
# Bulk Modulus (GPa) = 57.90681 76.68507 67.29594
# Shear Modulus (GPa) = 19.91896 30.01249 24.96573
#
# Velocity S-wave (km/s) = 3.25629 3.99707 3.64554
# Velocity P-wave (km/s) = 6.70548 7.88186 7.31735
#
# Compressibility (1/GPa) = 0.01726913
#
# Stress axis : x y z
#
# Youngs Moduli (GPa) = 109.70581 49.52882 108.55702
#
# Poissons Ratio (x) = 0.15182 0.14610
# Poissons Ratio (y) = 0.33628 0.67446
# Poissons Ratio (z) = 0.14765 0.30772
#
# Static dielectric constant tensor:
#      x y z
#    x 3.901080 0.000000 0.094280 
#    y 0.000000 3.456310 0.000000 
#    z 0.094280 0.000000 3.413380 
# 
# 
# High freq. dielectric constant tensor:
#      x y z
#    x 1.750460 0.000000 0.004680 
#    y 0.000000 1.723750 0.000000 
#    z 0.004680 0.000000 1.730880 
# 
# From -- ./inp_files/23828.got.cif
#   From: 2010.06.25/outbox.cif.g09.slc.cpg/sg15_12_cif.got.tgz:23828.got - 2010.06.28 07:06:18.
