data_PCOD8138911
_publ_section_title
;
Structure prediction by ZEFSAII (Michael W. Deem and Ramdas Pophale) SiO2 
 PCOD8138911
Probable space group: C 2/C
;
_chemical_formula_sum "Si O2"
_cell_formula_units_Z 60
_cell_length_a 17.636766
_cell_length_b 20.668506
_cell_length_c 9.052097
_cell_angle_alpha 90.000000
_cell_angle_beta 59.327452
_cell_angle_gamma 90.000000
_cell_volume 2838.079542
_symmetry_space_group_name_H-M "C 2/C"
_symmetry_group_IT_number 15
_symmetry_cell_setting 'monoclinic'
loop_
_space_group_symop_operation_xyz
x,y,z
-x,y,1/2-z
-x,-y,-z
x,-y,1/2+z
1/2+x,1/2+y,z
1/2-x,1/2+y,1/2-z
1/2-x,1/2-y,-z
1/2+x,1/2-y,1/2+z
loop_
_atom_site_type_symbol
_atom_site_label
_atom_site_fract_x
_atom_site_fract_y
_atom_site_fract_z
Si Si1 0.068282 0.019103 0.052369
Si Si2 0.603059 0.791983 0.910838
Si Si3 0.247821 0.147688 0.079178
Si Si4 0.098867 0.615688 0.156205
Si Si5 0.000000 0.622403 0.750000
Si Si6 0.586139 0.663581 0.072018
Si Si7 0.253214 0.038836 0.308439
Si Si8 0.653123 0.907489 0.285134
O O1 0.000000 0.012522 0.250000
O O2 0.103485 0.092074 0.990295
O O3 0.155853 0.973260 0.977661
O O4 0.000000 0.000000 0.000000
O O5 0.703807 0.802687 0.860639
O O6 0.589399 0.817032 0.757273
O O7 0.545138 0.832579 0.083288
O O8 0.584096 0.715388 0.939960
O O9 0.155613 0.180381 0.132192
O O10 0.238721 0.078547 0.171458
O O11 0.290348 0.139078 0.874884
O O12 0.175672 0.572427 0.154304
O O13 0.000000 0.583348 0.250000
O O14 0.127754 0.630944 0.959858
O O15 0.933331 0.575614 0.727905
O O16 0.500000 0.667981 0.250000
O O17 0.296132 0.971635 0.216281
#
# Coordination Sequence:
#
# PCOD8138911 Si02
#       8
#     8   8   8   8   4   8   8   8
#     4  11  25  43  68  96 129 169 227 277 328 385
#     4  10  21  41  61  92 128 162 220 262 320 389
#     4  10  22  40  63  96 122 176 216 267 319 389
#     4  11  24  40  62  98 136 175 206 269 335 403
#     4  10  20  38  62  94 126 174 214 258 308 400
#     4  11  21  39  69  96 120 169 224 272 323 382
#     4  11  23  41  64  95 139 167 218 272 331 390
#     4  11  22  37  65  92 138 171 216 261 328 393
#
# _framework density 21.141055999999999
#
# number of rings (size 3 to 8) (size 9 to 14) (size 15 to 20)
#    0.000    1.333    3.333    2.800    2.800    0.533 
#    0.000    1.333    0.000    1.600    0.000    0.000 
#    0.000    0.000    0.000    0.000    0.000    0.000 
#
# Total GULP energy -371654.680997 kJ/mol
# GULP energy per Si atom -12388.489367 kJ/mol
# Density = 2.109294 g / cm^3
# Si number density = 21.141056 Si / 1000 Ang^3
#
#
#
# Elastic Constant Matrix: (Units=GPa)
#
#
# Indices 1 2 3 4 5 6 
#
# 1 122.7659 24.1280 36.3882 0.0000 -17.1489 0.0000
# 2 24.1280 53.9644 36.2150 0.0000 -0.2038 0.0000
# 3 36.3882 36.2150 123.8086 0.0000 8.5781 0.0000
# 4 0.0000 0.0000 0.0000 29.1990 0.0000 0.2011
# 5 -17.1489 -0.2038 8.5781 0.0000 36.8028 0.0000
# 6 0.0000 0.0000 0.0000 0.2011 0.0000 26.2363
#
#
#
# Elastic Compliance Matrix: (Units=1/GPa)
#
#
# Indices 1 2 3 4 5 6 
#
# 1 0.010200 -0.002838 -0.002537 0.000000 0.005328 0.000000
# 2 -0.002838 0.023955 -0.006191 0.000000 0.000253 0.000000
# 3 -0.002537 -0.006191 0.010894 0.000000 -0.003755 0.000000
# 4 0.000000 0.000000 0.000000 0.034250 0.000000 -0.000262
# 5 0.005328 0.000253 -0.003755 0.000000 0.030531 0.000000
# 6 0.000000 0.000000 0.000000 -0.000262 0.000000 0.038117
#
#
# Mechanical properties :
#
#
# Convention : Reuss Voigt Hill
#
# Bulk Modulus (GPa) = 45.62501 54.88902 50.25702
# Shear Modulus (GPa) = 28.02972 32.03479 30.03225
#
# Velocity S-wave (km/s) = 3.64516 3.89689 3.77313
# Velocity P-wave (km/s) = 6.27251 6.80201 6.54262
#
# Compressibility (1/GPa) = 0.02191780
#
# Stress axis : x y z
#
# Youngs Moduli (GPa) = 98.04395 41.74514 91.79752
#
# Poissons Ratio (x) = 0.11846 0.23287
# Poissons Ratio (y) = 0.27822 0.56827
# Poissons Ratio (z) = 0.24872 0.25842
#
# Static dielectric constant tensor:
#      x y z
#    x 4.441920 0.000000 -0.174290 
#    y 0.000000 3.825800 0.000000 
#    z -0.174290 0.000000 3.781200 
# 
# 
# High freq. dielectric constant tensor:
#      x y z
#    x 1.856410 0.000000 -0.009240 
#    y 0.000000 1.800320 0.000000 
#    z -0.009240 0.000000 1.825170 
# 
# From -- ./inp_files/50647.got.cif
#   From: 2010.06.25/outbox.cif.g09.slc.cpg/sg15_26_cif.got.tgz:50647.got - 2010.06.28 07:06:18.
