data_PCOD8138635
_publ_section_title
;
Structure prediction by ZEFSAII (Michael W. Deem and Ramdas Pophale) SiO2 
 PCOD8138635
Probable space group: C 2/C
;
_chemical_formula_sum "Si O2"
_cell_formula_units_Z 48
_cell_length_a 14.406705
_cell_length_b 12.193132
_cell_length_c 14.282011
_cell_angle_alpha 90.000000
_cell_angle_beta 67.639824
_cell_angle_gamma 90.000000
_cell_volume 2320.182448
_symmetry_space_group_name_H-M "C 2/C"
_symmetry_group_IT_number 15
_symmetry_cell_setting 'monoclinic'
loop_
_space_group_symop_operation_xyz
x,y,z
-x,y,1/2-z
-x,-y,-z
x,-y,1/2+z
1/2+x,1/2+y,z
1/2-x,1/2+y,1/2-z
1/2-x,1/2-y,-z
1/2+x,1/2-y,1/2+z
loop_
_atom_site_type_symbol
_atom_site_label
_atom_site_fract_x
_atom_site_fract_y
_atom_site_fract_z
Si Si1 0.166619 0.796477 0.367142
Si Si2 0.537962 0.493656 0.339743
Si Si3 0.654513 0.396219 0.563664
Si Si4 0.125330 0.786270 0.759940
Si Si5 0.019768 0.573235 0.846331
Si Si6 0.861985 0.563722 0.064133
O O1 0.202891 0.839545 0.454680
O O2 0.264932 0.768938 0.267410
O O3 0.108245 0.683629 0.408193
O O4 0.091939 0.882595 0.349101
O O5 0.500000 0.475311 0.250000
O O6 0.434161 0.520219 0.436634
O O7 0.613870 0.597784 0.319316
O O8 0.606293 0.308806 0.655814
O O9 0.744678 0.454085 0.585985
O O10 0.042297 0.702504 0.829983
O O11 0.115463 0.519072 0.860051
O O12 0.000000 0.524311 0.750000
O O13 0.923798 0.543199 0.945825
#
# Coordination Sequence:
#
# PCOD8138635 Si02
#       6
#     8   8   8   8   8   8
#     4  11  21  36  63  83 119 156 198 256 304 351
#     4  10  22  37  59  88 119 155 200 249 298 361
#     4  10  20  38  59  88 114 150 212 250 295 352
#     4  10  21  35  61  88 115 151 208 243 293 354
#     4  11  21  38  63  85 126 161 199 248 308 356
#     4  10  23  38  59  94 120 158 206 250 295 371
#
# _framework density 20.688027999999999
#
# number of rings (size 3 to 8) (size 9 to 14) (size 15 to 20)
#    0.000    1.667    0.000    7.000    7.000    0.667 
#    0.000    0.000    0.000    3.000    0.000    0.000 
#    0.000    0.000    0.000    0.000    0.000    0.000 
#
# Total GULP energy -297431.417413 kJ/mol
# GULP energy per Si atom -12392.975726 kJ/mol
# Density = 2.064094 g / cm^3
# Si number density = 20.688028 Si / 1000 Ang^3
#
#
#
# Elastic Constant Matrix: (Units=GPa)
#
#
# Indices 1 2 3 4 5 6 
#
# 1 123.3632 76.0942 31.7785 0.0000 -5.5053 0.0000
# 2 76.0942 99.3237 25.2749 0.0000 3.6213 0.0000
# 3 31.7785 25.2749 71.4998 0.0000 0.6561 0.0000
# 4 0.0000 0.0000 0.0000 18.8988 0.0000 -1.1674
# 5 -5.5053 3.6213 0.6561 0.0000 23.7680 0.0000
# 6 0.0000 0.0000 0.0000 -1.1674 0.0000 45.8457
#
#
#
# Elastic Compliance Matrix: (Units=1/GPa)
#
#
# Indices 1 2 3 4 5 6 
#
# 1 0.016714 -0.012211 -0.003165 0.000000 0.005819 0.000000
# 2 -0.012211 0.020045 -0.001605 0.000000 -0.005838 0.000000
# 3 -0.003165 -0.001605 0.015969 0.000000 -0.000929 0.000000
# 4 0.000000 0.000000 0.000000 0.052997 0.000000 0.001349
# 5 0.005819 -0.005838 -0.000929 0.000000 0.044336 0.000000
# 6 0.000000 0.000000 0.000000 0.001349 0.000000 0.021847
#
#
# Mechanical properties :
#
#
# Convention : Reuss Voigt Hill
#
# Bulk Modulus (GPa) = 53.29252 62.27575 57.78414
# Shear Modulus (GPa) = 23.57112 28.43843 26.00477
#
# Velocity S-wave (km/s) = 3.37910 3.71163 3.54926
# Velocity P-wave (km/s) = 6.40628 6.96677 6.69240
#
# Compressibility (1/GPa) = 0.01876436
#
# Stress axis : x y z
#
# Youngs Moduli (GPa) = 59.83187 49.88854 62.62275
#
# Poissons Ratio (x) = 0.60921 0.19821
# Poissons Ratio (y) = 0.73063 0.10049
# Poissons Ratio (z) = 0.18938 0.08006
#
# Static dielectric constant tensor:
#      x y z
#    x 3.761200 0.000000 -0.234010 
#    y 0.000000 3.703440 0.000000 
#    z -0.234010 0.000000 3.818970 
# 
# 
# High freq. dielectric constant tensor:
#      x y z
#    x 1.810380 0.000000 -0.018670 
#    y 0.000000 1.793760 0.000000 
#    z -0.018670 0.000000 1.808420 
# 
# From -- ./inp_files/151816.got.cif
#   From: 2010.06.25/outbox.cif.g09.slc.cpg/sg15_76_cif.got.tgz:151816.got - 2010.06.28 07:06:18.
