data_PCOD8138308
_publ_section_title
;
Structure prediction by ZEFSAII (Michael W. Deem and Ramdas Pophale) SiO2 
 PCOD8138308
Probable space group: C 2/C
;
_chemical_formula_sum "Si O2"
_cell_formula_units_Z 60
_cell_length_a 25.969171
_cell_length_b 16.246938
_cell_length_c 21.956224
_cell_angle_alpha 90.000000
_cell_angle_beta 159.990916
_cell_angle_gamma 90.000000
_cell_volume 3169.772397
_symmetry_space_group_name_H-M "C 2/C"
_symmetry_group_IT_number 15
_symmetry_cell_setting 'monoclinic'
loop_
_space_group_symop_operation_xyz
x,y,z
-x,y,1/2-z
-x,-y,-z
x,-y,1/2+z
1/2+x,1/2+y,z
1/2-x,1/2+y,1/2-z
1/2-x,1/2-y,-z
1/2+x,1/2-y,1/2+z
loop_
_atom_site_type_symbol
_atom_site_label
_atom_site_fract_x
_atom_site_fract_y
_atom_site_fract_z
Si Si1 0.608771 0.987199 0.756810
Si Si2 0.543490 0.168120 0.464808
Si Si3 0.831308 0.126062 0.567124
Si Si4 0.769084 0.317500 0.971294
Si Si5 0.536950 0.272158 0.911957
Si Si6 0.000000 0.555383 0.750000
Si Si7 0.717704 0.279002 0.365772
Si Si8 0.347531 0.853347 0.278768
O O1 0.480531 0.007701 0.664566
O O2 0.645932 0.060936 0.751138
O O3 0.553832 0.911202 0.657254
O O4 0.746358 0.956281 0.951735
O O5 0.438995 0.249271 0.339557
O O6 0.686070 0.179155 0.580085
O O7 0.598710 0.145058 0.592817
O O8 0.802223 0.202040 0.489596
O O9 0.798557 0.151555 0.600445
O O10 0.000000 0.098199 0.750000
O O11 0.599649 0.334080 0.758625
O O12 0.750000 0.250000 0.000000
O O13 0.895153 0.286239 0.064401
O O14 0.841948 0.396621 0.083567
O O15 0.460569 0.211914 0.875278
O O16 0.673224 0.326415 0.088716
#
# Coordination Sequence:
#
# PCOD8138308 Si02
#       8
#     8   8   8   8   8   4   8   8
#     4  11  24  36  58  89 124 162 194 247 321 363
#     4  11  22  39  63  85 121 162 201 254 293 365
#     4  10  20  37  62  91 129 149 193 258 314 371
#     4  11  18  33  57  85 113 144 187 251 296 337
#     4  10  21  36  59  84 112 154 207 246 284 344
#     4  12  20  36  56  84 120 152 192 240 300 372
#     4  10  20  37  64  96 115 152 206 251 310 359
#     4  11  22  41  58  86 120 163 214 243 296 358
#
# _framework density 18.928804
#
# number of rings (size 3 to 8) (size 9 to 14) (size 15 to 20)
#    0.000    1.333    4.000    2.800    0.000    1.067 
#    0.000    0.000    0.000    1.600    0.000    0.000 
#    0.000    0.000    0.000    0.000    0.000    0.000 
#
# Total GULP energy -371683.506186 kJ/mol
# GULP energy per Si atom -12389.450206 kJ/mol
# Density = 1.888572 g / cm^3
# Si number density = 18.928804 Si / 1000 Ang^3
#
#
#
# Elastic Constant Matrix: (Units=GPa)
#
#
# Indices 1 2 3 4 5 6 
#
# 1 123.0183 44.0077 66.1044 -0.0052 -5.5254 -0.0026
# 2 44.0077 82.7040 51.1044 -0.0035 -4.9368 -0.0057
# 3 66.1044 51.1044 127.9602 -0.0117 4.7528 -0.0065
# 4 -0.0052 -0.0035 -0.0117 32.1279 -0.0028 -8.3697
# 5 -5.5254 -4.9368 4.7528 -0.0028 33.0528 -0.0023
# 6 -0.0026 -0.0057 -0.0065 -8.3697 -0.0023 26.6414
#
#
#
# Elastic Compliance Matrix: (Units=1/GPa)
#
#
# Indices 1 2 3 4 5 6 
#
# 1 0.012084 -0.003166 -0.005063 0.000000 0.002275 -0.000001
# 2 -0.003166 0.017257 -0.005361 0.000000 0.002819 0.000002
# 3 -0.005063 -0.005361 0.012701 0.000003 -0.003473 0.000002
# 4 0.000000 0.000000 0.000003 0.033900 0.000003 0.010650
# 5 0.002275 0.002819 -0.003473 0.000003 0.031556 0.000004
# 6 -0.000001 0.000002 0.000002 0.010650 0.000004 0.040881
#
#
# Mechanical properties :
#
#
# Convention : Reuss Voigt Hill
#
# Bulk Modulus (GPa) = 67.28660 72.90170 70.09415
# Shear Modulus (GPa) = 27.69892 29.86216 28.78054
#
# Velocity S-wave (km/s) = 3.82949 3.97622 3.90354
# Velocity P-wave (km/s) = 7.42817 7.72513 7.57810
#
# Compressibility (1/GPa) = 0.01486180
#
# Stress axis : x y z
#
# Youngs Moduli (GPa) = 82.75325 57.94737 78.73666
#
# Poissons Ratio (x) = 0.18345 0.39863
# Poissons Ratio (y) = 0.26199 0.42213
# Poissons Ratio (z) = 0.41896 0.31067
#
# Static dielectric constant tensor:
#      x y z
#    x 3.489160 -0.000020 -0.033580 
#    y -0.000020 3.408530 -0.000030 
#    z -0.033580 -0.000030 3.238350 
# 
# 
# High freq. dielectric constant tensor:
#      x y z
#    x 1.743780 0.000000 0.002780 
#    y 0.000000 1.725170 0.000000 
#    z 0.002780 0.000000 1.745180 
# 
# From -- ./inp_files/61568.got.cif
#   From: 2010.06.25/outbox.cif.g09.slc.cpg/sg15_31_cif.got.tgz:61568.got - 2010.06.28 07:06:18.
