data_PCOD8138750
_publ_section_title
;
Structure prediction by ZEFSAII (Michael W. Deem and Ramdas Pophale) SiO2 
 PCOD8138750
Probable space group: C 2/C
;
_chemical_formula_sum "Si O2"
_cell_formula_units_Z 56
_cell_length_a 17.371438
_cell_length_b 9.651113
_cell_length_c 18.725707
_cell_angle_alpha 90.000000
_cell_angle_beta 65.832615
_cell_angle_gamma 90.000000
_cell_volume 2864.273258
_symmetry_space_group_name_H-M "C 2/C"
_symmetry_group_IT_number 15
_symmetry_cell_setting 'monoclinic'
loop_
_space_group_symop_operation_xyz
x,y,z
-x,y,1/2-z
-x,-y,-z
x,-y,1/2+z
1/2+x,1/2+y,z
1/2-x,1/2+y,1/2-z
1/2-x,1/2-y,-z
1/2+x,1/2-y,1/2+z
loop_
_atom_site_type_symbol
_atom_site_label
_atom_site_fract_x
_atom_site_fract_y
_atom_site_fract_z
Si Si1 0.919449 0.864397 0.733889
Si Si2 0.820487 0.500327 0.592804
Si Si3 0.351414 0.013129 0.925185
Si Si4 0.409205 0.136337 0.270547
Si Si5 0.041558 0.593822 0.856806
Si Si6 0.688629 0.384030 0.252929
Si Si7 0.733617 0.777912 0.138203
O O1 0.938830 0.755110 0.663940
O O2 0.851708 0.804389 0.814345
O O3 0.000000 0.904387 0.750000
O O4 0.884283 0.002209 0.709205
O O5 0.817444 0.552096 0.511925
O O6 0.911488 0.537392 0.590928
O O7 0.748037 0.578284 0.664063
O O8 0.808065 0.333224 0.596492
O O9 0.442078 0.081793 0.905844
O O10 0.282969 0.126017 0.924207
O O11 0.361411 0.891729 0.863099
O O12 0.500000 0.208901 0.250000
O O13 0.351542 0.233493 0.244060
O O14 0.425860 0.990521 0.224773
O O15 0.743326 0.377283 0.303931
#
# Coordination Sequence:
#
# PCOD8138750 Si02
#       7
#     8   8   8   8   8   8   8
#     4  11  20  37  61  87 111 153 207 239 281 349
#     4  11  23  36  58  91 120 152 197 247 304 345
#     4  11  22  36  61  88 119 157 195 251 294 349
#     4  10  20  38  61  85 115 154 199 241 289 348
#     4  11  19  39  61  84 112 157 205 237 281 359
#     4  11  23  36  61  87 119 155 197 246 297 349
#     4  11  21  38  60  86 119 155 195 247 290 352
#
# _framework density 19.551207000000002
#
# number of rings (size 3 to 8) (size 9 to 14) (size 15 to 20)
#    0.000    1.143    5.714    1.714    2.000    0.571 
#    0.000    0.000    0.000    0.857    0.000    0.000 
#    0.000    0.000    0.000    0.000    0.000    0.000 
#
# Total GULP energy -347274.336407 kJ/mol
# GULP energy per Si atom -12402.654872 kJ/mol
# Density = 1.950671 g / cm^3
# Si number density = 19.551207 Si / 1000 Ang^3
#
#
#
# Elastic Constant Matrix: (Units=GPa)
#
#
# Indices 1 2 3 4 5 6 
#
# 1 119.1565 41.9587 29.9386 0.0000 16.6477 0.0000
# 2 41.9587 77.9754 24.2540 0.0000 1.5601 0.0000
# 3 29.9386 24.2540 96.3911 0.0000 18.3460 0.0000
# 4 0.0000 0.0000 0.0000 21.9827 0.0000 4.6975
# 5 16.6477 1.5601 18.3460 0.0000 24.8463 0.0000
# 6 0.0000 0.0000 0.0000 4.6975 0.0000 30.8426
#
#
#
# Elastic Compliance Matrix: (Units=1/GPa)
#
#
# Indices 1 2 3 4 5 6 
#
# 1 0.011613 -0.005851 -0.000842 0.000000 -0.006792 0.000000
# 2 -0.005851 0.016947 -0.003479 0.000000 0.005426 0.000000
# 3 -0.000842 -0.003479 0.013220 0.000000 -0.008979 0.000000
# 4 0.000000 0.000000 0.000000 0.047021 0.000000 -0.007162
# 5 -0.006792 0.005426 -0.008979 0.000000 0.051088 0.000000
# 6 0.000000 0.000000 0.000000 -0.007162 0.000000 0.033513
#
#
# Mechanical properties :
#
#
# Convention : Reuss Voigt Hill
#
# Bulk Modulus (GPa) = 46.65262 53.98064 50.31663
# Shear Modulus (GPa) = 24.88891 28.69244 26.79067
#
# Velocity S-wave (km/s) = 3.57180 3.83502 3.70575
# Velocity P-wave (km/s) = 6.39718 6.87602 6.64092
#
# Compressibility (1/GPa) = 0.02143503
#
# Stress axis : x y z
#
# Youngs Moduli (GPa) = 86.10858 59.00794 75.64070
#
# Poissons Ratio (x) = 0.34527 0.06369
# Poissons Ratio (y) = 0.50385 0.26319
# Poissons Ratio (z) = 0.07250 0.20532
#
# Static dielectric constant tensor:
#      x y z
#    x 3.812150 0.000000 0.048480 
#    y 0.000000 3.480980 0.000000 
#    z 0.048480 0.000000 3.368580 
# 
# 
# High freq. dielectric constant tensor:
#      x y z
#    x 1.779180 0.000000 0.009040 
#    y 0.000000 1.749060 0.000000 
#    z 0.009040 0.000000 1.740610 
# 
# From -- ./inp_files/209513.got.cif
#   From: 2010.06.25/outbox.cif.g09.slc.cpg/sg15_105_cif.got.tgz:209513.got - 2010.06.28 07:06:18.
