data_PCOD8138792
_publ_section_title
;
Structure prediction by ZEFSAII (Michael W. Deem and Ramdas Pophale) SiO2 
 PCOD8138792
Probable space group: C 2/C
;
_chemical_formula_sum "Si O2"
_cell_formula_units_Z 32
_cell_length_a 7.591203
_cell_length_b 13.216192
_cell_length_c 24.091153
_cell_angle_alpha 90.000000
_cell_angle_beta 129.534774
_cell_angle_gamma 90.000000
_cell_volume 1864.074094
_symmetry_space_group_name_H-M "C 2/C"
_symmetry_group_IT_number 15
_symmetry_cell_setting 'monoclinic'
loop_
_space_group_symop_operation_xyz
x,y,z
-x,y,1/2-z
-x,-y,-z
x,-y,1/2+z
1/2+x,1/2+y,z
1/2-x,1/2+y,1/2-z
1/2-x,1/2-y,-z
1/2+x,1/2-y,1/2+z
loop_
_atom_site_type_symbol
_atom_site_label
_atom_site_fract_x
_atom_site_fract_y
_atom_site_fract_z
Si Si1 0.449852 0.306952 0.071627
Si Si2 0.326667 0.668484 0.665019
Si Si3 0.741961 0.498967 0.428392
Si Si4 0.350759 0.271290 0.580677
O O1 0.439591 0.273984 0.134610
O O2 0.403932 0.428215 0.058415
O O3 0.693927 0.281223 0.095371
O O4 0.250000 0.250000 0.000000
O O5 0.500000 0.667003 0.750000
O O6 0.265444 0.553047 0.634341
O O7 0.100445 0.726546 0.638435
O O8 0.633989 0.609434 0.405031
O O9 0.000000 0.500000 0.500000
O O10 0.250000 0.250000 0.500000
#
# Coordination Sequence:
#
# PCOD8138792 Si02
#       4
#     8   8   8   8
#     4  10  20  38  61  91 119 153 210 245 294 368
#     4  10  24  44  56  90 134 151 203 268 300 352
#     4  10  20  39  62  91 118 158 209 245 302 364
#     4  12  20  39  67  90 118 167 202 249 307 363
#
# _framework density 17.166701
#
# number of rings (size 3 to 8) (size 9 to 14) (size 15 to 20)
#    1.500    0.000    7.500    0.000    0.000    2.000 
#    9.000    0.000    0.000    0.000    0.000    0.000 
#    0.000    0.000    0.000    0.000    0.000    0.000 
#
# Total GULP energy -198269.442093 kJ/mol
# GULP energy per Si atom -12391.840131 kJ/mol
# Density = 1.712763 g / cm^3
# Si number density = 17.166701 Si / 1000 Ang^3
#
#
#
# Elastic Constant Matrix: (Units=GPa)
#
#
# Indices 1 2 3 4 5 6 
#
# 1 154.1434 73.7744 65.6794 0.0000 -0.5055 0.0000
# 2 73.7744 162.2166 50.8286 0.0000 6.7721 0.0000
# 3 65.6794 50.8286 159.9272 0.0000 7.2899 0.0000
# 4 0.0000 0.0000 0.0000 24.4467 0.0000 -3.9306
# 5 -0.5055 6.7721 7.2899 0.0000 27.7869 0.0000
# 6 0.0000 0.0000 0.0000 -3.9306 0.0000 36.1522
#
#
#
# Elastic Compliance Matrix: (Units=1/GPa)
#
#
# Indices 1 2 3 4 5 6 
#
# 1 0.009341 -0.003436 -0.002824 0.000000 0.001748 0.000000
# 2 -0.003436 0.008145 -0.001097 0.000000 -0.001760 0.000000
# 3 -0.002824 -0.001097 0.007845 0.000000 -0.001842 0.000000
# 4 0.000000 0.000000 0.000000 0.041633 0.000000 0.004526
# 5 0.001748 -0.001760 -0.001842 0.000000 0.036932 0.000000
# 6 0.000000 0.000000 0.000000 0.004526 0.000000 0.028153
#
#
# Mechanical properties :
#
#
# Convention : Reuss Voigt Hill
#
# Bulk Modulus (GPa) = 94.19366 95.20579 94.69972
# Shear Modulus (GPa) = 33.26627 36.74414 35.00520
#
# Velocity S-wave (km/s) = 4.40686 4.63150 4.52058
# Velocity P-wave (km/s) = 8.99350 9.17502 9.08471
#
# Compressibility (1/GPa) = 0.01061643
#
# Stress axis : x y z
#
# Youngs Moduli (GPa) = 107.05408 122.77976 127.46724
#
# Poissons Ratio (x) = 0.42192 0.35993
# Poissons Ratio (y) = 0.36788 0.13984
# Poissons Ratio (z) = 0.30229 0.13470
#
# Static dielectric constant tensor:
#      x y z
#    x 3.417520 0.000000 -0.041140 
#    y 0.000000 3.252330 0.000000 
#    z -0.041140 0.000000 2.981450 
# 
# 
# High freq. dielectric constant tensor:
#      x y z
#    x 1.665340 0.000000 -0.000790 
#    y 0.000000 1.663420 0.000000 
#    z -0.000790 0.000000 1.648270 
# 
# From -- ./inp_files/187427.got.cif
#   From: 2010.06.25/outbox.cif.g09.slc.cpg/sg15_94_cif.got.tgz:187427.got - 2010.06.28 07:06:18.
