data_PCOD8138754
_publ_section_title
;
Structure prediction by ZEFSAII (Michael W. Deem and Ramdas Pophale) SiO2 
 PCOD8138754
Probable space group: C 2/C
;
_chemical_formula_sum "Si O2"
_cell_formula_units_Z 32
_cell_length_a 6.806747
_cell_length_b 25.653251
_cell_length_c 9.715406
_cell_angle_alpha 90.000000
_cell_angle_beta 69.385051
_cell_angle_gamma 90.000000
_cell_volume 1587.829394
_symmetry_space_group_name_H-M "C 2/C"
_symmetry_group_IT_number 15
_symmetry_cell_setting 'monoclinic'
loop_
_space_group_symop_operation_xyz
x,y,z
-x,y,1/2-z
-x,-y,-z
x,-y,1/2+z
1/2+x,1/2+y,z
1/2-x,1/2+y,1/2-z
1/2-x,1/2-y,-z
1/2+x,1/2-y,1/2+z
loop_
_atom_site_type_symbol
_atom_site_label
_atom_site_fract_x
_atom_site_fract_y
_atom_site_fract_z
Si Si1 0.976991 0.576036 0.592627
Si Si2 0.695039 0.270566 0.287784
Si Si3 0.064146 0.691981 0.530957
Si Si4 0.148799 0.006046 0.091914
O O1 0.761327 0.548661 0.599886
O O2 0.000000 0.572998 0.750000
O O3 0.965240 0.635000 0.540456
O O4 0.176204 0.549732 0.472389
O O5 0.500000 0.293137 0.250000
O O6 0.745479 0.309100 0.404246
O O7 0.641629 0.213242 0.363919
O O8 0.891276 0.267574 0.134827
O O9 0.000000 0.025495 0.250000
O O10 0.000000 0.000000 0.000000
#
# Coordination Sequence:
#
# PCOD8138754 Si02
#       4
#     8   8   8   8
#     4  11  22  42  65  90 126 161 211 258 312 375
#     4  10  20  38  61  85 124 161 204 250 301 359
#     4  10  22  40  59  91 123 163 205 254 300 365
#     4  11  24  43  66  92 123 161 209 265 318 378
#
# _framework density 20.153299000000001
#
# number of rings (size 3 to 8) (size 9 to 14) (size 15 to 20)
#    0.000    1.500    5.000    0.750    0.000    3.000 
#   13.500    0.000    0.000    0.000    0.000    0.000 
#    0.000    0.000    0.000    0.000    0.000    0.000 
#
# Total GULP energy -198378.741146 kJ/mol
# GULP energy per Si atom -12398.671322 kJ/mol
# Density = 2.010743 g / cm^3
# Si number density = 20.153299 Si / 1000 Ang^3
#
#
#
# Elastic Constant Matrix: (Units=GPa)
#
#
# Indices 1 2 3 4 5 6 
#
# 1 125.9128 35.1423 44.0799 0.0000 4.4240 0.0000
# 2 35.1423 120.1679 63.3641 0.0000 -10.8588 0.0000
# 3 44.0799 63.3641 125.3424 0.0000 -16.9333 0.0000
# 4 0.0000 0.0000 0.0000 26.6645 0.0000 -2.7012
# 5 4.4240 -10.8588 -16.9333 0.0000 32.6333 0.0000
# 6 0.0000 0.0000 0.0000 -2.7012 0.0000 21.2018
#
#
#
# Elastic Compliance Matrix: (Units=1/GPa)
#
#
# Indices 1 2 3 4 5 6 
#
# 1 0.009547 -0.001481 -0.003065 0.000000 -0.003378 0.000000
# 2 -0.001481 0.011598 -0.005155 0.000000 0.001385 0.000000
# 3 -0.003065 -0.005155 0.012353 0.000000 0.005110 0.000000
# 4 0.000000 0.000000 0.000000 0.037993 0.000000 0.004841
# 5 -0.003378 0.001385 0.005110 0.000000 0.034214 0.000000
# 6 0.000000 0.000000 0.000000 0.004841 0.000000 0.047782
#
#
# Mechanical properties :
#
#
# Convention : Reuss Voigt Hill
#
# Bulk Modulus (GPa) = 70.94652 72.95509 71.95080
# Shear Modulus (GPa) = 28.15495 31.35572 29.75534
#
# Velocity S-wave (km/s) = 3.74175 3.94872 3.84663
# Velocity P-wave (km/s) = 7.34489 7.55437 7.45037
#
# Compressibility (1/GPa) = 0.01409512
#
# Stress axis : x y z
#
# Youngs Moduli (GPa) = 104.74441 86.21924 80.95495
#
# Poissons Ratio (x) = 0.12769 0.24813
# Poissons Ratio (y) = 0.15512 0.41735
# Poissons Ratio (z) = 0.32105 0.44449
#
# Static dielectric constant tensor:
#      x y z
#    x 3.967950 0.000000 -0.081450 
#    y 0.000000 3.472720 0.000000 
#    z -0.081450 0.000000 3.770160 
# 
# 
# High freq. dielectric constant tensor:
#      x y z
#    x 1.800760 0.000000 -0.003010 
#    y 0.000000 1.760020 0.000000 
#    z -0.003010 0.000000 1.795950 
# 
# From -- ./inp_files/72802.got.cif
#   From: 2010.06.25/outbox.cif.g09.slc.cpg/sg15_37_cif.got.tgz:72802.got - 2010.06.28 07:06:18.
