data_PCOD8138142
_publ_section_title
;
Structure prediction by ZEFSAII (Michael W. Deem and Ramdas Pophale) SiO2 
 PCOD8138142
Probable space group: C 2/C
;
_chemical_formula_sum "Si O2"
_cell_formula_units_Z 40
_cell_length_a 8.473053
_cell_length_b 19.250842
_cell_length_c 15.158979
_cell_angle_alpha 90.000000
_cell_angle_beta 129.489888
_cell_angle_gamma 90.000000
_cell_volume 1908.221705
_symmetry_space_group_name_H-M "C 2/C"
_symmetry_group_IT_number 15
_symmetry_cell_setting 'monoclinic'
loop_
_space_group_symop_operation_xyz
x,y,z
-x,y,1/2-z
-x,-y,-z
x,-y,1/2+z
1/2+x,1/2+y,z
1/2-x,1/2+y,1/2-z
1/2-x,1/2-y,-z
1/2+x,1/2-y,1/2+z
loop_
_atom_site_type_symbol
_atom_site_label
_atom_site_fract_x
_atom_site_fract_y
_atom_site_fract_z
Si Si1 0.329905 0.232144 0.763236
Si Si2 0.995169 0.128755 0.643254
Si Si3 0.169104 0.473506 0.238377
Si Si4 0.279742 0.615644 0.205447
Si Si5 0.423360 0.128783 0.947364
O O1 0.500000 0.219921 0.750000
O O2 0.117829 0.196982 0.653485
O O3 0.294009 0.313748 0.767324
O O4 0.405000 0.197771 0.880956
O O5 0.000000 0.129056 0.750000
O O6 0.751799 0.128737 0.536333
O O7 0.115406 0.060086 0.652172
O O8 0.189673 0.555994 0.235740
O O9 0.099899 0.439947 0.120984
O O10 0.000000 0.455567 0.250000
O O11 0.500000 0.591023 0.250000
O O12 0.142246 0.628902 0.070604
#
# Coordination Sequence:
#
# PCOD8138142 Si02
#       5
#     8   8   8   8   8
#     4   9  19  35  56  83 110 143 185 227 270 326
#     4   8  16  34  58  77 106 145 179 218 274 333
#     4  10  20  37  60  85 112 141 185 232 272 329
#     4  11  23  37  56  83 115 147 186 230 272 328
#     4  10  20  38  60  79 111 154 181 219 286 332
#
# _framework density 20.961924
#
# number of rings (size 3 to 8) (size 9 to 14) (size 15 to 20)
#    0.000    2.800    0.000    4.800    0.000    6.400 
#    0.000    6.000    0.000    0.000    0.000    0.000 
#    0.000    0.000    0.000    0.000    0.000    0.000 
#
# Total GULP energy -247871.699452 kJ/mol
# GULP energy per Si atom -12393.584973 kJ/mol
# Density = 2.091421 g / cm^3
# Si number density = 20.961924 Si / 1000 Ang^3
#
#
#
# Elastic Constant Matrix: (Units=GPa)
#
#
# Indices 1 2 3 4 5 6 
#
# 1 142.1224 52.1148 33.0284 0.0000 25.0770 0.0000
# 2 52.1148 148.0674 10.1960 0.0000 0.4473 0.0000
# 3 33.0284 10.1960 66.6165 0.0000 28.0059 0.0000
# 4 0.0000 0.0000 0.0000 9.4706 0.0000 2.0979
# 5 25.0770 0.4473 28.0059 0.0000 23.4891 0.0000
# 6 0.0000 0.0000 0.0000 2.0979 0.0000 32.3027
#
#
#
# Elastic Compliance Matrix: (Units=1/GPa)
#
#
# Indices 1 2 3 4 5 6 
#
# 1 0.010273 -0.003588 0.000076 0.000000 -0.010990 0.000000
# 2 -0.003588 0.008138 -0.002029 0.000000 0.006094 0.000000
# 3 0.000076 -0.002029 0.030680 0.000000 -0.036622 0.000000
# 4 0.000000 0.000000 0.000000 0.107131 0.000000 -0.006957
# 5 -0.010990 0.006094 -0.036622 0.000000 0.097855 0.000000
# 6 0.000000 0.000000 0.000000 -0.006957 0.000000 0.031409
#
#
# Mechanical properties :
#
#
# Convention : Reuss Voigt Hill
#
# Bulk Modulus (GPa) = 26.30883 60.83162 43.57023
# Shear Modulus (GPa) = 16.16881 30.48361 23.32621
#
# Velocity S-wave (km/s) = 2.78032 3.81758 3.33947
# Velocity P-wave (km/s) = 4.78382 6.96527 5.97494
#
# Compressibility (1/GPa) = 0.03801005
#
# Stress axis : x y z
#
# Youngs Moduli (GPa) = 97.33935 122.88351 32.59406
#
# Poissons Ratio (x) = 0.44089 -0.00247
# Poissons Ratio (y) = 0.34924 0.06612
# Poissons Ratio (z) = -0.00738 0.24930
#
# Static dielectric constant tensor:
#      x y z
#    x 4.494790 0.000000 0.794740 
#    y 0.000000 3.875120 0.000000 
#    z 0.794740 0.000000 3.671430 
# 
# 
# High freq. dielectric constant tensor:
#      x y z
#    x 1.833320 0.000000 0.031210 
#    y 0.000000 1.829780 0.000000 
#    z 0.031210 0.000000 1.777410 
# 
# From -- ./inp_files/190185.got.cif
#   From: 2010.06.25/outbox.cif.g09.slc.cpg/sg15_96_cif.got.tgz:190185.got - 2010.06.28 07:06:18.
