data_PCOD8138363
_publ_section_title
;
Structure prediction by ZEFSAII (Michael W. Deem and Ramdas Pophale) SiO2 
 PCOD8138363
Probable space group: C 2/C
;
_chemical_formula_sum "Si O2"
_cell_formula_units_Z 56
_cell_length_a 12.235465
_cell_length_b 16.779959
_cell_length_c 15.171695
_cell_angle_alpha 90.000000
_cell_angle_beta 121.518543
_cell_angle_gamma 90.000000
_cell_volume 2655.370351
_symmetry_space_group_name_H-M "C 2/C"
_symmetry_group_IT_number 15
_symmetry_cell_setting 'monoclinic'
loop_
_space_group_symop_operation_xyz
x,y,z
-x,y,1/2-z
-x,-y,-z
x,-y,1/2+z
1/2+x,1/2+y,z
1/2-x,1/2+y,1/2-z
1/2-x,1/2-y,-z
1/2+x,1/2-y,1/2+z
loop_
_atom_site_type_symbol
_atom_site_label
_atom_site_fract_x
_atom_site_fract_y
_atom_site_fract_z
Si Si1 0.635356 0.515260 0.288793
Si Si2 0.829449 0.045281 0.513114
Si Si3 0.196031 0.700217 0.794229
Si Si4 0.102329 0.076715 0.595657
Si Si5 0.545074 0.043498 0.365239
Si Si6 0.659794 0.144378 0.123861
Si Si7 0.038791 0.360162 0.395658
O O1 0.500000 0.560184 0.250000
O O2 0.648150 0.449331 0.372036
O O3 0.637556 0.483306 0.190397
O O4 0.756312 0.568047 0.360854
O O5 0.840373 0.957131 0.472355
O O6 0.689427 0.079540 0.429761
O O7 0.949541 0.093136 0.520804
O O8 0.333850 0.659291 0.853477
O O9 0.237387 0.791670 0.795742
O O10 0.108131 0.669587 0.676454
O O11 0.121173 0.677364 0.851601
O O12 0.500000 0.020570 0.250000
O O13 0.453777 0.114337 0.360515
O O14 0.540328 0.956660 0.410512
O O15 0.596075 0.178112 0.008174
#
# Coordination Sequence:
#
# PCOD8138363 Si02
#       7
#     8   8   8   8   8   8   8
#     4  10  21  36  62  93 120 157 209 264 311 385
#     4  10  20  37  63  91 119 160 216 262 308 383
#     4  11  23  41  61  95 128 168 204 269 332 382
#     4  10  20  40  63  89 124 168 210 262 324 387
#     4  12  22  42  67  96 124 172 220 268 317 391
#     4  12  25  38  64  98 129 163 215 273 326 379
#     4  11  22  42  70  89 130 171 214 265 322 392
#
# _framework density 21.089337
#
# number of rings (size 3 to 8) (size 9 to 14) (size 15 to 20)
#    0.000    1.143    4.286    2.571    4.000    0.000 
#    7.714    2.857    0.000    0.000    0.000    0.000 
#    0.000    0.000    0.000    0.000    0.000    0.000 
#
# Total GULP energy -346896.965351 kJ/mol
# GULP energy per Si atom -12389.177334 kJ/mol
# Density = 2.104134 g / cm^3
# Si number density = 21.089337 Si / 1000 Ang^3
#
#
#
# Elastic Constant Matrix: (Units=GPa)
#
#
# Indices 1 2 3 4 5 6 
#
# 1 104.7339 31.6585 25.6623 0.0000 30.0705 0.0000
# 2 31.6585 59.9316 4.5492 0.0000 7.9066 0.0000
# 3 25.6623 4.5492 101.8612 0.0000 17.1857 0.0000
# 4 0.0000 0.0000 0.0000 18.1834 0.0000 5.7970
# 5 30.0705 7.9066 17.1857 0.0000 44.3471 0.0000
# 6 0.0000 0.0000 0.0000 5.7970 0.0000 30.1633
#
#
#
# Elastic Compliance Matrix: (Units=1/GPa)
#
#
# Indices 1 2 3 4 5 6 
#
# 1 0.014153 -0.006309 -0.001984 0.000000 -0.007703 0.000000
# 2 -0.006309 0.019907 0.000618 0.000000 0.000490 0.000000
# 3 -0.001984 0.000618 0.010786 0.000000 -0.002945 0.000000
# 4 0.000000 0.000000 0.000000 0.058585 0.000000 -0.011259
# 5 -0.007703 0.000490 -0.002945 0.000000 0.028826 0.000000
# 6 0.000000 0.000000 0.000000 -0.011259 0.000000 0.035317
#
#
# Mechanical properties :
#
#
# Convention : Reuss Voigt Hill
#
# Bulk Modulus (GPa) = 33.90401 43.36295 38.63348
# Shear Modulus (GPa) = 25.93935 32.18255 29.06095
#
# Velocity S-wave (km/s) = 3.51090 3.91066 3.71616
# Velocity P-wave (km/s) = 5.70496 6.40290 6.06398
#
# Compressibility (1/GPa) = 0.02949504
#
# Stress axis : x y z
#
# Youngs Moduli (GPa) = 70.65666 50.23333 92.70929
#
# Poissons Ratio (x) = 0.31694 0.18396
# Poissons Ratio (y) = 0.44580 -0.05728
# Poissons Ratio (z) = 0.14020 -0.03104
#
# Static dielectric constant tensor:
#      x y z
#    x 4.107650 0.000000 0.266500 
#    y 0.000000 3.286070 0.000000 
#    z 0.266500 0.000000 4.070220 
# 
# 
# High freq. dielectric constant tensor:
#      x y z
#    x 1.837460 0.000000 0.021460 
#    y 0.000000 1.769440 0.000000 
#    z 0.021460 0.000000 1.845980 
# 
# From -- ./inp_files/146146.got.cif
#   From: 2010.06.25/outbox.cif.g09.slc.cpg/sg15_74_cif.got.tgz:146146.got - 2010.06.28 07:06:18.
