data_PCOD8138124
_publ_section_title
;
Structure prediction by ZEFSAII (Michael W. Deem and Ramdas Pophale) SiO2 
 PCOD8138124
Probable space group: C 2/C
;
_chemical_formula_sum "Si O2"
_cell_formula_units_Z 60
_cell_length_a 19.026500
_cell_length_b 12.197843
_cell_length_c 14.070676
_cell_angle_alpha 90.000000
_cell_angle_beta 75.520420
_cell_angle_gamma 90.000000
_cell_volume 3161.829873
_symmetry_space_group_name_H-M "C 2/C"
_symmetry_group_IT_number 15
_symmetry_cell_setting 'monoclinic'
loop_
_space_group_symop_operation_xyz
x,y,z
-x,y,1/2-z
-x,-y,-z
x,-y,1/2+z
1/2+x,1/2+y,z
1/2-x,1/2+y,1/2-z
1/2-x,1/2-y,-z
1/2+x,1/2-y,1/2+z
loop_
_atom_site_type_symbol
_atom_site_label
_atom_site_fract_x
_atom_site_fract_y
_atom_site_fract_z
Si Si1 0.175914 0.183690 0.009879
Si Si2 0.284201 0.163815 0.696664
Si Si3 0.000000 0.721700 0.750000
Si Si4 0.638493 0.347928 0.729939
Si Si5 0.711193 0.501507 0.846194
Si Si6 0.296331 0.194919 0.404305
Si Si7 0.556679 0.136898 0.540453
Si Si8 0.594137 0.889736 0.498969
O O1 0.152703 0.119901 0.114807
O O2 0.113775 0.268280 0.998215
O O3 0.250000 0.250000 0.000000
O O4 0.178945 0.094139 0.925624
O O5 0.306513 0.248600 0.770298
O O6 0.209436 0.216515 0.678786
O O7 0.349566 0.145241 0.601331
O O8 0.267526 0.049274 0.750874
O O9 0.941732 0.803406 0.724403
O O10 0.966980 0.642263 0.841352
O O11 0.648665 0.444910 0.803325
O O12 0.755807 0.417419 0.893939
O O13 0.250000 0.250000 0.500000
O O14 0.378099 0.167319 0.412040
O O15 0.486510 0.152835 0.496526
O O16 0.594756 0.020721 0.509212
#
# Coordination Sequence:
#
# PCOD8138124 Si02
#       8
#     8   8   4   8   8   8   8   8
#     4  11  22  38  60  91 120 151 203 251 295 346
#     4  10  20  37  60  86 120 154 197 248 293 361
#     4  10  20  42  56  78 122 162 196 236 304 352
#     4  10  22  39  60  85 117 160 197 247 291 366
#     4  11  23  37  61  91 116 159 200 246 300 348
#     4   9  21  36  57  81 119 155 192 239 298 356
#     4  10  22  35  62  89 120 156 202 251 295 367
#     4  10  20  37  59  91 119 159 197 241 313 354
#
# _framework density 18.976351999999999
#
# number of rings (size 3 to 8) (size 9 to 14) (size 15 to 20)
#    0.000    1.867    2.667    0.800    7.467    0.000 
#    0.000    5.333    0.000    0.000    0.000    0.000 
#    0.000    0.000    0.000    0.000    0.000    0.000 
#
# Total GULP energy -371816.387460 kJ/mol
# GULP energy per Si atom -12393.879582 kJ/mol
# Density = 1.893316 g / cm^3
# Si number density = 18.976352 Si / 1000 Ang^3
#
#
#
# Elastic Constant Matrix: (Units=GPa)
#
#
# Indices 1 2 3 4 5 6 
#
# 1 125.5383 57.8551 38.9875 0.0000 22.6615 0.0000
# 2 57.8551 109.1030 43.9973 0.0000 11.0087 0.0000
# 3 38.9875 43.9973 70.0782 0.0000 7.8528 0.0000
# 4 0.0000 0.0000 0.0000 37.2974 0.0000 3.9058
# 5 22.6615 11.0087 7.8528 0.0000 22.9384 0.0000
# 6 0.0000 0.0000 0.0000 3.9058 0.0000 25.9356
#
#
#
# Elastic Compliance Matrix: (Units=1/GPa)
#
#
# Indices 1 2 3 4 5 6 
#
# 1 0.012720 -0.004517 -0.003198 0.000000 -0.009304 0.000000
# 2 -0.004517 0.014134 -0.006344 0.000000 -0.000149 0.000000
# 3 -0.003198 -0.006344 0.020109 0.000000 -0.000679 0.000000
# 4 0.000000 0.000000 0.000000 0.027241 0.000000 -0.004102
# 5 -0.009304 -0.000149 -0.000679 0.000000 0.053091 0.000000
# 6 0.000000 0.000000 0.000000 -0.004102 0.000000 0.039175
#
#
# Mechanical properties :
#
#
# Convention : Reuss Voigt Hill
#
# Bulk Modulus (GPa) = 53.06758 65.15549 59.11154
# Shear Modulus (GPa) = 24.89174 28.15958 26.52566
#
# Velocity S-wave (km/s) = 3.62570 3.85636 3.74281
# Velocity P-wave (km/s) = 6.74933 7.36467 7.06370
#
# Compressibility (1/GPa) = 0.01884390
#
# Stress axis : x y z
#
# Youngs Moduli (GPa) = 78.61647 70.75019 49.72998
#
# Poissons Ratio (x) = 0.31955 0.15906
# Poissons Ratio (y) = 0.35507 0.31551
# Poissons Ratio (z) = 0.25145 0.44887
#
# Static dielectric constant tensor:
#      x y z
#    x 4.748890 0.000000 1.206240 
#    y 0.000000 3.634950 0.000000 
#    z 1.206240 0.000000 4.273300 
# 
# 
# High freq. dielectric constant tensor:
#      x y z
#    x 1.740030 0.000000 0.020940 
#    y 0.000000 1.736100 0.000000 
#    z 0.020940 0.000000 1.735200 
# 
# From -- ./inp_files/160882.got.cif
#   From: 2010.06.25/outbox.cif.g09.slc.cpg/sg15_81_cif.got.tgz:160882.got - 2010.06.28 07:06:18.
