data_PCOD8138563
_publ_section_title
;
Structure prediction by ZEFSAII (Michael W. Deem and Ramdas Pophale) SiO2 
 PCOD8138563
Probable space group: C 2/C
;
_chemical_formula_sum "Si O2"
_cell_formula_units_Z 52
_cell_length_a 19.866267
_cell_length_b 12.504261
_cell_length_c 11.295002
_cell_angle_alpha 90.000000
_cell_angle_beta 78.177185
_cell_angle_gamma 90.000000
_cell_volume 2746.302084
_symmetry_space_group_name_H-M "C 2/C"
_symmetry_group_IT_number 15
_symmetry_cell_setting 'monoclinic'
loop_
_space_group_symop_operation_xyz
x,y,z
-x,y,1/2-z
-x,-y,-z
x,-y,1/2+z
1/2+x,1/2+y,z
1/2-x,1/2+y,1/2-z
1/2-x,1/2-y,-z
1/2+x,1/2-y,1/2+z
loop_
_atom_site_type_symbol
_atom_site_label
_atom_site_fract_x
_atom_site_fract_y
_atom_site_fract_z
Si Si1 0.253116 0.687404 0.622112
Si Si2 0.500000 0.216200 0.750000
Si Si3 0.354129 0.166688 0.204435
Si Si4 0.146467 0.631576 0.044294
Si Si5 0.938619 0.568657 0.973343
Si Si6 0.238129 0.058766 0.361692
Si Si7 0.366086 0.727505 0.178185
O O1 0.250000 0.750000 0.500000
O O2 0.316127 0.725665 0.679378
O O3 0.270548 0.563327 0.597924
O O4 0.181014 0.706727 0.713749
O O5 0.461910 0.141839 0.857533
O O6 0.558344 0.289904 0.791533
O O7 0.387180 0.183147 0.323733
O O8 0.295006 0.072672 0.235331
O O9 0.412876 0.141607 0.089929
O O10 0.122021 0.508735 0.046284
O O11 0.229709 0.623462 0.035910
O O12 0.124158 0.699825 0.940900
O O13 0.000000 0.500000 0.000000
O O14 0.166200 0.113006 0.347220
#
# Coordination Sequence:
#
# PCOD8138563 Si02
#       7
#     8   4   8   8   8   8   8
#     4  11  21  38  61  91 120 154 204 258 298 359
#     4  12  24  36  60  88 132 168 200 248 312 382
#     4   9  22  36  58  89 120 156 199 252 298 356
#     4  10  20  38  57  88 119 156 202 249 305 359
#     4  12  21  37  60  90 128 159 197 252 314 369
#     4   9  21  37  63  87 119 158 201 254 305 350
#     4  11  22  40  58  90 125 158 204 251 308 372
#
# _framework density 18.934552
#
# number of rings (size 3 to 8) (size 9 to 14) (size 15 to 20)
#    0.923    0.615    1.538    5.077    0.000    1.231 
#    0.000    0.000    0.000    5.538    0.000    0.000 
#    0.000    0.000    0.000    0.000    0.000    0.000 
#
# Total GULP energy -322161.720532 kJ/mol
# GULP energy per Si atom -12390.835405 kJ/mol
# Density = 1.889146 g / cm^3
# Si number density = 18.934552 Si / 1000 Ang^3
#
#
#
# Elastic Constant Matrix: (Units=GPa)
#
#
# Indices 1 2 3 4 5 6 
#
# 1 127.6000 41.8241 39.8019 0.0000 13.6866 0.0000
# 2 41.8241 97.8560 32.8865 0.0000 5.2734 0.0000
# 3 39.8019 32.8865 132.1577 0.0000 1.8925 0.0000
# 4 0.0000 0.0000 0.0000 22.5537 0.0000 7.1700
# 5 13.6866 5.2734 1.8925 0.0000 30.4540 0.0000
# 6 0.0000 0.0000 0.0000 7.1700 0.0000 31.1815
#
#
#
# Elastic Compliance Matrix: (Units=1/GPa)
#
#
# Indices 1 2 3 4 5 6 
#
# 1 0.010006 -0.003359 -0.002123 0.000000 -0.003783 0.000000
# 2 -0.003359 0.012374 -0.002060 0.000000 -0.000505 0.000000
# 3 -0.002123 -0.002060 0.008708 0.000000 0.000770 0.000000
# 4 0.000000 0.000000 0.000000 0.047835 0.000000 -0.010999
# 5 -0.003783 -0.000505 0.000770 0.000000 0.034576 0.000000
# 6 0.000000 0.000000 0.000000 -0.010999 0.000000 0.034600
#
#
# Mechanical properties :
#
#
# Convention : Reuss Voigt Hill
#
# Bulk Modulus (GPa) = 62.49010 65.18205 63.83608
# Shear Modulus (GPa) = 29.67005 33.04460 31.35733
#
# Velocity S-wave (km/s) = 3.96280 4.18209 4.07392
# Velocity P-wave (km/s) = 7.34937 7.60391 7.47773
#
# Compressibility (1/GPa) = 0.01600253
#
# Stress axis : x y z
#
# Youngs Moduli (GPa) = 99.93769 80.81154 114.83785
#
# Poissons Ratio (x) = 0.27146 0.24386
# Poissons Ratio (y) = 0.33571 0.23661
# Poissons Ratio (z) = 0.21222 0.16650
#
# Static dielectric constant tensor:
#      x y z
#    x 3.572530 0.000000 0.149490 
#    y 0.000000 3.359210 0.000000 
#    z 0.149490 0.000000 3.531980 
# 
# 
# High freq. dielectric constant tensor:
#      x y z
#    x 1.731020 0.000000 0.016320 
#    y 0.000000 1.707720 0.000000 
#    z 0.016320 0.000000 1.744370 
# 
# From -- ./inp_files/110952.got.cif
#   From: 2010.06.25/outbox.cif.g09.slc.cpg/sg15_56_cif.got.tgz:110952.got - 2010.06.28 07:06:18.
