data_PCOD8138655
_publ_section_title
;
Structure prediction by ZEFSAII (Michael W. Deem and Ramdas Pophale) SiO2 
 PCOD8138655
Probable space group: C 2/C
;
_chemical_formula_sum "Si O2"
_cell_formula_units_Z 48
_cell_length_a 10.151359
_cell_length_b 14.323997
_cell_length_c 27.280007
_cell_angle_alpha 90.000000
_cell_angle_beta 37.856198
_cell_angle_gamma 90.000000
_cell_volume 2434.311277
_symmetry_space_group_name_H-M "C 2/C"
_symmetry_group_IT_number 15
_symmetry_cell_setting 'monoclinic'
loop_
_space_group_symop_operation_xyz
x,y,z
-x,y,1/2-z
-x,-y,-z
x,-y,1/2+z
1/2+x,1/2+y,z
1/2-x,1/2+y,1/2-z
1/2-x,1/2-y,-z
1/2+x,1/2-y,1/2+z
loop_
_atom_site_type_symbol
_atom_site_label
_atom_site_fract_x
_atom_site_fract_y
_atom_site_fract_z
Si Si1 0.554578 0.554392 0.319383
Si Si2 0.414372 0.753742 0.378345
Si Si3 0.363954 0.053615 0.578994
Si Si4 0.707054 0.923157 0.655760
Si Si5 0.960982 0.453571 0.159943
Si Si6 0.538604 0.740107 0.452913
O O1 0.491915 0.662347 0.325086
O O2 0.373171 0.486771 0.352154
O O3 0.601588 0.544434 0.363838
O O4 0.760346 0.519216 0.229842
O O5 0.552669 0.843958 0.320176
O O6 0.452438 0.732170 0.423509
O O7 0.156705 0.773088 0.450495
O O8 0.491509 0.041913 0.592652
O O9 0.346697 0.161914 0.569947
O O10 0.500000 0.000000 0.500000
O O11 0.500000 0.894128 0.750000
O O12 0.779152 0.839705 0.598114
O O13 0.660832 0.007522 0.632145
#
# Coordination Sequence:
#
# PCOD8138655 Si02
#       6
#     8   8   8   8   8   8
#     4  10  20  38  60  82 114 149 189 239 280 340
#     4   9  18  35  57  82 111 154 186 223 292 348
#     4  11  21  37  58  85 114 149 192 234 285 337
#     4   9  20  38  58  84 114 149 193 239 285 338
#     4  10  22  37  59  87 113 150 194 233 286 342
#     4   9  18  34  59  80 111 152 192 229 274 352
#
# _framework density 19.718101999999998
#
# number of rings (size 3 to 8) (size 9 to 14) (size 15 to 20)
#    0.000    2.333    1.667    0.500    2.333    6.000 
#    0.000    7.500    0.000    0.000    0.000    0.000 
#    0.000    0.000    0.000    0.000    0.000    0.000 
#
# Total GULP energy -297352.021751 kJ/mol
# GULP energy per Si atom -12389.667573 kJ/mol
# Density = 1.967322 g / cm^3
# Si number density = 19.718102 Si / 1000 Ang^3
#
#
#
# Elastic Constant Matrix: (Units=GPa)
#
#
# Indices 1 2 3 4 5 6 
#
# 1 70.8386 28.7661 6.3661 -0.0012 -1.8154 -0.0015
# 2 28.7661 133.6317 54.7275 -0.0006 -2.8614 -0.0003
# 3 6.3661 54.7275 60.0898 -0.0059 -2.3832 0.0093
# 4 -0.0012 -0.0006 -0.0059 35.6283 0.0043 -3.8909
# 5 -1.8154 -2.8614 -2.3832 0.0043 18.3164 0.0000
# 6 -0.0015 -0.0003 0.0093 -3.8909 0.0000 32.1369
#
#
#
# Elastic Compliance Matrix: (Units=1/GPa)
#
#
# Indices 1 2 3 4 5 6 
#
# 1 0.015683 -0.004289 0.002292 0.000001 0.001183 0.000000
# 2 -0.004289 0.013112 -0.011482 -0.000002 0.000129 0.000003
# 3 0.002292 -0.011482 0.026933 0.000003 0.001938 -0.000007
# 4 0.000001 -0.000002 0.000003 0.028444 -0.000006 0.003444
# 5 0.001183 0.000129 0.001938 -0.000006 0.054986 -0.000001
# 6 0.000000 0.000003 -0.000007 0.003444 -0.000001 0.031534
#
#
# Mechanical properties :
#
#
# Convention : Reuss Voigt Hill
#
# Bulk Modulus (GPa) = 34.75990 49.36438 42.06214
# Shear Modulus (GPa) = 24.12671 28.86299 26.49485
#
# Velocity S-wave (km/s) = 3.50177 3.83009 3.66960
# Velocity P-wave (km/s) = 5.83237 6.68198 6.27158
#
# Compressibility (1/GPa) = 0.02876879
#
# Stress axis : x y z
#
# Youngs Moduli (GPa) = 63.76451 76.26769 37.12881
#
# Poissons Ratio (x) = 0.32713 -0.08509
# Poissons Ratio (y) = 0.27350 0.42632
# Poissons Ratio (z) = -0.14614 0.87571
#
# Static dielectric constant tensor:
#      x y z
#    x 3.253030 0.000120 0.020710 
#    y 0.000120 3.557670 -0.000070 
#    z 0.020710 -0.000070 3.440960 
# 
# 
# High freq. dielectric constant tensor:
#      x y z
#    x 1.749080 0.000000 -0.014110 
#    y 0.000000 1.779430 0.000000 
#    z -0.014110 0.000000 1.753610 
# 
# From -- ./inp_files/311137.got.cif
#   From: 2010.06.25/outbox.cif.g09.slc.cpg/sg15_156_cif.got.tgz:311137.got - 2010.06.28 07:06:18.
