data_PCOD8138447
_publ_section_title
;
Structure prediction by ZEFSAII (Michael W. Deem and Ramdas Pophale) SiO2 
 PCOD8138447
Probable space group: C 2/C
;
_chemical_formula_sum "Si O2"
_cell_formula_units_Z 40
_cell_length_a 10.713905
_cell_length_b 10.513108
_cell_length_c 23.436737
_cell_angle_alpha 90.000000
_cell_angle_beta 47.194611
_cell_angle_gamma 90.000000
_cell_volume 1936.753862
_symmetry_space_group_name_H-M "C 2/C"
_symmetry_group_IT_number 15
_symmetry_cell_setting 'monoclinic'
loop_
_space_group_symop_operation_xyz
x,y,z
-x,y,1/2-z
-x,-y,-z
x,-y,1/2+z
1/2+x,1/2+y,z
1/2-x,1/2+y,1/2-z
1/2-x,1/2-y,-z
1/2+x,1/2-y,1/2+z
loop_
_atom_site_type_symbol
_atom_site_label
_atom_site_fract_x
_atom_site_fract_y
_atom_site_fract_z
Si Si1 0.379501 0.495841 0.835492
Si Si2 0.513295 0.925052 0.914394
Si Si3 0.055609 0.187936 0.488632
Si Si4 0.838447 0.956376 0.973383
Si Si5 0.423472 0.787573 0.832034
O O1 0.500000 0.430279 0.750000
O O2 0.187030 0.498295 0.872465
O O3 0.390894 0.421766 0.892150
O O4 0.447404 0.636863 0.825838
O O5 0.530567 0.848446 0.850227
O O6 0.466456 0.828702 0.980076
O O7 0.365086 0.030263 0.958146
O O8 0.225860 0.176065 0.398294
O O9 0.896248 0.157091 0.497203
O O10 0.069086 0.087956 0.536596
O O11 0.500000 0.845220 0.750000
#
# Coordination Sequence:
#
# PCOD8138447 Si02
#       5
#     8   8   8   8   8
#     4  11  23  38  59  87 120 150 191 242 283 341
#     4  11  21  41  59  85 116 153 193 238 281 345
#     4  10  20  37  65  83 115 155 192 239 279 342
#     4  10  20  38  61  88 113 148 199 234 283 339
#     4  10  21  39  59  84 119 155 186 236 294 334
#
# _framework density 20.653113999999999
#
# number of rings (size 3 to 8) (size 9 to 14) (size 15 to 20)
#    0.000    1.600    4.000    1.800    2.800    0.800 
#    0.000    0.000    0.000    0.000    0.000    0.000 
#    0.000    0.000    0.000    0.000    0.000    0.000 
#
# Total GULP energy -248042.101258 kJ/mol
# GULP energy per Si atom -12402.105063 kJ/mol
# Density = 2.060611 g / cm^3
# Si number density = 20.653114 Si / 1000 Ang^3
#
#
#
# Elastic Constant Matrix: (Units=GPa)
#
#
# Indices 1 2 3 4 5 6 
#
# 1 123.0285 5.8464 64.9882 0.0000 10.0222 0.0000
# 2 5.8464 21.9182 12.1810 0.0000 6.5440 0.0000
# 3 64.9882 12.1810 145.7904 0.0000 21.5843 0.0000
# 4 0.0000 0.0000 0.0000 13.9939 0.0000 -3.6632
# 5 10.0222 6.5440 21.5843 0.0000 29.4949 0.0000
# 6 0.0000 0.0000 0.0000 -3.6632 0.0000 30.4801
#
#
#
# Elastic Compliance Matrix: (Units=1/GPa)
#
#
# Indices 1 2 3 4 5 6 
#
# 1 0.010633 -0.000183 -0.004705 0.000000 -0.000129 0.000000
# 2 -0.000183 0.049889 -0.002756 0.000000 -0.008990 0.000000
# 3 -0.004705 -0.002756 0.009936 0.000000 -0.005061 0.000000
# 4 0.000000 0.000000 0.000000 0.073781 0.000000 0.008867
# 5 -0.000129 -0.008990 -0.005061 0.000000 0.039646 0.000000
# 6 0.000000 0.000000 0.000000 0.008867 0.000000 0.033874
#
#
# Mechanical properties :
#
#
# Convention : Reuss Voigt Hill
#
# Bulk Modulus (GPa) = 18.12588 50.75206 34.43897
# Shear Modulus (GPa) = 19.88571 28.64187 24.26379
#
# Velocity S-wave (km/s) = 3.10634 3.72802 3.43129
# Velocity P-wave (km/s) = 4.65416 6.56946 5.69293
#
# Compressibility (1/GPa) = 0.05516974
#
# Stress axis : x y z
#
# Youngs Moduli (GPa) = 94.04702 20.04470 100.64187
#
# Poissons Ratio (x) = 0.00366 0.47356
# Poissons Ratio (y) = 0.01718 0.27736
# Poissons Ratio (z) = 0.44253 0.05524
#
# Static dielectric constant tensor:
#      x y z
#    x 3.893840 0.000000 0.244230 
#    y 0.000000 3.417050 0.000000 
#    z 0.244230 0.000000 3.965710 
# 
# 
# High freq. dielectric constant tensor:
#      x y z
#    x 1.818430 0.000000 0.012980 
#    y 0.000000 1.781120 0.000000 
#    z 0.012980 0.000000 1.806140 
# 
# From -- ./inp_files/141712.got.cif
#   From: 2010.06.25/outbox.cif.g09.slc.cpg/sg15_71_cif.got.tgz:141712.got - 2010.06.28 07:06:18.
