data_PCOD8138758
_publ_section_title
;
Structure prediction by ZEFSAII (Michael W. Deem and Ramdas Pophale) SiO2 
 PCOD8138758
Probable space group: C 2/C
;
_chemical_formula_sum "Si O2"
_cell_formula_units_Z 40
_cell_length_a 14.416434
_cell_length_b 10.381346
_cell_length_c 13.246865
_cell_angle_alpha 90.000000
_cell_angle_beta 93.016303
_cell_angle_gamma 90.000000
_cell_volume 1979.805547
_symmetry_space_group_name_H-M "C 2/C"
_symmetry_group_IT_number 15
_symmetry_cell_setting 'monoclinic'
loop_
_space_group_symop_operation_xyz
x,y,z
-x,y,1/2-z
-x,-y,-z
x,-y,1/2+z
1/2+x,1/2+y,z
1/2-x,1/2+y,1/2-z
1/2-x,1/2-y,-z
1/2+x,1/2-y,1/2+z
loop_
_atom_site_type_symbol
_atom_site_label
_atom_site_fract_x
_atom_site_fract_y
_atom_site_fract_z
Si Si1 0.988093 0.402491 0.588166
Si Si2 0.553808 0.521274 0.161837
Si Si3 0.089674 0.136842 0.968156
Si Si4 0.702062 0.357488 0.285332
Si Si5 0.845613 0.579424 0.253003
O O1 0.968760 0.266581 0.536290
O O2 0.901844 0.442345 0.653365
O O3 0.000000 0.500000 0.500000
O O4 0.084046 0.396223 0.652727
O O5 0.500000 0.597619 0.250000
O O6 0.473277 0.472123 0.084677
O O7 0.613331 0.407059 0.216054
O O8 0.615665 0.608499 0.088285
O O9 0.182592 0.142284 0.904942
O O10 0.788572 0.449084 0.268267
O O11 0.719882 0.207742 0.255434
#
# Coordination Sequence:
#
# PCOD8138758 Si02
#       5
#     8   8   8   8   8
#     4  10  21  41  61  81 118 160 195 237 295 354
#     4   9  17  34  59  86 113 149 195 239 284 346
#     4   9  18  36  61  84 113 155 193 234 291 347
#     4  10  20  38  61  86 120 154 193 245 292 343
#     4  10  22  41  61  86 119 158 194 239 297 348
#
# _framework density 20.204004000000001
#
# number of rings (size 3 to 8) (size 9 to 14) (size 15 to 20)
#    0.000    2.400    2.000    0.000    0.000    3.200 
#   14.400    6.000    0.000    0.000    0.000    0.000 
#    0.000    0.000    0.000    0.000    0.000    0.000 
#
# Total GULP energy -247800.421762 kJ/mol
# GULP energy per Si atom -12390.021088 kJ/mol
# Density = 2.015802 g / cm^3
# Si number density = 20.204004 Si / 1000 Ang^3
#
#
#
# Elastic Constant Matrix: (Units=GPa)
#
#
# Indices 1 2 3 4 5 6 
#
# 1 61.8641 49.4731 24.4011 0.0000 -14.0064 0.0000
# 2 49.4731 119.0038 70.2298 0.0000 -19.6563 0.0000
# 3 24.4011 70.2298 152.5636 0.0000 -26.6920 0.0000
# 4 0.0000 0.0000 0.0000 31.5316 0.0000 -5.1873
# 5 -14.0064 -19.6563 -26.6920 0.0000 15.3849 0.0000
# 6 0.0000 0.0000 0.0000 -5.1873 0.0000 35.2340
#
#
#
# Elastic Compliance Matrix: (Units=1/GPa)
#
#
# Indices 1 2 3 4 5 6 
#
# 1 0.027086 -0.010470 0.003534 0.000000 0.017414 0.000000
# 2 -0.010470 0.016301 -0.005532 0.000000 0.001696 0.000000
# 3 0.003534 -0.005532 0.011289 0.000000 0.015735 0.000000
# 4 0.000000 0.000000 0.000000 0.032501 0.000000 0.004785
# 5 0.017414 0.001696 0.015735 0.000000 0.110319 0.000000
# 6 0.000000 0.000000 0.000000 0.004785 0.000000 0.029086
#
#
# Mechanical properties :
#
#
# Convention : Reuss Voigt Hill
#
# Bulk Modulus (GPa) = 33.62528 69.07108 51.34818
# Shear Modulus (GPa) = 19.12553 29.05194 24.08874
#
# Velocity S-wave (km/s) = 3.08006 3.79612 3.45668
# Velocity P-wave (km/s) = 5.41554 7.31266 6.43440
#
# Compressibility (1/GPa) = 0.02973953
#
# Stress axis : x y z
#
# Youngs Moduli (GPa) = 36.91991 61.34694 88.58128
#
# Poissons Ratio (x) = 0.64227 -0.31305
# Poissons Ratio (y) = 0.38653 0.49007
# Poissons Ratio (z) = -0.13048 0.33940
#
# Static dielectric constant tensor:
#      x y z
#    x 3.452350 0.000000 -0.189180 
#    y 0.000000 2.646210 0.000000 
#    z -0.189180 0.000000 4.117570 
# 
# 
# High freq. dielectric constant tensor:
#      x y z
#    x 1.770900 0.000000 -0.004510 
#    y 0.000000 1.778620 0.000000 
#    z -0.004510 0.000000 1.805900 
# 
# From -- ./inp_files/94595.got.cif
#   From: 2010.06.25/outbox.cif.g09.slc.cpg/sg15_48_cif.got.tgz:94595.got - 2010.06.28 07:06:18.
