data_PCOD8138629
_publ_section_title
;
Structure prediction by ZEFSAII (Michael W. Deem and Ramdas Pophale) SiO2 
 PCOD8138629
Probable space group: C 2/C
;
_chemical_formula_sum "Si O2"
_cell_formula_units_Z 44
_cell_length_a 9.251838
_cell_length_b 25.875545
_cell_length_c 11.722761
_cell_angle_alpha 90.000000
_cell_angle_beta 41.914648
_cell_angle_gamma 90.000000
_cell_volume 1874.730028
_symmetry_space_group_name_H-M "C 2/C"
_symmetry_group_IT_number 15
_symmetry_cell_setting 'monoclinic'
loop_
_space_group_symop_operation_xyz
x,y,z
-x,y,1/2-z
-x,-y,-z
x,-y,1/2+z
1/2+x,1/2+y,z
1/2-x,1/2+y,1/2-z
1/2-x,1/2-y,-z
1/2+x,1/2-y,1/2+z
loop_
_atom_site_type_symbol
_atom_site_label
_atom_site_fract_x
_atom_site_fract_y
_atom_site_fract_z
Si Si1 0.733957 0.405608 0.795865
Si Si2 0.786920 0.560319 0.510929
Si Si3 0.814366 0.150595 0.782270
Si Si4 0.335027 0.191310 0.093713
Si Si5 0.500000 0.469770 0.750000
Si Si6 0.253190 0.694091 0.601272
O O1 0.682428 0.411188 0.960879
O O2 0.750966 0.345165 0.746411
O O3 0.558388 0.433828 0.822025
O O4 0.955326 0.437732 0.646134
O O5 0.706332 0.591282 0.669145
O O6 0.701403 0.502622 0.582007
O O7 0.870202 0.151576 0.613275
O O8 0.000000 0.178085 0.750000
O O9 0.588033 0.180303 0.928883
O O10 0.315884 0.252169 0.127518
O O11 0.182229 0.184845 0.068731
O O12 0.000000 0.686511 0.750000
#
# Coordination Sequence:
#
# PCOD8138629 Si02
#       6
#     8   8   8   8   4   8
#     4  10  23  40  64  90 122 159 201 250 311 355
#     4  10  22  44  59  88 130 154 198 259 299 365
#     4  10  20  38  59  86 119 162 195 246 308 354
#     4   9  20  40  60  87 121 158 202 253 296 360
#     4  12  22  40  66  92 114 166 210 244 308 360
#     4   9  19  38  61  87 120 157 204 250 295 357
#
# _framework density 23.470044999999999
#
# number of rings (size 3 to 8) (size 9 to 14) (size 15 to 20)
#    0.000    2.182    0.909    1.091    1.273    2.182 
#   16.364    0.000    0.000    0.000    0.000    0.000 
#    0.000    0.000    0.000    0.000    0.000    0.000 
#
# Total GULP energy -272591.333807 kJ/mol
# GULP energy per Si atom -12390.515173 kJ/mol
# Density = 2.341663 g / cm^3
# Si number density = 23.470045 Si / 1000 Ang^3
#
#
#
# Elastic Constant Matrix: (Units=GPa)
#
#
# Indices 1 2 3 4 5 6 
#
# 1 126.8000 42.6784 1.3336 0.0000 15.4372 0.0000
# 2 42.6784 85.5967 6.4878 0.0000 10.4258 0.0000
# 3 1.3336 6.4878 24.0594 0.0000 25.6896 0.0000
# 4 0.0000 0.0000 0.0000 21.9183 0.0000 -1.3314
# 5 15.4372 10.4258 25.6896 0.0000 34.0621 0.0000
# 6 0.0000 0.0000 0.0000 -1.3314 0.0000 37.5629
#
#
#
# Elastic Compliance Matrix: (Units=1/GPa)
#
#
# Indices 1 2 3 4 5 6 
#
# 1 0.012160 -0.005179 0.025240 0.000000 -0.022962 0.000000
# 2 -0.005179 0.014401 -0.007170 0.000000 0.003347 0.000000
# 3 0.025240 -0.007170 0.266923 0.000000 -0.210558 0.000000
# 4 0.000000 0.000000 0.000000 0.045722 0.000000 0.001621
# 5 -0.022962 0.003347 -0.210558 0.000000 0.197543 0.000000
# 6 0.000000 0.000000 0.000000 0.001621 0.000000 0.026679
#
#
# Mechanical properties :
#
#
# Convention : Reuss Voigt Hill
#
# Bulk Modulus (GPa) = 3.13218 37.49509 20.31364
# Shear Modulus (GPa) = 7.76316 31.10576 19.43446
#
# Velocity S-wave (km/s) = 1.82068 3.64447 2.88071
# Velocity P-wave (km/s) = 2.39943 5.80689 4.44282
#
# Compressibility (1/GPa) = 0.31926599
#
# Stress axis : x y z
#
# Youngs Moduli (GPa) = 82.23918 69.44078 3.74640
#
# Poissons Ratio (x) = 0.35964 -0.09456
# Poissons Ratio (y) = 0.42593 0.02686
# Poissons Ratio (z) = -2.07575 0.49790
#
# Static dielectric constant tensor:
#      x y z
#    x 5.099160 0.000000 0.310560 
#    y 0.000000 3.902200 0.000000 
#    z 0.310560 0.000000 4.480240 
# 
# 
# High freq. dielectric constant tensor:
#      x y z
#    x 1.950450 0.000000 -0.005280 
#    y 0.000000 1.907940 0.000000 
#    z -0.005280 0.000000 1.936880 
# 
# From -- ./inp_files/81121.got.cif
#   From: 2010.06.25/outbox.cif.g09.slc.cpg/sg15_41_cif.got.tgz:81121.got - 2010.06.28 07:06:18.
