data_PCOD8138797
_publ_section_title
;
Structure prediction by ZEFSAII (Michael W. Deem and Ramdas Pophale) SiO2 
 PCOD8138797
Probable space group: C 2/C
;
_chemical_formula_sum "Si O2"
_cell_formula_units_Z 60
_cell_length_a 18.994737
_cell_length_b 18.139545
_cell_length_c 9.014607
_cell_angle_alpha 90.000000
_cell_angle_beta 90.100071
_cell_angle_gamma 90.000000
_cell_volume 3106.031170
_symmetry_space_group_name_H-M "C 2/C"
_symmetry_group_IT_number 15
_symmetry_cell_setting 'monoclinic'
loop_
_space_group_symop_operation_xyz
x,y,z
-x,y,1/2-z
-x,-y,-z
x,-y,1/2+z
1/2+x,1/2+y,z
1/2-x,1/2+y,1/2-z
1/2-x,1/2-y,-z
1/2+x,1/2-y,1/2+z
loop_
_atom_site_type_symbol
_atom_site_label
_atom_site_fract_x
_atom_site_fract_y
_atom_site_fract_z
Si Si1 0.849469 0.743979 0.221187
Si Si2 0.266174 0.902067 0.649718
Si Si3 0.411951 0.805007 0.001632
Si Si4 0.791919 0.316098 0.217028
Si Si5 0.808595 0.471867 0.345206
Si Si6 0.136282 0.198756 0.092972
Si Si7 0.047209 0.542009 0.113996
Si Si8 0.500000 0.729975 0.250000
O O1 0.823183 0.662361 0.175406
O O2 0.911700 0.737990 0.343801
O O3 0.787484 0.789488 0.299081
O O4 0.879105 0.790067 0.081556
O O5 0.288680 0.952944 0.512832
O O6 0.188549 0.869234 0.622124
O O7 0.264299 0.956335 0.791845
O O8 0.334779 0.793121 0.071441
O O9 0.473593 0.779270 0.112128
O O10 0.420293 0.890636 0.974334
O O11 0.792265 0.403252 0.239395
O O12 0.827887 0.275623 0.357924
O O13 0.891278 0.488596 0.328480
O O14 0.064442 0.181644 0.184381
O O15 0.000000 0.570308 0.250000
O O16 0.000000 0.500000 0.000000
#
# Coordination Sequence:
#
# PCOD8138797 Si02
#       8
#     8   8   8   8   8   8   8   4
#     4  11  20  40  65  90 121 158 212 256 304 350
#     4  11  22  39  62  92 123 161 205 260 306 352
#     4  11  24  38  59  87 121 168 203 252 297 364
#     4  10  20  38  61  92 124 154 202 263 304 350
#     4  12  22  39  59  90 123 165 207 253 301 355
#     4  10  21  42  64  88 123 162 203 256 313 365
#     4  12  27  38  53  84 132 176 206 235 285 370
#     4  10  26  40  62  86 124 158 202 256 314 374
#
# _framework density 19.317257000000001
#
# number of rings (size 3 to 8) (size 9 to 14) (size 15 to 20)
#    0.000    1.067    4.000    3.600    6.533    0.000 
#    0.000    0.000    0.000    0.800    0.000    0.000 
#    0.000    0.000    0.000    0.000    0.000    0.000 
#
# Total GULP energy -372008.752786 kJ/mol
# GULP energy per Si atom -12400.291760 kJ/mol
# Density = 1.927329 g / cm^3
# Si number density = 19.317257 Si / 1000 Ang^3
#
#
#
# Elastic Constant Matrix: (Units=GPa)
#
#
# Indices 1 2 3 4 5 6 
#
# 1 86.5737 39.9260 42.7515 0.0000 0.1276 0.0000
# 2 39.9260 88.1217 40.7498 0.0000 7.0184 0.0000
# 3 42.7515 40.7498 120.0831 0.0000 13.7279 0.0000
# 4 0.0000 0.0000 0.0000 34.4194 0.0000 -0.8854
# 5 0.1276 7.0184 13.7279 0.0000 34.7927 0.0000
# 6 0.0000 0.0000 0.0000 -0.8854 0.0000 17.6196
#
#
#
# Elastic Compliance Matrix: (Units=1/GPa)
#
#
# Indices 1 2 3 4 5 6 
#
# 1 0.016202 -0.005630 -0.004169 0.000000 0.002721 0.000000
# 2 -0.005630 0.015447 -0.003020 0.000000 -0.001904 0.000000
# 3 -0.004169 -0.003020 0.011274 0.000000 -0.003824 0.000000
# 4 0.000000 0.000000 0.000000 0.029091 0.000000 0.001462
# 5 0.002721 -0.001904 -0.003824 0.000000 0.030624 0.000000
# 6 0.000000 0.000000 0.000000 0.001462 0.000000 0.056828
#
#
# Mechanical properties :
#
#
# Convention : Reuss Voigt Hill
#
# Bulk Modulus (GPa) = 57.85201 60.18145 59.01673
# Shear Modulus (GPa) = 26.19665 28.78977 27.49321
#
# Velocity S-wave (km/s) = 3.68656 3.86471 3.77669
# Velocity P-wave (km/s) = 6.93789 7.15098 7.04524
#
# Compressibility (1/GPa) = 0.01728549
#
# Stress axis : x y z
#
# Youngs Moduli (GPa) = 61.72193 64.73866 88.70260
#
# Poissons Ratio (x) = 0.36445 0.36978
# Poissons Ratio (y) = 0.34747 0.26788
# Poissons Ratio (z) = 0.25730 0.19551
#
# Static dielectric constant tensor:
#      x y z
#    x 3.304520 0.000000 0.110570 
#    y 0.000000 3.321030 0.000000 
#    z 0.110570 0.000000 3.621520 
# 
# 
# High freq. dielectric constant tensor:
#      x y z
#    x 1.738740 0.000000 -0.004230 
#    y 0.000000 1.729120 0.000000 
#    z -0.004230 0.000000 1.772400 
# 
# From -- ./inp_files/56646.got.cif
#   From: 2010.06.25/outbox.cif.g09.slc.cpg/sg15_29_cif.got.tgz:56646.got - 2010.06.28 07:06:18.
