data_PCOD8138327
_publ_section_title
;
Structure prediction by ZEFSAII (Michael W. Deem and Ramdas Pophale) SiO2 
 PCOD8138327
Probable space group: C 2/C
;
_chemical_formula_sum "Si O2"
_cell_formula_units_Z 60
_cell_length_a 20.478700
_cell_length_b 19.000791
_cell_length_c 13.210037
_cell_angle_alpha 90.000000
_cell_angle_beta 36.479829
_cell_angle_gamma 90.000000
_cell_volume 3056.039733
_symmetry_space_group_name_H-M "C 2/C"
_symmetry_group_IT_number 15
_symmetry_cell_setting 'monoclinic'
loop_
_space_group_symop_operation_xyz
x,y,z
-x,y,1/2-z
-x,-y,-z
x,-y,1/2+z
1/2+x,1/2+y,z
1/2-x,1/2+y,1/2-z
1/2-x,1/2-y,-z
1/2+x,1/2-y,1/2+z
loop_
_atom_site_type_symbol
_atom_site_label
_atom_site_fract_x
_atom_site_fract_y
_atom_site_fract_z
Si Si1 0.500000 0.050793 0.250000
Si Si2 0.819168 0.237909 0.254142
Si Si3 0.337858 0.945371 0.336300
Si Si4 0.637957 0.117847 0.901671
Si Si5 0.905340 0.911512 0.587897
Si Si6 0.620694 0.525859 0.590745
Si Si7 0.647583 0.556223 0.774540
Si Si8 0.625195 0.803239 0.112071
O O1 0.447403 0.100806 0.401863
O O2 0.406990 0.003393 0.312135
O O3 0.854216 0.298973 0.132354
O O4 0.866831 0.166086 0.155331
O O5 0.686827 0.229229 0.436374
O O6 0.868983 0.248880 0.303161
O O7 0.398312 0.923907 0.155330
O O8 0.318353 0.877333 0.429923
O O9 0.216542 0.969611 0.454631
O O10 0.759177 0.097304 0.783888
O O11 0.886276 0.920533 0.492663
O O12 0.031599 0.919944 0.466153
O O13 0.836077 0.971485 0.733532
O O14 0.500000 0.488412 0.750000
O O15 0.650177 0.572838 0.652058
O O16 0.500000 0.820640 0.250000
#
# Coordination Sequence:
#
# PCOD8138327 Si02
#       8
#     4   8   8   8   8   8   8   8
#     4  12  24  42  64  92 132 176 216 272 320 390
#     4  10  24  42  61  93 129 171 209 264 329 397
#     4  11  21  40  67  98 128 167 215 271 326 385
#     4  11  24  42  61  95 128 167 222 264 328 393
#     4  10  21  39  64  91 124 167 208 266 321 378
#     4  10  20  37  62  97 126 160 210 263 319 372
#     4  10  20  38  64  93 121 157 216 269 312 374
#     4  10  22  42  64  95 130 164 212 268 329 393
#
# _framework density 19.633251999999999
#
# number of rings (size 3 to 8) (size 9 to 14) (size 15 to 20)
#    0.000    1.600    3.333    1.200    1.867    0.000 
#    8.400    2.667    0.000    0.000    0.000    0.000 
#    0.000    0.000    0.000    0.000    0.000    0.000 
#
# Total GULP energy -371855.604655 kJ/mol
# GULP energy per Si atom -12395.186822 kJ/mol
# Density = 1.958857 g / cm^3
# Si number density = 19.633252 Si / 1000 Ang^3
#
#
#
# Elastic Constant Matrix: (Units=GPa)
#
#
# Indices 1 2 3 4 5 6 
#
# 1 75.5060 50.4351 38.2314 0.0000 1.5139 0.0000
# 2 50.4351 139.4991 69.1921 0.0000 3.6249 0.0000
# 3 38.2314 69.1921 106.3193 0.0000 6.9785 0.0000
# 4 0.0000 0.0000 0.0000 28.0756 0.0000 4.0271
# 5 1.5139 3.6249 6.9785 0.0000 34.9160 0.0000
# 6 0.0000 0.0000 0.0000 4.0271 0.0000 19.8697
#
#
#
# Elastic Compliance Matrix: (Units=1/GPa)
#
#
# Indices 1 2 3 4 5 6 
#
# 1 0.018238 -0.004930 -0.003376 0.000000 0.000396 0.000000
# 2 -0.004930 0.011921 -0.005997 0.000000 0.000175 0.000000
# 3 -0.003376 -0.005997 0.014664 0.000000 -0.002162 0.000000
# 4 0.000000 0.000000 0.000000 0.036685 0.000000 -0.007435
# 5 0.000396 0.000175 -0.002162 0.000000 0.029037 0.000000
# 6 0.000000 0.000000 0.000000 -0.007435 0.000000 0.051835
#
#
# Mechanical properties :
#
#
# Convention : Reuss Voigt Hill
#
# Bulk Modulus (GPa) = 61.65917 70.78239 66.22078
# Shear Modulus (GPa) = 25.45950 27.46999 26.46475
#
# Velocity S-wave (km/s) = 3.60495 3.74459 3.67543
# Velocity P-wave (km/s) = 6.98579 7.40449 7.19819
#
# Compressibility (1/GPa) = 0.01621819
#
# Stress axis : x y z
#
# Youngs Moduli (GPa) = 54.82957 83.88800 68.19345
#
# Poissons Ratio (x) = 0.41354 0.23023
# Poissons Ratio (y) = 0.27029 0.40894
# Poissons Ratio (z) = 0.18511 0.50305
#
# Static dielectric constant tensor:
#      x y z
#    x 3.756170 0.000000 0.085300 
#    y 0.000000 3.365010 0.000000 
#    z 0.085300 0.000000 3.698270 
# 
# 
# High freq. dielectric constant tensor:
#      x y z
#    x 1.773420 0.000000 0.003930 
#    y 0.000000 1.746450 0.000000 
#    z 0.003930 0.000000 1.770430 
# 
# From -- ./inp_files/168878.got.cif
#   From: 2010.06.25/outbox.cif.g09.slc.cpg/sg15_85_cif.got.tgz:168878.got - 2010.06.28 07:06:18.
