data_PCOD8138161
_publ_section_title
;
Structure prediction by ZEFSAII (Michael W. Deem and Ramdas Pophale) SiO2 
 PCOD8138161
Probable space group: C 2/C
;
_chemical_formula_sum "Si O2"
_cell_formula_units_Z 56
_cell_length_a 27.689817
_cell_length_b 9.660806
_cell_length_c 16.374815
_cell_angle_alpha 90.000000
_cell_angle_beta 140.053233
_cell_angle_gamma 90.000000
_cell_volume 2812.522594
_symmetry_space_group_name_H-M "C 2/C"
_symmetry_group_IT_number 15
_symmetry_cell_setting 'monoclinic'
loop_
_space_group_symop_operation_xyz
x,y,z
-x,y,1/2-z
-x,-y,-z
x,-y,1/2+z
1/2+x,1/2+y,z
1/2-x,1/2+y,1/2-z
1/2-x,1/2-y,-z
1/2+x,1/2-y,1/2+z
loop_
_atom_site_type_symbol
_atom_site_label
_atom_site_fract_x
_atom_site_fract_y
_atom_site_fract_z
Si Si1 0.740834 0.500737 0.295999
Si Si2 0.327887 0.212302 0.812427
Si Si3 0.573254 0.757389 0.795873
Si Si4 0.211261 0.106711 0.932559
Si Si5 0.019100 0.576980 0.440829
Si Si6 0.808431 0.640214 0.606465
Si Si7 0.889397 0.528823 0.571621
O O1 0.688855 0.624774 0.192968
O O2 0.757004 0.380455 0.250698
O O3 0.704146 0.433423 0.328497
O O4 0.820082 0.569441 0.423524
O O5 0.342019 0.183948 0.735838
O O6 0.405299 0.169588 0.956645
O O7 0.500000 0.708530 0.750000
O O8 0.624669 0.622073 0.849871
O O9 0.549481 0.825961 0.677161
O O10 0.620004 0.871298 0.907773
O O11 0.250000 0.250000 0.000000
O O12 0.259902 0.999929 0.048535
O O13 0.034309 0.465914 0.384941
O O14 0.000000 0.500000 0.500000
O O15 0.750000 0.750000 0.500000
O O16 0.881275 0.628851 0.640102
#
# Coordination Sequence:
#
# PCOD8138161 Si02
#       7
#     8   8   8   8   8   8   8
#     4  10  22  37  59  93 121 152 205 263 307 361
#     4  11  23  38  60  91 126 157 202 260 315 358
#     4  10  20  37  60  87 120 158 206 246 290 373
#     4  11  21  37  67  92 115 159 213 250 303 357
#     4  10  22  36  59  88 126 168 202 239 307 378
#     4  11  20  37  62  90 123 151 202 270 301 349
#     4   9  18  36  59  87 112 153 208 249 294 349
#
# _framework density 19.91095
#
# number of rings (size 3 to 8) (size 9 to 14) (size 15 to 20)
#    0.000    1.714    5.714    0.857    2.000    1.143 
#    0.000    0.714    3.143    0.000    0.000    0.000 
#    0.000    0.000    0.000    0.000    0.000    0.000 
#
# Total GULP energy -346899.277752 kJ/mol
# GULP energy per Si atom -12389.259920 kJ/mol
# Density = 1.986563 g / cm^3
# Si number density = 19.910950 Si / 1000 Ang^3
#
#
#
# Elastic Constant Matrix: (Units=GPa)
#
#
# Indices 1 2 3 4 5 6 
#
# 1 101.5992 30.1164 8.0464 0.0000 -7.6926 0.0000
# 2 30.1164 92.6679 18.0503 0.0000 5.9040 0.0000
# 3 8.0464 18.0503 60.6936 0.0000 0.8994 0.0000
# 4 0.0000 0.0000 0.0000 32.6633 0.0000 -3.7214
# 5 -7.6926 5.9040 0.8994 0.0000 34.1557 0.0000
# 6 0.0000 0.0000 0.0000 -3.7214 0.0000 31.0713
#
#
#
# Elastic Compliance Matrix: (Units=1/GPa)
#
#
# Indices 1 2 3 4 5 6 
#
# 1 0.011236 -0.003774 -0.000414 0.000000 0.003194 0.000000
# 2 -0.003774 0.012846 -0.003276 0.000000 -0.002984 0.000000
# 3 -0.000414 -0.003276 0.017505 0.000000 0.000012 0.000000
# 4 0.000000 0.000000 0.000000 0.031039 0.000000 0.003718
# 5 0.003194 -0.002984 0.000012 0.000000 0.030513 0.000000
# 6 0.000000 0.000000 0.000000 0.003718 0.000000 0.032629
#
#
# Mechanical properties :
#
#
# Convention : Reuss Voigt Hill
#
# Bulk Modulus (GPa) = 37.51214 40.82077 39.16646
# Shear Modulus (GPa) = 31.33156 32.82790 32.07973
#
# Velocity S-wave (km/s) = 3.97115 4.06487 4.01828
# Velocity P-wave (km/s) = 6.31724 6.52511 6.42202
#
# Compressibility (1/GPa) = 0.02665803
#
# Stress axis : x y z
#
# Youngs Moduli (GPa) = 88.99913 77.84469 57.12591
#
# Poissons Ratio (x) = 0.29382 0.02367
# Poissons Ratio (y) = 0.33592 0.18713
# Poissons Ratio (z) = 0.03688 0.25501
#
# Static dielectric constant tensor:
#      x y z
#    x 3.844550 0.000000 0.187170 
#    y 0.000000 3.405520 0.000000 
#    z 0.187170 0.000000 3.522600 
# 
# 
# High freq. dielectric constant tensor:
#      x y z
#    x 1.787860 0.000000 -0.008380 
#    y 0.000000 1.743270 0.000000 
#    z -0.008380 0.000000 1.773410 
# 
# From -- ./inp_files/224433.got.cif
#   From: 2010.06.25/outbox.cif.g09.slc.cpg/sg15_113_cif.got.tgz:224433.got - 2010.06.28 07:06:18.
