data_PCOD8138203
_publ_section_title
;
Structure prediction by ZEFSAII (Michael W. Deem and Ramdas Pophale) SiO2 
 PCOD8138203
Probable space group: C 2/C
;
_chemical_formula_sum "Si O2"
_cell_formula_units_Z 64
_cell_length_a 19.659154
_cell_length_b 8.361706
_cell_length_c 22.574072
_cell_angle_alpha 90.000000
_cell_angle_beta 51.141272
_cell_angle_gamma 90.000000
_cell_volume 2889.596292
_symmetry_space_group_name_H-M "C 2/C"
_symmetry_group_IT_number 15
_symmetry_cell_setting 'monoclinic'
loop_
_space_group_symop_operation_xyz
x,y,z
-x,y,1/2-z
-x,-y,-z
x,-y,1/2+z
1/2+x,1/2+y,z
1/2-x,1/2+y,1/2-z
1/2-x,1/2-y,-z
1/2+x,1/2-y,1/2+z
loop_
_atom_site_type_symbol
_atom_site_label
_atom_site_fract_x
_atom_site_fract_y
_atom_site_fract_z
Si Si1 0.459044 0.120051 0.569665
Si Si2 0.177865 0.616554 0.030867
Si Si3 0.346982 0.435801 0.746678
Si Si4 0.463706 0.375690 0.899621
Si Si5 0.394632 0.352889 0.512607
Si Si6 0.710889 0.017403 0.627521
Si Si7 0.804304 0.413929 0.235009
Si Si8 0.198902 0.878232 0.599987
O O1 0.527132 0.192010 0.580944
O O2 0.427382 0.284880 0.556848
O O3 0.378055 0.033006 0.646988
O O4 0.500000 0.000000 0.500000
O O5 0.100634 0.700984 0.035986
O O6 0.218079 0.466084 0.973575
O O7 0.250000 0.750000 0.000000
O O8 0.144697 0.555904 0.113956
O O9 0.450667 0.434549 0.681919
O O10 0.293756 0.563156 0.736280
O O11 0.306216 0.271580 0.747039
O O12 0.329707 0.471051 0.825152
O O13 0.381419 0.379186 0.901443
O O14 0.453931 0.502307 0.958086
O O15 0.298239 0.416748 0.574594
O O16 0.675118 0.996582 0.713742
O O17 0.729850 0.200864 0.600046
#
# Coordination Sequence:
#
# PCOD8138203 Si02
#       8
#     8   8   8   8   8   8   8   8
#     4  11  26  43  66  93 129 165 209 268 320 379
#     4  10  20  37  60  96 128 163 211 259 309 374
#     4  10  23  41  66  91 125 168 214 261 311 375
#     4  11  23  41  61  95 134 165 207 261 324 374
#     4  11  23  41  63  94 130 170 214 260 317 375
#     4  10  21  37  67  92 124 167 215 261 308 374
#     4  10  22  43  63  91 119 165 213 258 311 375
#     4  11  21  38  66  97 126 169 214 258 320 377
#
# _framework density 22.148423000000001
#
# number of rings (size 3 to 8) (size 9 to 14) (size 15 to 20)
#    0.000    1.500    2.500    3.375    1.750    4.000 
#    0.000    0.000    0.000    0.000    0.000    0.000 
#    0.000    0.000    0.000    0.000    0.000    0.000 
#
# Total GULP energy -396645.006969 kJ/mol
# GULP energy per Si atom -12395.156468 kJ/mol
# Density = 2.209801 g / cm^3
# Si number density = 22.148423 Si / 1000 Ang^3
#
#
#
# Elastic Constant Matrix: (Units=GPa)
#
#
# Indices 1 2 3 4 5 6 
#
# 1 56.4368 19.3965 26.7427 -0.0001 6.5150 -0.0004
# 2 19.3965 57.8025 32.9153 0.0001 1.8993 -0.0004
# 3 26.7427 32.9153 117.8440 -0.0001 21.0327 -0.0001
# 4 -0.0001 0.0001 -0.0001 30.7593 0.0000 3.0309
# 5 6.5150 1.8993 21.0327 0.0000 32.5675 0.0001
# 6 -0.0004 -0.0004 -0.0001 3.0309 0.0001 36.0251
#
#
#
# Elastic Compliance Matrix: (Units=1/GPa)
#
#
# Indices 1 2 3 4 5 6 
#
# 1 0.021194 -0.005366 -0.002950 0.000000 -0.002022 0.000000
# 2 -0.005366 0.022166 -0.005577 0.000000 0.003383 0.000000
# 3 -0.002950 -0.005577 0.011924 0.000000 -0.006785 0.000000
# 4 0.000000 0.000000 0.000000 0.032782 0.000000 -0.002758
# 5 -0.002022 0.003383 -0.006785 0.000000 0.035295 0.000000
# 6 0.000000 0.000000 0.000000 -0.002758 0.000000 0.027990
#
#
# Mechanical properties :
#
#
# Convention : Reuss Voigt Hill
#
# Bulk Modulus (GPa) = 36.36637 43.35471 39.86054
# Shear Modulus (GPa) = 26.55286 30.07230 28.31258
#
# Velocity S-wave (km/s) = 3.46621 3.68878 3.57923
# Velocity P-wave (km/s) = 5.69864 6.14491 5.92598
#
# Compressibility (1/GPa) = 0.02749793
#
# Stress axis : x y z
#
# Youngs Moduli (GPa) = 47.18235 45.11497 83.86367
#
# Poissons Ratio (x) = 0.24207 0.24741
# Poissons Ratio (y) = 0.25317 0.46772
# Poissons Ratio (z) = 0.13920 0.25161
#
# Static dielectric constant tensor:
#      x y z
#    x 5.437950 0.000000 1.007710 
#    y 0.000000 4.667020 0.000000 
#    z 1.007710 0.000000 4.552760 
# 
# 
# High freq. dielectric constant tensor:
#      x y z
#    x 1.876420 0.000000 0.028220 
#    y 0.000000 1.873170 0.000000 
#    z 0.028220 0.000000 1.865230 
# 
# From -- ./inp_files/279572.got.cif
#   From: 2010.06.25/outbox.cif.g09.slc.cpg/sg15_140_cif.got.tgz:279572.got - 2010.06.28 07:06:18.
