data_PCOD8138522
_publ_section_title
;
Structure prediction by ZEFSAII (Michael W. Deem and Ramdas Pophale) SiO2 
 PCOD8138522
Probable space group: C 2/C
;
_chemical_formula_sum "Si O2"
_cell_formula_units_Z 32
_cell_length_a 8.281773
_cell_length_b 17.183360
_cell_length_c 14.826532
_cell_angle_alpha 90.000000
_cell_angle_beta 32.279463
_cell_angle_gamma 90.000000
_cell_volume 1126.814363
_symmetry_space_group_name_H-M "C 2/C"
_symmetry_group_IT_number 15
_symmetry_cell_setting 'monoclinic'
loop_
_space_group_symop_operation_xyz
x,y,z
-x,y,1/2-z
-x,-y,-z
x,-y,1/2+z
1/2+x,1/2+y,z
1/2-x,1/2+y,1/2-z
1/2-x,1/2-y,-z
1/2+x,1/2-y,1/2+z
loop_
_atom_site_type_symbol
_atom_site_label
_atom_site_fract_x
_atom_site_fract_y
_atom_site_fract_z
Si Si1 0.157780 0.650746 0.900744
Si Si2 0.806455 0.880904 0.567785
Si Si3 0.813248 0.453624 0.428417
Si Si4 0.730383 0.248934 0.306549
O O1 0.500000 0.622696 0.750000
O O2 0.132048 0.735420 0.858594
O O3 0.974458 0.582219 0.939270
O O4 0.986567 0.672774 0.076693
O O5 0.500000 0.840245 0.750000
O O6 0.983586 0.914331 0.572329
O O7 0.018481 0.824599 0.411545
O O8 0.723478 0.953736 0.540862
O O9 0.000000 0.434001 0.250000
O O10 0.000000 0.246556 0.250000
#
# Coordination Sequence:
#
# PCOD8138522 Si02
#       4
#     8   8   8   8
#     4  12  25  44  69 106 145 183 231 299 357 415
#     4  10  20  37  72  97 132 186 244 272 348 428
#     4  10  20  42  68  99 135 187 239 285 342 428
#     4  12  24  45  72 102 142 187 239 291 352 423
#
# _framework density 28.398644999999998
#
# number of rings (size 3 to 8) (size 9 to 14) (size 15 to 20)
#    0.000    1.000    5.000    2.250    0.000    0.000 
#    0.000    1.250    0.000    1.500    0.000    1.750 
#    0.000    0.000    0.000    0.000    0.000    0.000 
#
# Total GULP energy -198402.752095 kJ/mol
# GULP energy per Si atom -12400.172006 kJ/mol
# Density = 2.833401 g / cm^3
# Si number density = 28.398645 Si / 1000 Ang^3
#
#
#
# Elastic Constant Matrix: (Units=GPa)
#
#
# Indices 1 2 3 4 5 6 
#
# 1 80.5385 17.9688 11.3842 0.0019 -19.2049 -0.0121
# 2 17.9688 90.7782 14.7168 0.0077 -17.6202 -0.0103
# 3 11.3842 14.7168 109.7106 -0.0870 -26.3549 0.0026
# 4 0.0019 0.0077 -0.0870 35.3072 0.0281 -16.4204
# 5 -19.2049 -17.6202 -26.3549 0.0281 62.3949 0.0064
# 6 -0.0121 -0.0103 0.0026 -16.4204 0.0064 39.2123
#
#
#
# Elastic Compliance Matrix: (Units=1/GPa)
#
#
# Indices 1 2 3 4 5 6 
#
# 1 0.013747 -0.001984 -0.000310 -0.000003 0.003540 0.000002
# 2 -0.001984 0.012014 -0.000821 -0.000007 0.002436 -0.000001
# 3 -0.000310 -0.000821 0.010215 0.000027 0.003988 0.000010
# 4 -0.000003 -0.000007 0.000027 0.035173 -0.000009 0.014729
# 5 0.003540 0.002436 0.003988 -0.000009 0.019489 -0.000005
# 6 0.000002 -0.000001 0.000010 0.014729 -0.000005 0.031670
#
#
# Mechanical properties :
#
#
# Convention : Reuss Voigt Hill
#
# Bulk Modulus (GPa) = 33.61609 41.01854 37.31732
# Shear Modulus (GPa) = 36.11341 43.18004 39.64672
#
# Velocity S-wave (km/s) = 3.56990 3.90358 3.74047
# Velocity P-wave (km/s) = 5.37170 5.89852 5.64126
#
# Compressibility (1/GPa) = 0.02974766
#
# Stress axis : x y z
#
# Youngs Moduli (GPa) = 72.74324 83.23396 97.89471
#
# Poissons Ratio (x) = 0.16511 0.03034
# Poissons Ratio (y) = 0.14430 0.08034
# Poissons Ratio (z) = 0.02255 0.06831
#
# Static dielectric constant tensor:
#      x y z
#    x 5.183340 -0.000060 -0.267630 
#    y -0.000060 5.041830 0.000190 
#    z -0.267630 0.000190 5.744340 
# 
# 
# High freq. dielectric constant tensor:
#      x y z
#    x 2.160820 0.000000 -0.021530 
#    y 0.000000 2.145450 0.000010 
#    z -0.021530 0.000010 2.163630 
# 
# From -- ./inp_files/191868.got.cif
#   From: 2010.06.25/outbox.cif.g09.slc.cpg/sg15_96_cif.got.tgz:191868.got - 2010.06.28 07:06:18.
