data_PCOD8138940
_publ_section_title
;
Structure prediction by ZEFSAII (Michael W. Deem and Ramdas Pophale) SiO2 
 PCOD8138940
Probable space group: C 2/C
;
_chemical_formula_sum "Si O2"
_cell_formula_units_Z 28
_cell_length_a 13.570106
_cell_length_b 13.900418
_cell_length_c 12.262371
_cell_angle_alpha 90.000000
_cell_angle_beta 32.291663
_cell_angle_gamma 90.000000
_cell_volume 1235.700712
_symmetry_space_group_name_H-M "C 2/C"
_symmetry_group_IT_number 15
_symmetry_cell_setting 'monoclinic'
loop_
_space_group_symop_operation_xyz
x,y,z
-x,y,1/2-z
-x,-y,-z
x,-y,1/2+z
1/2+x,1/2+y,z
1/2-x,1/2+y,1/2-z
1/2-x,1/2-y,-z
1/2+x,1/2-y,1/2+z
loop_
_atom_site_type_symbol
_atom_site_label
_atom_site_fract_x
_atom_site_fract_y
_atom_site_fract_z
Si Si1 0.541639 0.143909 0.979683
Si Si2 0.686001 0.464746 0.428987
Si Si3 0.364523 0.641010 0.159736
Si Si4 0.000000 0.548886 0.250000
O O1 0.685861 0.073271 0.789250
O O2 0.608178 0.252715 0.910952
O O3 0.345090 0.132636 0.100942
O O4 0.517398 0.116501 0.128577
O O5 0.600066 0.567387 0.473780
O O6 0.518002 0.389076 0.608261
O O7 0.817153 0.480943 0.411277
#
# Coordination Sequence:
#
# PCOD8138940 Si02
#       4
#     8   8   8   4
#     4  11  21  40  64  88 122 157 200 249 294 358
#     4  10  22  41  59  88 126 158 195 248 299 355
#     4  10  20  38  63  87 119 162 195 238 309 348
#     4  10  22  38  64  92 120 154 204 248 296 350
#
# _framework density 22.659209000000001
#
# number of rings (size 3 to 8) (size 9 to 14) (size 15 to 20)
#    0.000    1.714    2.857    3.429    0.000    4.571 
#    0.000   18.571    0.000    0.000    0.000    0.000 
#    0.000    0.000    0.000    0.000    0.000    0.000 
#
# Total GULP energy -173491.662314 kJ/mol
# GULP energy per Si atom -12392.261594 kJ/mol
# Density = 2.260764 g / cm^3
# Si number density = 22.659209 Si / 1000 Ang^3
#
#
#
# Elastic Constant Matrix: (Units=GPa)
#
#
# Indices 1 2 3 4 5 6 
#
# 1 86.7683 46.0721 31.6212 -0.0020 -40.6211 -0.0006
# 2 46.0721 124.6371 32.4165 -0.0039 -8.9091 0.0011
# 3 31.6212 32.4165 100.0918 -0.0096 -36.4446 0.0026
# 4 -0.0020 -0.0039 -0.0096 26.9049 0.0042 -21.8687
# 5 -40.6211 -8.9091 -36.4446 0.0042 39.5915 -0.0009
# 6 -0.0006 0.0011 0.0026 -21.8687 -0.0009 15.4685
#
#
#
# Elastic Compliance Matrix: (Units=1/GPa)
#
#
# Indices 1 2 3 4 5 6 
#
# 1 0.032046 -0.010989 0.006778 0.000000 0.036645 0.000003
# 2 -0.010989 0.012554 -0.005522 -0.000001 -0.013533 -0.000003
# 3 0.006778 -0.005522 0.017625 -0.000011 0.021936 -0.000017
# 4 0.000000 -0.000001 -0.000011 -0.249248 0.000008 -0.352376
# 5 0.036645 -0.013533 0.021936 0.000008 0.080003 0.000014
# 6 0.000003 -0.000003 -0.000017 -0.352376 0.000014 -0.433526
#
#
# Mechanical properties :
#
#
# Convention : Reuss Voigt Hill
#
# Bulk Modulus (GPa) = 23.38665 59.07967 41.23316
# Shear Modulus (GPa) = -9.86529 29.81881 9.97676
#
# Velocity S-wave (km/s) = -2.08883 3.63156 2.10060
# Velocity P-wave (km/s) = 2.12740 6.61166 4.91121
#
# Compressibility (1/GPa) = 0.04275944
#
# Stress axis : x y z
#
# Youngs Moduli (GPa) = 31.20562 79.65460 56.73827
#
# Poissons Ratio (x) = 0.87533 -0.38458
# Poissons Ratio (y) = 0.34292 0.31328
# Poissons Ratio (z) = -0.21152 0.43982
#
# Static dielectric constant tensor:
#      x y z
#    x 4.043500 -0.000010 -0.816760 
#    y -0.000010 4.282520 0.000020 
#    z -0.816760 0.000020 4.283540 
# 
# 
# High freq. dielectric constant tensor:
#      x y z
#    x 1.869850 0.000000 -0.049900 
#    y 0.000000 1.907470 0.000000 
#    z -0.049900 0.000000 1.893390 
# 
# From -- ./inp_files/27307.got.cif
#   From: 2010.06.25/outbox.cif.g09.slc.cpg/sg15_14_cif.got.tgz:27307.got - 2010.06.28 07:06:18.
