data_PCOD8138978
_publ_section_title
;
Structure prediction by ZEFSAII (Michael W. Deem and Ramdas Pophale) SiO2 
 PCOD8138978
Probable space group: C 2/C
;
_chemical_formula_sum "Si O2"
_cell_formula_units_Z 48
_cell_length_a 20.837265
_cell_length_b 20.586067
_cell_length_c 9.337279
_cell_angle_alpha 90.000000
_cell_angle_beta 35.765325
_cell_angle_gamma 90.000000
_cell_volume 2340.961214
_symmetry_space_group_name_H-M "C 2/C"
_symmetry_group_IT_number 15
_symmetry_cell_setting 'monoclinic'
loop_
_space_group_symop_operation_xyz
x,y,z
-x,y,1/2-z
-x,-y,-z
x,-y,1/2+z
1/2+x,1/2+y,z
1/2-x,1/2+y,1/2-z
1/2-x,1/2-y,-z
1/2+x,1/2-y,1/2+z
loop_
_atom_site_type_symbol
_atom_site_label
_atom_site_fract_x
_atom_site_fract_y
_atom_site_fract_z
Si Si1 0.759693 0.643265 0.975869
Si Si2 0.734298 0.459181 0.284037
Si Si3 0.623327 0.932865 0.993603
Si Si4 0.902914 0.243240 0.121079
Si Si5 0.857315 0.221535 0.882397
Si Si6 0.797485 0.077335 0.975407
O O1 0.740321 0.606518 0.862372
O O2 0.793823 0.593281 0.036078
O O3 0.857863 0.695004 0.787960
O O4 0.645402 0.677588 0.222643
O O5 0.663581 0.516223 0.494401
O O6 0.858139 0.488692 0.036789
O O7 0.683639 0.441982 0.222754
O O8 0.500000 0.912291 0.250000
O O9 0.668860 0.907728 0.755723
O O10 0.862061 0.250539 0.032239
O O11 0.034270 0.243162 0.900344
O O12 0.750000 0.250000 0.000000
O O13 0.863358 0.143425 0.883178
#
# Coordination Sequence:
#
# PCOD8138978 Si02
#       6
#     8   8   8   8   8   8
#     4  11  21  42  63  92 129 166 215 257 327 386
#     4  10  20  38  63  92 127 161 207 266 323 384
#     4  10  21  37  61  90 127 167 203 266 327 376
#     4  10  24  41  66  91 130 175 210 270 316 383
#     4  11  23  43  64  97 128 169 219 266 318 382
#     4  10  21  39  63  89 130 158 211 264 318 387
#
# _framework density 20.504397999999998
#
# number of rings (size 3 to 8) (size 9 to 14) (size 15 to 20)
#    1.000    0.667    3.333    1.000    2.333    2.667 
#    3.000    7.500    3.667    0.000    0.000    0.000 
#    0.000    0.000    0.000    0.000    0.000    0.000 
#
# Total GULP energy -297331.692680 kJ/mol
# GULP energy per Si atom -12388.820528 kJ/mol
# Density = 2.045773 g / cm^3
# Si number density = 20.504398 Si / 1000 Ang^3
#
#
#
# Elastic Constant Matrix: (Units=GPa)
#
#
# Indices 1 2 3 4 5 6 
#
# 1 81.1713 14.7873 43.9391 0.0000 5.8875 0.0000
# 2 14.7873 56.6270 36.0066 0.0000 -0.7716 0.0000
# 3 43.9391 36.0066 112.0395 0.0000 0.0370 0.0000
# 4 0.0000 0.0000 0.0000 29.9332 0.0000 10.5191
# 5 5.8875 -0.7716 0.0370 0.0000 36.3528 0.0000
# 6 0.0000 0.0000 0.0000 10.5191 0.0000 26.8225
#
#
#
# Elastic Compliance Matrix: (Units=1/GPa)
#
#
# Indices 1 2 3 4 5 6 
#
# 1 0.015879 -0.000280 -0.006137 0.000000 -0.002571 0.000000
# 2 -0.000280 0.022208 -0.007028 0.000000 0.000524 0.000000
# 3 -0.006137 -0.007028 0.013590 0.000000 0.000831 0.000000
# 4 0.000000 0.000000 0.000000 0.038748 0.000000 -0.015196
# 5 -0.002571 0.000524 0.000831 0.000000 0.027935 0.000000
# 6 0.000000 0.000000 0.000000 -0.015196 0.000000 0.043242
#
#
# Mechanical properties :
#
#
# Convention : Reuss Voigt Hill
#
# Bulk Modulus (GPa) = 40.33941 48.81150 44.57546
# Shear Modulus (GPa) = 25.41262 28.96201 27.18732
#
# Velocity S-wave (km/s) = 3.52429 3.76237 3.64528
# Velocity P-wave (km/s) = 6.02305 6.53689 6.28522
#
# Compressibility (1/GPa) = 0.02478965
#
# Stress axis : x y z
#
# Youngs Moduli (GPa) = 62.97669 45.02852 73.58201
#
# Poissons Ratio (x) = 0.01259 0.45154
# Poissons Ratio (y) = 0.01761 0.51711
# Poissons Ratio (z) = 0.38646 0.31644
#
# Static dielectric constant tensor:
#      x y z
#    x 3.277150 0.000000 0.263230 
#    y 0.000000 3.800110 0.000000 
#    z 0.263230 0.000000 3.790010 
# 
# 
# High freq. dielectric constant tensor:
#      x y z
#    x 1.769540 0.000000 0.026870 
#    y 0.000000 1.812990 0.000000 
#    z 0.026870 0.000000 1.803910 
# 
# From -- ./inp_files/57722.got.cif
#   From: 2010.06.25/outbox.cif.g09.slc.cpg/sg15_29_cif.got.tgz:57722.got - 2010.06.28 07:06:18.
