data_PCOD8138433
_publ_section_title
;
Structure prediction by ZEFSAII (Michael W. Deem and Ramdas Pophale) SiO2 
 PCOD8138433
Probable space group: C 2/C
;
_chemical_formula_sum "Si O2"
_cell_formula_units_Z 56
_cell_length_a 9.148500
_cell_length_b 24.088461
_cell_length_c 17.406244
_cell_angle_alpha 90.000000
_cell_angle_beta 43.350496
_cell_angle_gamma 90.000000
_cell_volume 2633.170166
_symmetry_space_group_name_H-M "C 2/C"
_symmetry_group_IT_number 15
_symmetry_cell_setting 'monoclinic'
loop_
_space_group_symop_operation_xyz
x,y,z
-x,y,1/2-z
-x,-y,-z
x,-y,1/2+z
1/2+x,1/2+y,z
1/2-x,1/2+y,1/2-z
1/2-x,1/2-y,-z
1/2+x,1/2-y,1/2+z
loop_
_atom_site_type_symbol
_atom_site_label
_atom_site_fract_x
_atom_site_fract_y
_atom_site_fract_z
Si Si1 0.400844 0.941582 0.554333
Si Si2 0.752202 0.452583 0.349239
Si Si3 0.009742 0.729392 0.081404
Si Si4 0.516522 0.554272 0.098978
Si Si5 0.129646 0.377800 0.776408
Si Si6 0.174166 0.347712 0.408754
Si Si7 0.403966 0.657275 0.667379
O O1 0.154661 0.944083 0.623915
O O2 0.426415 0.920073 0.632199
O O3 0.538878 0.902682 0.445127
O O4 0.500000 0.000000 0.500000
O O5 0.631797 0.499540 0.345703
O O6 0.672672 0.448864 0.466776
O O7 0.712300 0.392585 0.329100
O O8 0.000000 0.467157 0.250000
O O9 0.920087 0.686000 0.180423
O O10 0.872723 0.785824 0.131007
O O11 0.250000 0.750000 0.000000
O O12 0.003786 0.698668 0.001742
O O13 0.374287 0.610539 0.157228
O O14 0.000000 0.393966 0.750000
O O15 0.349109 0.358006 0.409989
O O16 0.288284 0.327091 0.290050
#
# Coordination Sequence:
#
# PCOD8138433 Si02
#       7
#     8   8   8   8   8   8   8
#     4  11  24  43  66  95 136 183 225 281 346 414
#     4  11  25  43  65 100 140 181 237 284 345 418
#     4   9  21  38  65  99 132 173 232 284 343 403
#     4  11  26  42  69  96 140 185 229 288 354 414
#     4  11  26  42  71 104 138 179 233 290 346 413
#     4   9  20  36  60  94 128 170 225 273 336 411
#     4  10  20  37  64  95 131 173 223 287 341 400
#
# _framework density 21.267140000000001
#
# number of rings (size 3 to 8) (size 9 to 14) (size 15 to 20)
#    0.000    1.714    0.000    2.571   18.000    0.000 
#    0.000    2.857    0.000    6.000    0.000    0.000 
#    0.000    0.000    0.000    0.000    0.000    0.000 
#
# Total GULP energy -346984.807992 kJ/mol
# GULP energy per Si atom -12392.314571 kJ/mol
# Density = 2.121874 g / cm^3
# Si number density = 21.267140 Si / 1000 Ang^3
#
#
#
# Elastic Constant Matrix: (Units=GPa)
#
#
# Indices 1 2 3 4 5 6 
#
# 1 106.8321 52.1677 36.8403 0.0000 -9.8452 0.0000
# 2 52.1677 158.8448 58.7954 0.0000 -8.9767 0.0000
# 3 36.8403 58.7954 113.6760 0.0000 -14.7761 0.0000
# 4 0.0000 0.0000 0.0000 44.1573 0.0000 -4.2508
# 5 -9.8452 -8.9767 -14.7761 0.0000 29.0514 0.0000
# 6 0.0000 0.0000 0.0000 -4.2508 0.0000 24.8425
#
#
#
# Elastic Compliance Matrix: (Units=1/GPa)
#
#
# Indices 1 2 3 4 5 6 
#
# 1 0.011691 -0.002993 -0.001977 0.000000 0.002032 0.000000
# 2 -0.002993 0.008556 -0.003473 0.000000 -0.000137 0.000000
# 3 -0.001977 -0.003473 0.011787 0.000000 0.004252 0.000000
# 4 0.000000 0.000000 0.000000 0.023026 0.000000 0.003940
# 5 0.002032 -0.000137 0.004252 0.000000 0.037230 0.000000
# 6 0.000000 0.000000 0.000000 0.003940 0.000000 0.040928
#
#
# Mechanical properties :
#
#
# Convention : Reuss Voigt Hill
#
# Bulk Modulus (GPa) = 66.01597 74.99552 70.50575
# Shear Modulus (GPa) = 32.22623 35.04686 33.63655
#
# Velocity S-wave (km/s) = 3.89692 4.06388 3.98127
# Velocity P-wave (km/s) = 7.16635 7.57366 7.37282
#
# Compressibility (1/GPa) = 0.01514785
#
# Stress axis : x y z
#
# Youngs Moduli (GPa) = 85.53656 116.87281 84.84162
#
# Poissons Ratio (x) = 0.34981 0.16770
# Poissons Ratio (y) = 0.25602 0.29468
# Poissons Ratio (z) = 0.16908 0.40594
#
# Static dielectric constant tensor:
#      x y z
#    x 3.635590 0.000000 -0.013230 
#    y 0.000000 3.635400 0.000000 
#    z -0.013230 0.000000 4.163820 
# 
# 
# High freq. dielectric constant tensor:
#      x y z
#    x 1.805580 0.000000 0.002570 
#    y 0.000000 1.842530 0.000000 
#    z 0.002570 0.000000 1.853480 
# 
# From -- ./inp_files/193845.got.cif
#   From: 2010.06.25/outbox.cif.g09.slc.cpg/sg15_97_cif.got.tgz:193845.got - 2010.06.28 07:06:18.
