data_PCOD8138938
_publ_section_title
;
Structure prediction by ZEFSAII (Michael W. Deem and Ramdas Pophale) SiO2 
 PCOD8138938
Probable space group: C 2/C
;
_chemical_formula_sum "Si O2"
_cell_formula_units_Z 56
_cell_length_a 9.728900
_cell_length_b 14.189037
_cell_length_c 16.392468
_cell_angle_alpha 90.000000
_cell_angle_beta 76.858477
_cell_angle_gamma 90.000000
_cell_volume 2203.615831
_symmetry_space_group_name_H-M "C 2/C"
_symmetry_group_IT_number 15
_symmetry_cell_setting 'monoclinic'
loop_
_space_group_symop_operation_xyz
x,y,z
-x,y,1/2-z
-x,-y,-z
x,-y,1/2+z
1/2+x,1/2+y,z
1/2-x,1/2+y,1/2-z
1/2-x,1/2-y,-z
1/2+x,1/2-y,1/2+z
loop_
_atom_site_type_symbol
_atom_site_label
_atom_site_fract_x
_atom_site_fract_y
_atom_site_fract_z
Si Si1 0.851319 0.217209 0.729229
Si Si2 0.894491 0.934567 0.912399
Si Si3 0.791207 0.116712 0.171490
Si Si4 0.690547 0.622253 0.509502
Si Si5 0.212403 0.528738 0.799628
Si Si6 0.029400 0.593959 0.947032
Si Si7 0.918044 0.226878 0.533618
O O1 0.728407 0.284769 0.779277
O O2 0.821083 0.111288 0.761676
O O3 0.842806 0.227126 0.631579
O O4 0.000000 0.247545 0.750000
O O5 0.043111 0.909915 0.850323
O O6 0.779390 0.956574 0.858344
O O7 0.849958 0.847658 0.978802
O O8 0.904131 0.028144 0.966986
O O9 0.732933 0.122850 0.087911
O O10 0.693756 0.035724 0.223260
O O11 0.810805 0.632277 0.560193
O O12 0.583068 0.708945 0.530130
O O13 0.054888 0.565950 0.848318
O O14 0.000000 0.500000 0.000000
O O15 0.913490 0.672242 0.985746
#
# Coordination Sequence:
#
# PCOD8138938 Si02
#       7
#     8   8   8   8   8   8   8
#     4  12  23  37  61  92 120 153 197 251 300 349
#     4  10  21  38  63  90 117 155 201 249 298 357
#     4  11  21  36  60  92 120 151 200 254 296 345
#     4  10  20  38  63  87 115 159 206 250 295 358
#     4  11  22  40  63  88 121 159 199 249 301 355
#     4  11  23  40  59  88 126 164 198 244 302 358
#     4  11  21  39  62  89 120 159 203 243 296 364
#
# _framework density 25.412777999999999
#
# number of rings (size 3 to 8) (size 9 to 14) (size 15 to 20)
#    0.000    1.143    0.000   10.286    0.000    0.000 
#    0.000    7.857    0.000    3.429    0.000    0.000 
#    0.000    0.000    0.000    0.000    0.000    0.000 
#
# Total GULP energy -346990.281089 kJ/mol
# GULP energy per Si atom -12392.510039 kJ/mol
# Density = 2.535494 g / cm^3
# Si number density = 25.412778 Si / 1000 Ang^3
#
#
#
# Elastic Constant Matrix: (Units=GPa)
#
#
# Indices 1 2 3 4 5 6 
#
# 1 31.8451 0.3365 5.2798 0.0000 -6.9871 0.0000
# 2 0.3365 153.6075 55.0783 0.0000 -5.1809 0.0000
# 3 5.2798 55.0783 180.5491 0.0000 -8.2444 0.0000
# 4 0.0000 0.0000 0.0000 64.3339 0.0000 -3.6178
# 5 -6.9871 -5.1809 -8.2444 0.0000 16.6935 0.0000
# 6 0.0000 0.0000 0.0000 -3.6178 0.0000 7.5582
#
#
#
# Elastic Compliance Matrix: (Units=1/GPa)
#
#
# Indices 1 2 3 4 5 6 
#
# 1 0.034650 0.000604 -0.000539 0.000000 0.014424 0.000000
# 2 0.000604 0.007344 -0.002192 0.000000 0.001449 0.000000
# 3 -0.000539 -0.002192 0.006324 0.000000 0.002218 0.000000
# 4 0.000000 0.000000 0.000000 0.015974 0.000000 0.007646
# 5 0.014424 0.001449 0.002218 0.000000 0.067486 0.000000
# 6 0.000000 0.000000 0.000000 0.007646 0.000000 0.135967
#
#
# Mechanical properties :
#
#
# Convention : Reuss Voigt Hill
#
# Bulk Modulus (GPa) = 22.69427 54.15456 38.42441
# Shear Modulus (GPa) = 17.44073 38.07091 27.75582
#
# Velocity S-wave (km/s) = 2.62257 3.87473 3.30843
# Velocity P-wave (km/s) = 4.25678 6.43228 5.45410
#
# Compressibility (1/GPa) = 0.04406399
#
# Stress axis : x y z
#
# Youngs Moduli (GPa) = 28.86033 136.17436 158.12080
#
# Poissons Ratio (x) = -0.08222 0.08520
# Poissons Ratio (y) = -0.01743 0.34655
# Poissons Ratio (z) = 0.01555 0.29845
#
# Static dielectric constant tensor:
#      x y z
#    x 4.057470 0.000000 -0.111410 
#    y 0.000000 4.806000 0.000000 
#    z -0.111410 0.000000 5.190970 
# 
# 
# High freq. dielectric constant tensor:
#      x y z
#    x 1.979300 0.000000 -0.010850 
#    y 0.000000 2.029390 0.000000 
#    z -0.010850 0.000000 2.038840 
# 
# From -- ./inp_files/198202.got.cif
#   From: 2010.06.25/outbox.cif.g09.slc.cpg/sg15_100_cif.got.tgz:198202.got - 2010.06.28 07:06:18.
