data_PCOD8138324
_publ_section_title
;
Structure prediction by ZEFSAII (Michael W. Deem and Ramdas Pophale) SiO2 
 PCOD8138324
Probable space group: C 2/C
;
_chemical_formula_sum "Si O2"
_cell_formula_units_Z 64
_cell_length_a 14.302554
_cell_length_b 30.423936
_cell_length_c 9.079192
_cell_angle_alpha 90.000000
_cell_angle_beta 50.951619
_cell_angle_gamma 90.000000
_cell_volume 3068.185181
_symmetry_space_group_name_H-M "C 2/C"
_symmetry_group_IT_number 15
_symmetry_cell_setting 'monoclinic'
loop_
_space_group_symop_operation_xyz
x,y,z
-x,y,1/2-z
-x,-y,-z
x,-y,1/2+z
1/2+x,1/2+y,z
1/2-x,1/2+y,1/2-z
1/2-x,1/2-y,-z
1/2+x,1/2-y,1/2+z
loop_
_atom_site_type_symbol
_atom_site_label
_atom_site_fract_x
_atom_site_fract_y
_atom_site_fract_z
Si Si1 0.651373 0.042123 0.452800
Si Si2 0.213451 0.115317 0.343207
Si Si3 0.592884 0.188825 0.341826
Si Si4 0.679325 0.263709 0.426321
Si Si5 0.667266 0.801206 0.463036
Si Si6 0.792765 0.111288 0.822549
Si Si7 0.978843 0.146591 0.433522
Si Si8 0.623063 0.047915 0.825437
O O1 0.757356 0.073827 0.289740
O O2 0.662698 0.041953 0.617560
O O3 0.519649 0.056690 0.526105
O O4 0.670539 0.993376 0.371825
O O5 0.334265 0.143947 0.220545
O O6 0.183151 0.094207 0.534710
O O7 0.108541 0.147752 0.386060
O O8 0.599095 0.221098 0.474415
O O9 0.454146 0.175057 0.472127
O O10 0.638370 0.217690 0.154490
O O11 0.750000 0.250000 0.500000
O O12 0.784090 0.265347 0.198728
O O13 0.592293 0.306710 0.516855
O O14 0.769367 0.837624 0.373583
O O15 0.906997 0.110155 0.599969
O O16 0.682970 0.089045 0.846574
O O17 0.000000 0.127286 0.250000
#
# Coordination Sequence:
#
# PCOD8138324 Si02
#       8
#     8   8   8   8   8   8   8   8
#     4  10  21  36  62  97 131 167 201 254 300 366
#     4  11  22  39  62  90 120 160 205 254 316 367
#     4  10  21  37  60  80 113 151 195 248 298 366
#     4  11  24  38  58  82 114 150 196 255 305 361
#     4   9  21  39  55  84 110 151 199 243 301 357
#     4  10  21  40  62  86 121 160 208 255 303 372
#     4  11  24  41  59  84 119 159 205 253 311 374
#     4  10  20  37  62  95 132 165 207 247 305 355
#
# _framework density 20.859235000000002
#
# number of rings (size 3 to 8) (size 9 to 14) (size 15 to 20)
#    0.000    1.750    0.000    3.750    3.500    3.500 
#    4.500    0.625    0.000    0.000    0.000    0.000 
#    0.000    0.000    0.000    0.000    0.000    0.000 
#
# Total GULP energy -396471.501546 kJ/mol
# GULP energy per Si atom -12389.734423 kJ/mol
# Density = 2.081176 g / cm^3
# Si number density = 20.859235 Si / 1000 Ang^3
#
#
#
# Elastic Constant Matrix: (Units=GPa)
#
#
# Indices 1 2 3 4 5 6 
#
# 1 107.9705 21.5874 29.3763 0.0000 12.5269 0.0000
# 2 21.5874 54.2230 23.6334 0.0000 8.0062 0.0000
# 3 29.3763 23.6334 102.3261 0.0000 11.4270 0.0000
# 4 0.0000 0.0000 0.0000 25.7422 0.0000 1.4786
# 5 12.5269 8.0062 11.4270 0.0000 36.2790 0.0000
# 6 0.0000 0.0000 0.0000 1.4786 0.0000 37.2523
#
#
#
# Elastic Compliance Matrix: (Units=1/GPa)
#
#
# Indices 1 2 3 4 5 6 
#
# 1 0.010712 -0.002991 -0.002120 0.000000 -0.002371 0.000000
# 2 -0.002991 0.021694 -0.003869 0.000000 -0.002536 0.000000
# 3 -0.002120 -0.003869 0.011502 0.000000 -0.002037 0.000000
# 4 0.000000 0.000000 0.000000 0.038935 0.000000 -0.001545
# 5 -0.002371 -0.002536 -0.002037 0.000000 0.029584 0.000000
# 6 0.000000 0.000000 0.000000 -0.001545 0.000000 0.026905
#
#
# Mechanical properties :
#
#
# Convention : Reuss Voigt Hill
#
# Bulk Modulus (GPa) = 38.53607 45.96820 42.25213
# Shear Modulus (GPa) = 30.13140 32.51621 31.32381
#
# Velocity S-wave (km/s) = 3.80480 3.95250 3.87935
# Velocity P-wave (km/s) = 6.14951 6.55094 6.35339
#
# Compressibility (1/GPa) = 0.02594971
#
# Stress axis : x y z
#
# Youngs Moduli (GPa) = 93.35756 46.09649 86.93987
#
# Poissons Ratio (x) = 0.13785 0.18428
# Poissons Ratio (y) = 0.27919 0.33634
# Poissons Ratio (z) = 0.19788 0.17833
#
# Static dielectric constant tensor:
#      x y z
#    x 3.750960 0.000000 0.121090 
#    y 0.000000 3.379400 0.000000 
#    z 0.121090 0.000000 4.190760 
# 
# 
# High freq. dielectric constant tensor:
#      x y z
#    x 1.820460 0.000000 0.009240 
#    y 0.000000 1.789220 0.000000 
#    z 0.009240 0.000000 1.832280 
# 
# From -- ./inp_files/44823.got.cif
#   From: 2010.06.25/outbox.cif.g09.slc.cpg/sg15_23_cif.got.tgz:44823.got - 2010.06.28 07:06:18.
