data_PCOD8138872
_publ_section_title
;
Structure prediction by ZEFSAII (Michael W. Deem and Ramdas Pophale) SiO2 
 PCOD8138872
Probable space group: C 2/C
;
_chemical_formula_sum "Si O2"
_cell_formula_units_Z 52
_cell_length_a 13.726152
_cell_length_b 12.231855
_cell_length_c 15.441917
_cell_angle_alpha 90.000000
_cell_angle_beta 96.846717
_cell_angle_gamma 90.000000
_cell_volume 2574.151678
_symmetry_space_group_name_H-M "C 2/C"
_symmetry_group_IT_number 15
_symmetry_cell_setting 'monoclinic'
loop_
_space_group_symop_operation_xyz
x,y,z
-x,y,1/2-z
-x,-y,-z
x,-y,1/2+z
1/2+x,1/2+y,z
1/2-x,1/2+y,1/2-z
1/2-x,1/2-y,-z
1/2+x,1/2-y,1/2+z
loop_
_atom_site_type_symbol
_atom_site_label
_atom_site_fract_x
_atom_site_fract_y
_atom_site_fract_z
Si Si1 0.979529 0.731960 0.363849
Si Si2 0.699164 0.874123 0.154777
Si Si3 0.188075 0.930235 0.789468
Si Si4 0.500000 0.570226 0.750000
Si Si5 0.598546 0.793290 0.308142
Si Si6 0.998460 0.378232 0.462042
Si Si7 0.164027 0.683644 0.296328
O O1 0.011903 0.853935 0.337292
O O2 0.968135 0.713205 0.464605
O O3 0.069289 0.649810 0.343707
O O4 0.877039 0.706974 0.305424
O O5 0.660376 0.869790 0.249925
O O6 0.612062 0.850631 0.078663
O O7 0.786194 0.787645 0.152119
O O8 0.744303 0.994370 0.141466
O O9 0.158509 0.818272 0.835590
O O10 0.250785 0.905597 0.708193
O O11 0.094215 0.995785 0.746694
O O12 0.500000 0.754398 0.250000
O O13 0.574856 0.863567 0.391258
O O14 0.000000 0.500000 0.500000
#
# Coordination Sequence:
#
# PCOD8138872 Si02
#       7
#     8   8   8   4   8   8   8
#     4  10  20  41  59  91 124 159 203 256 305 367
#     4  10  20  38  62  89 117 164 211 251 307 367
#     4  11  18  37  65  90 115 161 215 249 298 367
#     4  10  20  38  66  86 122 162 206 256 312 364
#     4   9  21  39  62  87 121 164 210 250 303 375
#     4  11  24  40  59  91 132 162 201 260 312 359
#     4   9  20  36  64  88 116 163 207 249 299 381
#
# _framework density 20.200828999999999
#
# number of rings (size 3 to 8) (size 9 to 14) (size 15 to 20)
#    0.000    2.154    3.846    0.923    2.154    0.615 
#    1.385    9.231    0.000    0.000    0.000    0.000 
#    0.000    0.000    0.000    0.000    0.000    0.000 
#
# Total GULP energy -322133.994997 kJ/mol
# GULP energy per Si atom -12389.769038 kJ/mol
# Density = 2.015485 g / cm^3
# Si number density = 20.200829 Si / 1000 Ang^3
#
#
#
# Elastic Constant Matrix: (Units=GPa)
#
#
# Indices 1 2 3 4 5 6 
#
# 1 91.0917 24.1264 18.4725 0.0000 9.7915 0.0000
# 2 24.1264 92.5115 27.0198 0.0000 6.2712 0.0000
# 3 18.4725 27.0198 95.7799 0.0000 7.9295 0.0000
# 4 0.0000 0.0000 0.0000 17.5846 0.0000 0.2766
# 5 9.7915 6.2712 7.9295 0.0000 21.4005 0.0000
# 6 0.0000 0.0000 0.0000 0.2766 0.0000 41.1976
#
#
#
# Elastic Compliance Matrix: (Units=1/GPa)
#
#
# Indices 1 2 3 4 5 6 
#
# 1 0.012395 -0.002551 -0.001303 0.000000 -0.004441 0.000000
# 2 -0.002551 0.012415 -0.002895 0.000000 -0.001398 0.000000
# 3 -0.001303 -0.002895 0.011749 0.000000 -0.002909 0.000000
# 4 0.000000 0.000000 0.000000 0.056874 0.000000 -0.000382
# 5 -0.004441 -0.001398 -0.002909 0.000000 0.050247 0.000000
# 6 0.000000 0.000000 0.000000 -0.000382 0.000000 0.024276
#
#
# Mechanical properties :
#
#
# Convention : Reuss Voigt Hill
#
# Bulk Modulus (GPa) = 43.36142 46.51340 44.93741
# Shear Modulus (GPa) = 26.43524 30.02084 28.22804
#
# Velocity S-wave (km/s) = 3.62141 3.85920 3.74220
# Velocity P-wave (km/s) = 6.24483 6.55236 6.40044
#
# Compressibility (1/GPa) = 0.02306197
#
# Stress axis : x y z
#
# Youngs Moduli (GPa) = 80.67626 80.54825 85.11103
#
# Poissons Ratio (x) = 0.20547 0.11093
# Poissons Ratio (y) = 0.20580 0.24636
# Poissons Ratio (z) = 0.10515 0.23315
#
# Static dielectric constant tensor:
#      x y z
#    x 3.969450 0.000000 0.036320 
#    y 0.000000 3.658990 0.000000 
#    z 0.036320 0.000000 3.364860 
# 
# 
# High freq. dielectric constant tensor:
#      x y z
#    x 1.816300 0.000000 0.006610 
#    y 0.000000 1.783480 0.000000 
#    z 0.006610 0.000000 1.740530 
# 
# From -- ./inp_files/203600.got.cif
#   From: 2010.06.25/outbox.cif.g09.slc.cpg/sg15_102_cif.got.tgz:203600.got - 2010.06.28 07:06:18.
