data_PCOD8138680
_publ_section_title
;
Structure prediction by ZEFSAII (Michael W. Deem and Ramdas Pophale) SiO2 
 PCOD8138680
Probable space group: C 2/C
;
_chemical_formula_sum "Si O2"
_cell_formula_units_Z 48
_cell_length_a 32.489437
_cell_length_b 8.381338
_cell_length_c 22.723312
_cell_angle_alpha 90.000000
_cell_angle_beta 155.696533
_cell_angle_gamma 90.000000
_cell_volume 2546.656460
_symmetry_space_group_name_H-M "C 2/C"
_symmetry_group_IT_number 15
_symmetry_cell_setting 'monoclinic'
loop_
_space_group_symop_operation_xyz
x,y,z
-x,y,1/2-z
-x,-y,-z
x,-y,1/2+z
1/2+x,1/2+y,z
1/2-x,1/2+y,1/2-z
1/2-x,1/2-y,-z
1/2+x,1/2-y,1/2+z
loop_
_atom_site_type_symbol
_atom_site_label
_atom_site_fract_x
_atom_site_fract_y
_atom_site_fract_z
Si Si1 0.024584 0.039808 0.465525
Si Si2 0.098406 0.177301 0.772363
Si Si3 0.370221 0.164341 0.432879
Si Si4 0.287418 0.675216 0.462425
Si Si5 0.722204 0.521015 0.663979
Si Si6 0.060291 0.586444 0.385808
O O1 0.934225 0.978723 0.306583
O O2 0.127640 0.954091 0.578571
O O3 0.000000 0.000000 0.500000
O O4 0.039429 0.231731 0.478334
O O5 0.175830 0.282377 0.836172
O O6 0.002872 0.287705 0.658914
O O7 0.146496 0.116884 0.896122
O O8 0.282655 0.285546 0.341047
O O9 0.324823 0.042313 0.326123
O O10 0.416191 0.071107 0.547281
O O11 0.284536 0.531817 0.412439
O O12 0.335015 0.832923 0.495587
O O13 0.000000 0.530029 0.250000
#
# Coordination Sequence:
#
# PCOD8138680 Si02
#       6
#     8   8   8   8   8   8
#     4  10  22  37  57  86 116 155 191 240 286 346
#     4  10  21  37  63  86 115 153 194 240 286 349
#     4  10  22  36  57  84 114 155 189 238 296 335
#     4  10  20  39  62  87 113 153 196 236 292 346
#     4  10  21  37  58  82 115 152 192 236 287 342
#     4  10  20  38  60  86 118 150 192 241 288 347
#
# _framework density 18.848243
#
# number of rings (size 3 to 8) (size 9 to 14) (size 15 to 20)
#    1.000    1.000    1.667    2.000    2.333    1.333 
#    3.000    1.667    0.000    6.000    0.000    0.000 
#    0.000    0.000    0.000    0.000    0.000    0.000 
#
# Total GULP energy -297519.827446 kJ/mol
# GULP energy per Si atom -12396.659477 kJ/mol
# Density = 1.880534 g / cm^3
# Si number density = 18.848243 Si / 1000 Ang^3
#
#
#
# Elastic Constant Matrix: (Units=GPa)
#
#
# Indices 1 2 3 4 5 6 
#
# 1 104.2903 16.2192 33.4756 0.0000 -11.8246 0.0000
# 2 16.2192 66.2498 43.3489 0.0000 -22.8693 0.0000
# 3 33.4756 43.3489 90.8118 0.0000 -19.0288 0.0000
# 4 0.0000 0.0000 0.0000 30.9670 0.0000 -13.6143
# 5 -11.8246 -22.8693 -19.0288 0.0000 26.1010 0.0000
# 6 0.0000 0.0000 0.0000 -13.6143 0.0000 27.6590
#
#
#
# Elastic Compliance Matrix: (Units=1/GPa)
#
#
# Indices 1 2 3 4 5 6 
#
# 1 0.011026 0.000823 -0.003847 0.000000 0.002911 0.000000
# 2 0.000823 0.027116 -0.009667 0.000000 0.017083 0.000000
# 3 -0.003847 -0.009667 0.017592 0.000000 0.002612 0.000000
# 4 0.000000 0.000000 0.000000 0.041210 0.000000 0.020285
# 5 0.002911 0.017083 0.002612 0.000000 0.056504 0.000000
# 6 0.000000 0.000000 0.000000 0.020285 0.000000 0.046139
#
#
# Mechanical properties :
#
#
# Convention : Reuss Voigt Hill
#
# Bulk Modulus (GPa) = 32.94881 49.71548 41.33215
# Shear Modulus (GPa) = 21.26881 28.16594 24.71738
#
# Velocity S-wave (km/s) = 3.36285 3.86988 3.62524
# Velocity P-wave (km/s) = 5.70941 6.81190 6.28488
#
# Compressibility (1/GPa) = 0.03035011
#
# Stress axis : x y z
#
# Youngs Moduli (GPa) = 90.69806 36.87926 56.84411
#
# Poissons Ratio (x) = -0.03035 0.21869
# Poissons Ratio (y) = -0.07464 0.54953
# Poissons Ratio (z) = 0.34893 0.35652
#
# Static dielectric constant tensor:
#      x y z
#    x 3.489770 0.000000 -0.020690 
#    y 0.000000 3.170600 0.000000 
#    z -0.020690 0.000000 3.471070 
# 
# 
# High freq. dielectric constant tensor:
#      x y z
#    x 1.735280 0.000000 -0.007550 
#    y 0.000000 1.710370 0.000000 
#    z -0.007550 0.000000 1.737380 
# 
# From -- ./inp_files/258759.got.cif
#   From: 2010.06.25/outbox.cif.g09.slc.cpg/sg15_130_cif.got.tgz:258759.got - 2010.06.28 07:06:18.
