data_PCOD8138963
_publ_section_title
;
Structure prediction by ZEFSAII (Michael W. Deem and Ramdas Pophale) SiO2 
 PCOD8138963
Probable space group: C 2/C
;
_chemical_formula_sum "Si O2"
_cell_formula_units_Z 60
_cell_length_a 10.703834
_cell_length_b 18.846080
_cell_length_c 15.379330
_cell_angle_alpha 90.000000
_cell_angle_beta 114.387428
_cell_angle_gamma 90.000000
_cell_volume 2825.586265
_symmetry_space_group_name_H-M "C 2/C"
_symmetry_group_IT_number 15
_symmetry_cell_setting 'monoclinic'
loop_
_space_group_symop_operation_xyz
x,y,z
-x,y,1/2-z
-x,-y,-z
x,-y,1/2+z
1/2+x,1/2+y,z
1/2-x,1/2+y,1/2-z
1/2-x,1/2-y,-z
1/2+x,1/2-y,1/2+z
loop_
_atom_site_type_symbol
_atom_site_label
_atom_site_fract_x
_atom_site_fract_y
_atom_site_fract_z
Si Si1 0.443535 0.367547 0.640507
Si Si2 0.206309 0.196420 0.150772
Si Si3 0.134762 0.981661 0.987752
Si Si4 0.000000 0.506795 0.750000
Si Si5 0.632413 0.092367 0.422054
Si Si6 0.523791 0.819215 0.040296
Si Si7 0.720602 0.229571 0.137393
Si Si8 0.826215 0.376844 0.130985
O O1 0.500000 0.351325 0.750000
O O2 0.565687 0.348737 0.608910
O O3 0.404959 0.451117 0.619256
O O4 0.315124 0.313545 0.595368
O O5 0.317004 0.160416 0.118523
O O6 0.280264 0.195479 0.266529
O O7 0.160228 0.275113 0.106587
O O8 0.198275 0.908891 0.043468
O O9 0.236427 0.046444 0.013793
O O10 0.000000 0.000000 0.000000
O O11 0.018730 0.455344 0.838781
O O12 0.128960 0.561293 0.787253
O O13 0.566493 0.114339 0.493579
O O14 0.427510 0.770361 0.950934
O O15 0.450629 0.852796 0.103600
O O16 0.775429 0.308813 0.168774
#
# Coordination Sequence:
#
# PCOD8138963 Si02
#       8
#     8   8   8   4   8   8   8   8
#     4  10  20  38  63  91 118 155 209 262 314 369
#     4  11  22  40  66  93 126 162 215 265 318 379
#     4  11  22  40  61  87 123 165 205 249 313 383
#     4  10  24  42  60  90 132 164 214 252 316 384
#     4  11  25  42  61  91 132 176 204 255 326 387
#     4  12  23  40  67  94 130 165 217 267 321 384
#     4  11  22  39  69  96 121 156 215 280 317 360
#     4  11  22  40  65  97 121 163 214 268 312 367
#
# _framework density 21.234532000000002
#
# number of rings (size 3 to 8) (size 9 to 14) (size 15 to 20)
#    0.000    1.067    4.000    3.200    0.933    2.133 
#    4.800    1.333    0.000    0.000    0.000    0.000 
#    0.000    0.000    0.000    0.000    0.000    0.000 
#
# Total GULP energy -371769.960506 kJ/mol
# GULP energy per Si atom -12392.332017 kJ/mol
# Density = 2.118620 g / cm^3
# Si number density = 21.234532 Si / 1000 Ang^3
#
#
#
# Elastic Constant Matrix: (Units=GPa)
#
#
# Indices 1 2 3 4 5 6 
#
# 1 57.7298 33.3791 12.7828 0.0000 -0.2815 0.0000
# 2 33.3791 115.3244 27.2636 0.0000 -2.0072 0.0000
# 3 12.7828 27.2636 44.9694 0.0000 5.9904 0.0000
# 4 0.0000 0.0000 0.0000 44.4382 0.0000 5.7919
# 5 -0.2815 -2.0072 5.9904 0.0000 19.6154 0.0000
# 6 0.0000 0.0000 0.0000 5.7919 0.0000 31.2688
#
#
#
# Elastic Compliance Matrix: (Units=1/GPa)
#
#
# Indices 1 2 3 4 5 6 
#
# 1 0.021082 -0.005435 -0.002777 0.000000 0.000594 0.000000
# 2 -0.005435 0.011699 -0.005939 0.000000 0.002933 0.000000
# 3 -0.002777 -0.005939 0.027846 0.000000 -0.009152 0.000000
# 4 0.000000 0.000000 0.000000 0.023060 0.000000 -0.004271
# 5 0.000594 0.002933 -0.009152 0.000000 0.054084 0.000000
# 6 0.000000 0.000000 0.000000 -0.004271 0.000000 0.032772
#
#
# Mechanical properties :
#
#
# Convention : Reuss Voigt Hill
#
# Bulk Modulus (GPa) = 30.93422 40.54163 35.73793
# Shear Modulus (GPa) = 23.85265 28.70436 26.27850
#
# Velocity S-wave (km/s) = 3.35520 3.68064 3.52168
# Velocity P-wave (km/s) = 5.44144 6.09890 5.77953
#
# Compressibility (1/GPa) = 0.03232666
#
# Stress axis : x y z
#
# Youngs Moduli (GPa) = 47.43282 85.47497 35.91158
#
# Poissons Ratio (x) = 0.46458 0.09972
# Poissons Ratio (y) = 0.25781 0.21327
# Poissons Ratio (z) = 0.13171 0.50760
#
# Static dielectric constant tensor:
#      x y z
#    x 3.880970 0.000000 0.231810 
#    y 0.000000 4.001380 0.000000 
#    z 0.231810 0.000000 3.945770 
# 
# 
# High freq. dielectric constant tensor:
#      x y z
#    x 1.812570 0.000000 0.021700 
#    y 0.000000 1.840200 0.000000 
#    z 0.021700 0.000000 1.837520 
# 
# From -- ./inp_files/146138.got.cif
#   From: 2010.06.25/outbox.cif.g09.slc.cpg/sg15_74_cif.got.tgz:146138.got - 2010.06.28 07:06:18.
