data_PCOD8138055
_publ_section_title
;
Structure prediction by ZEFSAII (Michael W. Deem and Ramdas Pophale) SiO2 
 PCOD8138055
Probable space group: C 2/C
;
_chemical_formula_sum "Si O2"
_cell_formula_units_Z 28
_cell_length_a 7.021987
_cell_length_b 30.512211
_cell_length_c 7.767877
_cell_angle_alpha 90.000000
_cell_angle_beta 122.527738
_cell_angle_gamma 90.000000
_cell_volume 1403.237610
_symmetry_space_group_name_H-M "C 2/C"
_symmetry_group_IT_number 15
_symmetry_cell_setting 'monoclinic'
loop_
_space_group_symop_operation_xyz
x,y,z
-x,y,1/2-z
-x,-y,-z
x,-y,1/2+z
1/2+x,1/2+y,z
1/2-x,1/2+y,1/2-z
1/2-x,1/2-y,-z
1/2+x,1/2-y,1/2+z
loop_
_atom_site_type_symbol
_atom_site_label
_atom_site_fract_x
_atom_site_fract_y
_atom_site_fract_z
Si Si1 0.500000 0.629847 0.750000
Si Si2 0.754202 0.055313 0.437853
Si Si3 0.179576 0.700655 0.685004
Si Si4 0.000000 0.014893 0.250000
Si Si5 0.500000 0.777344 0.750000
O O1 0.325269 0.601133 0.555701
O O2 0.355438 0.661253 0.807425
O O3 0.500000 0.057679 0.250000
O O4 0.924433 0.046709 0.364538
O O5 0.788204 0.015849 0.591456
O O6 0.299859 0.747723 0.732284
O O7 0.074860 0.691674 0.444204
O O8 0.000000 0.701704 0.750000
#
# Coordination Sequence:
#
# PCOD8138055 Si02
#       5
#     4   8   8   4   4
#     4  10  24  36  50  90 120 144 198 226 288 364
#     4  10  20  37  58  81 116 148 187 241 280 337
#     4  10  20  38  59  85 118 153 191 244 287 340
#     4   9  20  37  60  86 102 150 202 226 282 345
#     4   9  20  37  62  86 110 150 206 236 280 349
#
# _framework density 19.953855999999998
#
# number of rings (size 3 to 8) (size 9 to 14) (size 15 to 20)
#    0.000    2.286    0.000    1.714    2.000    2.286 
#    0.000    2.857    0.000    0.000    0.000    0.000 
#    0.000    0.000    0.000    0.000    0.000    0.000 
#
# Total GULP energy -173576.508218 kJ/mol
# GULP energy per Si atom -12398.322016 kJ/mol
# Density = 1.990844 g / cm^3
# Si number density = 19.953856 Si / 1000 Ang^3
#
#
#
# Elastic Constant Matrix: (Units=GPa)
#
#
# Indices 1 2 3 4 5 6 
#
# 1 127.9734 43.4078 27.9518 0.0000 0.2850 0.0000
# 2 43.4078 79.3533 27.0406 0.0000 1.5257 0.0000
# 3 27.9518 27.0406 107.2750 0.0000 18.7381 0.0000
# 4 0.0000 0.0000 0.0000 23.5552 0.0000 8.6890
# 5 0.2850 1.5257 18.7381 0.0000 34.5081 0.0000
# 6 0.0000 0.0000 0.0000 8.6890 0.0000 11.7525
#
#
#
# Elastic Compliance Matrix: (Units=1/GPa)
#
#
# Indices 1 2 3 4 5 6 
#
# 1 0.009787 -0.004865 -0.001489 0.000000 0.000943 0.000000
# 2 -0.004865 0.016266 -0.002999 0.000000 0.000949 0.000000
# 3 -0.001489 -0.002999 0.011534 0.000000 -0.006118 0.000000
# 4 0.000000 0.000000 0.000000 0.058373 0.000000 -0.043157
# 5 0.000943 0.000949 -0.006118 0.000000 0.032251 0.000000
# 6 0.000000 0.000000 0.000000 -0.043157 0.000000 0.116996
#
#
# Mechanical properties :
#
#
# Convention : Reuss Voigt Hill
#
# Bulk Modulus (GPa) = 52.95375 56.82243 54.88809
# Shear Modulus (GPa) = 18.50436 28.37660 23.44048
#
# Velocity S-wave (km/s) = 3.04856 3.77518 3.43116
# Velocity P-wave (km/s) = 6.24398 6.89503 6.57756
#
# Compressibility (1/GPa) = 0.01888440
#
# Stress axis : x y z
#
# Youngs Moduli (GPa) = 102.17395 61.47615 86.69845
#
# Poissons Ratio (x) = 0.29906 0.12906
# Poissons Ratio (y) = 0.49704 0.25997
# Poissons Ratio (z) = 0.15210 0.18434
#
# Static dielectric constant tensor:
#      x y z
#    x 3.397410 0.000000 0.083190 
#    y 0.000000 3.477390 0.000000 
#    z 0.083190 0.000000 3.903600 
# 
# 
# High freq. dielectric constant tensor:
#      x y z
#    x 1.768700 0.000000 0.005810 
#    y 0.000000 1.772220 0.000000 
#    z 0.005810 0.000000 1.789230 
# 
# From -- ./inp_files/19894.got.cif
#   From: 2010.06.25/outbox.cif.g09.slc.cpg/sg15_10_cif.got.tgz:19894.got - 2010.06.28 07:06:18.
