data_PCOD8138764
_publ_section_title
;
Structure prediction by ZEFSAII (Michael W. Deem and Ramdas Pophale) SiO2 
 PCOD8138764
Probable space group: C 2/C
;
_chemical_formula_sum "Si O2"
_cell_formula_units_Z 60
_cell_length_a 8.830641
_cell_length_b 19.359231
_cell_length_c 19.798984
_cell_angle_alpha 90.000000
_cell_angle_beta 52.210971
_cell_angle_gamma 90.000000
_cell_volume 2674.853662
_symmetry_space_group_name_H-M "C 2/C"
_symmetry_group_IT_number 15
_symmetry_cell_setting 'monoclinic'
loop_
_space_group_symop_operation_xyz
x,y,z
-x,y,1/2-z
-x,-y,-z
x,-y,1/2+z
1/2+x,1/2+y,z
1/2-x,1/2+y,1/2-z
1/2-x,1/2-y,-z
1/2+x,1/2-y,1/2+z
loop_
_atom_site_type_symbol
_atom_site_label
_atom_site_fract_x
_atom_site_fract_y
_atom_site_fract_z
Si Si1 0.000000 0.581041 0.250000
Si Si2 0.077120 0.810357 0.303111
Si Si3 0.749969 0.966895 0.129066
Si Si4 0.163882 0.976493 0.039686
Si Si5 0.833438 0.347354 0.042307
Si Si6 0.905932 0.332097 0.648843
Si Si7 0.600669 0.902681 0.335112
Si Si8 0.300580 0.463914 0.834242
O O1 0.181211 0.528078 0.198935
O O2 0.982191 0.629414 0.320755
O O3 0.180703 0.740205 0.300574
O O4 0.231375 0.873499 0.260493
O O5 0.000000 0.797902 0.250000
O O6 0.885712 0.821465 0.399891
O O7 0.590537 0.907185 0.159037
O O8 0.952818 0.939550 0.102179
O O9 0.794323 0.997846 0.044834
O O10 0.331994 0.924637 0.013956
O O11 0.180957 0.037738 0.089601
O O12 0.920765 0.350327 0.094892
O O13 0.964963 0.308896 0.951354
O O14 0.739331 0.384703 0.673850
O O15 0.646386 0.980275 0.348659
O O16 0.500000 0.489568 0.750000
#
# Coordination Sequence:
#
# PCOD8138764 Si02
#       8
#     4   8   8   8   8   8   8   8
#     4  12  22  34  56  90 120 158 200 256 304 366
#     4  10  22  38  60  89 124 162 211 254 305 367
#     4  11  22  36  59  93 124 156 196 255 315 365
#     4  10  21  37  59  92 125 153 199 255 309 365
#     4  10  20  38  61  87 116 164 207 251 300 366
#     4  12  22  38  60  87 124 163 209 251 310 366
#     4  10  20  39  64  90 119 159 204 256 304 365
#     4  11  21  38  62  88 119 157 202 255 305 368
#
# _framework density 22.431135000000001
#
# number of rings (size 3 to 8) (size 9 to 14) (size 15 to 20)
#    0.000    1.333    3.333    4.000    1.867    2.133 
#    0.000    1.333    0.000    0.000    0.000    9.333 
#    0.000    0.000    0.000    0.000    0.000    0.000 
#
# Total GULP energy -371646.873587 kJ/mol
# GULP energy per Si atom -12388.229120 kJ/mol
# Density = 2.238008 g / cm^3
# Si number density = 22.431135 Si / 1000 Ang^3
#
#
#
# Elastic Constant Matrix: (Units=GPa)
#
#
# Indices 1 2 3 4 5 6 
#
# 1 66.6929 11.6991 2.9080 0.0000 -9.3971 0.0001
# 2 11.6991 77.2335 5.4533 0.0000 -13.8168 0.0000
# 3 2.9080 5.4533 92.9816 0.0000 4.3550 0.0000
# 4 0.0000 0.0000 0.0000 24.3850 0.0000 0.2537
# 5 -9.3971 -13.8168 4.3550 0.0000 21.7367 0.0000
# 6 0.0001 0.0000 0.0000 0.2537 0.0000 30.1323
#
#
#
# Elastic Compliance Matrix: (Units=1/GPa)
#
#
# Indices 1 2 3 4 5 6 
#
# 1 0.016138 -0.001263 -0.000727 0.000000 0.006320 0.000000
# 2 -0.001263 0.014866 -0.001261 0.000000 0.009156 0.000000
# 3 -0.000727 -0.001261 0.011007 0.000000 -0.003321 0.000000
# 4 0.000000 0.000000 0.000000 0.041012 0.000000 -0.000345
# 5 0.006320 0.009156 -0.003321 0.000000 0.055223 0.000000
# 6 0.000000 0.000000 0.000000 -0.000345 0.000000 0.033190
#
#
# Mechanical properties :
#
#
# Convention : Reuss Voigt Hill
#
# Bulk Modulus (GPa) = 28.16126 30.78098 29.47112
# Shear Modulus (GPa) = 26.34720 29.70733 28.02726
#
# Velocity S-wave (km/s) = 3.43093 3.64315 3.53863
# Velocity P-wave (km/s) = 5.31760 5.60794 5.46470
#
# Compressibility (1/GPa) = 0.03550978
#
# Stress axis : x y z
#
# Youngs Moduli (GPa) = 61.96676 67.26712 90.85070
#
# Poissons Ratio (x) = 0.08493 0.06602
# Poissons Ratio (y) = 0.07824 0.11459
# Poissons Ratio (z) = 0.04503 0.08484
#
# Static dielectric constant tensor:
#      x y z
#    x 4.323660 0.000000 0.028700 
#    y 0.000000 3.743250 0.000000 
#    z 0.028700 0.000000 4.451320 
# 
# 
# High freq. dielectric constant tensor:
#      x y z
#    x 1.873650 0.000000 0.018380 
#    y 0.000000 1.848780 0.000000 
#    z 0.018380 0.000000 1.909180 
# 
# From -- ./inp_files/234065.got.cif
#   From: 2010.06.25/outbox.cif.g09.slc.cpg/sg15_118_cif.got.tgz:234065.got - 2010.06.28 07:06:18.
