data_PCOD8138360
_publ_section_title
;
Structure prediction by ZEFSAII (Michael W. Deem and Ramdas Pophale) SiO2 
 PCOD8138360
Probable space group: C 2/C
;
_chemical_formula_sum "Si O2"
_cell_formula_units_Z 52
_cell_length_a 13.477955
_cell_length_b 12.355328
_cell_length_c 16.306059
_cell_angle_alpha 90.000000
_cell_angle_beta 114.611220
_cell_angle_gamma 90.000000
_cell_volume 2468.681248
_symmetry_space_group_name_H-M "C 2/C"
_symmetry_group_IT_number 15
_symmetry_cell_setting 'monoclinic'
loop_
_space_group_symop_operation_xyz
x,y,z
-x,y,1/2-z
-x,-y,-z
x,-y,1/2+z
1/2+x,1/2+y,z
1/2-x,1/2+y,1/2-z
1/2-x,1/2-y,-z
1/2+x,1/2-y,1/2+z
loop_
_atom_site_type_symbol
_atom_site_label
_atom_site_fract_x
_atom_site_fract_y
_atom_site_fract_z
Si Si1 0.783665 0.387904 0.070839
Si Si2 0.855753 0.835926 0.625734
Si Si3 0.110004 0.789100 0.524793
Si Si4 0.154361 0.374621 0.914923
Si Si5 0.000000 0.760327 0.250000
Si Si6 0.598382 0.376946 0.685194
Si Si7 0.092711 0.887735 0.127691
O O1 0.868820 0.288906 0.101734
O O2 0.853741 0.497317 0.105653
O O3 0.697563 0.348904 0.111297
O O4 0.727884 0.398279 0.962068
O O5 0.823183 0.849609 0.710591
O O6 0.972385 0.891592 0.663116
O O7 0.097015 0.669472 0.479400
O O8 0.219279 0.846336 0.531177
O O9 0.114333 0.780032 0.624695
O O10 0.012101 0.870208 0.466131
O O11 0.094721 0.313769 0.820298
O O12 0.066023 0.831346 0.205743
O O13 0.630436 0.489465 0.654669
#
# Coordination Sequence:
#
# PCOD8138360 Si02
#       7
#     8   8   8   8   4   8   8
#     4  11  22  42  60  87 123 170 184 253 305 363
#     4  10  24  37  61  87 127 150 210 241 306 353
#     4  10  20  37  63  91 115 156 196 256 290 352
#     4  10  22  39  62  87 127 152 204 242 308 350
#     4  10  24  38  58  98 122 158 200 256 284 370
#     4  11  20  39  62  92 113 159 205 255 283 361
#     4  11  21  38  66  88 124 154 206 246 307 335
#
# _framework density 21.063877999999999
#
# number of rings (size 3 to 8) (size 9 to 14) (size 15 to 20)
#    0.000    1.538    3.077    2.308    2.154    3.692 
#    0.000    0.769    0.000    0.000    0.000    0.000 
#    0.000    0.000    0.000    0.000    0.000    0.000 
#
# Total GULP energy -322148.986716 kJ/mol
# GULP energy per Si atom -12390.345643 kJ/mol
# Density = 2.101594 g / cm^3
# Si number density = 21.063878 Si / 1000 Ang^3
#
#
#
# Elastic Constant Matrix: (Units=GPa)
#
#
# Indices 1 2 3 4 5 6 
#
# 1 38.2018 17.1300 30.4908 0.0000 -14.0832 0.0000
# 2 17.1300 88.2776 26.5369 0.0000 -4.6546 0.0000
# 3 30.4908 26.5369 125.9996 0.0000 -30.3203 0.0000
# 4 0.0000 0.0000 0.0000 23.4424 0.0000 4.5802
# 5 -14.0832 -4.6546 -30.3203 0.0000 36.7628 0.0000
# 6 0.0000 0.0000 0.0000 4.5802 0.0000 23.9257
#
#
#
# Elastic Compliance Matrix: (Units=1/GPa)
#
#
# Indices 1 2 3 4 5 6 
#
# 1 0.035990 -0.004839 -0.005639 0.000000 0.008524 0.000000
# 2 -0.004839 0.012759 -0.001963 0.000000 -0.001857 0.000000
# 3 -0.005639 -0.001963 0.011397 0.000000 0.006991 0.000000
# 4 0.000000 0.000000 0.000000 0.044315 0.000000 -0.008484
# 5 0.008524 -0.001857 0.006991 0.000000 0.035997 0.000000
# 6 0.000000 0.000000 0.000000 -0.008484 0.000000 0.043420
#
#
# Mechanical properties :
#
#
# Convention : Reuss Voigt Hill
#
# Bulk Modulus (GPa) = 28.35817 44.53269 36.44543
# Shear Modulus (GPa) = 22.67418 28.71425 25.69422
#
# Velocity S-wave (km/s) = 3.28449 3.69616 3.49639
# Velocity P-wave (km/s) = 5.27977 6.27719 5.79996
#
# Compressibility (1/GPa) = 0.03526321
#
# Stress axis : x y z
#
# Youngs Moduli (GPa) = 27.78575 78.37525 87.74383
#
# Poissons Ratio (x) = 0.37927 0.49478
# Poissons Ratio (y) = 0.13446 0.17225
# Poissons Ratio (z) = 0.15668 0.15386
#
# Static dielectric constant tensor:
#      x y z
#    x 3.729870 0.000000 -0.289370 
#    y 0.000000 3.670290 0.000000 
#    z -0.289370 0.000000 4.122300 
# 
# 
# High freq. dielectric constant tensor:
#      x y z
#    x 1.811510 0.000000 -0.013250 
#    y 0.000000 1.811400 0.000000 
#    z -0.013250 0.000000 1.839800 
# 
# From -- ./inp_files/204194.got.cif
#   From: 2010.06.25/outbox.cif.g09.slc.cpg/sg15_103_cif.got.tgz:204194.got - 2010.06.28 07:06:18.
