data_PCOD8138630
_publ_section_title
;
Structure prediction by ZEFSAII (Michael W. Deem and Ramdas Pophale) SiO2 
 PCOD8138630
Probable space group: C 2/C
;
_chemical_formula_sum "Si O2"
_cell_formula_units_Z 44
_cell_length_a 27.267950
_cell_length_b 7.929287
_cell_length_c 12.415645
_cell_angle_alpha 90.000000
_cell_angle_beta 125.788784
_cell_angle_gamma 90.000000
_cell_volume 2177.570596
_symmetry_space_group_name_H-M "C 2/C"
_symmetry_group_IT_number 15
_symmetry_cell_setting 'monoclinic'
loop_
_space_group_symop_operation_xyz
x,y,z
-x,y,1/2-z
-x,-y,-z
x,-y,1/2+z
1/2+x,1/2+y,z
1/2-x,1/2+y,1/2-z
1/2-x,1/2-y,-z
1/2+x,1/2-y,1/2+z
loop_
_atom_site_type_symbol
_atom_site_label
_atom_site_fract_x
_atom_site_fract_y
_atom_site_fract_z
Si Si1 0.051190 0.185159 0.886924
Si Si2 0.264685 0.494292 0.524623
Si Si3 0.000000 0.142541 0.250000
Si Si4 0.677695 0.791125 0.276170
Si Si5 0.318768 0.214212 0.961734
Si Si6 0.539652 0.839502 0.090674
O O1 0.000000 0.276832 0.750000
O O2 0.109283 0.297682 0.934130
O O3 0.034727 0.196215 0.992232
O O4 0.054730 0.985091 0.857574
O O5 0.315863 0.370310 0.637520
O O6 0.228633 0.422294 0.376756
O O7 0.299714 0.654428 0.527581
O O8 0.215390 0.539754 0.554301
O O9 0.015775 0.263694 0.171344
O O10 0.694949 0.731871 0.178071
O O11 0.611461 0.878496 0.197918
O O12 0.500000 0.000000 0.000000
#
# Coordination Sequence:
#
# PCOD8138630 Si02
#       6
#     8   8   4   8   8   8
#     4   9  22  39  62  85 125 160 203 253 309 375
#     4  10  21  37  61  84 115 155 193 248 302 352
#     4  10  22  40  60  84 124 168 206 246 314 372
#     4  10  22  38  57  86 119 150 198 246 302 358
#     4  10  20  38  59  87 112 153 200 244 296 360
#     4  11  24  38  61  91 123 164 208 259 308 368
#
# _framework density 20.206002999999999
#
# number of rings (size 3 to 8) (size 9 to 14) (size 15 to 20)
#    0.545    1.455    0.000    2.727    3.818    1.455 
#    0.000    1.818    0.000    0.000    0.000    0.000 
#    0.000    0.000    0.000    0.000    0.000    0.000 
#
# Total GULP energy -272554.634384 kJ/mol
# GULP energy per Si atom -12388.847017 kJ/mol
# Density = 2.016001 g / cm^3
# Si number density = 20.206003 Si / 1000 Ang^3
#
#
#
# Elastic Constant Matrix: (Units=GPa)
#
#
# Indices 1 2 3 4 5 6 
#
# 1 117.1316 30.8539 52.3492 0.0000 -7.3082 0.0000
# 2 30.8539 73.6425 33.6874 0.0000 5.8897 0.0000
# 3 52.3492 33.6874 136.2701 0.0000 0.4525 0.0000
# 4 0.0000 0.0000 0.0000 36.1972 0.0000 -2.1984
# 5 -7.3082 5.8897 0.4525 0.0000 26.0858 0.0000
# 6 0.0000 0.0000 0.0000 -2.1984 0.0000 30.1550
#
#
#
# Elastic Compliance Matrix: (Units=1/GPa)
#
#
# Indices 1 2 3 4 5 6 
#
# 1 0.011249 -0.003438 -0.003485 0.000000 0.003988 0.000000
# 2 -0.003438 0.016667 -0.002784 0.000000 -0.004678 0.000000
# 3 -0.003485 -0.002784 0.009367 0.000000 -0.000510 0.000000
# 4 0.000000 0.000000 0.000000 0.027749 0.000000 0.002023
# 5 0.003988 -0.004678 -0.000510 0.000000 0.040517 0.000000
# 6 0.000000 0.000000 0.000000 0.002023 0.000000 0.033310
#
#
# Mechanical properties :
#
#
# Convention : Reuss Voigt Hill
#
# Bulk Modulus (GPa) = 55.96025 62.31391 59.13708
# Shear Modulus (GPa) = 30.44506 32.49783 31.47145
#
# Velocity S-wave (km/s) = 3.88588 4.01474 3.95084
# Velocity P-wave (km/s) = 6.92014 7.23859 7.08116
#
# Compressibility (1/GPa) = 0.01786983
#
# Stress axis : x y z
#
# Youngs Moduli (GPa) = 88.89427 59.99811 106.75725
#
# Poissons Ratio (x) = 0.20627 0.37203
# Poissons Ratio (y) = 0.30561 0.29722
# Poissons Ratio (z) = 0.30978 0.16704
#
# Static dielectric constant tensor:
#      x y z
#    x 3.731130 0.000000 -0.062060 
#    y 0.000000 3.489850 0.000000 
#    z -0.062060 0.000000 3.798610 
# 
# 
# High freq. dielectric constant tensor:
#      x y z
#    x 1.792860 0.000000 -0.010030 
#    y 0.000000 1.769230 0.000000 
#    z -0.010030 0.000000 1.801060 
# 
# From -- ./inp_files/176748.got.cif
#   From: 2010.06.25/outbox.cif.g09.slc.cpg/sg15_89_cif.got.tgz:176748.got - 2010.06.28 07:06:18.
