data_PCOD8138276
_publ_section_title
;
Structure prediction by ZEFSAII (Michael W. Deem and Ramdas Pophale) SiO2 
 PCOD8138276
Probable space group: C 2/C
;
_chemical_formula_sum "Si O2"
_cell_formula_units_Z 64
_cell_length_a 30.692429
_cell_length_b 13.655694
_cell_length_c 12.518215
_cell_angle_alpha 90.000000
_cell_angle_beta 143.305424
_cell_angle_gamma 90.000000
_cell_volume 3135.170348
_symmetry_space_group_name_H-M "C 2/C"
_symmetry_group_IT_number 15
_symmetry_cell_setting 'monoclinic'
loop_
_space_group_symop_operation_xyz
x,y,z
-x,y,1/2-z
-x,-y,-z
x,-y,1/2+z
1/2+x,1/2+y,z
1/2-x,1/2+y,1/2-z
1/2-x,1/2-y,-z
1/2+x,1/2-y,1/2+z
loop_
_atom_site_type_symbol
_atom_site_label
_atom_site_fract_x
_atom_site_fract_y
_atom_site_fract_z
Si Si1 0.678151 0.457585 0.919413
Si Si2 0.388404 0.688623 0.383934
Si Si3 0.780317 0.952504 0.195604
Si Si4 0.081680 0.986281 0.416212
Si Si5 0.328947 0.881857 0.966544
Si Si6 0.552658 0.961910 0.450429
Si Si7 0.242620 0.691406 0.779928
Si Si8 0.059888 0.367701 0.125421
O O1 0.648148 0.381992 0.773463
O O2 0.718896 0.543362 0.931941
O O3 0.614273 0.510401 0.860592
O O4 0.736479 0.401469 0.105955
O O5 0.425350 0.624191 0.549986
O O6 0.332028 0.763056 0.327772
O O7 0.444787 0.757150 0.429840
O O8 0.736618 0.855748 0.148799
O O9 0.864214 0.949169 0.403693
O O10 0.742870 0.051207 0.168384
O O11 0.000000 0.031392 0.250000
O O12 0.306982 0.769802 0.906761
O O13 0.374874 0.913106 0.953559
O O14 0.372833 0.887190 0.163158
O O15 0.500000 0.990628 0.250000
O O16 0.515267 0.885974 0.459195
O O17 0.571882 0.060768 0.549450
#
# Coordination Sequence:
#
# PCOD8138276 Si02
#       8
#     8   8   8   8   8   8   8   8
#     4  10  20  39  60  84 114 156 200 249 296 359
#     4  11  20  37  62  88 113 155 204 242 297 368
#     4  10  22  37  63  88 119 156 200 254 308 350
#     4  10  23  41  57  82 123 159 201 253 302 356
#     4  11  19  38  61  92 119 153 202 253 294 359
#     4   9  21  38  59  89 129 152 194 246 301 362
#     4  11  20  37  61  90 117 149 203 252 301 357
#     4  10  20  37  62  89 116 165 199 237 303 367
#
# _framework density 20.413564999999998
#
# number of rings (size 3 to 8) (size 9 to 14) (size 15 to 20)
#    0.000    1.750    3.750    1.875    0.000    3.500 
#    6.750    1.875    0.000    0.000    0.000    0.000 
#    0.000    0.000    0.000    0.000    0.000    0.000 
#
# Total GULP energy -396688.139792 kJ/mol
# GULP energy per Si atom -12396.504368 kJ/mol
# Density = 2.036710 g / cm^3
# Si number density = 20.413565 Si / 1000 Ang^3
#
#
#
# Elastic Constant Matrix: (Units=GPa)
#
#
# Indices 1 2 3 4 5 6 
#
# 1 107.5282 21.2241 10.6256 0.0000 -10.2558 0.0000
# 2 21.2241 50.4705 6.5915 0.0000 -11.4637 0.0000
# 3 10.6256 6.5915 29.0419 0.0000 7.4694 0.0000
# 4 0.0000 0.0000 0.0000 5.2759 0.0000 -4.3953
# 5 -10.2558 -11.4637 7.4694 0.0000 24.6799 0.0000
# 6 0.0000 0.0000 0.0000 -4.3953 0.0000 45.8806
#
#
#
# Elastic Compliance Matrix: (Units=1/GPa)
#
#
# Indices 1 2 3 4 5 6 
#
# 1 0.010737 -0.002934 -0.004402 0.000000 0.004431 0.000000
# 2 -0.002934 0.024976 -0.007879 0.000000 0.012767 0.000000
# 3 -0.004402 -0.007879 0.042556 0.000000 -0.018369 0.000000
# 4 0.000000 0.000000 0.000000 0.205982 0.000000 0.019733
# 5 0.004431 0.012767 -0.018369 0.000000 0.053849 0.000000
# 6 0.000000 0.000000 0.000000 0.019733 0.000000 0.023686
#
#
# Mechanical properties :
#
#
# Convention : Reuss Voigt Hill
#
# Bulk Modulus (GPa) = 20.90317 29.32477 25.11397
# Shear Modulus (GPa) = 12.25006 25.07390 18.66198
#
# Velocity S-wave (km/s) = 2.45234 3.50851 3.02685
# Velocity P-wave (km/s) = 4.27559 5.55062 4.95429
#
# Compressibility (1/GPa) = 0.04783964
#
# Stress axis : x y z
#
# Youngs Moduli (GPa) = 93.13964 40.03848 23.49837
#
# Poissons Ratio (x) = 0.11746 0.10344
# Poissons Ratio (y) = 0.27323 0.18514
# Poissons Ratio (z) = 0.41001 0.31546
#
# Static dielectric constant tensor:
#      x y z
#    x 4.166230 0.000000 -0.235010 
#    y 0.000000 3.753550 0.000000 
#    z -0.235010 0.000000 3.545340 
# 
# 
# High freq. dielectric constant tensor:
#      x y z
#    x 1.816120 0.000000 -0.007220 
#    y 0.000000 1.785040 0.000000 
#    z -0.007220 0.000000 1.778170 
# 
# From -- ./inp_files/126894.got.cif
#   From: 2010.06.25/outbox.cif.g09.slc.cpg/sg15_64_cif.got.tgz:126894.got - 2010.06.28 07:06:18.
