data_PCOD8138378
_publ_section_title
;
Structure prediction by ZEFSAII (Michael W. Deem and Ramdas Pophale) SiO2 
 PCOD8138378
Probable space group: C 2/C
;
_chemical_formula_sum "Si O2"
_cell_formula_units_Z 48
_cell_length_a 11.058230
_cell_length_b 26.008036
_cell_length_c 10.773034
_cell_angle_alpha 90.000000
_cell_angle_beta 129.024354
_cell_angle_gamma 90.000000
_cell_volume 2407.045224
_symmetry_space_group_name_H-M "C 2/C"
_symmetry_group_IT_number 15
_symmetry_cell_setting 'monoclinic'
loop_
_space_group_symop_operation_xyz
x,y,z
-x,y,1/2-z
-x,-y,-z
x,-y,1/2+z
1/2+x,1/2+y,z
1/2-x,1/2+y,1/2-z
1/2-x,1/2-y,-z
1/2+x,1/2-y,1/2+z
loop_
_atom_site_type_symbol
_atom_site_label
_atom_site_fract_x
_atom_site_fract_y
_atom_site_fract_z
Si Si1 0.671152 0.193877 0.316821
Si Si2 0.500000 0.525170 0.750000
Si Si3 0.259750 0.093885 0.781975
Si Si4 0.000000 0.468869 0.750000
Si Si5 0.608252 0.899895 0.614253
Si Si6 0.823853 0.193791 0.663525
Si Si7 0.249722 0.457065 0.488390
O O1 0.500000 0.204172 0.250000
O O2 0.667779 0.156969 0.193797
O O3 0.754844 0.169569 0.491305
O O4 0.748159 0.250591 0.340550
O O5 0.635400 0.558878 0.774800
O O6 0.413529 0.487457 0.596252
O O7 0.201040 0.152682 0.743222
O O8 0.267269 0.075575 0.646625
O O9 0.432112 0.095463 0.951183
O O10 0.883237 0.434854 0.757288
O O11 0.893241 0.503326 0.591862
O O12 0.733889 0.918992 0.595488
O O13 0.000000 0.202980 0.750000
#
# Coordination Sequence:
#
# PCOD8138378 Si02
#       7
#     8   4   8   4   8   8   8
#     4  10  20  37  63  94 119 155 205 256 302 365
#     4  12  26  42  59  92 125 168 208 258 306 350
#     4  12  22  41  63  93 123 164 207 254 309 364
#     4  12  20  38  63  88 117 166 210 250 286 364
#     4  12  22  40  67  91 120 167 212 247 305 370
#     4  10  21  37  62  95 124 149 202 263 308 351
#     4  12  26  40  60  91 130 162 206 256 305 368
#
# _framework density 19.941462000000001
#
# number of rings (size 3 to 8) (size 9 to 14) (size 15 to 20)
#    0.000    0.667    6.667    2.000    0.000    1.333 
#    0.000    0.833    0.000    0.000    0.000    0.000 
#    0.000    0.000    0.000    0.000    0.000    0.000 
#
# Total GULP energy -297426.265396 kJ/mol
# GULP energy per Si atom -12392.761058 kJ/mol
# Density = 1.989607 g / cm^3
# Si number density = 19.941462 Si / 1000 Ang^3
#
#
#
# Elastic Constant Matrix: (Units=GPa)
#
#
# Indices 1 2 3 4 5 6 
#
# 1 73.0777 43.6281 29.5817 0.0000 -15.9618 0.0000
# 2 43.6281 140.5977 53.3200 0.0000 -17.7487 0.0000
# 3 29.5817 53.3200 107.3597 0.0000 -1.6876 0.0000
# 4 0.0000 0.0000 0.0000 36.5086 0.0000 0.3852
# 5 -15.9618 -17.7487 -1.6876 0.0000 35.3796 0.0000
# 6 0.0000 0.0000 0.0000 0.3852 0.0000 13.1269
#
#
#
# Elastic Compliance Matrix: (Units=1/GPa)
#
#
# Indices 1 2 3 4 5 6 
#
# 1 0.018600 -0.003776 -0.003150 0.000000 0.006347 0.000000
# 2 -0.003776 0.010198 -0.003974 0.000000 0.003223 0.000000
# 3 -0.003150 -0.003974 0.012111 0.000000 -0.002837 0.000000
# 4 0.000000 0.000000 0.000000 0.027399 0.000000 -0.000804
# 5 0.006347 0.003223 -0.002837 0.000000 0.032610 0.000000
# 6 0.000000 0.000000 0.000000 -0.000804 0.000000 0.076203
#
#
# Mechanical properties :
#
#
# Convention : Reuss Voigt Hill
#
# Bulk Modulus (GPa) = 52.32836 63.78829 58.05832
# Shear Modulus (GPa) = 24.35579 29.97006 27.16292
#
# Velocity S-wave (km/s) = 3.49859 3.88093 3.69471
# Velocity P-wave (km/s) = 6.52826 7.22076 6.88322
#
# Compressibility (1/GPa) = 0.01911010
#
# Stress axis : x y z
#
# Youngs Moduli (GPa) = 53.76456 98.05852 82.56697
#
# Poissons Ratio (x) = 0.37024 0.26008
# Poissons Ratio (y) = 0.20300 0.32810
# Poissons Ratio (z) = 0.16935 0.38966
#
# Static dielectric constant tensor:
#      x y z
#    x 3.361570 0.000000 0.094260 
#    y 0.000000 4.092240 0.000000 
#    z 0.094260 0.000000 3.671060 
# 
# 
# High freq. dielectric constant tensor:
#      x y z
#    x 1.743320 0.000000 0.013620 
#    y 0.000000 1.791290 0.000000 
#    z 0.013620 0.000000 1.788240 
# 
# From -- ./inp_files/33850.got.cif
#   From: 2010.06.25/outbox.cif.g09.slc.cpg/sg15_17_cif.got.tgz:33850.got - 2010.06.28 07:06:18.
