data_PCOD8138554
_publ_section_title
;
Structure prediction by ZEFSAII (Michael W. Deem and Ramdas Pophale) SiO2 
 PCOD8138554
Probable space group: C 2/C
;
_chemical_formula_sum "Si O2"
_cell_formula_units_Z 52
_cell_length_a 15.188677
_cell_length_b 11.998506
_cell_length_c 14.564169
_cell_angle_alpha 90.000000
_cell_angle_beta 74.942767
_cell_angle_gamma 90.000000
_cell_volume 2563.068032
_symmetry_space_group_name_H-M "C 2/C"
_symmetry_group_IT_number 15
_symmetry_cell_setting 'monoclinic'
loop_
_space_group_symop_operation_xyz
x,y,z
-x,y,1/2-z
-x,-y,-z
x,-y,1/2+z
1/2+x,1/2+y,z
1/2-x,1/2+y,1/2-z
1/2-x,1/2-y,-z
1/2+x,1/2-y,1/2+z
loop_
_atom_site_type_symbol
_atom_site_label
_atom_site_fract_x
_atom_site_fract_y
_atom_site_fract_z
Si Si1 0.661647 0.615511 0.298867
Si Si2 0.737158 0.318046 0.173954
Si Si3 0.500000 0.473149 0.750000
Si Si4 0.417130 0.640504 0.904602
Si Si5 0.609792 0.737157 0.880827
Si Si6 0.218155 0.443712 0.892110
Si Si7 0.824283 0.969832 0.044843
O O1 0.680310 0.730275 0.346998
O O2 0.553290 0.599522 0.312003
O O3 0.704437 0.622507 0.185215
O O4 0.707091 0.514017 0.345973
O O5 0.674987 0.294356 0.099979
O O6 0.670009 0.300747 0.278320
O O7 0.790623 0.435755 0.153517
O O8 0.426365 0.551003 0.819612
O O9 0.502022 0.724454 0.888976
O O10 0.399961 0.564568 0.998933
O O11 0.627894 0.865559 0.907026
O O12 0.632319 0.652839 0.958048
O O13 0.243618 0.460087 0.992277
#
# Coordination Sequence:
#
# PCOD8138554 Si02
#       7
#     8   8   4   8   8   8   8
#     4  11  22  35  60  83 115 146 186 236 280 329
#     4  10  20  38  57  79 115 153 186 224 282 336
#     4  12  18  38  56  88 108 142 188 240 274 326
#     4  11  19  33  60  85 112 142 192 232 276 327
#     4  11  19  33  58  88 113 144 187 238 274 327
#     4  10  21  36  56  82 118 150 187 224 280 338
#     4  11  20  35  58  89 113 144 187 233 286 323
#
# _framework density 20.288184000000001
#
# number of rings (size 3 to 8) (size 9 to 14) (size 15 to 20)
#    0.000    1.231    7.692    0.923    0.000    2.462 
#    0.000    0.000    6.769    1.846    0.000    0.000 
#    0.000    0.000    0.000    0.000    0.000    0.000 
#
# Total GULP energy -322128.093839 kJ/mol
# GULP energy per Si atom -12389.542071 kJ/mol
# Density = 2.024201 g / cm^3
# Si number density = 20.288184 Si / 1000 Ang^3
#
#
#
# Elastic Constant Matrix: (Units=GPa)
#
#
# Indices 1 2 3 4 5 6 
#
# 1 106.2882 77.3247 27.1500 0.0000 28.4651 0.0000
# 2 77.3247 127.4628 13.4354 0.0000 24.2523 0.0000
# 3 27.1500 13.4354 58.2865 0.0000 21.1048 0.0000
# 4 0.0000 0.0000 0.0000 25.8046 0.0000 9.9316
# 5 28.4651 24.2523 21.1048 0.0000 26.6098 0.0000
# 6 0.0000 0.0000 0.0000 9.9316 0.0000 36.1610
#
#
#
# Elastic Compliance Matrix: (Units=1/GPa)
#
#
# Indices 1 2 3 4 5 6 
#
# 1 0.020222 -0.010062 -0.003631 0.000000 -0.009582 0.000000
# 2 -0.010062 0.014571 0.003142 0.000000 -0.005009 0.000000
# 3 -0.003631 0.003142 0.024907 0.000000 -0.018734 0.000000
# 4 0.000000 0.000000 0.000000 0.043333 0.000000 -0.011902
# 5 -0.009582 -0.005009 -0.018734 0.000000 0.067253 0.000000
# 6 0.000000 0.000000 0.000000 -0.011902 0.000000 0.030923
#
#
# Mechanical properties :
#
#
# Convention : Reuss Voigt Hill
#
# Bulk Modulus (GPa) = 25.90772 58.65087 42.27929
# Shear Modulus (GPa) = 21.26062 29.32356 25.29209
#
# Velocity S-wave (km/s) = 3.24069 3.80590 3.53461
# Velocity P-wave (km/s) = 5.17690 6.94873 6.12720
#
# Compressibility (1/GPa) = 0.03859853
#
# Stress axis : x y z
#
# Youngs Moduli (GPa) = 49.45180 68.62901 40.14965
#
# Poissons Ratio (x) = 0.69052 0.14577
# Poissons Ratio (y) = 0.49756 -0.12613
# Poissons Ratio (z) = 0.17954 -0.21560
#
# Static dielectric constant tensor:
#      x y z
#    x 3.420000 0.000000 0.134220 
#    y 0.000000 3.755920 0.000000 
#    z 0.134220 0.000000 3.828350 
# 
# 
# High freq. dielectric constant tensor:
#      x y z
#    x 1.761880 0.000000 0.021170 
#    y 0.000000 1.780660 0.000000 
#    z 0.021170 0.000000 1.799290 
# 
# From -- ./inp_files/160383.got.cif
#   From: 2010.06.25/outbox.cif.g09.slc.cpg/sg15_81_cif.got.tgz:160383.got - 2010.06.28 07:06:18.
