data_PCOD8138311
_publ_section_title
;
Structure prediction by ZEFSAII (Michael W. Deem and Ramdas Pophale) SiO2 
 PCOD8138311
Probable space group: C 2/C
;
_chemical_formula_sum "Si O2"
_cell_formula_units_Z 36
_cell_length_a 23.580185
_cell_length_b 9.436331
_cell_length_c 8.813590
_cell_angle_alpha 90.000000
_cell_angle_beta 111.948398
_cell_angle_gamma 90.000000
_cell_volume 1818.975724
_symmetry_space_group_name_H-M "C 2/C"
_symmetry_group_IT_number 15
_symmetry_cell_setting 'monoclinic'
loop_
_space_group_symop_operation_xyz
x,y,z
-x,y,1/2-z
-x,-y,-z
x,-y,1/2+z
1/2+x,1/2+y,z
1/2-x,1/2+y,1/2-z
1/2-x,1/2-y,-z
1/2+x,1/2-y,1/2+z
loop_
_atom_site_type_symbol
_atom_site_label
_atom_site_fract_x
_atom_site_fract_y
_atom_site_fract_z
Si Si1 0.303284 0.154421 0.122748
Si Si2 0.617429 0.364611 0.449156
Si Si3 0.500000 0.500000 0.250000
Si Si4 0.696716 0.845579 0.516180
Si Si5 0.117429 0.135390 0.285702
O O1 0.367668 0.225458 0.135245
O O2 0.299371 0.147576 0.299372
O O3 0.250000 0.250000 0.000000
O O4 0.299305 0.000000 0.049305
O O5 0.544306 0.395087 0.390172
O O6 0.649641 0.500000 0.399641
O O7 0.645037 0.346796 0.645036
O O8 0.544306 0.604912 0.198439
O O9 0.750000 0.750000 0.500000
O O10 0.632332 0.774542 0.399908
#
# Coordination Sequence:
#
# PCOD8138311 Si02
#       5
#     8   8   4   8   8
#     4  12  25  42  63  90 125 164 208 259 314 373
#     4  10  20  37  62  92 124 162 207 253 304 365
#     4   8  22  36  68  92 130 164 216 246 314 364
#     4  12  25  42  63  90 125 164 208 259 314 373
#     4  10  20  37  62  92 124 162 207 253 304 365
#
# _framework density 19.791357999999999
#
# number of rings (size 3 to 8) (size 9 to 14) (size 15 to 20)
#    1.333    0.000    0.000    7.333    0.000    0.000 
#    0.000    1.111    0.000    5.333    0.000    0.000 
#    0.000    0.000    0.000    0.000    0.000    0.000 
#
# Total GULP energy -222990.950696 kJ/mol
# GULP energy per Si atom -12388.386150 kJ/mol
# Density = 1.974631 g / cm^3
# Si number density = 19.791358 Si / 1000 Ang^3
#
#
#
# Elastic Constant Matrix: (Units=GPa)
#
#
# Indices 1 2 3 4 5 6 
#
# 1 98.3415 65.5097 58.0225 0.0000 -5.5791 0.0000
# 2 65.5097 177.4838 80.5648 0.0000 -8.5857 0.0000
# 3 58.0225 80.5648 175.6227 0.0000 -38.4928 0.0000
# 4 0.0000 0.0000 0.0000 38.3702 0.0000 -1.0645
# 5 -5.5791 -8.5857 -38.4928 0.0000 43.8207 0.0000
# 6 0.0000 0.0000 0.0000 -1.0645 0.0000 36.5037
#
#
#
# Elastic Compliance Matrix: (Units=1/GPa)
#
#
# Indices 1 2 3 4 5 6 
#
# 1 0.014751 -0.003956 -0.003489 0.000000 -0.001961 0.000000
# 2 -0.003956 0.008297 -0.002790 0.000000 -0.001329 0.000000
# 3 -0.003489 -0.002790 0.009795 0.000000 0.007614 0.000000
# 4 0.000000 0.000000 0.000000 0.026083 0.000000 0.000761
# 5 -0.001961 -0.001329 0.007614 0.000000 0.028998 0.000000
# 6 0.000000 0.000000 0.000000 0.000761 0.000000 0.027417
#
#
# Mechanical properties :
#
#
# Convention : Reuss Voigt Hill
#
# Bulk Modulus (GPa) = 80.81992 95.51576 88.16784
# Shear Modulus (GPa) = 35.73087 40.22899 37.97993
#
# Velocity S-wave (km/s) = 4.25358 4.51339 4.38541
# Velocity P-wave (km/s) = 8.06527 8.69063 8.38378
#
# Compressibility (1/GPa) = 0.01237319
#
# Stress axis : x y z
#
# Youngs Moduli (GPa) = 67.79250 120.52828 102.08862
#
# Poissons Ratio (x) = 0.47680 0.35615
# Poissons Ratio (y) = 0.26818 0.28487
# Poissons Ratio (z) = 0.23650 0.33633
#
# Static dielectric constant tensor:
#      x y z
#    x 3.585820 0.000000 -0.049680 
#    y 0.000000 3.715920 0.000000 
#    z -0.049680 0.000000 3.672930 
# 
# 
# High freq. dielectric constant tensor:
#      x y z
#    x 1.764560 0.000000 -0.010370 
#    y 0.000000 1.764480 0.000000 
#    z -0.010370 0.000000 1.782740 
# 
# From -- ./inp_files/64633.got.cif
#   From: 2010.06.25/outbox.cif.g09.slc.cpg/sg15_33_cif.got.tgz:64633.got - 2010.06.28 07:06:18.
