data_PCOD8138508
_publ_section_title
;
Structure prediction by ZEFSAII (Michael W. Deem and Ramdas Pophale) SiO2 
 PCOD8138508
Probable space group: C 2/C
;
_chemical_formula_sum "Si O2"
_cell_formula_units_Z 56
_cell_length_a 8.367697
_cell_length_b 12.201180
_cell_length_c 25.719747
_cell_angle_alpha 90.000000
_cell_angle_beta 72.539428
_cell_angle_gamma 90.000000
_cell_volume 2504.886721
_symmetry_space_group_name_H-M "C 2/C"
_symmetry_group_IT_number 15
_symmetry_cell_setting 'monoclinic'
loop_
_space_group_symop_operation_xyz
x,y,z
-x,y,1/2-z
-x,-y,-z
x,-y,1/2+z
1/2+x,1/2+y,z
1/2-x,1/2+y,1/2-z
1/2-x,1/2-y,-z
1/2+x,1/2-y,1/2+z
loop_
_atom_site_type_symbol
_atom_site_label
_atom_site_fract_x
_atom_site_fract_y
_atom_site_fract_z
Si Si1 0.537029 0.796906 0.075770
Si Si2 0.713071 0.779749 0.201115
Si Si3 0.918209 0.117871 0.006921
Si Si4 0.374063 0.026701 0.306462
Si Si5 0.387800 0.700477 0.186888
Si Si6 0.061591 0.542345 0.078836
Si Si7 0.603357 0.253531 0.412466
O O1 0.513474 0.707987 0.033106
O O2 0.398962 0.772642 0.133465
O O3 0.725224 0.793118 0.078658
O O4 0.518587 0.923401 0.058810
O O5 0.574834 0.691564 0.192896
O O6 0.739606 0.758450 0.259709
O O7 0.884235 0.767954 0.151621
O O8 0.636941 0.898591 0.200972
O O9 0.727433 0.100677 0.040218
O O10 0.948005 0.169878 0.946576
O O11 0.000000 0.000000 0.000000
O O12 0.500000 0.074861 0.250000
O O13 0.190436 0.082019 0.318903
O O14 0.439477 0.043480 0.358516
O O15 0.918479 0.624988 0.072974
#
# Coordination Sequence:
#
# PCOD8138508 Si02
#       7
#     8   8   8   8   8   8   8
#     4  11  23  45  66  94 132 173 218 266 330 383
#     4  10  20  42  63  91 129 165 214 261 326 384
#     4  12  24  45  68  94 136 173 220 269 327 385
#     4  12  20  38  69  91 127 171 207 268 329 380
#     4  10  20  37  67  92 120 169 213 260 320 390
#     4  12  24  43  66  96 130 171 218 273 325 386
#     4  11  24  42  66  96 128 173 217 266 324 389
#
# _framework density 22.356300999999998
#
# number of rings (size 3 to 8) (size 9 to 14) (size 15 to 20)
#    0.000    0.857    7.143    1.714    0.000    0.571 
#    2.571    0.000    9.429    0.000    0.000    0.000 
#    0.000    0.000    0.000    0.000    0.000    0.000 
#
# Total GULP energy -346973.074593 kJ/mol
# GULP energy per Si atom -12391.895521 kJ/mol
# Density = 2.230542 g / cm^3
# Si number density = 22.356301 Si / 1000 Ang^3
#
#
#
# Elastic Constant Matrix: (Units=GPa)
#
#
# Indices 1 2 3 4 5 6 
#
# 1 16.2697 29.0760 6.1372 0.0000 -8.0480 0.0000
# 2 29.0760 149.1878 41.4650 0.0000 -8.1899 0.0000
# 3 6.1372 41.4650 159.2003 0.0000 -17.1744 0.0000
# 4 0.0000 0.0000 0.0000 31.4335 0.0000 -9.7174
# 5 -8.0480 -8.1899 -17.1744 0.0000 18.2480 0.0000
# 6 0.0000 0.0000 0.0000 -9.7174 0.0000 26.1821
#
#
#
# Elastic Compliance Matrix: (Units=1/GPa)
#
#
# Indices 1 2 3 4 5 6 
#
# 1 0.127141 -0.023851 0.006907 0.000000 0.051869 0.000000
# 2 -0.023851 0.011745 -0.003011 0.000000 -0.008082 0.000000
# 3 0.006907 -0.003011 0.007771 0.000000 0.009009 0.000000
# 4 0.000000 0.000000 0.000000 0.035936 0.000000 0.013338
# 5 0.051869 -0.008082 0.009009 0.000000 0.082527 0.000000
# 6 0.000000 0.000000 0.000000 0.013338 0.000000 0.043144
#
#
# Mechanical properties :
#
#
# Convention : Reuss Voigt Hill
#
# Bulk Modulus (GPa) = 9.36814 53.11269 31.24041
# Shear Modulus (GPa) = 13.02899 31.70471 22.36685
#
# Velocity S-wave (km/s) = 2.41672 3.76993 3.16645
# Velocity P-wave (km/s) = 3.46220 6.53902 5.23190
#
# Compressibility (1/GPa) = 0.10674477
#
# Stress axis : x y z
#
# Youngs Moduli (GPa) = 7.86526 85.14398 128.67794
#
# Poissons Ratio (x) = 2.03081 -0.88872
# Poissons Ratio (y) = 0.18760 0.38751
# Poissons Ratio (z) = -0.05432 0.25641
#
# Static dielectric constant tensor:
#      x y z
#    x 3.630450 0.000000 -0.140420 
#    y 0.000000 4.114180 0.000000 
#    z -0.140420 0.000000 5.054940 
# 
# 
# High freq. dielectric constant tensor:
#      x y z
#    x 1.833000 0.000000 -0.011650 
#    y 0.000000 1.885260 0.000000 
#    z -0.011650 0.000000 1.917480 
# 
# From -- ./inp_files/307398.got.cif
#   From: 2010.06.25/outbox.cif.g09.slc.cpg/sg15_154_cif.got.tgz:307398.got - 2010.06.28 07:06:18.
