data_PCOD8138108
_publ_section_title
;
Structure prediction by ZEFSAII (Michael W. Deem and Ramdas Pophale) SiO2 
 PCOD8138108
Probable space group: C 2/C
;
_chemical_formula_sum "Si O2"
_cell_formula_units_Z 52
_cell_length_a 8.044881
_cell_length_b 16.256515
_cell_length_c 26.126777
_cell_angle_alpha 90.000000
_cell_angle_beta 135.465674
_cell_angle_gamma 90.000000
_cell_volume 2396.400058
_symmetry_space_group_name_H-M "C 2/C"
_symmetry_group_IT_number 15
_symmetry_cell_setting 'monoclinic'
loop_
_space_group_symop_operation_xyz
x,y,z
-x,y,1/2-z
-x,-y,-z
x,-y,1/2+z
1/2+x,1/2+y,z
1/2-x,1/2+y,1/2-z
1/2-x,1/2-y,-z
1/2+x,1/2-y,1/2+z
loop_
_atom_site_type_symbol
_atom_site_label
_atom_site_fract_x
_atom_site_fract_y
_atom_site_fract_z
Si Si1 0.658409 0.774081 0.424054
Si Si2 0.308673 0.729979 0.632798
Si Si3 0.500000 0.538325 0.250000
Si Si4 0.852079 0.090366 0.794861
Si Si5 0.165606 0.429609 0.362081
Si Si6 0.923873 0.682252 0.016708
Si Si7 0.519547 0.902112 0.874111
O O1 0.750000 0.750000 0.500000
O O2 0.374071 0.759042 0.359687
O O3 0.726053 0.867264 0.421650
O O4 0.802914 0.713826 0.418109
O O5 0.537994 0.677754 0.697949
O O6 0.162812 0.670860 0.560586
O O7 0.386595 0.819101 0.631175
O O8 0.497112 0.482280 0.198261
O O9 0.737777 0.592688 0.302574
O O10 0.589750 0.092818 0.715623
O O11 0.854176 0.078209 0.857031
O O12 0.166075 0.522282 0.383171
O O13 0.918039 0.601336 0.051369
O O14 0.750000 0.750000 0.000000
#
# Coordination Sequence:
#
# PCOD8138108 Si02
#       7
#     8   8   4   8   8   8   8
#     4  10  21  39  61  87 121 159 200 241 293 362
#     4  10  20  37  59  86 117 157 200 240 292 358
#     4  10  22  40  58  88 120 152 198 252 306 358
#     4  10  21  40  63  85 119 160 199 245 305 368
#     4  10  21  39  61  89 122 157 200 253 304 352
#     4   9  19  37  57  82 115 152 195 238 287 354
#     4  10  21  37  60  89 119 152 197 250 296 347
#
# _framework density 21.699216
#
# number of rings (size 3 to 8) (size 9 to 14) (size 15 to 20)
#    0.000    2.154    0.000    3.692    0.000    3.692 
#    0.000   26.923    0.000    0.000    0.000    0.000 
#    0.000    0.000    0.000    0.000    0.000    0.000 
#
# Total GULP energy -322163.876192 kJ/mol
# GULP energy per Si atom -12390.918315 kJ/mol
# Density = 2.164983 g / cm^3
# Si number density = 21.699216 Si / 1000 Ang^3
#
#
#
# Elastic Constant Matrix: (Units=GPa)
#
#
# Indices 1 2 3 4 5 6 
#
# 1 146.7721 57.2366 29.5242 -0.0001 8.1870 -0.0002
# 2 57.2366 123.2109 43.4039 0.0000 -6.4898 0.0000
# 3 29.5242 43.4039 47.0222 -0.0002 -10.3425 -0.0002
# 4 -0.0001 0.0000 -0.0002 39.1892 -0.0002 -7.4635
# 5 8.1870 -6.4898 -10.3425 -0.0002 28.7649 -0.0002
# 6 -0.0002 0.0000 -0.0002 -7.4635 -0.0002 24.3191
#
#
#
# Elastic Compliance Matrix: (Units=1/GPa)
#
#
# Indices 1 2 3 4 5 6 
#
# 1 0.009055 -0.003094 -0.003855 0.000000 -0.004661 0.000000
# 2 -0.003094 0.013135 -0.010138 0.000000 0.000199 0.000000
# 3 -0.003855 -0.010138 0.035598 0.000000 0.011609 0.000000
# 4 0.000000 0.000000 0.000000 0.027101 0.000000 0.008317
# 5 -0.004661 0.000199 0.011609 0.000000 0.040311 0.000000
# 6 0.000000 0.000000 0.000000 0.008317 0.000000 0.043672
#
#
# Mechanical properties :
#
#
# Convention : Reuss Voigt Hill
#
# Bulk Modulus (GPa) = 42.34617 64.14829 53.24723
# Shear Modulus (GPa) = 23.70573 30.91067 27.30820
#
# Velocity S-wave (km/s) = 3.30884 3.77836 3.55137
# Velocity P-wave (km/s) = 5.84426 6.97577 6.43493
#
# Compressibility (1/GPa) = 0.02361489
#
# Stress axis : x y z
#
# Youngs Moduli (GPa) = 110.43177 76.13025 28.09109
#
# Poissons Ratio (x) = 0.23556 0.10829
# Poissons Ratio (y) = 0.34169 0.28479
# Poissons Ratio (z) = 0.42571 0.77182
#
# Static dielectric constant tensor:
#      x y z
#    x 4.822340 0.000000 -0.036170 
#    y 0.000000 3.738040 0.000000 
#    z -0.036170 0.000000 4.106810 
# 
# 
# High freq. dielectric constant tensor:
#      x y z
#    x 1.880940 0.000000 0.008200 
#    y 0.000000 1.831510 0.000000 
#    z 0.008200 0.000000 1.834760 
# 
# From -- ./inp_files/308340.got.cif
#   From: 2010.06.25/outbox.cif.g09.slc.cpg/sg15_155_cif.got.tgz:308340.got - 2010.06.28 07:06:18.
