data_PCOD8138525
_publ_section_title
;
Structure prediction by ZEFSAII (Michael W. Deem and Ramdas Pophale) SiO2 
 PCOD8138525
Probable space group: C 2/C
;
_chemical_formula_sum "Si O2"
_cell_formula_units_Z 48
_cell_length_a 24.529125
_cell_length_b 12.616036
_cell_length_c 23.012056
_cell_angle_alpha 90.000000
_cell_angle_beta 21.405997
_cell_angle_gamma 90.000000
_cell_volume 2599.097691
_symmetry_space_group_name_H-M "C 2/C"
_symmetry_group_IT_number 15
_symmetry_cell_setting 'monoclinic'
loop_
_space_group_symop_operation_xyz
x,y,z
-x,y,1/2-z
-x,-y,-z
x,-y,1/2+z
1/2+x,1/2+y,z
1/2-x,1/2+y,1/2-z
1/2-x,1/2-y,-z
1/2+x,1/2-y,1/2+z
loop_
_atom_site_type_symbol
_atom_site_label
_atom_site_fract_x
_atom_site_fract_y
_atom_site_fract_z
Si Si1 0.549907 0.665059 0.006823
Si Si2 0.500000 0.713376 0.750000
Si Si3 0.500000 0.049463 0.750000
Si Si4 0.717968 0.996274 0.701633
Si Si5 0.221362 0.359326 0.805246
Si Si6 0.534128 0.855447 0.094516
Si Si7 0.212701 0.381171 0.590592
O O1 0.398378 0.643802 0.122717
O O2 0.517688 0.728677 0.099642
O O3 0.622042 0.551362 0.947614
O O4 0.652599 0.741137 0.864009
O O5 0.619653 0.641513 0.597528
O O6 0.597002 0.783930 0.698545
O O7 0.446627 0.122627 0.856460
O O8 0.644458 0.980421 0.623220
O O9 0.611760 0.090508 0.787064
O O10 0.659303 0.940157 0.818364
O O11 0.727258 0.905391 0.643956
O O12 0.173475 0.400043 0.917626
#
# Coordination Sequence:
#
# PCOD8138525 Si02
#       7
#     8   4   4   8   8   8   8
#     4  10  20  38  53  81 115 143 187 233 276 334
#     4   9  18  40  51  82 116 146 185 242 269 326
#     4   9  18  36  59  86 106 154 187 222 289 334
#     4  11  20  37  57  84 109 150 192 225 284 338
#     4  10  21  35  58  78 114 150 176 238 279 329
#     4   9  19  37  57  79 116 146 180 234 281 325
#     4   9  20  34  60  79 115 145 189 234 275 332
#
# _framework density 18.467948
#
# number of rings (size 3 to 8) (size 9 to 14) (size 15 to 20)
#    1.000    1.333    1.667    1.000    0.000    2.667 
#    0.000   13.333    0.000    0.000    0.000    0.000 
#    0.000    0.000    0.000    0.000    0.000    0.000 
#
# Total GULP energy -297409.484646 kJ/mol
# GULP energy per Si atom -12392.061860 kJ/mol
# Density = 1.842591 g / cm^3
# Si number density = 18.467948 Si / 1000 Ang^3
#
#
#
# Elastic Constant Matrix: (Units=GPa)
#
#
# Indices 1 2 3 4 5 6 
#
# 1 87.4533 27.8460 40.5336 -0.0001 22.0115 0.0006
# 2 27.8460 53.7187 25.3715 -0.0006 16.8281 0.0007
# 3 40.5336 25.3715 99.4997 -0.0037 -3.2907 0.0006
# 4 -0.0001 -0.0006 -0.0037 28.6860 0.0016 9.2000
# 5 22.0115 16.8281 -3.2907 0.0016 35.2663 -0.0001
# 6 0.0006 0.0007 0.0006 9.2000 -0.0001 19.3838
#
#
#
# Elastic Compliance Matrix: (Units=1/GPa)
#
#
# Indices 1 2 3 4 5 6 
#
# 1 0.018328 -0.002759 -0.007120 0.000000 -0.010788 0.000000
# 2 -0.002759 0.026476 -0.006007 0.000001 -0.011472 -0.000001
# 3 -0.007120 -0.006007 0.014770 0.000001 0.008688 -0.000001
# 4 0.000000 0.000001 0.000001 0.041119 -0.000002 -0.019516
# 5 -0.010788 -0.011472 0.008688 -0.000002 0.041374 0.000002
# 6 0.000000 -0.000001 -0.000001 -0.019516 0.000002 0.060852
#
#
# Mechanical properties :
#
#
# Convention : Reuss Voigt Hill
#
# Bulk Modulus (GPa) = 35.96643 47.57490 41.77067
# Shear Modulus (GPa) = 20.49531 26.46192 23.47861
#
# Velocity S-wave (km/s) = 3.33495 3.78942 3.56942
# Velocity P-wave (km/s) = 5.86059 6.70544 6.29720
#
# Compressibility (1/GPa) = 0.02780370
#
# Stress axis : x y z
#
# Youngs Moduli (GPa) = 54.56087 37.76944 67.70611
#
# Poissons Ratio (x) = 0.10419 0.48205
# Poissons Ratio (y) = 0.15052 0.40670
# Poissons Ratio (z) = 0.38846 0.22688
#
# Static dielectric constant tensor:
#      x y z
#    x 3.259500 0.000000 -0.035980 
#    y 0.000000 3.305180 0.000000 
#    z -0.035980 0.000000 3.346080 
# 
# 
# High freq. dielectric constant tensor:
#      x y z
#    x 1.704730 0.000000 -0.011180 
#    y 0.000000 1.708810 0.000000 
#    z -0.011180 0.000000 1.713810 
# 
# From -- ./inp_files/283547.got.cif
#   From: 2010.06.25/outbox.cif.g09.slc.cpg/sg15_142_cif.got.tgz:283547.got - 2010.06.28 07:06:18.
