data_PCOD8138102
_publ_section_title
;
Structure prediction by ZEFSAII (Michael W. Deem and Ramdas Pophale) SiO2 
 PCOD8138102
Probable space group: C 2/C
;
_chemical_formula_sum "Si O2"
_cell_formula_units_Z 40
_cell_length_a 13.320889
_cell_length_b 10.231558
_cell_length_c 15.865937
_cell_angle_alpha 90.000000
_cell_angle_beta 66.755442
_cell_angle_gamma 90.000000
_cell_volume 1986.896556
_symmetry_space_group_name_H-M "C 2/C"
_symmetry_group_IT_number 15
_symmetry_cell_setting 'monoclinic'
loop_
_space_group_symop_operation_xyz
x,y,z
-x,y,1/2-z
-x,-y,-z
x,-y,1/2+z
1/2+x,1/2+y,z
1/2-x,1/2+y,1/2-z
1/2-x,1/2-y,-z
1/2+x,1/2-y,1/2+z
loop_
_atom_site_type_symbol
_atom_site_label
_atom_site_fract_x
_atom_site_fract_y
_atom_site_fract_z
Si Si1 0.420938 0.224349 0.698416
Si Si2 0.095334 0.973659 0.902700
Si Si3 0.983078 0.447922 0.656040
Si Si4 0.327528 0.278535 0.220797
Si Si5 0.296048 0.165298 0.410609
O O1 0.500000 0.239510 0.750000
O O2 0.444433 0.344458 0.630520
O O3 0.296059 0.221596 0.772345
O O4 0.446360 0.091481 0.637449
O O5 0.210848 0.945943 0.909760
O O6 0.111030 0.090229 0.829821
O O7 0.000000 0.000000 0.000000
O O8 0.890013 0.345174 0.659449
O O9 0.000000 0.451914 0.750000
O O10 0.100304 0.406256 0.581023
O O11 0.328818 0.262158 0.322260
O O12 0.250000 0.250000 0.500000
#
# Coordination Sequence:
#
# PCOD8138102 Si02
#       5
#     8   8   8   8   8
#     4  10  20  37  59  85 114 151 195 244 299 357
#     4  11  23  38  57  89 123 152 198 254 301 357
#     4   9  18  36  59  81 111 151 191 235 292 356
#     4  10  20  38  61  85 116 154 194 243 297 357
#     4  10  21  39  62  86 118 160 205 246 300 367
#
# _framework density 20.131899000000001
#
# number of rings (size 3 to 8) (size 9 to 14) (size 15 to 20)
#    0.000    2.000    0.000    6.000    0.000    4.000 
#    0.000   17.000    0.000    0.000    0.000    0.000 
#    0.000    0.000    0.000    0.000    0.000    0.000 
#
# Total GULP energy -247939.113535 kJ/mol
# GULP energy per Si atom -12396.955677 kJ/mol
# Density = 2.008608 g / cm^3
# Si number density = 20.131899 Si / 1000 Ang^3
#
#
#
# Elastic Constant Matrix: (Units=GPa)
#
#
# Indices 1 2 3 4 5 6 
#
# 1 148.1722 78.3286 42.4948 0.0000 -23.7094 0.0000
# 2 78.3286 196.3491 71.2700 0.0000 -18.6800 0.0000
# 3 42.4948 71.2700 95.9565 0.0000 -27.4047 0.0000
# 4 0.0000 0.0000 0.0000 24.6937 0.0000 0.2075
# 5 -23.7094 -18.6800 -27.4047 0.0000 29.4691 0.0000
# 6 0.0000 0.0000 0.0000 0.2075 0.0000 30.8601
#
#
#
# Elastic Compliance Matrix: (Units=1/GPa)
#
#
# Indices 1 2 3 4 5 6 
#
# 1 0.009319 -0.003100 -0.000333 0.000000 0.005223 0.000000
# 2 -0.003100 0.008010 -0.005227 0.000000 -0.002277 0.000000
# 3 -0.000333 -0.005227 0.018285 0.000000 0.013422 0.000000
# 4 0.000000 0.000000 0.000000 0.040499 0.000000 -0.000272
# 5 0.005223 -0.002277 0.013422 0.000000 0.049175 0.000000
# 6 0.000000 0.000000 0.000000 -0.000272 0.000000 0.032406
#
#
# Mechanical properties :
#
#
# Convention : Reuss Voigt Hill
#
# Bulk Modulus (GPa) = 54.66279 91.62938 73.14609
# Shear Modulus (GPa) = 27.60751 33.56354 30.58553
#
# Velocity S-wave (km/s) = 3.70717 4.08754 3.90199
# Velocity P-wave (km/s) = 6.74799 8.23958 7.53081
#
# Compressibility (1/GPa) = 0.01829398
#
# Stress axis : x y z
#
# Youngs Moduli (GPa) = 107.31059 124.84116 54.69110
#
# Poissons Ratio (x) = 0.38698 0.01821
# Poissons Ratio (y) = 0.33264 0.28587
# Poissons Ratio (z) = 0.03573 0.65255
#
# Static dielectric constant tensor:
#      x y z
#    x 2.958100 0.000000 -0.554250 
#    y 0.000000 4.093990 0.000000 
#    z -0.554250 0.000000 3.415160 
# 
# 
# High freq. dielectric constant tensor:
#      x y z
#    x 1.799780 0.000000 -0.019580 
#    y 0.000000 1.798290 0.000000 
#    z -0.019580 0.000000 1.759770 
# 
# From -- ./inp_files/150575.got.cif
#   From: 2010.06.25/outbox.cif.g09.slc.cpg/sg15_76_cif.got.tgz:150575.got - 2010.06.28 07:06:18.
