data_PCOD8138365
_publ_section_title
;
Structure prediction by ZEFSAII (Michael W. Deem and Ramdas Pophale) SiO2 
 PCOD8138365
Probable space group: C 2/C
;
_chemical_formula_sum "Si O2"
_cell_formula_units_Z 52
_cell_length_a 17.988582
_cell_length_b 18.025017
_cell_length_c 13.777914
_cell_angle_alpha 90.000000
_cell_angle_beta 144.914571
_cell_angle_gamma 90.000000
_cell_volume 2567.856219
_symmetry_space_group_name_H-M "C 2/C"
_symmetry_group_IT_number 15
_symmetry_cell_setting 'monoclinic'
loop_
_space_group_symop_operation_xyz
x,y,z
-x,y,1/2-z
-x,-y,-z
x,-y,1/2+z
1/2+x,1/2+y,z
1/2-x,1/2+y,1/2-z
1/2-x,1/2-y,-z
1/2+x,1/2-y,1/2+z
loop_
_atom_site_type_symbol
_atom_site_label
_atom_site_fract_x
_atom_site_fract_y
_atom_site_fract_z
Si Si1 0.540441 0.019316 0.897446
Si Si2 0.500000 0.512398 0.750000
Si Si3 0.756835 0.271963 0.896677
Si Si4 0.996729 0.754628 0.517151
Si Si5 0.691278 0.443241 0.826536
Si Si6 0.906710 0.607405 0.357314
Si Si7 0.400351 0.401124 0.959381
O O1 0.500000 0.054800 0.750000
O O2 0.454028 0.946164 0.821705
O O3 0.692294 0.997378 0.054589
O O4 0.529141 0.077745 0.973415
O O5 0.616409 0.457545 0.846361
O O6 0.463094 0.562626 0.619967
O O7 0.631637 0.236391 0.713087
O O8 0.753205 0.361179 0.886957
O O9 0.750000 0.250000 0.000000
O O10 0.883959 0.239941 0.978567
O O11 0.963477 0.689760 0.404895
O O12 0.013085 0.828987 0.471287
O O13 0.595065 0.454029 0.631550
O O14 0.751937 0.614926 0.187015
#
# Coordination Sequence:
#
# PCOD8138365 Si02
#       7
#     8   4   8   8   8   8   8
#     4  10  20  37  63  91 123 162 213 262 318 379
#     4  12  24  42  68  90 128 176 218 264 342 390
#     4  11  24  38  65  97 130 168 217 260 328 391
#     4  11  21  43  63  89 136 166 209 272 318 383
#     4  10  23  41  61  96 131 159 216 273 320 386
#     4  10  21  41  62  91 130 162 213 271 318 387
#     4  10  23  44  62  95 128 168 219 270 327 389
#
# _framework density 20.250356
#
# number of rings (size 3 to 8) (size 9 to 14) (size 15 to 20)
#    0.000    1.538    4.615    1.846    6.462    1.231 
#    1.385    0.769    0.000    0.000    0.000    0.000 
#    0.000    0.000    0.000    0.000    0.000    0.000 
#
# Total GULP energy -322177.633791 kJ/mol
# GULP energy per Si atom -12391.447453 kJ/mol
# Density = 2.020427 g / cm^3
# Si number density = 20.250356 Si / 1000 Ang^3
#
#
#
# Elastic Constant Matrix: (Units=GPa)
#
#
# Indices 1 2 3 4 5 6 
#
# 1 119.5467 54.2959 41.2226 0.0000 17.0509 0.0000
# 2 54.2959 69.4197 34.1144 0.0000 13.9745 0.0000
# 3 41.2226 34.1144 74.8198 0.0000 5.7194 0.0000
# 4 0.0000 0.0000 0.0000 23.6618 0.0000 8.0414
# 5 17.0509 13.9745 5.7194 0.0000 48.7999 0.0000
# 6 0.0000 0.0000 0.0000 8.0414 0.0000 43.6372
#
#
#
# Elastic Compliance Matrix: (Units=1/GPa)
#
#
# Indices 1 2 3 4 5 6 
#
# 1 0.013785 -0.008679 -0.003490 0.000000 -0.001922 0.000000
# 2 -0.008679 0.024999 -0.006358 0.000000 -0.003381 0.000000
# 3 -0.003490 -0.006358 0.018117 0.000000 0.000917 0.000000
# 4 0.000000 0.000000 0.000000 0.045086 0.000000 -0.008308
# 5 -0.001922 -0.003381 0.000917 0.000000 0.022024 0.000000
# 6 0.000000 0.000000 0.000000 -0.008308 0.000000 0.024447
#
#
# Mechanical properties :
#
#
# Convention : Reuss Voigt Hill
#
# Bulk Modulus (GPa) = 50.38974 58.11690 54.25332
# Shear Modulus (GPa) = 26.02435 32.16334 29.09385
#
# Velocity S-wave (km/s) = 3.58876 3.98965 3.79450
# Velocity P-wave (km/s) = 6.48920 7.06998 6.78580
#
# Compressibility (1/GPa) = 0.01984531
#
# Stress axis : x y z
#
# Youngs Moduli (GPa) = 72.54458 40.00235 55.19583
#
# Poissons Ratio (x) = 0.34719 0.19266
# Poissons Ratio (y) = 0.62964 0.35092
# Poissons Ratio (z) = 0.25321 0.25433
#
# Static dielectric constant tensor:
#      x y z
#    x 4.070720 0.000000 0.027240 
#    y 0.000000 3.586140 0.000000 
#    z 0.027240 0.000000 3.792860 
# 
# 
# High freq. dielectric constant tensor:
#      x y z
#    x 1.798110 0.000000 0.010880 
#    y 0.000000 1.771740 0.000000 
#    z 0.010880 0.000000 1.797550 
# 
# From -- ./inp_files/163643.got.cif
#   From: 2010.06.25/outbox.cif.g09.slc.cpg/sg15_82_cif.got.tgz:163643.got - 2010.06.28 07:06:18.
