data_PCOD8138653
_publ_section_title
;
Structure prediction by ZEFSAII (Michael W. Deem and Ramdas Pophale) SiO2 
 PCOD8138653
Probable space group: C 2/C
;
_chemical_formula_sum "Si O2"
_cell_formula_units_Z 64
_cell_length_a 11.596715
_cell_length_b 19.349002
_cell_length_c 27.331863
_cell_angle_alpha 90.000000
_cell_angle_beta 147.370635
_cell_angle_gamma 90.000000
_cell_volume 3306.851354
_symmetry_space_group_name_H-M "C 2/C"
_symmetry_group_IT_number 15
_symmetry_cell_setting 'monoclinic'
loop_
_space_group_symop_operation_xyz
x,y,z
-x,y,1/2-z
-x,-y,-z
x,-y,1/2+z
1/2+x,1/2+y,z
1/2-x,1/2+y,1/2-z
1/2-x,1/2-y,-z
1/2+x,1/2-y,1/2+z
loop_
_atom_site_type_symbol
_atom_site_label
_atom_site_fract_x
_atom_site_fract_y
_atom_site_fract_z
Si Si1 0.135253 0.313570 0.984651
Si Si2 0.381498 0.568090 0.627346
Si Si3 0.199489 0.385305 0.853028
Si Si4 0.847775 0.660454 0.546426
Si Si5 0.510379 0.426722 0.625270
Si Si6 0.016454 0.765159 0.980509
Si Si7 0.406407 0.911598 0.832358
Si Si8 0.190605 0.444813 0.161720
O O1 0.312269 0.368719 0.067488
O O2 0.985532 0.285478 0.974347
O O3 0.250000 0.250000 0.000000
O O4 0.968136 0.346672 0.887424
O O5 0.398232 0.498498 0.600823
O O6 0.607099 0.579800 0.734512
O O7 0.210679 0.563926 0.610401
O O8 0.360538 0.435405 0.880274
O O9 0.312914 0.315150 0.910992
O O10 0.000000 0.359480 0.750000
O O11 0.102185 0.426441 0.864636
O O12 0.668042 0.632112 0.444428
O O13 0.989209 0.719639 0.571091
O O14 0.734990 0.689797 0.555314
O O15 0.999810 0.598886 0.616712
O O16 0.679672 0.397806 0.725126
O O17 0.372955 0.976143 0.855394
#
# Coordination Sequence:
#
# PCOD8138653 Si02
#       8
#     8   8   8   8   8   8   8   8
#     4  12  23  39  58  86 124 154 188 238 292 349
#     4  10  22  39  61  88 114 146 197 241 288 341
#     4   9  18  37  59  81 111 154 195 239 282 342
#     4  10  20  38  60  82 111 152 195 239 284 343
#     4   9  20  38  60  89 112 148 198 244 285 339
#     4  10  21  36  54  82 114 149 195 228 286 348
#     4  10  21  37  60  88 115 151 195 237 293 343
#     4  10  21  39  64  86 110 150 196 245 286 335
#
# _framework density 19.353757999999999
#
# number of rings (size 3 to 8) (size 9 to 14) (size 15 to 20)
#    0.000    2.000    2.500    0.750    1.750    2.000 
#    6.750    1.875    0.000    0.000    0.000    0.000 
#    0.000    0.000    0.000    0.000    0.000    0.000 
#
# Total GULP energy -396641.871967 kJ/mol
# GULP energy per Si atom -12395.058499 kJ/mol
# Density = 1.930971 g / cm^3
# Si number density = 19.353758 Si / 1000 Ang^3
#
#
#
# Elastic Constant Matrix: (Units=GPa)
#
#
# Indices 1 2 3 4 5 6 
#
# 1 94.2712 44.3025 37.4310 0.0002 3.2716 0.0000
# 2 44.3025 107.0126 51.0152 -0.0001 0.9158 -0.0001
# 3 37.4310 51.0152 61.7091 -0.0007 5.1897 -0.0002
# 4 0.0002 -0.0001 -0.0007 24.7299 0.0003 5.4444
# 5 3.2716 0.9158 5.1897 0.0003 25.2319 -0.0001
# 6 0.0000 -0.0001 -0.0002 5.4444 -0.0001 44.8573
#
#
#
# Elastic Compliance Matrix: (Units=1/GPa)
#
#
# Indices 1 2 3 4 5 6 
#
# 1 0.014538 -0.003020 -0.006281 0.000000 -0.000484 0.000000
# 2 -0.003020 0.016161 -0.011714 0.000000 0.002214 0.000000
# 3 -0.006281 -0.011714 0.030116 0.000001 -0.004955 0.000000
# 4 0.000000 0.000000 0.000001 0.041547 -0.000001 -0.005043
# 5 -0.000484 0.002214 -0.004955 -0.000001 0.040634 0.000000
# 6 0.000000 0.000000 0.000000 -0.005043 0.000000 0.022905
#
#
# Mechanical properties :
#
#
# Convention : Reuss Voigt Hill
#
# Bulk Modulus (GPa) = 53.23792 58.72115 55.97954
# Shear Modulus (GPa) = 23.34369 27.64676 25.49523
#
# Velocity S-wave (km/s) = 3.47675 3.78365 3.63344
# Velocity P-wave (km/s) = 6.60943 7.03525 6.82566
#
# Compressibility (1/GPa) = 0.01878360
#
# Stress axis : x y z
#
# Youngs Moduli (GPa) = 68.78731 61.87914 33.20546
#
# Poissons Ratio (x) = 0.18689 0.20855
# Poissons Ratio (y) = 0.20775 0.38898
# Poissons Ratio (z) = 0.43202 0.72487
#
# Static dielectric constant tensor:
#      x y z
#    x 3.817370 0.000000 0.137580 
#    y 0.000000 3.540350 0.000000 
#    z 0.137580 0.000000 3.469170 
# 
# 
# High freq. dielectric constant tensor:
#      x y z
#    x 1.762210 0.000000 0.012830 
#    y 0.000000 1.750810 0.000000 
#    z 0.012830 0.000000 1.744040 
# 
# From -- ./inp_files/311659.got.cif
#   From: 2010.06.25/outbox.cif.g09.slc.cpg/sg15_156_cif.got.tgz:311659.got - 2010.06.28 07:06:18.
