data_PCOD8138082
_publ_section_title
;
Structure prediction by ZEFSAII (Michael W. Deem and Ramdas Pophale) SiO2 
 PCOD8138082
Probable space group: C 2/C
;
_chemical_formula_sum "Si O2"
_cell_formula_units_Z 60
_cell_length_a 11.395881
_cell_length_b 28.133934
_cell_length_c 9.155316
_cell_angle_alpha 90.000000
_cell_angle_beta 67.212793
_cell_angle_gamma 90.000000
_cell_volume 2706.193919
_symmetry_space_group_name_H-M "C 2/C"
_symmetry_group_IT_number 15
_symmetry_cell_setting 'monoclinic'
loop_
_space_group_symop_operation_xyz
x,y,z
-x,y,1/2-z
-x,-y,-z
x,-y,1/2+z
1/2+x,1/2+y,z
1/2-x,1/2+y,1/2-z
1/2-x,1/2-y,-z
1/2+x,1/2-y,1/2+z
loop_
_atom_site_type_symbol
_atom_site_label
_atom_site_fract_x
_atom_site_fract_y
_atom_site_fract_z
Si Si1 0.810780 0.937386 0.626975
Si Si2 0.022364 0.200566 0.575572
Si Si3 0.707944 0.009063 0.447925
Si Si4 0.945365 0.099639 0.613673
Si Si5 0.834509 0.437542 0.262584
Si Si6 0.698422 0.836953 0.622260
Si Si7 0.500000 0.855150 0.250000
Si Si8 0.532577 0.802586 0.956045
O O1 0.796794 0.978602 0.513219
O O2 0.715357 0.893788 0.634827
O O3 0.957079 0.921444 0.551515
O O4 0.786501 0.956466 0.802133
O O5 0.168774 0.186346 0.485365
O O6 0.986323 0.246707 0.499392
O O7 0.000000 0.218451 0.750000
O O8 0.930023 0.155848 0.583757
O O9 0.624862 0.973332 0.387508
O O10 0.621940 0.041097 0.599771
O O11 0.817124 0.069876 0.664881
O O12 0.000000 0.095356 0.750000
O O13 0.898844 0.387033 0.210817
O O14 0.651975 0.812944 0.794462
O O15 0.595810 0.826549 0.545699
O O16 0.430885 0.823778 0.404691
#
# Coordination Sequence:
#
# PCOD8138082 Si02
#       8
#     8   8   8   8   8   8   4   8
#     4  10  20  37  58  93 118 162 198 262 320 367
#     4  10  21  38  68 100 121 162 212 265 312 372
#     4  10  22  38  64  86 125 156 212 257 312 382
#     4  10  21  37  65  92 125 157 202 262 323 372
#     4  11  24  43  59  92 121 168 207 260 313 376
#     4  10  21  40  67  91 127 158 225 261 308 373
#     4  12  28  42  62  86 138 170 210 258 326 370
#     4  11  23  40  64  94 122 175 211 264 303 380
#
# _framework density 22.171361000000001
#
# number of rings (size 3 to 8) (size 9 to 14) (size 15 to 20)
#    0.000    1.600    2.667    2.000    3.733    4.267 
#    0.000   10.667    0.000    0.000    0.000    0.000 
#    0.000    0.000    0.000    0.000    0.000    0.000 
#
# Total GULP energy -371929.019332 kJ/mol
# GULP energy per Si atom -12397.633978 kJ/mol
# Density = 2.212090 g / cm^3
# Si number density = 22.171361 Si / 1000 Ang^3
#
#
#
# Elastic Constant Matrix: (Units=GPa)
#
#
# Indices 1 2 3 4 5 6 
#
# 1 32.2547 6.3499 9.1098 0.0000 2.1498 0.0000
# 2 6.3499 125.7234 39.7040 0.0000 10.6306 0.0000
# 3 9.1098 39.7040 126.2152 0.0000 11.6700 0.0000
# 4 0.0000 0.0000 0.0000 21.5414 0.0000 -0.8307
# 5 2.1498 10.6306 11.6700 0.0000 23.6394 0.0000
# 6 0.0000 0.0000 0.0000 -0.8307 0.0000 20.3205
#
#
#
# Elastic Compliance Matrix: (Units=1/GPa)
#
#
# Indices 1 2 3 4 5 6 
#
# 1 0.031811 -0.000882 -0.001873 0.000000 -0.001571 0.000000
# 2 -0.000882 0.009026 -0.002523 0.000000 -0.002733 0.000000
# 3 -0.001873 -0.002523 0.009149 0.000000 -0.003212 0.000000
# 4 0.000000 0.000000 0.000000 0.046496 0.000000 0.001901
# 5 -0.001571 -0.002733 -0.003212 0.000000 0.045260 0.000000
# 6 0.000000 0.000000 0.000000 0.001901 0.000000 0.049289
#
#
# Mechanical properties :
#
#
# Convention : Reuss Voigt Hill
#
# Bulk Modulus (GPa) = 25.36204 43.83563 34.59883
# Shear Modulus (GPa) = 23.28503 28.36890 25.82697
#
# Velocity S-wave (km/s) = 3.24424 3.58093 3.41674
# Velocity P-wave (km/s) = 5.04949 6.07549 5.58610
#
# Compressibility (1/GPa) = 0.03942901
#
# Stress axis : x y z
#
# Youngs Moduli (GPa) = 31.43595 110.78552 109.30383
#
# Poissons Ratio (x) = 0.09774 0.20474
# Poissons Ratio (y) = 0.02773 0.27578
# Poissons Ratio (z) = 0.05888 0.27952
#
# Static dielectric constant tensor:
#      x y z
#    x 3.575790 0.000000 -0.090620 
#    y 0.000000 4.362780 0.000000 
#    z -0.090620 0.000000 4.135710 
# 
# 
# High freq. dielectric constant tensor:
#      x y z
#    x 1.839950 0.000000 -0.010670 
#    y 0.000000 1.895020 0.000000 
#    z -0.010670 0.000000 1.880520 
# 
# From -- ./inp_files/35637.got.cif
#   From: 2010.06.25/outbox.cif.g09.slc.cpg/sg15_18_cif.got.tgz:35637.got - 2010.06.28 07:06:18.
