data_PCOD8138332
_publ_section_title
;
Structure prediction by ZEFSAII (Michael W. Deem and Ramdas Pophale) SiO2 
 PCOD8138332
Probable space group: C 2/C
;
_chemical_formula_sum "Si O2"
_cell_formula_units_Z 40
_cell_length_a 16.491087
_cell_length_b 9.468429
_cell_length_c 23.080995
_cell_angle_alpha 90.000000
_cell_angle_beta 34.494988
_cell_angle_gamma 90.000000
_cell_volume 2041.053940
_symmetry_space_group_name_H-M "C 2/C"
_symmetry_group_IT_number 15
_symmetry_cell_setting 'monoclinic'
loop_
_space_group_symop_operation_xyz
x,y,z
-x,y,1/2-z
-x,-y,-z
x,-y,1/2+z
1/2+x,1/2+y,z
1/2-x,1/2+y,1/2-z
1/2-x,1/2-y,-z
1/2+x,1/2-y,1/2+z
loop_
_atom_site_type_symbol
_atom_site_label
_atom_site_fract_x
_atom_site_fract_y
_atom_site_fract_z
Si Si1 0.276900 0.075229 0.529674
Si Si2 0.507853 0.139149 0.880711
Si Si3 0.505725 0.421122 0.812806
Si Si4 0.740097 0.358342 0.178376
Si Si5 0.518759 0.125277 0.306764
O O1 0.357897 0.924077 0.492569
O O2 0.115165 0.040850 0.605417
O O3 0.278880 0.163205 0.588009
O O4 0.364865 0.161698 0.428194
O O5 0.481386 0.293153 0.870679
O O6 0.615899 0.145645 0.870241
O O7 0.568070 0.033372 0.795202
O O8 0.500000 0.366809 0.750000
O O9 0.658776 0.492786 0.735227
O O10 0.639140 0.231204 0.258990
O O11 0.500000 0.141910 0.250000
#
# Coordination Sequence:
#
# PCOD8138332 Si02
#       5
#     8   8   8   8   8
#     4   9  22  38  62  82 113 155 197 221 285 345
#     4  10  21  38  58  86 115 147 192 239 280 326
#     4  10  20  37  63  83 116 154 191 225 281 347
#     4  11  21  38  59  86 117 152 185 237 289 336
#     4  10  22  37  59  82 115 150 188 241 276 335
#
# _framework density 19.597718
#
# number of rings (size 3 to 8) (size 9 to 14) (size 15 to 20)
#    1.200    0.800    0.000    4.800    0.000    3.200 
#    0.000    0.000    0.000    4.800    0.000    0.000 
#    0.000    0.000    0.000    0.000    0.000    0.000 
#
# Total GULP energy -247953.227130 kJ/mol
# GULP energy per Si atom -12397.661356 kJ/mol
# Density = 1.955311 g / cm^3
# Si number density = 19.597718 Si / 1000 Ang^3
#
#
#
# Elastic Constant Matrix: (Units=GPa)
#
#
# Indices 1 2 3 4 5 6 
#
# 1 74.7284 -7.1797 16.6931 0.0000 -2.3105 0.0000
# 2 -7.1797 25.5440 0.3659 0.0000 9.2017 0.0000
# 3 16.6931 0.3659 104.3556 0.0000 5.7237 0.0000
# 4 0.0000 0.0000 0.0000 35.1409 0.0000 2.6722
# 5 -2.3105 9.2017 5.7237 0.0000 17.6183 0.0000
# 6 0.0000 0.0000 0.0000 2.6722 0.0000 19.5764
#
#
#
# Elastic Compliance Matrix: (Units=1/GPa)
#
#
# Indices 1 2 3 4 5 6 
#
# 1 0.014290 0.003820 -0.002334 0.000000 0.000637 0.000000
# 2 0.003820 0.049399 0.000614 0.000000 -0.025499 0.000000
# 3 -0.002334 0.000614 0.010169 0.000000 -0.003931 0.000000
# 4 0.000000 0.000000 0.000000 0.028755 0.000000 -0.003925
# 5 0.000637 -0.025499 -0.003931 0.000000 0.071437 0.000000
# 6 0.000000 0.000000 0.000000 -0.003925 0.000000 0.051618
#
#
# Mechanical properties :
#
#
# Convention : Reuss Voigt Hill
#
# Bulk Modulus (GPa) = 12.81083 24.93185 18.87134
# Shear Modulus (GPa) = 20.20306 27.45034 23.82670
#
# Velocity S-wave (km/s) = 3.21423 3.74664 3.49060
# Velocity P-wave (km/s) = 4.50845 5.60944 5.08881
#
# Compressibility (1/GPa) = 0.07805893
#
# Stress axis : x y z
#
# Youngs Moduli (GPa) = 69.97918 20.24350 98.33374
#
# Poissons Ratio (x) = -0.07734 0.22953
# Poissons Ratio (y) = -0.26735 -0.06040
# Poissons Ratio (z) = 0.16335 -0.01243
#
# Static dielectric constant tensor:
#      x y z
#    x 3.395730 0.000000 -0.071820 
#    y 0.000000 3.476910 0.000000 
#    z -0.071820 0.000000 3.568880 
# 
# 
# High freq. dielectric constant tensor:
#      x y z
#    x 1.757490 0.000000 -0.006990 
#    y 0.000000 1.761700 0.000000 
#    z -0.006990 0.000000 1.763720 
# 
# From -- ./inp_files/276166.got.cif
#   From: 2010.06.25/outbox.cif.g09.slc.cpg/sg15_139_cif.got.tgz:276166.got - 2010.06.28 07:06:18.
