data_PCOD8138335
_publ_section_title
;
Structure prediction by ZEFSAII (Michael W. Deem and Ramdas Pophale) SiO2 
 PCOD8138335
Probable space group: C 2/C
;
_chemical_formula_sum "Si O2"
_cell_formula_units_Z 48
_cell_length_a 30.844222
_cell_length_b 15.315637
_cell_length_c 15.235068
_cell_angle_alpha 90.000000
_cell_angle_beta 19.958024
_cell_angle_gamma 90.000000
_cell_volume 2456.573693
_symmetry_space_group_name_H-M "C 2/C"
_symmetry_group_IT_number 15
_symmetry_cell_setting 'monoclinic'
loop_
_space_group_symop_operation_xyz
x,y,z
-x,y,1/2-z
-x,-y,-z
x,-y,1/2+z
1/2+x,1/2+y,z
1/2-x,1/2+y,1/2-z
1/2-x,1/2-y,-z
1/2+x,1/2-y,1/2+z
loop_
_atom_site_type_symbol
_atom_site_label
_atom_site_fract_x
_atom_site_fract_y
_atom_site_fract_z
Si Si1 0.700928 0.019883 0.386335
Si Si2 0.108925 0.736067 0.189291
Si Si3 0.500000 0.844110 0.250000
Si Si4 0.391950 0.732736 0.615692
Si Si5 0.397732 0.411568 0.382177
Si Si6 0.500000 0.125824 0.250000
Si Si7 0.553120 0.539028 0.987265
O O1 0.625760 0.933024 0.500930
O O2 0.803208 0.995644 0.266927
O O3 0.601902 0.094239 0.607158
O O4 0.764748 0.064633 0.179763
O O5 0.081652 0.714052 0.343527
O O6 0.116935 0.842307 0.168713
O O7 0.005129 0.686679 0.327320
O O8 0.244721 0.704515 0.894517
O O9 0.432644 0.786610 0.452882
O O10 0.467477 0.642203 0.471280
O O11 0.500000 0.362883 0.250000
O O12 0.459455 0.503512 0.239527
O O13 0.500000 0.500000 0.000000
#
# Coordination Sequence:
#
# PCOD8138335 Si02
#       7
#     8   8   4   8   8   4   8
#     4  10  23  42  60  93 123 170 208 255 325 370
#     4  11  21  40  64  94 126 166 208 257 313 384
#     4  11  24  44  65  90 136 162 205 276 314 373
#     4  11  24  40  63  94 127 166 211 256 320 372
#     4  10  20  37  63  84 123 164 205 251 308 370
#     4  11  22  40  67  92 128 160 213 262 314 381
#     4  11  22  40  62  91 125 163 213 258 304 380
#
# _framework density 19.53941
#
# number of rings (size 3 to 8) (size 9 to 14) (size 15 to 20)
#    0.000    1.333    5.833    0.000    3.500    0.000 
#    3.000    2.500    0.000    0.000    0.000    0.000 
#    0.000    0.000    0.000    0.000    0.000    0.000 
#
# Total GULP energy -297406.272053 kJ/mol
# GULP energy per Si atom -12391.928002 kJ/mol
# Density = 1.949494 g / cm^3
# Si number density = 19.539410 Si / 1000 Ang^3
#
#
#
# Elastic Constant Matrix: (Units=GPa)
#
#
# Indices 1 2 3 4 5 6 
#
# 1 123.6384 45.1325 39.2331 0.0000 -2.8128 0.0000
# 2 45.1325 112.9406 37.2370 0.0000 -2.2564 0.0000
# 3 39.2331 37.2370 78.3204 0.0000 -1.3019 0.0000
# 4 0.0000 0.0000 0.0000 14.4234 0.0000 -5.7543
# 5 -2.8128 -2.2564 -1.3019 0.0000 32.9879 0.0000
# 6 0.0000 0.0000 0.0000 -5.7543 0.0000 24.0691
#
#
#
# Elastic Compliance Matrix: (Units=1/GPa)
#
#
# Indices 1 2 3 4 5 6 
#
# 1 0.010359 -0.002871 -0.003815 0.000000 0.000536 0.000000
# 2 -0.002871 0.011305 -0.003930 0.000000 0.000373 0.000000
# 3 -0.003815 -0.003930 0.016549 0.000000 0.000059 0.000000
# 4 0.000000 0.000000 0.000000 0.076642 0.000000 0.018323
# 5 0.000536 0.000373 0.000059 0.000000 0.030388 0.000000
# 6 0.000000 0.000000 0.000000 0.018323 0.000000 0.045928
#
#
# Mechanical properties :
#
#
# Convention : Reuss Voigt Hill
#
# Bulk Modulus (GPa) = 58.89480 62.01162 60.45321
# Shear Modulus (GPa) = 22.92918 27.18254 25.05586
#
# Velocity S-wave (km/s) = 3.42933 3.73388 3.58484
# Velocity P-wave (km/s) = 6.77402 7.09892 6.93838
#
# Compressibility (1/GPa) = 0.01697943
#
# Stress axis : x y z
#
# Youngs Moduli (GPa) = 96.53479 88.45765 60.42685
#
# Poissons Ratio (x) = 0.25396 0.23054
# Poissons Ratio (y) = 0.27715 0.23751
# Poissons Ratio (z) = 0.36830 0.34768
#
# Static dielectric constant tensor:
#      x y z
#    x 3.014030 0.000000 -0.164110 
#    y 0.000000 3.750000 0.000000 
#    z -0.164110 0.000000 3.556560 
# 
# 
# High freq. dielectric constant tensor:
#      x y z
#    x 1.758630 0.000000 -0.009540 
#    y 0.000000 1.771850 0.000000 
#    z -0.009540 0.000000 1.751550 
# 
# From -- ./inp_files/182463.got.cif
#   From: 2010.06.25/outbox.cif.g09.slc.cpg/sg15_92_cif.got.tgz:182463.got - 2010.06.28 07:06:18.
