data_PCOD8138665
_publ_section_title
;
Structure prediction by ZEFSAII (Michael W. Deem and Ramdas Pophale) SiO2 
 PCOD8138665
Probable space group: C 2/C
;
_chemical_formula_sum "Si O2"
_cell_formula_units_Z 48
_cell_length_a 9.394281
_cell_length_b 10.222621
_cell_length_c 24.763483
_cell_angle_alpha 90.000000
_cell_angle_beta 85.738192
_cell_angle_gamma 90.000000
_cell_volume 2371.564823
_symmetry_space_group_name_H-M "C 2/C"
_symmetry_group_IT_number 15
_symmetry_cell_setting 'monoclinic'
loop_
_space_group_symop_operation_xyz
x,y,z
-x,y,1/2-z
-x,-y,-z
x,-y,1/2+z
1/2+x,1/2+y,z
1/2-x,1/2+y,1/2-z
1/2-x,1/2-y,-z
1/2+x,1/2-y,1/2+z
loop_
_atom_site_type_symbol
_atom_site_label
_atom_site_fract_x
_atom_site_fract_y
_atom_site_fract_z
Si Si1 0.657764 0.159104 0.721948
Si Si2 0.472664 0.172835 0.546737
Si Si3 0.793894 0.106819 0.108166
Si Si4 0.248924 0.677279 0.599599
Si Si5 0.511229 0.882582 0.923485
Si Si6 0.653579 0.580373 0.270557
O O1 0.500000 0.147171 0.750000
O O2 0.660208 0.155071 0.657243
O O3 0.725694 0.295805 0.739259
O O4 0.748881 0.043106 0.744810
O O5 0.365271 0.283374 0.569594
O O6 0.635182 0.213446 0.556551
O O7 0.458440 0.167211 0.483008
O O8 0.433771 0.032348 0.574303
O O9 0.622524 0.128848 0.113494
O O10 0.859887 0.114047 0.165883
O O11 0.825318 0.961286 0.083044
O O12 0.362616 0.792650 0.602923
O O13 0.500000 0.549701 0.250000
#
# Coordination Sequence:
#
# PCOD8138665 Si02
#       6
#     8   8   8   8   8   8
#     4  10  22  39  58  82 113 147 187 234 281 333
#     4  10  20  38  60  84 117 151 186 228 278 335
#     4  10  22  38  56  84 116 146 189 234 276 336
#     4  10  22  38  57  86 116 146 190 233 278 336
#     4  10  22  37  58  87 115 150 189 228 279 335
#     4  10  22  38  57  83 111 145 190 232 281 336
#
# _framework density 20.239801
#
# number of rings (size 3 to 8) (size 9 to 14) (size 15 to 20)
#    0.000    2.000    0.000    3.000    0.000   10.667 
#    0.000    0.000    0.000    0.000    0.000    0.000 
#    0.000    0.000    0.000    0.000    0.000    0.000 
#
# Total GULP energy -297616.406386 kJ/mol
# GULP energy per Si atom -12400.683599 kJ/mol
# Density = 2.019373 g / cm^3
# Si number density = 20.239801 Si / 1000 Ang^3
#
#
#
# Elastic Constant Matrix: (Units=GPa)
#
#
# Indices 1 2 3 4 5 6 
#
# 1 97.8571 66.4148 42.1216 0.0000 5.9365 0.0000
# 2 66.4148 139.2404 25.6920 0.0000 -10.0324 0.0000
# 3 42.1216 25.6920 67.9268 0.0000 11.0223 0.0000
# 4 0.0000 0.0000 0.0000 28.1435 0.0000 -0.6381
# 5 5.9365 -10.0324 11.0223 0.0000 34.1302 0.0000
# 6 0.0000 0.0000 0.0000 -0.6381 0.0000 37.9156
#
#
#
# Elastic Compliance Matrix: (Units=1/GPa)
#
#
# Indices 1 2 3 4 5 6 
#
# 1 0.019469 -0.007910 -0.008605 0.000000 -0.002932 0.000000
# 2 -0.007910 0.011325 -0.000150 0.000000 0.004753 0.000000
# 3 -0.008605 -0.000150 0.020978 0.000000 -0.005322 0.000000
# 4 0.000000 0.000000 0.000000 0.035546 0.000000 0.000598
# 5 -0.002932 0.004753 -0.005322 0.000000 0.032925 0.000000
# 6 0.000000 0.000000 0.000000 0.000598 0.000000 0.026384
#
#
# Mechanical properties :
#
#
# Convention : Reuss Voigt Hill
#
# Bulk Modulus (GPa) = 54.22312 63.72013 58.97162
# Shear Modulus (GPa) = 26.86647 31.42426 29.14536
#
# Velocity S-wave (km/s) = 3.64731 3.94458 3.79885
# Velocity P-wave (km/s) = 6.67725 7.23168 6.95999
#
# Compressibility (1/GPa) = 0.01844232
#
# Stress axis : x y z
#
# Youngs Moduli (GPa) = 51.36254 88.30184 47.66856
#
# Poissons Ratio (x) = 0.69847 0.41021
# Poissons Ratio (y) = 0.40628 0.00713
# Poissons Ratio (z) = 0.44200 0.01321
#
# Static dielectric constant tensor:
#      x y z
#    x 3.451020 0.000000 0.240480 
#    y 0.000000 4.049150 0.000000 
#    z 0.240480 0.000000 3.585790 
# 
# 
# High freq. dielectric constant tensor:
#      x y z
#    x 1.778800 0.000000 0.020240 
#    y 0.000000 1.809470 0.000000 
#    z 0.020240 0.000000 1.789250 
# 
# From -- ./inp_files/263089.got.cif
#   From: 2010.06.25/outbox.cif.g09.slc.cpg/sg15_132_cif.got.tgz:263089.got - 2010.06.28 07:06:18.
