data_PCOD8138154
_publ_section_title
;
Structure prediction by ZEFSAII (Michael W. Deem and Ramdas Pophale) SiO2 
 PCOD8138154
Probable space group: C 2/C
;
_chemical_formula_sum "Si O2"
_cell_formula_units_Z 52
_cell_length_a 9.991685
_cell_length_b 7.956937
_cell_length_c 25.529999
_cell_angle_alpha 90.000000
_cell_angle_beta 59.949176
_cell_angle_gamma 90.000000
_cell_volume 1756.885413
_symmetry_space_group_name_H-M "C 2/C"
_symmetry_group_IT_number 15
_symmetry_cell_setting 'monoclinic'
loop_
_space_group_symop_operation_xyz
x,y,z
-x,y,1/2-z
-x,-y,-z
x,-y,1/2+z
1/2+x,1/2+y,z
1/2-x,1/2+y,1/2-z
1/2-x,1/2-y,-z
1/2+x,1/2-y,1/2+z
loop_
_atom_site_type_symbol
_atom_site_label
_atom_site_fract_x
_atom_site_fract_y
_atom_site_fract_z
Si Si1 0.500000 0.160044 0.750000
Si Si2 0.387236 0.527178 0.091683
Si Si3 0.249034 0.468997 0.937872
Si Si4 0.559389 0.759946 0.513437
Si Si5 0.249477 0.882772 0.777895
Si Si6 0.749288 0.044770 0.823702
Si Si7 0.921176 0.326444 0.376438
O O1 0.531506 0.260712 0.689406
O O2 0.360193 0.038672 0.762082
O O3 0.530701 0.391293 0.061596
O O4 0.386323 0.596558 0.151518
O O5 0.227064 0.444084 0.104708
O O6 0.421132 0.683333 0.047788
O O7 0.314090 0.538752 0.869586
O O8 0.372389 0.320465 0.929101
O O9 0.089612 0.376778 0.955523
O O10 0.211347 0.614375 0.989900
O O11 0.324431 0.703813 0.778184
O O12 0.202600 0.885302 0.724251
O O13 0.561200 0.055773 0.867431
#
# Coordination Sequence:
#
# PCOD8138154 Si02
#       7
#     4   8   8   8   8   8   8
#     4   8  18  38  58  78 112 158 186 234 298 358
#     4   9  17  37  61  80 113 158 192 236 295 354
#     4  10  20  37  60  87 114 151 199 246 286 357
#     4   9  18  34  62  81 109 160 198 233 297 345
#     4  10  21  37  59  85 116 149 193 239 302 351
#     4  11  23  38  58  91 119 150 194 251 298 362
#     4   9  20  36  59  80 119 154 190 235 306 347
#
# _framework density 29.597833000000001
#
# number of rings (size 3 to 8) (size 9 to 14) (size 15 to 20)
#    0.000    2.462    1.538    0.000    8.615    0.000 
#    2.769    7.692    0.000    0.000    0.000    0.000 
#    0.000    0.000    0.000    0.000    0.000    0.000 
#
# Total GULP energy -322116.550244 kJ/mol
# GULP energy per Si atom -12389.098086 kJ/mol
# Density = 2.953047 g / cm^3
# Si number density = 29.597833 Si / 1000 Ang^3
#
#
#
# Elastic Constant Matrix: (Units=GPa)
#
#
# Indices 1 2 3 4 5 6 
#
# 1 68.6420 -16.3059 12.8415 0.0000 -3.8797 0.0000
# 2 -16.3059 98.7807 32.2693 0.0000 6.0991 0.0000
# 3 12.8415 32.2693 129.9156 0.0000 18.5783 0.0000
# 4 0.0000 0.0000 0.0000 76.3398 0.0000 12.6580
# 5 -3.8797 6.0991 18.5783 0.0000 37.9962 0.0000
# 6 0.0000 0.0000 0.0000 12.6580 0.0000 4.4431
#
#
#
# Elastic Compliance Matrix: (Units=1/GPa)
#
#
# Indices 1 2 3 4 5 6 
#
# 1 0.016036 0.003404 -0.002781 0.000000 0.002451 0.000000
# 2 0.003404 0.011748 -0.003263 0.000000 0.000057 0.000000
# 3 -0.002781 -0.003263 0.009406 0.000000 -0.004359 0.000000
# 4 0.000000 0.000000 0.000000 0.024827 0.000000 -0.070731
# 5 0.002451 0.000057 -0.004359 0.000000 0.028691 0.000000
# 6 0.000000 0.000000 0.000000 -0.070731 0.000000 0.426573
#
#
# Mechanical properties :
#
#
# Convention : Reuss Voigt Hill
#
# Bulk Modulus (GPa) = 31.33758 39.43867 35.38813
# Shear Modulus (GPa) = 9.37740 41.65803 25.51772
#
# Velocity S-wave (km/s) = 1.78190 3.75569 2.93942
# Velocity P-wave (km/s) = 3.85283 5.67105 4.84794
#
# Compressibility (1/GPa) = 0.03191057
#
# Stress axis : x y z
#
# Youngs Moduli (GPa) = 62.36034 85.12319 106.31512
#
# Poissons Ratio (x) = -0.28978 0.29567
# Poissons Ratio (y) = -0.21229 0.34687
# Poissons Ratio (z) = 0.17343 0.27773
#
# Static dielectric constant tensor:
#      x y z
#    x 5.426160 0.000000 -0.377140 
#    y 0.000000 5.790460 0.000000 
#    z -0.377140 0.000000 6.225960 
# 
# 
# High freq. dielectric constant tensor:
#      x y z
#    x 2.228150 0.000000 -0.021100 
#    y 0.000000 2.225800 0.000000 
#    z -0.021100 0.000000 2.225260 
# 
# From -- ./inp_files/312632.got.cif
#   From: 2010.06.25/outbox.cif.g09.slc.cpg/sg15_157_cif.got.tgz:312632.got - 2010.06.28 07:06:18.
