data_PCOD8138212
_publ_section_title
;
Structure prediction by ZEFSAII (Michael W. Deem and Ramdas Pophale) SiO2 
 PCOD8138212
Probable space group: C 2/C
;
_chemical_formula_sum "Si O2"
_cell_formula_units_Z 60
_cell_length_a 17.801724
_cell_length_b 10.201740
_cell_length_c 17.206283
_cell_angle_alpha 90.000000
_cell_angle_beta 83.896361
_cell_angle_gamma 90.000000
_cell_volume 3107.094340
_symmetry_space_group_name_H-M "C 2/C"
_symmetry_group_IT_number 15
_symmetry_cell_setting 'monoclinic'
loop_
_space_group_symop_operation_xyz
x,y,z
-x,y,1/2-z
-x,-y,-z
x,-y,1/2+z
1/2+x,1/2+y,z
1/2-x,1/2+y,1/2-z
1/2-x,1/2-y,-z
1/2+x,1/2-y,1/2+z
loop_
_atom_site_type_symbol
_atom_site_label
_atom_site_fract_x
_atom_site_fract_y
_atom_site_fract_z
Si Si1 0.418016 0.546039 0.022638
Si Si2 0.856165 0.541755 0.733398
Si Si3 0.500000 0.856007 0.750000
Si Si4 0.852546 0.170081 0.172502
Si Si5 0.707932 0.940751 0.610325
Si Si6 0.712700 0.389478 0.513178
Si Si7 0.699117 0.490526 0.681118
Si Si8 0.895135 0.786079 0.372836
O O1 0.362133 0.418860 0.030757
O O2 0.401458 0.638445 0.952094
O O3 0.500000 0.500000 0.000000
O O4 0.416185 0.622369 0.104901
O O5 0.875496 0.684848 0.698338
O O6 0.818544 0.549837 0.823536
O O7 0.788892 0.485998 0.687015
O O8 0.930487 0.447368 0.725764
O O9 0.527524 0.754779 0.679827
O O10 0.773382 0.155480 0.135723
O O11 0.851022 0.078729 0.247964
O O12 0.637637 0.852191 0.598111
O O13 0.727297 0.005879 0.525995
O O14 0.750000 0.250000 0.500000
O O15 0.689210 0.408796 0.604011
O O16 0.662554 0.635312 0.677585
#
# Coordination Sequence:
#
# PCOD8138212 Si02
#       8
#     8   8   4   8   8   8   8   8
#     4  10  24  40  57  86 119 160 195 239 307 353
#     4  10  20  39  58  91 116 152 198 242 304 346
#     4  10  24  40  60  88 126 158 192 254 300 358
#     4  10  20  37  61  84 118 151 196 250 282 355
#     4   9  19  36  63  86 117 151 194 243 290 350
#     4  10  21  38  60  87 117 152 197 247 284 346
#     4  10  21  35  65  89 109 158 203 238 295 351
#     4  10  21  40  61  85 119 156 199 241 297 358
#
# _framework density 19.310646999999999
#
# number of rings (size 3 to 8) (size 9 to 14) (size 15 to 20)
#    0.000    2.133    1.333    0.800    3.733    2.667 
#    9.600    0.667    0.000    0.000    0.000    0.000 
#    0.000    0.000    0.000    0.000    0.000    0.000 
#
# Total GULP energy -371668.338488 kJ/mol
# GULP energy per Si atom -12388.944616 kJ/mol
# Density = 1.926669 g / cm^3
# Si number density = 19.310647 Si / 1000 Ang^3
#
#
#
# Elastic Constant Matrix: (Units=GPa)
#
#
# Indices 1 2 3 4 5 6 
#
# 1 83.4468 38.4976 33.1410 0.0000 -18.9191 0.0000
# 2 38.4976 106.4687 48.4043 0.0000 -8.8205 0.0000
# 3 33.1410 48.4043 118.5185 0.0000 -17.3211 0.0000
# 4 0.0000 0.0000 0.0000 29.0686 0.0000 -8.5157
# 5 -18.9191 -8.8205 -17.3211 0.0000 31.8539 0.0000
# 6 0.0000 0.0000 0.0000 -8.5157 0.0000 24.5470
#
#
#
# Elastic Compliance Matrix: (Units=1/GPa)
#
#
# Indices 1 2 3 4 5 6 
#
# 1 0.016474 -0.004589 -0.001616 0.000000 0.007635 0.000000
# 2 -0.004589 0.012826 -0.004165 0.000000 -0.001439 0.000000
# 3 -0.001616 -0.004165 0.011169 0.000000 0.003960 0.000000
# 4 0.000000 0.000000 0.000000 0.038293 0.000000 0.013284
# 5 0.007635 -0.001439 0.003960 0.000000 0.037683 0.000000
# 6 0.000000 0.000000 0.000000 0.013284 0.000000 0.045347
#
#
# Mechanical properties :
#
#
# Convention : Reuss Voigt Hill
#
# Bulk Modulus (GPa) = 50.69126 60.94665 55.81895
# Shear Modulus (GPa) = 26.43959 29.65330 28.04644
#
# Velocity S-wave (km/s) = 3.70425 3.92292 3.81515
# Velocity P-wave (km/s) = 6.67852 7.22141 6.95526
#
# Compressibility (1/GPa) = 0.01972727
#
# Stress axis : x y z
#
# Youngs Moduli (GPa) = 60.70235 77.96411 89.52965
#
# Poissons Ratio (x) = 0.35780 0.14472
# Poissons Ratio (y) = 0.27858 0.37293
# Poissons Ratio (z) = 0.09812 0.32476
#
# Static dielectric constant tensor:
#      x y z
#    x 3.510160 0.000000 -0.202030 
#    y 0.000000 3.473770 0.000000 
#    z -0.202030 0.000000 3.555870 
# 
# 
# High freq. dielectric constant tensor:
#      x y z
#    x 1.739520 0.000000 -0.014450 
#    y 0.000000 1.747560 0.000000 
#    z -0.014450 0.000000 1.762470 
# 
# From -- ./inp_files/213875.got.cif
#   From: 2010.06.25/outbox.cif.g09.slc.cpg/sg15_107_cif.got.tgz:213875.got - 2010.06.28 07:06:18.
