data_PCOD8138086
_publ_section_title
;
Structure prediction by ZEFSAII (Michael W. Deem and Ramdas Pophale) SiO2 
 PCOD8138086
Probable space group: C 2/C
;
_chemical_formula_sum "Si O2"
_cell_formula_units_Z 64
_cell_length_a 15.305896
_cell_length_b 22.790360
_cell_length_c 16.649465
_cell_angle_alpha 90.000000
_cell_angle_beta 36.127331
_cell_angle_gamma 90.000000
_cell_volume 3424.161437
_symmetry_space_group_name_H-M "C 2/C"
_symmetry_group_IT_number 15
_symmetry_cell_setting 'monoclinic'
loop_
_space_group_symop_operation_xyz
x,y,z
-x,y,1/2-z
-x,-y,-z
x,-y,1/2+z
1/2+x,1/2+y,z
1/2-x,1/2+y,1/2-z
1/2-x,1/2-y,-z
1/2+x,1/2-y,1/2+z
loop_
_atom_site_type_symbol
_atom_site_label
_atom_site_fract_x
_atom_site_fract_y
_atom_site_fract_z
Si Si1 0.870166 0.252605 0.080813
Si Si2 0.592897 0.586218 0.554206
Si Si3 0.360136 0.630185 0.152664
Si Si4 0.535685 0.134500 0.458917
Si Si5 0.562282 0.465911 0.789670
Si Si6 0.598197 0.973324 0.995742
Si Si7 0.463328 0.707135 0.687187
Si Si8 0.403029 0.076745 0.399749
O O1 0.923968 0.195383 0.090797
O O2 0.697360 0.268099 0.217597
O O3 0.966373 0.305921 0.043513
O O4 0.911908 0.240701 0.957108
O O5 0.654570 0.594215 0.419001
O O6 0.519770 0.522553 0.614223
O O7 0.474144 0.636683 0.665661
O O8 0.731347 0.590704 0.511726
O O9 0.463078 0.591078 0.134769
O O10 0.200552 0.642105 0.306600
O O11 0.543794 0.094186 0.533769
O O12 0.441191 0.111829 0.452491
O O13 0.500000 0.447710 0.750000
O O14 0.733809 0.481238 0.657178
O O15 0.573552 0.006867 0.098712
O O16 0.500000 0.000000 0.000000
O O17 0.500000 0.724861 0.750000
O O18 0.500000 0.094411 0.250000
#
# Coordination Sequence:
#
# PCOD8138086 Si02
#       8
#     8   8   8   8   8   8   8   8
#     4  11  22  39  57  79 116 157 201 245 281 342
#     4  11  22  36  56  91 119 150 191 237 298 350
#     4  10  22  40  55  86 114 156 192 236 296 343
#     4  10  20  37  59  79 116 159 195 232 287 345
#     4  11  21  38  64  85 116 148 192 248 297 350
#     4   9  21  36  57  85 114 155 192 232 293 354
#     4  11  23  35  54  85 118 156 196 236 286 354
#     4  11  20  35  57  85 123 152 185 235 291 355
#
# _framework density 18.690707
#
# number of rings (size 3 to 8) (size 9 to 14) (size 15 to 20)
#    0.000    1.500    3.750    1.875    3.500    1.500 
#    0.000    0.000    0.000    3.750    0.000    0.000 
#    0.000    0.000    0.000    0.000    0.000    0.000 
#
# Total GULP energy -396600.034792 kJ/mol
# GULP energy per Si atom -12393.751087 kJ/mol
# Density = 1.864817 g / cm^3
# Si number density = 18.690707 Si / 1000 Ang^3
#
#
#
# Elastic Constant Matrix: (Units=GPa)
#
#
# Indices 1 2 3 4 5 6 
#
# 1 56.9964 38.7522 24.7181 0.0030 -7.8805 -0.0039
# 2 38.7522 134.4346 33.8616 0.0029 -5.2064 -0.0023
# 3 24.7181 33.8616 49.2068 0.0026 -9.9126 -0.0035
# 4 0.0030 0.0029 0.0026 26.2951 -0.0024 -0.0594
# 5 -7.8805 -5.2064 -9.9126 -0.0024 25.5215 0.0052
# 6 -0.0039 -0.0023 -0.0035 -0.0594 0.0052 24.1550
#
#
#
# Elastic Compliance Matrix: (Units=1/GPa)
#
#
# Indices 1 2 3 4 5 6 
#
# 1 0.025072 -0.004955 -0.008493 -0.000001 0.003432 0.000002
# 2 -0.004955 0.009987 -0.004644 0.000000 -0.001297 0.000000
# 3 -0.008493 -0.004644 0.029363 -0.000001 0.007835 0.000001
# 4 -0.000001 0.000000 -0.000001 0.038030 0.000003 0.000094
# 5 0.003432 -0.001297 0.007835 0.000003 0.043021 -0.000008
# 6 0.000002 0.000000 0.000001 0.000094 -0.000008 0.041400
#
#
# Mechanical properties :
#
#
# Convention : Reuss Voigt Hill
#
# Bulk Modulus (GPa) = 35.41544 48.36685 41.89115
# Shear Modulus (GPa) = 21.50824 24.74804 23.12814
#
# Velocity S-wave (km/s) = 3.39594 3.64274 3.52151
# Velocity P-wave (km/s) = 5.86224 6.60503 6.24469
#
# Compressibility (1/GPa) = 0.02823627
#
# Stress axis : x y z
#
# Youngs Moduli (GPa) = 39.88556 100.13515 34.05638
#
# Poissons Ratio (x) = 0.49617 0.28925
# Poissons Ratio (y) = 0.19763 0.15817
# Poissons Ratio (z) = 0.33875 0.46506
#
# Static dielectric constant tensor:
#      x y z
#    x 3.671440 -0.000110 0.094100 
#    y -0.000110 4.450580 0.000030 
#    z 0.094100 0.000030 3.477700 
# 
# 
# High freq. dielectric constant tensor:
#      x y z
#    x 1.704900 0.000000 -0.011780 
#    y 0.000000 1.735050 0.000000 
#    z -0.011780 0.000000 1.723300 
# 
# From -- ./inp_files/156796.got.cif
#   From: 2010.06.25/outbox.cif.g09.slc.cpg/sg15_79_cif.got.tgz:156796.got - 2010.06.28 07:06:18.
