data_PCOD8138540
_publ_section_title
;
Structure prediction by ZEFSAII (Michael W. Deem and Ramdas Pophale) SiO2 
 PCOD8138540
Probable space group: C 2/C
;
_chemical_formula_sum "Si O2"
_cell_formula_units_Z 52
_cell_length_a 13.750177
_cell_length_b 18.232000
_cell_length_c 10.223654
_cell_angle_alpha 90.000000
_cell_angle_beta 93.237303
_cell_angle_gamma 90.000000
_cell_volume 2558.910801
_symmetry_space_group_name_H-M "C 2/C"
_symmetry_group_IT_number 15
_symmetry_cell_setting 'monoclinic'
loop_
_space_group_symop_operation_xyz
x,y,z
-x,y,1/2-z
-x,-y,-z
x,-y,1/2+z
1/2+x,1/2+y,z
1/2-x,1/2+y,1/2-z
1/2-x,1/2-y,-z
1/2+x,1/2-y,1/2+z
loop_
_atom_site_type_symbol
_atom_site_label
_atom_site_fract_x
_atom_site_fract_y
_atom_site_fract_z
Si Si1 0.893581 0.645130 0.455623
Si Si2 0.394843 0.126635 0.963887
Si Si3 0.688241 0.187120 0.790839
Si Si4 0.636628 0.771528 0.797605
Si Si5 0.500000 0.645745 0.750000
Si Si6 0.667074 0.445458 0.169478
Si Si7 0.754439 0.489916 0.921934
O O1 0.862155 0.700471 0.571459
O O2 0.920482 0.692045 0.328960
O O3 0.811510 0.586488 0.411877
O O4 0.993211 0.604362 0.503984
O O5 0.351887 0.176074 0.077824
O O6 0.332893 0.053288 0.949570
O O7 0.390244 0.172978 0.829328
O O8 0.755718 0.254509 0.750971
O O9 0.748993 0.113930 0.814423
O O10 0.578328 0.696989 0.833193
O O11 0.439159 0.592690 0.841544
O O12 0.680124 0.490440 0.037580
O O13 0.684106 0.500002 0.292426
#
# Coordination Sequence:
#
# PCOD8138540 Si02
#       7
#     8   8   8   8   4   8   8
#     4  11  20  35  57  85 113 147 184 232 277 337
#     4  11  20  35  57  85 113 147 184 232 277 337
#     4   9  21  35  53  79 117 151 177 231 287 328
#     4  11  20  36  57  80 109 149 197 224 276 334
#     4  10  20  38  56  80 108 150 192 232 278 326
#     4   9  20  36  58  77 113 148 186 233 277 332
#     4  10  21  37  56  86 114 146 186 225 291 330
#
# _framework density 20.321145000000001
#
# number of rings (size 3 to 8) (size 9 to 14) (size 15 to 20)
#    0.000    1.846    1.538    2.769    0.000    0.615 
#    0.000    4.615    0.000    0.000    0.000    0.000 
#    0.000    0.000    0.000    0.000    0.000    0.000 
#
# Total GULP energy -322333.337410 kJ/mol
# GULP energy per Si atom -12397.436054 kJ/mol
# Density = 2.027489 g / cm^3
# Si number density = 20.321145 Si / 1000 Ang^3
#
#
#
# Elastic Constant Matrix: (Units=GPa)
#
#
# Indices 1 2 3 4 5 6 
#
# 1 74.1755 30.2049 29.0044 0.0000 -10.6703 0.0000
# 2 30.2049 49.2968 28.3819 0.0000 -3.4064 0.0000
# 3 29.0044 28.3819 133.1038 0.0000 -14.3883 0.0000
# 4 0.0000 0.0000 0.0000 20.1051 0.0000 -8.8013
# 5 -10.6703 -3.4064 -14.3883 0.0000 24.5769 0.0000
# 6 0.0000 0.0000 0.0000 -8.8013 0.0000 31.5293
#
#
#
# Elastic Compliance Matrix: (Units=1/GPa)
#
#
# Indices 1 2 3 4 5 6 
#
# 1 0.019169 -0.010599 -0.001256 0.000000 0.006118 0.000000
# 2 -0.010599 0.028988 -0.004200 0.000000 -0.003043 0.000000
# 3 -0.001256 -0.004200 0.009139 0.000000 0.004223 0.000000
# 4 0.000000 0.000000 0.000000 0.056663 0.000000 0.015817
# 5 0.006118 -0.003043 0.004223 0.000000 0.045395 0.000000
# 6 0.000000 0.000000 0.000000 0.015817 0.000000 0.036132
#
#
# Mechanical properties :
#
#
# Convention : Reuss Voigt Hill
#
# Bulk Modulus (GPa) = 39.70685 47.97317 43.84001
# Shear Modulus (GPa) = 21.18729 26.50791 23.84760
#
# Velocity S-wave (km/s) = 3.23247 3.61563 3.42941
# Velocity P-wave (km/s) = 5.78912 6.41008 6.10750
#
# Compressibility (1/GPa) = 0.02518457
#
# Stress axis : x y z
#
# Youngs Moduli (GPa) = 52.16826 34.49735 109.42519
#
# Poissons Ratio (x) = 0.36565 0.13739
# Poissons Ratio (y) = 0.55295 0.45963
# Poissons Ratio (z) = 0.06550 0.14490
#
# Static dielectric constant tensor:
#      x y z
#    x 3.678760 0.000000 -0.168330 
#    y 0.000000 3.487180 0.000000 
#    z -0.168330 0.000000 3.923310 
# 
# 
# High freq. dielectric constant tensor:
#      x y z
#    x 1.792460 0.000000 -0.010360 
#    y 0.000000 1.776370 0.000000 
#    z -0.010360 0.000000 1.797180 
# 
# From -- ./inp_files/40814.got.cif
#   From: 2010.06.25/outbox.cif.g09.slc.cpg/sg15_21_cif.got.tgz:40814.got - 2010.06.28 07:06:18.
