data_PCOD8138241
_publ_section_title
;
Structure prediction by ZEFSAII (Michael W. Deem and Ramdas Pophale) SiO2 
 PCOD8138241
Probable space group: C 2/C
;
_chemical_formula_sum "Si O2"
_cell_formula_units_Z 56
_cell_length_a 15.253871
_cell_length_b 12.097356
_cell_length_c 17.800125
_cell_angle_alpha 90.000000
_cell_angle_beta 54.287190
_cell_angle_gamma 90.000000
_cell_volume 2667.009085
_symmetry_space_group_name_H-M "C 2/C"
_symmetry_group_IT_number 15
_symmetry_cell_setting 'monoclinic'
loop_
_space_group_symop_operation_xyz
x,y,z
-x,y,1/2-z
-x,-y,-z
x,-y,1/2+z
1/2+x,1/2+y,z
1/2-x,1/2+y,1/2-z
1/2-x,1/2-y,-z
1/2+x,1/2-y,1/2+z
loop_
_atom_site_type_symbol
_atom_site_label
_atom_site_fract_x
_atom_site_fract_y
_atom_site_fract_z
Si Si1 0.522342 0.978886 0.157415
Si Si2 0.938017 0.893111 0.504604
Si Si3 0.536097 0.166005 0.942510
Si Si4 0.234347 0.381961 0.525633
Si Si5 0.622826 0.128045 0.346864
Si Si6 0.441235 0.668554 0.702994
Si Si7 0.253986 0.463183 0.355703
O O1 0.500000 0.926485 0.250000
O O2 0.536302 0.876950 0.091648
O O3 0.614800 0.074896 0.107242
O O4 0.407776 0.036757 0.198991
O O5 0.961274 0.799356 0.555447
O O6 0.809630 0.912663 0.559660
O O7 0.971226 0.860494 0.403257
O O8 0.000000 0.000000 0.500000
O O9 0.657139 0.119030 0.880719
O O10 0.480678 0.125476 0.046416
O O11 0.250000 0.250000 0.500000
O O12 0.272223 0.454457 0.435410
O O13 0.640009 0.241526 0.293543
O O14 0.727745 0.088895 0.341769
O O15 0.500000 0.711557 0.750000
O O16 0.365900 0.565026 0.758991
#
# Coordination Sequence:
#
# PCOD8138241 Si02
#       7
#     8   8   8   8   8   8   8
#     4  11  22  35  63  97 123 157 212 263 304 368
#     4  11  25  42  62  87 128 167 200 251 320 381
#     4  10  20  41  61  87 124 162 201 256 321 363
#     4  12  21  39  66  93 120 164 209 257 308 367
#     4  10  20  37  61  91 126 156 198 261 317 358
#     4  11  23  37  62  95 119 157 216 260 293 369
#     4  11  20  36  64  93 121 158 203 255 312 357
#
# _framework density 20.997302999999999
#
# number of rings (size 3 to 8) (size 9 to 14) (size 15 to 20)
#    0.000    1.143    5.714    2.143    2.000    3.429 
#    0.000    1.429    6.286    0.000    0.000    0.000 
#    0.000    0.000    0.000    0.000    0.000    0.000 
#
# Total GULP energy -346909.261676 kJ/mol
# GULP energy per Si atom -12389.616488 kJ/mol
# Density = 2.094951 g / cm^3
# Si number density = 20.997303 Si / 1000 Ang^3
#
#
#
# Elastic Constant Matrix: (Units=GPa)
#
#
# Indices 1 2 3 4 5 6 
#
# 1 108.8263 59.0934 22.3100 0.0000 15.0636 0.0000
# 2 59.0934 94.2474 14.2263 0.0000 18.5826 0.0000
# 3 22.3100 14.2263 69.6383 0.0000 15.8099 0.0000
# 4 0.0000 0.0000 0.0000 18.6006 0.0000 1.6518
# 5 15.0636 18.5826 15.8099 0.0000 34.2663 0.0000
# 6 0.0000 0.0000 0.0000 1.6518 0.0000 40.4121
#
#
#
# Elastic Compliance Matrix: (Units=1/GPa)
#
#
# Indices 1 2 3 4 5 6 
#
# 1 0.014473 -0.008569 -0.002789 0.000000 -0.000429 0.000000
# 2 -0.008569 0.017027 0.000567 0.000000 -0.005729 0.000000
# 3 -0.002789 0.000567 0.016676 0.000000 -0.006776 0.000000
# 4 0.000000 0.000000 0.000000 0.053957 0.000000 -0.002205
# 5 -0.000429 -0.005729 -0.006776 0.000000 0.035604 0.000000
# 6 0.000000 0.000000 0.000000 -0.002205 0.000000 0.024835
#
#
# Mechanical properties :
#
#
# Convention : Reuss Voigt Hill
#
# Bulk Modulus (GPa) = 37.60148 51.55238 44.57693
# Shear Modulus (GPa) = 25.90415 30.46129 28.18272
#
# Velocity S-wave (km/s) = 3.51620 3.81297 3.66759
# Velocity P-wave (km/s) = 5.86784 6.63251 6.26186
#
# Compressibility (1/GPa) = 0.02659470
#
# Stress axis : x y z
#
# Youngs Moduli (GPa) = 69.09344 58.72980 59.96746
#
# Poissons Ratio (x) = 0.50327 0.16724
# Poissons Ratio (y) = 0.59208 -0.03403
# Poissons Ratio (z) = 0.19269 -0.03332
#
# Static dielectric constant tensor:
#      x y z
#    x 3.978160 0.000000 0.170430 
#    y 0.000000 3.786050 0.000000 
#    z 0.170430 0.000000 3.763970 
# 
# 
# High freq. dielectric constant tensor:
#      x y z
#    x 1.818380 0.000000 0.007010 
#    y 0.000000 1.795320 0.000000 
#    z 0.007010 0.000000 1.821270 
# 
# From -- ./inp_files/210549.got.cif
#   From: 2010.06.25/outbox.cif.g09.slc.cpg/sg15_106_cif.got.tgz:210549.got - 2010.06.28 07:06:18.
