data_PCOD8138345
_publ_section_title
;
Structure prediction by ZEFSAII (Michael W. Deem and Ramdas Pophale) SiO2 
 PCOD8138345
Probable space group: C 2/C
;
_chemical_formula_sum "Si O2"
_cell_formula_units_Z 48
_cell_length_a 21.776962
_cell_length_b 14.900603
_cell_length_c 15.418713
_cell_angle_alpha 90.000000
_cell_angle_beta 153.475689
_cell_angle_gamma 90.000000
_cell_volume 2234.323739
_symmetry_space_group_name_H-M "C 2/C"
_symmetry_group_IT_number 15
_symmetry_cell_setting 'monoclinic'
loop_
_space_group_symop_operation_xyz
x,y,z
-x,y,1/2-z
-x,-y,-z
x,-y,1/2+z
1/2+x,1/2+y,z
1/2-x,1/2+y,1/2-z
1/2-x,1/2-y,-z
1/2+x,1/2-y,1/2+z
loop_
_atom_site_type_symbol
_atom_site_label
_atom_site_fract_x
_atom_site_fract_y
_atom_site_fract_z
Si Si1 0.170699 0.993638 0.064274
Si Si2 0.855890 0.009228 0.167878
Si Si3 0.112843 0.403647 0.458047
Si Si4 0.101401 0.585656 0.528130
Si Si5 0.761163 0.185637 0.597016
Si Si6 0.647331 0.159594 0.179810
O O1 0.218214 0.097918 0.131792
O O2 0.260134 0.931084 0.241029
O O3 0.181076 0.965214 0.977180
O O4 0.013684 0.977693 0.894316
O O5 0.831010 0.904543 0.153570
O O6 0.762007 0.074362 0.106792
O O7 0.049147 0.493974 0.418548
O O8 0.131027 0.329585 0.555787
O O9 0.000000 0.364069 0.250000
O O10 0.123529 0.657847 0.477684
O O11 0.984063 0.612587 0.445256
O O12 0.750000 0.250000 0.500000
O O13 0.847959 0.240749 0.776855
#
# Coordination Sequence:
#
# PCOD8138345 Si02
#       6
#     8   8   8   8   8   8
#     4  10  20  39  61  92 118 162 204 254 300 354
#     4  10  21  37  65  90 123 156 207 253 302 365
#     4  10  20  37  63  88 114 161 209 249 288 360
#     4  10  23  37  60  88 122 159 208 252 298 367
#     4  11  24  38  58  94 126 161 193 253 315 372
#     4  11  22  37  60  86 127 160 199 249 311 366
#
# _framework density 21.48301
#
# number of rings (size 3 to 8) (size 9 to 14) (size 15 to 20)
#    0.000    1.667    1.667    4.000    4.667    6.000 
#    0.000    0.000    3.667    2.000    0.000    0.000 
#    0.000    0.000    0.000    0.000    0.000    0.000 
#
# Total GULP energy -297442.146715 kJ/mol
# GULP energy per Si atom -12393.422780 kJ/mol
# Density = 2.143411 g / cm^3
# Si number density = 21.483010 Si / 1000 Ang^3
#
#
#
# Elastic Constant Matrix: (Units=GPa)
#
#
# Indices 1 2 3 4 5 6 
#
# 1 140.9488 35.1963 49.9472 0.0000 -7.7788 0.0000
# 2 35.1963 42.5758 16.0091 0.0000 -10.4262 0.0000
# 3 49.9472 16.0091 105.1622 0.0000 -9.8253 -0.0001
# 4 0.0000 0.0000 0.0000 17.5353 0.0000 -11.0485
# 5 -7.7788 -10.4262 -9.8253 0.0000 40.3712 -0.0001
# 6 0.0000 0.0000 -0.0001 -11.0485 -0.0001 31.6937
#
#
#
# Elastic Compliance Matrix: (Units=1/GPa)
#
#
# Indices 1 2 3 4 5 6 
#
# 1 0.010203 -0.007197 -0.003827 0.000000 -0.000824 0.000000
# 2 -0.007197 0.031312 -0.000739 0.000000 0.006520 0.000000
# 3 -0.003827 -0.000739 0.011617 0.000000 0.001899 0.000000
# 4 0.000000 0.000000 0.000000 0.073080 0.000000 0.025476
# 5 -0.000824 0.006520 0.001899 0.000000 0.026757 0.000000
# 6 0.000000 0.000000 0.000000 0.025476 0.000000 0.040433
#
#
# Mechanical properties :
#
#
# Convention : Reuss Voigt Hill
#
# Bulk Modulus (GPa) = 33.77895 54.55466 44.16680
# Shear Modulus (GPa) = 22.04625 30.42232 26.23429
#
# Velocity S-wave (km/s) = 3.20694 3.76721 3.49831
# Velocity P-wave (km/s) = 5.42866 6.66123 6.07627
#
# Compressibility (1/GPa) = 0.02960424
#
# Stress axis : x y z
#
# Youngs Moduli (GPa) = 98.01352 31.93692 86.08216
#
# Poissons Ratio (x) = 0.22985 0.32945
# Poissons Ratio (y) = 0.70541 0.06364
# Poissons Ratio (z) = 0.37512 0.02361
#
# Static dielectric constant tensor:
#      x y z
#    x 4.321360 0.000000 -0.189240 
#    y 0.000000 3.847050 0.000000 
#    z -0.189240 0.000000 3.879170 
# 
# 
# High freq. dielectric constant tensor:
#      x y z
#    x 1.872560 0.000000 -0.009460 
#    y 0.000000 1.805850 0.000000 
#    z -0.009460 0.000000 1.839520 
# 
# From -- ./inp_files/168906.got.cif
#   From: 2010.06.25/outbox.cif.g09.slc.cpg/sg15_85_cif.got.tgz:168906.got - 2010.06.28 07:06:18.
