data_PCOD8138748
_publ_section_title
;
Structure prediction by ZEFSAII (Michael W. Deem and Ramdas Pophale) SiO2 
 PCOD8138748
Probable space group: C 2/C
;
_chemical_formula_sum "Si O2"
_cell_formula_units_Z 56
_cell_length_a 13.987070
_cell_length_b 11.981994
_cell_length_c 15.394638
_cell_angle_alpha 90.000000
_cell_angle_beta 84.075669
_cell_angle_gamma 90.000000
_cell_volume 2566.253632
_symmetry_space_group_name_H-M "C 2/C"
_symmetry_group_IT_number 15
_symmetry_cell_setting 'monoclinic'
loop_
_space_group_symop_operation_xyz
x,y,z
-x,y,1/2-z
-x,-y,-z
x,-y,1/2+z
1/2+x,1/2+y,z
1/2-x,1/2+y,1/2-z
1/2-x,1/2-y,-z
1/2+x,1/2-y,1/2+z
loop_
_atom_site_type_symbol
_atom_site_label
_atom_site_fract_x
_atom_site_fract_y
_atom_site_fract_z
Si Si1 0.168125 0.482991 0.506257
Si Si2 0.885967 0.966228 0.762167
Si Si3 0.329348 0.241608 0.693508
Si Si4 0.046829 0.715445 0.986340
Si Si5 0.333548 0.788533 0.554100
Si Si6 0.751643 0.898911 0.163878
Si Si7 0.675044 0.647603 0.596964
O O1 0.068804 0.412632 0.513961
O O2 0.169333 0.577363 0.429812
O O3 0.187457 0.548209 0.593801
O O4 0.248389 0.389487 0.482684
O O5 0.846102 0.839681 0.762325
O O6 0.000000 0.967439 0.750000
O O7 0.836981 0.017310 0.680959
O O8 0.855778 0.035721 0.849578
O O9 0.415037 0.238154 0.614950
O O10 0.324064 0.127789 0.751586
O O11 0.225764 0.242011 0.653061
O O12 0.086248 0.800167 0.055120
O O13 0.933932 0.738578 0.996901
O O14 0.250000 0.750000 0.500000
O O15 0.312945 0.715594 0.641330
#
# Coordination Sequence:
#
# PCOD8138748 Si02
#       7
#     8   8   8   8   8   8   8
#     4  10  20  38  61  85 114 152 195 241 291 349
#     4  11  22  36  56  86 119 155 196 240 290 345
#     4  10  22  38  60  89 120 151 193 247 293 340
#     4  11  21  39  64  88 114 155 202 240 284 351
#     4  10  22  38  58  87 121 156 193 240 293 350
#     4  10  21  39  59  83 121 155 189 243 297 342
#     4  10  21  38  62  86 115 156 198 239 289 347
#
# _framework density 21.821694000000001
#
# number of rings (size 3 to 8) (size 9 to 14) (size 15 to 20)
#    0.000    1.714    0.000    5.571    0.000    4.571 
#    0.000    5.000    0.000    5.143    0.000    0.000 
#    0.000    0.000    0.000    0.000    0.000    0.000 
#
# Total GULP energy -346900.141515 kJ/mol
# GULP energy per Si atom -12389.290768 kJ/mol
# Density = 2.177203 g / cm^3
# Si number density = 21.821694 Si / 1000 Ang^3
#
#
#
# Elastic Constant Matrix: (Units=GPa)
#
#
# Indices 1 2 3 4 5 6 
#
# 1 120.3485 30.9552 26.6903 0.0000 -8.3547 0.0000
# 2 30.9552 91.7226 31.2497 0.0000 1.1419 0.0000
# 3 26.6903 31.2497 75.8552 0.0000 -0.9306 0.0000
# 4 0.0000 0.0000 0.0000 37.1442 0.0000 -0.8433
# 5 -8.3547 1.1419 -0.9306 0.0000 17.8230 0.0000
# 6 0.0000 0.0000 0.0000 -0.8433 0.0000 26.8772
#
#
#
# Elastic Compliance Matrix: (Units=1/GPa)
#
#
# Indices 1 2 3 4 5 6 
#
# 1 0.009811 -0.002573 -0.002335 0.000000 0.004642 0.000000
# 2 -0.002573 0.013379 -0.004634 0.000000 -0.002305 0.000000
# 3 -0.002335 -0.004634 0.015914 0.000000 0.000033 0.000000
# 4 0.000000 0.000000 0.000000 0.026941 0.000000 0.000845
# 5 0.004642 -0.002305 0.000033 0.000000 0.058433 0.000000
# 6 0.000000 0.000000 0.000000 0.000845 0.000000 0.037233
#
#
# Mechanical properties :
#
#
# Convention : Reuss Voigt Hill
#
# Bulk Modulus (GPa) = 49.95397 51.74629 50.85013
# Shear Modulus (GPa) = 26.67104 29.63760 28.15432
#
# Velocity S-wave (km/s) = 3.49983 3.68934 3.59583
# Velocity P-wave (km/s) = 6.26684 6.47402 6.37127
#
# Compressibility (1/GPa) = 0.02001843
#
# Stress axis : x y z
#
# Youngs Moduli (GPa) = 101.92404 74.74661 62.83698
#
# Poissons Ratio (x) = 0.19235 0.14673
# Poissons Ratio (y) = 0.26229 0.29121
# Poissons Ratio (z) = 0.23800 0.34640
#
# Static dielectric constant tensor:
#      x y z
#    x 3.901410 0.000000 -0.053100 
#    y 0.000000 4.525430 0.000000 
#    z -0.053100 0.000000 4.034170 
# 
# 
# High freq. dielectric constant tensor:
#      x y z
#    x 1.850200 0.000000 0.004980 
#    y 0.000000 1.870560 0.000000 
#    z 0.004980 0.000000 1.848950 
# 
# From -- ./inp_files/152599.got.cif
#   From: 2010.06.25/outbox.cif.g09.slc.cpg/sg15_77_cif.got.tgz:152599.got - 2010.06.28 07:06:18.
