data_PCOD8138394
_publ_section_title
;
Structure prediction by ZEFSAII (Michael W. Deem and Ramdas Pophale) SiO2 
 PCOD8138394
Probable space group: C 2/C
;
_chemical_formula_sum "Si O2"
_cell_formula_units_Z 64
_cell_length_a 22.097351
_cell_length_b 11.639364
_cell_length_c 17.481167
_cell_angle_alpha 90.000000
_cell_angle_beta 43.188493
_cell_angle_gamma 90.000000
_cell_volume 3077.161744
_symmetry_space_group_name_H-M "C 2/C"
_symmetry_group_IT_number 15
_symmetry_cell_setting 'monoclinic'
loop_
_space_group_symop_operation_xyz
x,y,z
-x,y,1/2-z
-x,-y,-z
x,-y,1/2+z
1/2+x,1/2+y,z
1/2-x,1/2+y,1/2-z
1/2-x,1/2-y,-z
1/2+x,1/2-y,1/2+z
loop_
_atom_site_type_symbol
_atom_site_label
_atom_site_fract_x
_atom_site_fract_y
_atom_site_fract_z
Si Si1 0.334133 0.445691 0.358814
Si Si2 0.587883 0.384002 0.814722
Si Si3 0.852742 0.484105 0.917051
Si Si4 0.970487 0.709029 0.363236
Si Si5 0.157170 0.136744 0.417291
Si Si6 0.397985 0.759284 0.339007
Si Si7 0.661630 0.197501 0.197723
Si Si8 0.393329 0.431733 0.946750
O O1 0.371676 0.491130 0.243329
O O2 0.237175 0.501841 0.454269
O O3 0.325722 0.308993 0.367117
O O4 0.400653 0.486150 0.364911
O O5 0.611966 0.347926 0.877732
O O6 0.630246 0.287513 0.718748
O O7 0.483234 0.398317 0.905882
O O8 0.926642 0.417845 0.899251
O O9 0.887979 0.606385 0.857749
O O10 0.828973 0.412594 0.864144
O O11 0.902884 0.796584 0.464936
O O12 0.000000 0.748933 0.250000
O O13 0.062982 0.700068 0.326546
O O14 0.256463 0.189104 0.318683
O O15 0.163668 0.002758 0.437971
O O16 0.500000 0.723222 0.250000
O O17 0.349370 0.686861 0.453071
#
# Coordination Sequence:
#
# PCOD8138394 Si02
#       8
#     8   8   8   8   8   8   8   8
#     4  11  20  39  63  95 123 159 223 275 311 373
#     4  10  24  40  62  92 133 170 204 264 337 388
#     4  11  20  38  64  92 127 154 218 272 311 374
#     4  10  22  36  68  95 122 168 220 269 320 376
#     4  12  22  43  61  96 137 164 210 272 332 397
#     4   9  20  40  62  90 118 163 214 259 308 384
#     4  11  22  38  63  97 125 164 213 271 324 376
#     4  10  20  37  64  86 117 164 214 263 313 367
#
# _framework density 20.798386000000001
#
# number of rings (size 3 to 8) (size 9 to 14) (size 15 to 20)
#    0.000    1.500    2.500    5.250    0.000    4.500 
#    2.250    3.750    0.000    9.750    0.000    0.000 
#    0.000    0.000    0.000    0.000    0.000    0.000 
#
# Total GULP energy -396446.193302 kJ/mol
# GULP energy per Si atom -12388.943541 kJ/mol
# Density = 2.075105 g / cm^3
# Si number density = 20.798386 Si / 1000 Ang^3
#
#
#
# Elastic Constant Matrix: (Units=GPa)
#
#
# Indices 1 2 3 4 5 6 
#
# 1 135.7466 46.8672 39.5056 0.0000 -6.4985 0.0000
# 2 46.8672 126.1930 17.0915 0.0000 12.9329 0.0000
# 3 39.5056 17.0915 48.2908 0.0000 -3.3714 0.0000
# 4 0.0000 0.0000 0.0000 20.8104 0.0000 -5.2881
# 5 -6.4985 12.9329 -3.3714 0.0000 34.5711 0.0000
# 6 0.0000 0.0000 0.0000 -5.2881 0.0000 22.0635
#
#
#
# Elastic Compliance Matrix: (Units=1/GPa)
#
#
# Indices 1 2 3 4 5 6 
#
# 1 0.010793 -0.003250 -0.007504 0.000000 0.002513 0.000000
# 2 -0.003250 0.009725 -0.001088 0.000000 -0.004355 0.000000
# 3 -0.007504 -0.001088 0.027347 0.000000 0.001663 0.000000
# 4 0.000000 0.000000 0.000000 0.051169 0.000000 0.012264
# 5 0.002513 -0.004355 0.001663 0.000000 0.031190 0.000000
# 6 0.000000 0.000000 0.000000 0.012264 0.000000 0.048263
#
#
# Mechanical properties :
#
#
# Convention : Reuss Voigt Hill
#
# Bulk Modulus (GPa) = 41.35067 57.46210 49.40638
# Shear Modulus (GPa) = 23.78353 29.27342 26.52848
#
# Velocity S-wave (km/s) = 3.38528 3.75572 3.57530
# Velocity P-wave (km/s) = 5.93338 6.81875 6.39141
#
# Compressibility (1/GPa) = 0.02418341
#
# Stress axis : x y z
#
# Youngs Moduli (GPa) = 92.65590 102.82954 36.56644
#
# Poissons Ratio (x) = 0.33415 0.27438
# Poissons Ratio (y) = 0.30109 0.03977
# Poissons Ratio (z) = 0.69526 0.11183
#
# Static dielectric constant tensor:
#      x y z
#    x 3.839410 0.000000 -0.387040 
#    y 0.000000 3.804870 0.000000 
#    z -0.387040 0.000000 3.685220 
# 
# 
# High freq. dielectric constant tensor:
#      x y z
#    x 1.805270 0.000000 -0.029410 
#    y 0.000000 1.820120 0.000000 
#    z -0.029410 0.000000 1.786190 
# 
# From -- ./inp_files/215048.got.cif
#   From: 2010.06.25/outbox.cif.g09.slc.cpg/sg15_108_cif.got.tgz:215048.got - 2010.06.28 07:06:18.
