data_PCOD8138676
_publ_section_title
;
Structure prediction by ZEFSAII (Michael W. Deem and Ramdas Pophale) SiO2 
 PCOD8138676
Probable space group: C 2/C
;
_chemical_formula_sum "Si O2"
_cell_formula_units_Z 32
_cell_length_a 11.778512
_cell_length_b 14.297611
_cell_length_c 9.241956
_cell_angle_alpha 90.000000
_cell_angle_beta 96.250281
_cell_angle_gamma 90.000000
_cell_volume 1547.136270
_symmetry_space_group_name_H-M "C 2/C"
_symmetry_group_IT_number 15
_symmetry_cell_setting 'monoclinic'
loop_
_space_group_symop_operation_xyz
x,y,z
-x,y,1/2-z
-x,-y,-z
x,-y,1/2+z
1/2+x,1/2+y,z
1/2-x,1/2+y,1/2-z
1/2-x,1/2-y,-z
1/2+x,1/2-y,1/2+z
loop_
_atom_site_type_symbol
_atom_site_label
_atom_site_fract_x
_atom_site_fract_y
_atom_site_fract_z
Si Si1 0.111006 0.447905 0.859686
Si Si2 0.794923 0.400517 0.912514
Si Si3 0.034649 0.908328 0.918658
Si Si4 0.494709 0.766612 0.912556
O O1 0.212575 0.435558 0.755990
O O2 0.000000 0.475339 0.750000
O O3 0.086452 0.350632 0.941211
O O4 0.138326 0.525013 0.980362
O O5 0.668722 0.388248 0.955548
O O6 0.866859 0.304475 0.929759
O O7 0.000000 0.922154 0.750000
O O8 0.971189 0.817431 0.975534
O O9 0.000000 0.000000 0.000000
O O10 0.500000 0.726999 0.750000
#
# Coordination Sequence:
#
# PCOD8138676 Si02
#       4
#     8   8   8   8
#     4   9  18  35  62  91 113 139 184 240 286 331
#     4  10  20  38  60  86 115 149 186 231 282 335
#     4  12  25  40  56  81 117 157 192 228 276 336
#     4   9  20  39  60  84 113 143 186 241 285 330
#
# _framework density 20.683375000000002
#
# number of rings (size 3 to 8) (size 9 to 14) (size 15 to 20)
#    0.000    2.500    0.000    6.000    0.000    3.000 
#    0.000   13.750    0.000    0.000    0.000    0.000 
#    0.000    0.000    0.000    0.000    0.000    0.000 
#
# Total GULP energy -198338.326646 kJ/mol
# GULP energy per Si atom -12396.145415 kJ/mol
# Density = 2.063630 g / cm^3
# Si number density = 20.683375 Si / 1000 Ang^3
#
#
#
# Elastic Constant Matrix: (Units=GPa)
#
#
# Indices 1 2 3 4 5 6 
#
# 1 64.2436 37.2416 22.9396 0.0000 -11.9993 0.0000
# 2 37.2416 136.0260 92.3838 0.0000 0.7256 0.0000
# 3 22.9396 92.3838 125.9681 0.0000 -6.2852 0.0000
# 4 0.0000 0.0000 0.0000 45.2754 0.0000 -3.1629
# 5 -11.9993 0.7256 -6.2852 0.0000 26.1633 0.0000
# 6 0.0000 0.0000 0.0000 -3.1629 0.0000 14.4874
#
#
#
# Elastic Compliance Matrix: (Units=1/GPa)
#
#
# Indices 1 2 3 4 5 6 
#
# 1 0.020892 -0.007047 0.001874 0.000000 0.010227 0.000000
# 2 -0.007047 0.017264 -0.011704 0.000000 -0.006523 0.000000
# 3 0.001874 -0.011704 0.016437 0.000000 0.005133 0.000000
# 4 0.000000 0.000000 0.000000 0.022429 0.000000 0.004897
# 5 0.010227 -0.006523 0.005133 0.000000 0.044326 0.000000
# 6 0.000000 0.000000 0.000000 0.004897 0.000000 0.070094
#
#
# Mechanical properties :
#
#
# Convention : Reuss Voigt Hill
#
# Bulk Modulus (GPa) = 47.98566 70.15197 59.06881
# Shear Modulus (GPa) = 21.53846 28.76342 25.15094
#
# Velocity S-wave (km/s) = 3.23048 3.73319 3.49090
# Velocity P-wave (km/s) = 6.09632 7.25073 6.69844
#
# Compressibility (1/GPa) = 0.02083956
#
# Stress axis : x y z
#
# Youngs Moduli (GPa) = 47.86504 57.92245 60.83949
#
# Poissons Ratio (x) = 0.40820 -0.11402
# Poissons Ratio (y) = 0.33732 0.71205
# Poissons Ratio (z) = -0.08971 0.67791
#
# Static dielectric constant tensor:
#      x y z
#    x 3.792620 0.000000 -0.389800 
#    y 0.000000 3.600360 0.000000 
#    z -0.389800 0.000000 3.846960 
# 
# 
# High freq. dielectric constant tensor:
#      x y z
#    x 1.798470 0.000000 -0.027010 
#    y 0.000000 1.804860 0.000000 
#    z -0.027010 0.000000 1.814670 
# 
# From -- ./inp_files/27624.got.cif
#   From: 2010.06.25/outbox.cif.g09.slc.cpg/sg15_14_cif.got.tgz:27624.got - 2010.06.28 07:06:18.
