data_PCOD8138471
_publ_section_title
;
Structure prediction by ZEFSAII (Michael W. Deem and Ramdas Pophale) SiO2 
 PCOD8138471
Probable space group: C 2/C
;
_chemical_formula_sum "Si O2"
_cell_formula_units_Z 44
_cell_length_a 20.296360
_cell_length_b 13.245207
_cell_length_c 13.449485
_cell_angle_alpha 90.000000
_cell_angle_beta 147.226894
_cell_angle_gamma 90.000000
_cell_volume 1957.183290
_symmetry_space_group_name_H-M "C 2/C"
_symmetry_group_IT_number 15
_symmetry_cell_setting 'monoclinic'
loop_
_space_group_symop_operation_xyz
x,y,z
-x,y,1/2-z
-x,-y,-z
x,-y,1/2+z
1/2+x,1/2+y,z
1/2-x,1/2+y,1/2-z
1/2-x,1/2-y,-z
1/2+x,1/2-y,1/2+z
loop_
_atom_site_type_symbol
_atom_site_label
_atom_site_fract_x
_atom_site_fract_y
_atom_site_fract_z
Si Si1 0.500000 0.287939 0.750000
Si Si2 0.415750 0.934627 0.548374
Si Si3 0.677192 0.846851 0.581556
Si Si4 0.423877 0.431679 0.824353
Si Si5 0.201896 0.883880 0.404471
Si Si6 0.885113 0.689896 0.286609
O O1 0.382039 0.214524 0.586513
O O2 0.497640 0.355036 0.847698
O O3 0.500000 0.942006 0.750000
O O4 0.291031 0.879751 0.421528
O O5 0.485645 0.868758 0.553611
O O6 0.388878 0.047208 0.477950
O O7 0.820714 0.864855 0.747861
O O8 0.651300 0.782621 0.647669
O O9 0.362944 0.508810 0.669680
O O10 0.500000 0.500000 0.000000
O O11 0.104503 0.794016 0.263647
O O12 0.275246 0.875112 0.600082
#
# Coordination Sequence:
#
# PCOD8138471 Si02
#       6
#     4   8   8   8   8   8
#     4  12  26  46  72  98 140 182 222 290 344 404
#     4   9  18  38  61  90 130 167 215 274 327 388
#     4  11  23  42  67  99 132 179 229 275 337 414
#     4  11  26  46  67  98 137 181 229 281 344 411
#     4   9  21  39  59  92 133 169 224 279 331 398
#     4  10  20  37  65  97 127 175 221 279 337 397
#
# _framework density 22.481286999999998
#
# number of rings (size 3 to 8) (size 9 to 14) (size 15 to 20)
#    0.000    1.818    0.909    2.182    2.545    2.909 
#    4.909    0.000    0.000    0.000    0.000    0.000 
#    0.000    0.000    0.000    0.000    0.000    0.000 
#
# Total GULP energy -272654.891682 kJ/mol
# GULP energy per Si atom -12393.404167 kJ/mol
# Density = 2.243012 g / cm^3
# Si number density = 22.481287 Si / 1000 Ang^3
#
#
#
# Elastic Constant Matrix: (Units=GPa)
#
#
# Indices 1 2 3 4 5 6 
#
# 1 82.2745 32.9880 32.3971 0.0000 2.1683 0.0000
# 2 32.9880 56.5282 40.6521 0.0000 2.5988 0.0000
# 3 32.3971 40.6521 79.8761 0.0000 6.3983 0.0000
# 4 0.0000 0.0000 0.0000 37.1885 0.0000 -4.6416
# 5 2.1683 2.5988 6.3983 0.0000 29.7679 0.0000
# 6 0.0000 0.0000 0.0000 -4.6416 0.0000 29.4034
#
#
#
# Elastic Compliance Matrix: (Units=1/GPa)
#
#
# Indices 1 2 3 4 5 6 
#
# 1 0.016250 -0.007480 -0.002790 0.000000 0.000069 0.000000
# 2 -0.007480 0.031357 -0.012973 0.000000 0.000596 0.000000
# 3 -0.002790 -0.012973 0.020499 0.000000 -0.003070 0.000000
# 4 0.000000 0.000000 0.000000 0.027430 0.000000 0.004330
# 5 0.000069 0.000596 -0.003070 0.000000 0.034196 0.000000
# 6 0.000000 0.000000 0.000000 0.004330 0.000000 0.034693
#
#
# Mechanical properties :
#
#
# Convention : Reuss Voigt Hill
#
# Bulk Modulus (GPa) = 46.24984 47.86147 47.05566
# Shear Modulus (GPa) = 22.92325 26.78140 24.85233
#
# Velocity S-wave (km/s) = 3.19667 3.45523 3.32846
# Velocity P-wave (km/s) = 5.85169 6.10359 5.97897
#
# Compressibility (1/GPa) = 0.02162170
#
# Stress axis : x y z
#
# Youngs Moduli (GPa) = 61.53760 31.89030 48.78253
#
# Poissons Ratio (x) = 0.23855 0.13608
# Poissons Ratio (y) = 0.46031 0.63285
# Poissons Ratio (z) = 0.17166 0.41371
#
# Static dielectric constant tensor:
#      x y z
#    x 3.821830 0.000000 0.204430 
#    y 0.000000 1.143810 0.000000 
#    z 0.204430 0.000000 4.211610 
# 
# 
# High freq. dielectric constant tensor:
#      x y z
#    x 1.862900 0.000000 -0.000440 
#    y 0.000000 1.898460 0.000000 
#    z -0.000440 0.000000 1.882850 
# 
# From -- ./inp_files/168556.got.cif
#   From: 2010.06.25/outbox.cif.g09.slc.cpg/sg15_85_cif.got.tgz:168556.got - 2010.06.28 07:06:18.
