data_PCOD8138539
_publ_section_title
;
Structure prediction by ZEFSAII (Michael W. Deem and Ramdas Pophale) SiO2 
 PCOD8138539
Probable space group: C 2/C
;
_chemical_formula_sum "Si O2"
_cell_formula_units_Z 52
_cell_length_a 11.212443
_cell_length_b 23.509545
_cell_length_c 13.248452
_cell_angle_alpha 90.000000
_cell_angle_beta 44.439625
_cell_angle_gamma 90.000000
_cell_volume 2445.148419
_symmetry_space_group_name_H-M "C 2/C"
_symmetry_group_IT_number 15
_symmetry_cell_setting 'monoclinic'
loop_
_space_group_symop_operation_xyz
x,y,z
-x,y,1/2-z
-x,-y,-z
x,-y,1/2+z
1/2+x,1/2+y,z
1/2-x,1/2+y,1/2-z
1/2-x,1/2-y,-z
1/2+x,1/2-y,1/2+z
loop_
_atom_site_type_symbol
_atom_site_label
_atom_site_fract_x
_atom_site_fract_y
_atom_site_fract_z
Si Si1 0.632002 0.923074 0.565049
Si Si2 0.000000 0.525302 0.750000
Si Si3 0.486445 0.283835 0.923229
Si Si4 0.550874 0.382295 0.018047
Si Si5 0.223830 0.552902 0.789665
Si Si6 0.274125 0.920608 0.717617
Si Si7 0.759519 0.314584 0.602242
O O1 0.779817 0.881422 0.514941
O O2 0.643397 0.920348 0.437224
O O3 0.430810 0.905777 0.702252
O O4 0.645059 0.986412 0.606023
O O5 0.899863 0.564886 0.730907
O O6 0.495326 0.317955 0.024585
O O7 0.662372 0.284071 0.754660
O O8 0.342205 0.312677 0.940772
O O9 0.437393 0.218943 0.980144
O O10 0.596905 0.409468 0.881713
O O11 0.407778 0.419707 0.158955
O O12 0.229564 0.485969 0.811368
O O13 0.290464 0.880767 0.609210
#
# Coordination Sequence:
#
# PCOD8138539 Si02
#       7
#     8   4   8   8   8   8   8
#     4  11  21  38  56  82 123 163 197 245 301 365
#     4  10  20  38  56  78 122 158 204 244 300 358
#     4   9  20  37  62  86 118 152 200 258 306 351
#     4  11  21  38  57  87 121 157 194 252 302 354
#     4  11  23  36  58  89 120 162 205 247 297 362
#     4  10  20  38  60  81 119 163 198 241 306 364
#     4   9  19  39  60  90 113 154 207 252 301 361
#
# _framework density 21.266603
#
# number of rings (size 3 to 8) (size 9 to 14) (size 15 to 20)
#    0.000    1.846    3.077    2.769    0.000    3.692 
#    8.308    2.308    0.000    1.846    0.000    0.000 
#    0.000    0.000    0.000    0.000    0.000    0.000 
#
# Total GULP energy -322232.228301 kJ/mol
# GULP energy per Si atom -12393.547242 kJ/mol
# Density = 2.121820 g / cm^3
# Si number density = 21.266603 Si / 1000 Ang^3
#
#
#
# Elastic Constant Matrix: (Units=GPa)
#
#
# Indices 1 2 3 4 5 6 
#
# 1 78.8155 12.1350 31.0471 0.0000 10.0654 0.0000
# 2 12.1350 52.1287 24.1553 0.0000 4.7371 0.0000
# 3 31.0471 24.1553 79.0323 0.0000 -6.0555 0.0000
# 4 0.0000 0.0000 0.0000 29.3931 0.0000 5.9725
# 5 10.0654 4.7371 -6.0555 0.0000 27.6021 0.0000
# 6 0.0000 0.0000 0.0000 5.9725 0.0000 28.8844
#
#
#
# Elastic Compliance Matrix: (Units=1/GPa)
#
#
# Indices 1 2 3 4 5 6 
#
# 1 0.016418 0.000143 -0.007073 0.000000 -0.007563 0.000000
# 2 0.000143 0.023178 -0.007576 0.000000 -0.005692 0.000000
# 3 -0.007073 -0.007576 0.018353 0.000000 0.007906 0.000000
# 4 0.000000 0.000000 0.000000 0.035514 0.000000 -0.007343
# 5 -0.007563 -0.005692 0.007906 0.000000 0.041698 0.000000
# 6 0.000000 0.000000 0.000000 -0.007343 0.000000 0.036139
#
#
# Mechanical properties :
#
#
# Convention : Reuss Voigt Hill
#
# Bulk Modulus (GPa) = 34.55881 38.29457 36.42669
# Shear Modulus (GPa) = 23.81432 26.68520 25.24976
#
# Velocity S-wave (km/s) = 3.34997 3.54615 3.44945
# Velocity P-wave (km/s) = 5.59005 5.90025 5.74724
#
# Compressibility (1/GPa) = 0.02893618
#
# Stress axis : x y z
#
# Youngs Moduli (GPa) = 60.90936 43.14434 54.48746
#
# Poissons Ratio (x) = -0.00616 0.38537
# Poissons Ratio (y) = -0.00869 0.41281
# Poissons Ratio (z) = 0.43079 0.32687
#
# Static dielectric constant tensor:
#      x y z
#    x 3.905170 0.000000 0.051900 
#    y 0.000000 3.508780 0.000000 
#    z 0.051900 0.000000 3.988530 
# 
# 
# High freq. dielectric constant tensor:
#      x y z
#    x 1.832490 0.000000 0.005140 
#    y 0.000000 1.792240 0.000000 
#    z 0.005140 0.000000 1.845300 
# 
# From -- ./inp_files/148051.got.cif
#   From: 2010.06.25/outbox.cif.g09.slc.cpg/sg15_75_cif.got.tgz:148051.got - 2010.06.28 07:06:18.
