data_PCOD8138004
_publ_section_title
;
Structure prediction by ZEFSAII (Michael W. Deem and Ramdas Pophale) SiO2 
 PCOD8138004
Probable space group: C 2/C
;
_chemical_formula_sum "Si O2"
_cell_formula_units_Z 48
_cell_length_a 13.463981
_cell_length_b 22.369649
_cell_length_c 9.497364
_cell_angle_alpha 90.000000
_cell_angle_beta 63.128928
_cell_angle_gamma 90.000000
_cell_volume 2551.603450
_symmetry_space_group_name_H-M "C 2/C"
_symmetry_group_IT_number 15
_symmetry_cell_setting 'monoclinic'
loop_
_space_group_symop_operation_xyz
x,y,z
-x,y,1/2-z
-x,-y,-z
x,-y,1/2+z
1/2+x,1/2+y,z
1/2-x,1/2+y,1/2-z
1/2-x,1/2-y,-z
1/2+x,1/2-y,1/2+z
loop_
_atom_site_type_symbol
_atom_site_label
_atom_site_fract_x
_atom_site_fract_y
_atom_site_fract_z
Si Si1 0.517864 0.700008 0.080464
Si Si2 0.538594 0.080857 0.369727
Si Si3 0.350144 0.186477 0.051720
Si Si4 0.708451 0.253407 0.869284
Si Si5 0.598949 0.046828 0.792795
Si Si6 0.263766 0.648973 0.646301
O O1 0.500000 0.674227 0.250000
O O2 0.402953 0.706590 0.068196
O O3 0.559950 0.768078 0.068275
O O4 0.600917 0.655949 0.936626
O O5 0.500000 0.113990 0.250000
O O6 0.600770 0.122851 0.438788
O O7 0.431455 0.057747 0.524375
O O8 0.616001 0.024814 0.269628
O O9 0.303105 0.213006 0.224117
O O10 0.257593 0.178458 0.992154
O O11 0.699624 0.186483 0.809139
O O12 0.750000 0.250000 0.000000
O O13 0.500000 0.068166 0.750000
O O14 0.714810 0.081607 0.684004
#
# Coordination Sequence:
#
# PCOD8138004 Si02
#       6
#     8   8   8   8   8   8
#     4  11  20  37  57  83 115 153 196 234 287 356
#     4  10  22  34  55  85 118 150 189 246 301 343
#     4  11  21  34  56  83 111 154 192 232 288 357
#     4  11  24  36  54  86 117 151 191 242 296 347
#     4  10  20  37  56  84 115 150 194 243 297 353
#     4  11  21  36  59  81 113 157 193 233 290 354
#
# _framework density 18.811699000000001
#
# number of rings (size 3 to 8) (size 9 to 14) (size 15 to 20)
#    0.000    1.333    5.000    2.000    4.667    2.000 
#    0.000    0.000    0.000    1.000    0.000    0.000 
#    0.000    0.000    0.000    0.000    0.000    0.000 
#
# Total GULP energy -297421.907003 kJ/mol
# GULP energy per Si atom -12392.579458 kJ/mol
# Density = 1.876888 g / cm^3
# Si number density = 18.811699 Si / 1000 Ang^3
#
#
#
# Elastic Constant Matrix: (Units=GPa)
#
#
# Indices 1 2 3 4 5 6 
#
# 1 69.7357 10.0283 22.5777 0.0000 0.3554 0.0000
# 2 10.0283 73.9805 10.8677 0.0000 -11.3179 0.0000
# 3 22.5777 10.8677 84.4619 0.0000 9.4816 0.0000
# 4 0.0000 0.0000 0.0000 22.1555 0.0000 0.8533
# 5 0.3554 -11.3179 9.4816 0.0000 35.6708 0.0000
# 6 0.0000 0.0000 0.0000 0.8533 0.0000 21.2439
#
#
#
# Elastic Compliance Matrix: (Units=1/GPa)
#
#
# Indices 1 2 3 4 5 6 
#
# 1 0.015880 -0.001478 -0.004107 0.000000 0.000464 0.000000
# 2 -0.001478 0.014835 -0.002107 0.000000 0.005282 0.000000
# 3 -0.004107 -0.002107 0.013687 0.000000 -0.004266 0.000000
# 4 0.000000 0.000000 0.000000 0.045206 0.000000 -0.001816
# 5 0.000464 0.005282 -0.004266 0.000000 0.030839 0.000000
# 6 0.000000 0.000000 0.000000 -0.001816 0.000000 0.047145
#
#
# Mechanical properties :
#
#
# Convention : Reuss Voigt Hill
#
# Bulk Modulus (GPa) = 34.46035 35.01394 34.73714
# Shear Modulus (GPa) = 25.95409 28.12767 27.04088
#
# Velocity S-wave (km/s) = 3.71843 3.87101 3.79549
# Velocity P-wave (km/s) = 6.06580 6.21553 6.14112
#
# Compressibility (1/GPa) = 0.02901886
#
# Stress axis : x y z
#
# Youngs Moduli (GPa) = 62.97363 67.40855 73.06017
#
# Poissons Ratio (x) = 0.09964 0.30004
# Poissons Ratio (y) = 0.09309 0.15391
# Poissons Ratio (z) = 0.25862 0.14200
#
# Static dielectric constant tensor:
#      x y z
#    x 3.277540 0.000000 0.041640 
#    y 0.000000 3.464330 0.000000 
#    z 0.041640 0.000000 3.525220 
# 
# 
# High freq. dielectric constant tensor:
#      x y z
#    x 1.706330 0.000000 0.009930 
#    y 0.000000 1.707310 0.000000 
#    z 0.009930 0.000000 1.744580 
# 
# From -- ./inp_files/32496.got.cif
#   From: 2010.06.25/outbox.cif.g09.slc.cpg/sg15_17_cif.got.tgz:32496.got - 2010.06.28 07:06:18.
