data_PCOD8138853
_publ_section_title
;
Structure prediction by ZEFSAII (Michael W. Deem and Ramdas Pophale) SiO2 
 PCOD8138853
Probable space group: C 2/C
;
_chemical_formula_sum "Si O2"
_cell_formula_units_Z 40
_cell_length_a 12.869108
_cell_length_b 13.531814
_cell_length_c 13.920822
_cell_angle_alpha 90.000000
_cell_angle_beta 125.634190
_cell_angle_gamma 90.000000
_cell_volume 1970.280499
_symmetry_space_group_name_H-M "C 2/C"
_symmetry_group_IT_number 15
_symmetry_cell_setting 'monoclinic'
loop_
_space_group_symop_operation_xyz
x,y,z
-x,y,1/2-z
-x,-y,-z
x,-y,1/2+z
1/2+x,1/2+y,z
1/2-x,1/2+y,1/2-z
1/2-x,1/2-y,-z
1/2+x,1/2-y,1/2+z
loop_
_atom_site_type_symbol
_atom_site_label
_atom_site_fract_x
_atom_site_fract_y
_atom_site_fract_z
Si Si1 0.355250 0.529841 0.159342
Si Si2 0.437550 0.226858 0.092739
Si Si3 0.777455 0.825701 0.155981
Si Si4 0.885614 0.936593 0.978607
Si Si5 0.715083 0.847090 0.727126
O O1 0.500000 0.567185 0.250000
O O2 0.334612 0.431852 0.214781
O O3 0.261180 0.615802 0.146984
O O4 0.324021 0.498563 0.033583
O O5 0.390510 0.251252 0.176638
O O6 0.561449 0.157738 0.147312
O O7 0.328271 0.160930 0.983120
O O8 0.447857 0.332873 0.045659
O O9 0.731033 0.765396 0.225417
O O10 0.774513 0.919751 0.840197
O O11 0.000000 0.000000 0.000000
#
# Coordination Sequence:
#
# PCOD8138853 Si02
#       5
#     8   8   8   8   8
#     4  11  21  36  61  88 118 160 205 243 301 367
#     4   9  19  36  59  88 114 152 202 254 300 348
#     4   9  19  36  59  84 115 153 205 248 293 366
#     4  10  20  38  62  88 118 159 208 245 298 368
#     4  11  21  34  63  90 119 155 198 258 299 349
#
# _framework density 20.301679
#
# number of rings (size 3 to 8) (size 9 to 14) (size 15 to 20)
#    0.000    2.000    2.000    4.200    0.000    0.800 
#    0.000    1.000    0.000    2.400    0.000    0.000 
#    0.000    0.000    0.000    0.000    0.000    0.000 
#
# Total GULP energy -247770.062793 kJ/mol
# GULP energy per Si atom -12388.503140 kJ/mol
# Density = 2.025547 g / cm^3
# Si number density = 20.301679 Si / 1000 Ang^3
#
#
#
# Elastic Constant Matrix: (Units=GPa)
#
#
# Indices 1 2 3 4 5 6 
#
# 1 123.2830 70.1520 44.6850 0.0000 8.5821 0.0000
# 2 70.1520 67.0260 19.7502 0.0000 -1.0681 0.0000
# 3 44.6850 19.7502 57.1078 0.0000 7.3056 0.0000
# 4 0.0000 0.0000 0.0000 23.7872 0.0000 4.0393
# 5 8.5821 -1.0681 7.3056 0.0000 37.0112 0.0000
# 6 0.0000 0.0000 0.0000 4.0393 0.0000 52.8363
#
#
#
# Elastic Compliance Matrix: (Units=1/GPa)
#
#
# Indices 1 2 3 4 5 6 
#
# 1 0.026619 -0.024460 -0.011787 0.000000 -0.004552 0.000000
# 2 -0.024460 0.039188 0.004838 0.000000 0.005848 0.000000
# 3 -0.011787 0.004838 0.025333 0.000000 -0.002128 0.000000
# 4 0.000000 0.000000 0.000000 0.042592 0.000000 -0.003256
# 5 -0.004552 0.005848 -0.002128 0.000000 0.028663 0.000000
# 6 0.000000 0.000000 0.000000 -0.003256 0.000000 0.019175
#
#
# Mechanical properties :
#
#
# Convention : Reuss Voigt Hill
#
# Bulk Modulus (GPa) = 35.30806 57.39900 46.35353
# Shear Modulus (GPa) = 19.69840 30.24890 24.97365
#
# Velocity S-wave (km/s) = 3.11832 3.86420 3.51112
# Velocity P-wave (km/s) = 5.51314 6.94578 6.27051
#
# Compressibility (1/GPa) = 0.02832215
#
# Stress axis : x y z
#
# Youngs Moduli (GPa) = 37.56719 25.51826 39.47474
#
# Poissons Ratio (x) = 0.62417 0.46529
# Poissons Ratio (y) = 0.91888 -0.19099
# Poissons Ratio (z) = 0.44281 -0.12346
#
# Static dielectric constant tensor:
#      x y z
#    x 3.669320 0.000000 -0.001490 
#    y 0.000000 3.659930 0.000000 
#    z -0.001490 0.000000 3.845320 
# 
# 
# High freq. dielectric constant tensor:
#      x y z
#    x 1.774880 0.000000 0.010020 
#    y 0.000000 1.770840 0.000000 
#    z 0.010020 0.000000 1.801830 
# 
# From -- ./inp_files/142613.got.cif
#   From: 2010.06.25/outbox.cif.g09.slc.cpg/sg15_72_cif.got.tgz:142613.got - 2010.06.28 07:06:18.
