data_PCOD8138080
_publ_section_title
;
Structure prediction by ZEFSAII (Michael W. Deem and Ramdas Pophale) SiO2 
 PCOD8138080
Probable space group: C 2/C
;
_chemical_formula_sum "Si O2"
_cell_formula_units_Z 56
_cell_length_a 18.584778
_cell_length_b 23.935931
_cell_length_c 8.535061
_cell_angle_alpha 90.000000
_cell_angle_beta 46.740996
_cell_angle_gamma 90.000000
_cell_volume 2765.048459
_symmetry_space_group_name_H-M "C 2/C"
_symmetry_group_IT_number 15
_symmetry_cell_setting 'monoclinic'
loop_
_space_group_symop_operation_xyz
x,y,z
-x,y,1/2-z
-x,-y,-z
x,-y,1/2+z
1/2+x,1/2+y,z
1/2-x,1/2+y,1/2-z
1/2-x,1/2-y,-z
1/2+x,1/2-y,1/2+z
loop_
_atom_site_type_symbol
_atom_site_label
_atom_site_fract_x
_atom_site_fract_y
_atom_site_fract_z
Si Si1 0.000000 0.716513 0.250000
Si Si2 0.511466 0.859278 0.046879
Si Si3 0.850775 0.111199 0.680712
Si Si4 0.725275 0.886560 0.787990
Si Si5 0.500000 0.553568 0.250000
Si Si6 0.192047 0.982329 0.018760
Si Si7 0.306259 0.091330 0.827656
Si Si8 0.673374 0.707009 0.548243
O O1 0.091151 0.757249 0.084763
O O2 0.013262 0.684834 0.398430
O O3 0.500000 0.837185 0.250000
O O4 0.423546 0.901456 0.129169
O O5 0.614384 0.893114 0.883133
O O6 0.805826 0.056982 0.833902
O O7 0.760590 0.123953 0.698391
O O8 0.871434 0.165733 0.752418
O O9 0.955931 0.094413 0.448633
O O10 0.791878 0.941321 0.653300
O O11 0.773014 0.830087 0.658606
O O12 0.724514 0.876492 0.971586
O O13 0.587729 0.514019 0.177519
O O14 0.282381 0.025726 0.880918
O O15 0.750000 0.750000 0.500000
#
# Coordination Sequence:
#
# PCOD8138080 Si02
#       8
#     4   8   8   8   4   8   8   8
#     4  12  24  43  70  88 122 173 206 268 334 362
#     4  10  23  43  63  92 126 162 214 265 310 378
#     4  10  22  37  60  92 125 162 207 260 302 383
#     4  10  22  41  61  88 128 158 208 262 300 380
#     4  10  20  37  58  90 134 159 204 250 314 372
#     4  10  21  37  63  89 125 170 202 244 312 379
#     4  10  20  38  61  92 124 163 202 253 319 363
#     4  11  23  43  62  89 118 160 218 257 316 378
#
# _framework density 20.252811000000001
#
# number of rings (size 3 to 8) (size 9 to 14) (size 15 to 20)
#    0.000    1.714    1.429    3.000    2.000    6.286 
#    3.857    3.571    0.000    0.000    0.000    0.000 
#    0.000    0.000    0.000    0.000    0.000    0.000 
#
# Total GULP energy -346865.346293 kJ/mol
# GULP energy per Si atom -12388.048082 kJ/mol
# Density = 2.020671 g / cm^3
# Si number density = 20.252811 Si / 1000 Ang^3
#
#
#
# Elastic Constant Matrix: (Units=GPa)
#
#
# Indices 1 2 3 4 5 6 
#
# 1 97.6651 27.6721 30.4758 0.0000 -3.8938 0.0000
# 2 27.6721 102.7085 35.4722 0.0000 -1.2411 0.0000
# 3 30.4758 35.4722 90.9136 0.0000 -3.6193 0.0000
# 4 0.0000 0.0000 0.0000 41.6881 0.0000 -28.4189
# 5 -3.8938 -1.2411 -3.6193 0.0000 36.0389 0.0000
# 6 0.0000 0.0000 0.0000 -28.4189 0.0000 44.1941
#
#
#
# Elastic Compliance Matrix: (Units=1/GPa)
#
#
# Indices 1 2 3 4 5 6 
#
# 1 0.011842 -0.002105 -0.003113 0.000000 0.000894 0.000000
# 2 -0.002105 0.011627 -0.003839 0.000000 -0.000213 0.000000
# 3 -0.003113 -0.003839 0.013577 0.000000 0.000895 0.000000
# 4 0.000000 0.000000 0.000000 0.042711 0.000000 0.027465
# 5 0.000894 -0.000213 0.000895 0.000000 0.027927 0.000000
# 6 0.000000 0.000000 0.000000 0.027465 0.000000 0.040289
#
#
# Mechanical properties :
#
#
# Convention : Reuss Voigt Hill
#
# Bulk Modulus (GPa) = 52.82149 53.16973 52.99561
# Shear Modulus (GPa) = 29.00285 37.56203 33.28244
#
# Velocity S-wave (km/s) = 3.78834 4.31125 4.05822
# Velocity P-wave (km/s) = 6.72852 7.14790 6.94138
#
# Compressibility (1/GPa) = 0.01893169
#
# Stress axis : x y z
#
# Youngs Moduli (GPa) = 84.44193 86.00826 73.65587
#
# Poissons Ratio (x) = 0.18102 0.22929
# Poissons Ratio (y) = 0.17773 0.28280
# Poissons Ratio (z) = 0.26287 0.33022
#
# Static dielectric constant tensor:
#      x y z
#    x 3.750630 0.000000 0.026300 
#    y 0.000000 3.713700 0.000000 
#    z 0.026300 0.000000 3.800560 
# 
# 
# High freq. dielectric constant tensor:
#      x y z
#    x 1.798240 0.000000 0.000040 
#    y 0.000000 1.781040 0.000000 
#    z 0.000040 0.000000 1.806680 
# 
# From -- ./inp_files/51484.got.cif
#   From: 2010.06.25/outbox.cif.g09.slc.cpg/sg15_26_cif.got.tgz:51484.got - 2010.06.28 07:06:18.
