data_PCOD8138530
_publ_section_title
;
Structure prediction by ZEFSAII (Michael W. Deem and Ramdas Pophale) SiO2 
 PCOD8138530
Probable space group: C 2/C
;
_chemical_formula_sum "Si O2"
_cell_formula_units_Z 48
_cell_length_a 28.128136
_cell_length_b 9.690598
_cell_length_c 9.761169
_cell_angle_alpha 90.000000
_cell_angle_beta 100.871448
_cell_angle_gamma 90.000000
_cell_volume 2612.932622
_symmetry_space_group_name_H-M "C 2/C"
_symmetry_group_IT_number 15
_symmetry_cell_setting 'monoclinic'
loop_
_space_group_symop_operation_xyz
x,y,z
-x,y,1/2-z
-x,-y,-z
x,-y,1/2+z
1/2+x,1/2+y,z
1/2-x,1/2+y,1/2-z
1/2-x,1/2-y,-z
1/2+x,1/2-y,1/2+z
loop_
_atom_site_type_symbol
_atom_site_label
_atom_site_fract_x
_atom_site_fract_y
_atom_site_fract_z
Si Si1 0.222057 0.894559 0.342449
Si Si2 0.897566 0.105037 0.439146
Si Si3 0.476048 0.815434 0.373089
Si Si4 0.212281 0.142394 0.148107
Si Si5 0.387721 0.645289 0.745211
Si Si6 0.039385 0.375720 0.660228
O O1 0.225784 0.919218 0.506951
O O2 0.262747 0.788908 0.313683
O O3 0.169743 0.834056 0.272493
O O4 0.232038 0.039026 0.274003
O O5 0.936916 0.213582 0.412529
O O6 0.845170 0.163440 0.367993
O O7 0.901422 0.083489 0.604186
O O8 0.907501 0.959141 0.371323
O O9 0.500000 0.751356 0.250000
O O10 0.520267 0.837968 0.500348
O O11 0.449951 0.961030 0.324231
O O12 0.411131 0.794851 0.782014
O O13 0.000000 0.329203 0.750000
#
# Coordination Sequence:
#
# PCOD8138530 Si02
#       6
#     8   8   8   8   8   8
#     4   9  19  36  56  81 107 140 173 218 263 315
#     4  10  21  37  54  80 108 141 176 220 262 314
#     4  10  22  36  55  78 107 140 181 220 262 310
#     4   9  19  36  57  78 109 139 176 216 264 312
#     4  10  21  36  56  79 109 139 178 217 264 313
#     4  10  20  38  55  75 106 144 176 221 264 308
#
# _framework density 18.370163999999999
#
# number of rings (size 3 to 8) (size 9 to 14) (size 15 to 20)
#    0.000    2.333    1.667    0.000    2.333    3.333 
#    0.000    0.000    0.000    0.000    0.000    0.000 
#    0.000    0.000    0.000    0.000    0.000    0.000 
#
# Total GULP energy -297670.418093 kJ/mol
# GULP energy per Si atom -12402.934087 kJ/mol
# Density = 1.832835 g / cm^3
# Si number density = 18.370164 Si / 1000 Ang^3
#
#
#
# Elastic Constant Matrix: (Units=GPa)
#
#
# Indices 1 2 3 4 5 6 
#
# 1 46.9869 17.4229 3.2338 0.0000 -7.5035 0.0000
# 2 17.4229 41.0232 5.2197 0.0000 0.0276 0.0000
# 3 3.2338 5.2197 73.3788 0.0000 -2.0519 0.0000
# 4 0.0000 0.0000 0.0000 31.1383 0.0000 -0.7866
# 5 -7.5035 0.0276 -2.0519 0.0000 22.7966 0.0000
# 6 0.0000 0.0000 0.0000 -0.7866 0.0000 30.7279
#
#
#
# Elastic Compliance Matrix: (Units=1/GPa)
#
#
# Indices 1 2 3 4 5 6 
#
# 1 0.026948 -0.011435 -0.000126 0.000000 0.008873 0.000000
# 2 -0.011435 0.029452 -0.001702 0.000000 -0.003953 0.000000
# 3 -0.000126 -0.001702 0.013788 0.000000 0.001202 0.000000
# 4 0.000000 0.000000 0.000000 0.032136 0.000000 0.000823
# 5 0.008873 -0.003953 0.001202 0.000000 0.046900 0.000000
# 6 0.000000 0.000000 0.000000 0.000823 0.000000 0.032565
#
#
# Mechanical properties :
#
#
# Convention : Reuss Voigt Hill
#
# Bulk Modulus (GPa) = 22.90270 23.68242 23.29256
# Shear Modulus (GPa) = 22.43476 25.96672 24.20074
#
# Velocity S-wave (km/s) = 3.49845 3.76377 3.63353
# Velocity P-wave (km/s) = 5.36780 5.63983 5.50549
#
# Compressibility (1/GPa) = 0.04366297
#
# Stress axis : x y z
#
# Youngs Moduli (GPa) = 37.10809 33.95334 72.52622
#
# Poissons Ratio (x) = 0.38826 0.00914
# Poissons Ratio (y) = 0.42434 0.12341
# Poissons Ratio (z) = 0.00468 0.05778
#
# Static dielectric constant tensor:
#      x y z
#    x 3.293820 0.000000 -0.054420 
#    y 0.000000 3.262190 0.000000 
#    z -0.054420 0.000000 3.612620 
# 
# 
# High freq. dielectric constant tensor:
#      x y z
#    x 1.705220 0.000000 -0.004020 
#    y 0.000000 1.702160 0.000000 
#    z -0.004020 0.000000 1.726590 
# 
# From -- ./inp_files/68545.got.cif
#   From: 2010.06.25/outbox.cif.g09.slc.cpg/sg15_35_cif.got.tgz:68545.got - 2010.06.28 07:06:18.
