data_PCOD8138416
_publ_section_title
;
Structure prediction by ZEFSAII (Michael W. Deem and Ramdas Pophale) SiO2 
 PCOD8138416
Probable space group: C 2/C
;
_chemical_formula_sum "Si O2"
_cell_formula_units_Z 44
_cell_length_a 17.522655
_cell_length_b 10.416117
_cell_length_c 27.438435
_cell_angle_alpha 90.000000
_cell_angle_beta 154.570646
_cell_angle_gamma 90.000000
_cell_volume 2150.428415
_symmetry_space_group_name_H-M "C 2/C"
_symmetry_group_IT_number 15
_symmetry_cell_setting 'monoclinic'
loop_
_space_group_symop_operation_xyz
x,y,z
-x,y,1/2-z
-x,-y,-z
x,-y,1/2+z
1/2+x,1/2+y,z
1/2-x,1/2+y,1/2-z
1/2-x,1/2-y,-z
1/2+x,1/2-y,1/2+z
loop_
_atom_site_type_symbol
_atom_site_label
_atom_site_fract_x
_atom_site_fract_y
_atom_site_fract_z
Si Si1 0.390502 0.590933 0.494282
Si Si2 0.329678 0.211416 0.301505
Si Si3 0.487873 0.316147 0.946933
Si Si4 0.500000 0.424131 0.250000
Si Si5 0.173445 0.585783 0.098844
Si Si6 0.908186 0.707892 0.124479
O O1 0.550537 0.666334 0.613992
O O2 0.419645 0.441576 0.521938
O O3 0.383271 0.635361 0.434283
O O4 0.185007 0.613166 0.390940
O O5 0.282626 0.120460 0.319774
O O6 0.442629 0.139682 0.323592
O O7 0.143812 0.249452 0.168559
O O8 0.638359 0.213842 0.047504
O O9 0.329926 0.512776 0.161478
O O10 0.483172 0.335988 0.192883
O O11 0.000000 0.500000 0.000000
O O12 0.750000 0.750000 0.000000
#
# Coordination Sequence:
#
# PCOD8138416 Si02
#       6
#     8   8   8   4   8   8
#     4   9  20  38  58  91 126 163 218 266 308 385
#     4  10  21  37  65  90 121 173 212 257 328 374
#     4  10  21  38  60  90 133 162 205 267 323 381
#     4  12  24  42  70  94 132 168 218 266 326 386
#     4  11  24  42  65  98 130 167 212 269 322 390
#     4  10  20  37  64  92 118 164 220 260 306 383
#
# _framework density 20.461040000000001
#
# number of rings (size 3 to 8) (size 9 to 14) (size 15 to 20)
#    0.000    1.818    0.000    5.455    7.636    0.000 
#    0.000    7.273    0.000    0.000    0.000    0.000 
#    0.000    0.000    0.000    0.000    0.000    0.000 
#
# Total GULP energy -272625.427747 kJ/mol
# GULP energy per Si atom -12392.064898 kJ/mol
# Density = 2.041447 g / cm^3
# Si number density = 20.461040 Si / 1000 Ang^3
#
#
#
# Elastic Constant Matrix: (Units=GPa)
#
#
# Indices 1 2 3 4 5 6 
#
# 1 90.4372 29.4862 40.2536 0.0003 4.9627 -0.0002
# 2 29.4862 100.2296 39.7405 0.0014 2.5236 -0.0004
# 3 40.2536 39.7405 99.0133 0.0101 -7.1267 -0.0012
# 4 0.0003 0.0014 0.0101 26.9362 -0.0005 7.6353
# 5 4.9627 2.5236 -7.1267 -0.0005 42.9147 -0.0003
# 6 -0.0002 -0.0004 -0.0012 7.6353 -0.0003 22.5020
#
#
#
# Elastic Compliance Matrix: (Units=1/GPa)
#
#
# Indices 1 2 3 4 5 6 
#
# 1 0.014125 -0.002084 -0.005076 0.000002 -0.002354 -0.000001
# 2 -0.002084 0.012270 -0.004162 0.000001 -0.001172 0.000000
# 3 -0.005076 -0.004162 0.014062 -0.000006 0.003167 0.000003
# 4 0.000002 0.000001 -0.000006 0.041076 -0.000001 -0.013938
# 5 -0.002354 -0.001172 0.003167 -0.000001 0.024169 0.000001
# 6 -0.000001 0.000000 0.000003 -0.013938 0.000001 0.049170
#
#
# Mechanical properties :
#
#
# Convention : Reuss Voigt Hill
#
# Bulk Modulus (GPa) = 56.13569 56.51565 56.32567
# Shear Modulus (GPa) = 27.25524 30.48391 28.86958
#
# Velocity S-wave (km/s) = 3.65369 3.86405 3.76034
# Velocity P-wave (km/s) = 6.73010 6.89847 6.81481
#
# Compressibility (1/GPa) = 0.01781398
#
# Stress axis : x y z
#
# Youngs Moduli (GPa) = 70.79601 81.50131 71.11612
#
# Poissons Ratio (x) = 0.16982 0.36096
# Poissons Ratio (y) = 0.14752 0.29598
# Poissons Ratio (z) = 0.35933 0.33920
#
# Static dielectric constant tensor:
#      x y z
#    x 4.895650 -0.000010 0.454340 
#    y -0.000010 3.599160 -0.000010 
#    z 0.454340 -0.000010 4.092640 
# 
# 
# High freq. dielectric constant tensor:
#      x y z
#    x 1.810570 0.000000 -0.013170 
#    y 0.000000 1.778240 0.000000 
#    z -0.013170 0.000000 1.807050 
# 
# From -- ./inp_files/316273.got.cif
#   From: 2010.06.25/outbox.cif.g09.slc.cpg/sg15_159_cif.got.tgz:316273.got - 2010.06.28 07:06:18.
