data_PCOD8138129
_publ_section_title
;
Structure prediction by ZEFSAII (Michael W. Deem and Ramdas Pophale) SiO2 
 PCOD8138129
Probable space group: C 2/C
;
_chemical_formula_sum "Si O2"
_cell_formula_units_Z 52
_cell_length_a 13.756385
_cell_length_b 23.103669
_cell_length_c 8.717931
_cell_angle_alpha 90.000000
_cell_angle_beta 112.761770
_cell_angle_gamma 90.000000
_cell_volume 2554.976188
_symmetry_space_group_name_H-M "C 2/C"
_symmetry_group_IT_number 15
_symmetry_cell_setting 'monoclinic'
loop_
_space_group_symop_operation_xyz
x,y,z
-x,y,1/2-z
-x,-y,-z
x,-y,1/2+z
1/2+x,1/2+y,z
1/2-x,1/2+y,1/2-z
1/2-x,1/2-y,-z
1/2+x,1/2-y,1/2+z
loop_
_atom_site_type_symbol
_atom_site_label
_atom_site_fract_x
_atom_site_fract_y
_atom_site_fract_z
Si Si1 0.042253 0.323693 0.439905
Si Si2 0.589984 0.957426 0.488962
Si Si3 0.333609 0.816488 0.475490
Si Si4 0.692809 0.419903 0.398134
Si Si5 0.766537 0.495667 0.183325
Si Si6 0.500000 0.659905 0.750000
Si Si7 0.842663 0.756268 0.285849
O O1 0.058102 0.391542 0.456130
O O2 0.143767 0.285270 0.556483
O O3 0.000000 0.302987 0.250000
O O4 0.955285 0.311074 0.513531
O O5 0.691763 0.961187 0.660182
O O6 0.500000 0.000000 0.500000
O O7 0.628392 0.973481 0.340934
O O8 0.299025 0.882519 0.488620
O O9 0.263768 0.795205 0.284104
O O10 0.322062 0.781012 0.622517
O O11 0.699060 0.445069 0.227510
O O12 0.689027 0.471180 0.520283
O O13 0.590936 0.381028 0.373646
O O14 0.555243 0.701243 0.657543
#
# Coordination Sequence:
#
# PCOD8138129 Si02
#       7
#     8   8   8   8   8   4   8
#     4  12  22  34  56  85 119 152 181 236 301 348
#     4  11  21  35  56  86 121 150 186 229 291 363
#     4  10  20  37  60  82 109 153 192 244 283 340
#     4  10  21  36  62  82 117 149 192 245 292 347
#     4  10  21  37  54  88 116 152 188 233 293 354
#     4  10  20  40  62  80 106 154 210 246 278 336
#     4  10  21  38  59  82 109 147 209 239 278 346
#
# _framework density 20.352440999999999
#
# number of rings (size 3 to 8) (size 9 to 14) (size 15 to 20)
#    0.000    1.538    1.538    5.077    0.000    2.462 
#    0.000    0.000    6.769    0.000    0.000    0.000 
#    0.000    0.000    0.000    0.000    0.000    0.000 
#
# Total GULP energy -322152.621379 kJ/mol
# GULP energy per Si atom -12390.485438 kJ/mol
# Density = 2.030612 g / cm^3
# Si number density = 20.352441 Si / 1000 Ang^3
#
#
#
# Elastic Constant Matrix: (Units=GPa)
#
#
# Indices 1 2 3 4 5 6 
#
# 1 33.9323 17.6338 14.6912 0.0000 0.8606 0.0000
# 2 17.6338 106.6288 46.1464 0.0000 2.2401 0.0000
# 3 14.6912 46.1464 103.5507 0.0000 -4.6914 0.0000
# 4 0.0000 0.0000 0.0000 4.6519 0.0000 -6.1137
# 5 0.8606 2.2401 -4.6914 0.0000 20.7574 0.0000
# 6 0.0000 0.0000 0.0000 -6.1137 0.0000 16.9880
#
#
#
# Elastic Compliance Matrix: (Units=1/GPa)
#
#
# Indices 1 2 3 4 5 6 
#
# 1 0.032923 -0.004162 -0.002887 0.000000 -0.001568 0.000000
# 2 -0.004162 0.012270 -0.004981 0.000000 -0.002277 0.000000
# 3 -0.002887 -0.004981 0.012444 0.000000 0.003470 0.000000
# 4 0.000000 0.000000 0.000000 0.407885 0.000000 0.146790
# 5 -0.001568 -0.002277 0.003470 0.000000 0.049270 0.000000
# 6 0.000000 0.000000 0.000000 0.146790 0.000000 0.111692
#
#
# Mechanical properties :
#
#
# Convention : Reuss Voigt Hill
#
# Bulk Modulus (GPa) = 29.78266 44.56162 37.17214
# Shear Modulus (GPa) = 7.55587 19.52216 13.53901
#
# Velocity S-wave (km/s) = 1.92888 3.10046 2.58200
# Velocity P-wave (km/s) = 4.43012 5.89573 5.21467
#
# Compressibility (1/GPa) = 0.03357659
#
# Stress axis : x y z
#
# Youngs Moduli (GPa) = 30.37372 81.49939 80.36322
#
# Poissons Ratio (x) = 0.33922 0.23202
# Poissons Ratio (y) = 0.12642 0.40026
# Poissons Ratio (z) = 0.08769 0.40592
#
# Static dielectric constant tensor:
#      x y z
#    x 3.632420 0.000000 0.030710 
#    y 0.000000 3.870850 0.000000 
#    z 0.030710 0.000000 3.759550 
# 
# 
# High freq. dielectric constant tensor:
#      x y z
#    x 1.774230 0.000000 0.006810 
#    y 0.000000 1.807710 0.000000 
#    z 0.006810 0.000000 1.789550 
# 
# From -- ./inp_files/42325.got.cif
#   From: 2010.06.25/outbox.cif.g09.slc.cpg/sg15_22_cif.got.tgz:42325.got - 2010.06.28 07:06:18.
