data_PCOD8138802
_publ_section_title
;
Structure prediction by ZEFSAII (Michael W. Deem and Ramdas Pophale) SiO2 
 PCOD8138802
Probable space group: C 2/C
;
_chemical_formula_sum "Si O2"
_cell_formula_units_Z 52
_cell_length_a 21.298979
_cell_length_b 18.737815
_cell_length_c 8.127695
_cell_angle_alpha 90.000000
_cell_angle_beta 132.518916
_cell_angle_gamma 90.000000
_cell_volume 2390.807373
_symmetry_space_group_name_H-M "C 2/C"
_symmetry_group_IT_number 15
_symmetry_cell_setting 'monoclinic'
loop_
_space_group_symop_operation_xyz
x,y,z
-x,y,1/2-z
-x,-y,-z
x,-y,1/2+z
1/2+x,1/2+y,z
1/2-x,1/2+y,1/2-z
1/2-x,1/2-y,-z
1/2+x,1/2-y,1/2+z
loop_
_atom_site_type_symbol
_atom_site_label
_atom_site_fract_x
_atom_site_fract_y
_atom_site_fract_z
Si Si1 0.957262 0.186088 0.842192
Si Si2 0.983804 0.672077 0.906313
Si Si3 0.348052 0.080056 0.789531
Si Si4 0.203286 0.102889 0.975973
Si Si5 0.384071 0.073308 0.219810
Si Si6 0.500000 0.602610 0.250000
Si Si7 0.172269 0.967119 0.088499
O O1 0.855409 0.173855 0.634051
O O2 0.000000 0.156174 0.750000
O O3 0.982071 0.268827 0.905594
O O4 0.987802 0.148625 0.063380
O O5 0.000000 0.698885 0.750000
O O6 0.883993 0.650241 0.755796
O O7 0.035328 0.599585 0.034241
O O8 0.246104 0.082161 0.634889
O O9 0.369233 0.009524 0.725682
O O10 0.398233 0.080908 0.051026
O O11 0.172852 0.047993 0.782046
O O12 0.302731 0.121905 0.133189
O O13 0.189348 0.052448 0.110561
O O14 0.581053 0.553655 0.352951
#
# Coordination Sequence:
#
# PCOD8138802 Si02
#       7
#     8   8   8   8   8   4   8
#     4  11  24  41  61  89 125 169 210 248 312 375
#     4  12  24  41  60  84 124 169 212 259 308 369
#     4  10  20  38  61  94 120 157 207 256 317 366
#     4   9  21  37  61  93 125 156 203 258 307 373
#     4  10  20  38  63  90 124 158 205 259 311 369
#     4  10  22  42  62  92 128 158 204 260 300 374
#     4   9  20  36  62  91 124 154 200 257 312 361
#
# _framework density 21.749974999999999
#
# number of rings (size 3 to 8) (size 9 to 14) (size 15 to 20)
#    0.000    1.846    0.769    2.769    3.231    3.077 
#    0.000    2.308    0.000    0.000    0.000    0.000 
#    0.000    0.000    0.000    0.000    0.000    0.000 
#
# Total GULP energy -322273.725922 kJ/mol
# GULP energy per Si atom -12395.143305 kJ/mol
# Density = 2.170047 g / cm^3
# Si number density = 21.749975 Si / 1000 Ang^3
#
#
#
# Elastic Constant Matrix: (Units=GPa)
#
#
# Indices 1 2 3 4 5 6 
#
# 1 94.6489 19.7915 28.4818 0.0000 -3.7579 0.0000
# 2 19.7915 54.1448 2.8413 0.0000 7.2704 0.0000
# 3 28.4818 2.8413 65.2193 0.0000 7.3766 0.0000
# 4 0.0000 0.0000 0.0000 33.7311 0.0000 6.6942
# 5 -3.7579 7.2704 7.3766 0.0000 42.8810 0.0000
# 6 0.0000 0.0000 0.0000 6.6942 0.0000 24.8896
#
#
#
# Elastic Compliance Matrix: (Units=1/GPa)
#
#
# Indices 1 2 3 4 5 6 
#
# 1 0.013567 -0.005056 -0.006054 0.000000 0.003088 0.000000
# 2 -0.005056 0.020798 0.001786 0.000000 -0.004276 0.000000
# 3 -0.006054 0.001786 0.018350 0.000000 -0.003990 0.000000
# 4 0.000000 0.000000 0.000000 0.031318 0.000000 -0.008423
# 5 0.003088 -0.004276 -0.003990 0.000000 0.025002 0.000000
# 6 0.000000 0.000000 0.000000 -0.008423 0.000000 0.042443
#
#
# Mechanical properties :
#
#
# Convention : Reuss Voigt Hill
#
# Bulk Modulus (GPa) = 29.35442 35.13802 32.24622
# Shear Modulus (GPa) = 27.55103 31.16023 29.35563
#
# Velocity S-wave (km/s) = 3.56296 3.78915 3.67779
# Velocity P-wave (km/s) = 5.51832 5.94425 5.73524
#
# Compressibility (1/GPa) = 0.03406642
#
# Stress axis : x y z
#
# Youngs Moduli (GPa) = 73.70898 48.08245 54.49562
#
# Poissons Ratio (x) = 0.24310 0.32990
# Poissons Ratio (y) = 0.37267 -0.09731
# Poissons Ratio (z) = 0.44621 -0.08586
#
# Static dielectric constant tensor:
#      x y z
#    x 4.195340 0.000000 0.150280 
#    y 0.000000 3.583870 0.000000 
#    z 0.150280 0.000000 4.014890 
# 
# 
# High freq. dielectric constant tensor:
#      x y z
#    x 1.869920 0.000000 -0.001720 
#    y 0.000000 1.818870 0.000000 
#    z -0.001720 0.000000 1.856600 
# 
# From -- ./inp_files/48498.got.cif
#   From: 2010.06.25/outbox.cif.g09.slc.cpg/sg15_25_cif.got.tgz:48498.got - 2010.06.28 07:06:18.
