data_PCOD8138991
_publ_section_title
;
Structure prediction by ZEFSAII (Michael W. Deem and Ramdas Pophale) SiO2 
 PCOD8138991
Probable space group: C 2/C
;
_chemical_formula_sum "Si O2"
_cell_formula_units_Z 64
_cell_length_a 32.027628
_cell_length_b 14.610770
_cell_length_c 8.718802
_cell_angle_alpha 90.000000
_cell_angle_beta 46.144154
_cell_angle_gamma 90.000000
_cell_volume 2941.990801
_symmetry_space_group_name_H-M "C 2/C"
_symmetry_group_IT_number 15
_symmetry_cell_setting 'monoclinic'
loop_
_space_group_symop_operation_xyz
x,y,z
-x,y,1/2-z
-x,-y,-z
x,-y,1/2+z
1/2+x,1/2+y,z
1/2-x,1/2+y,1/2-z
1/2-x,1/2-y,-z
1/2+x,1/2-y,1/2+z
loop_
_atom_site_type_symbol
_atom_site_label
_atom_site_fract_x
_atom_site_fract_y
_atom_site_fract_z
Si Si1 0.065299 0.789215 0.613844
Si Si2 0.652604 0.618012 0.408286
Si Si3 0.854682 0.933666 0.236444
Si Si4 0.383115 0.222800 0.722632
Si Si5 0.567616 0.935445 0.599611
Si Si6 0.239330 0.274506 0.858281
Si Si7 0.607358 0.111814 0.338983
Si Si8 0.261983 0.152209 0.543948
O O1 0.107236 0.875224 0.478410
O O2 0.068134 0.760832 0.786144
O O3 0.082850 0.709512 0.451420
O O4 0.000000 0.820573 0.750000
O O5 0.639447 0.540791 0.315873
O O6 0.624265 0.589127 0.643426
O O7 0.626873 0.709732 0.397189
O O8 0.720220 0.637645 0.283758
O O9 0.786778 0.918150 0.381642
O O10 0.400096 0.126784 0.606866
O O11 0.329181 0.205063 0.978567
O O12 0.500000 0.921439 0.750000
O O13 0.583720 0.911451 0.731658
O O14 0.585599 0.039409 0.519715
O O15 0.258409 0.178689 0.731004
O O16 0.250000 0.250000 0.000000
O O17 0.676879 0.111563 0.161260
O O18 0.250000 0.250000 0.500000
#
# Coordination Sequence:
#
# PCOD8138991 Si02
#       8
#     8   8   8   8   8   8   8   8
#     4  12  24  45  72  98 134 181 227 282 344 406
#     4  11  25  42  68  96 139 177 221 283 341 408
#     4  12  25  43  66 101 138 177 228 281 345 402
#     4  11  23  44  67  98 133 179 230 281 340 403
#     4  12  26  45  68 102 141 183 235 281 333 413
#     4  10  20  38  63  95 131 172 219 271 338 403
#     4  12  25  43  69 101 139 182 227 282 347 405
#     4  12  22  42  68  96 137 177 222 285 341 410
#
# _framework density 21.753978
#
# number of rings (size 3 to 8) (size 9 to 14) (size 15 to 20)
#    0.000    0.500    3.750    5.250    3.500    1.000 
#    0.000    3.125    0.000    0.000    0.000    0.000 
#    0.000    0.000    0.000    0.000    0.000    0.000 
#
# Total GULP energy -396702.877519 kJ/mol
# GULP energy per Si atom -12396.964922 kJ/mol
# Density = 2.170446 g / cm^3
# Si number density = 21.753978 Si / 1000 Ang^3
#
#
#
# Elastic Constant Matrix: (Units=GPa)
#
#
# Indices 1 2 3 4 5 6 
#
# 1 101.9982 8.4108 25.9037 0.0000 -1.0533 0.0000
# 2 8.4108 78.5293 17.6182 0.0000 -8.9211 0.0000
# 3 25.9037 17.6182 73.8800 0.0000 2.0915 0.0000
# 4 0.0000 0.0000 0.0000 35.6474 0.0000 8.6314
# 5 -1.0533 -8.9211 2.0915 0.0000 46.9332 0.0000
# 6 0.0000 0.0000 0.0000 8.6314 0.0000 30.8685
#
#
#
# Elastic Compliance Matrix: (Units=1/GPa)
#
#
# Indices 1 2 3 4 5 6 
#
# 1 0.010776 -0.000279 -0.003722 0.000000 0.000355 0.000000
# 2 -0.000279 0.013813 -0.003274 0.000000 0.002765 0.000000
# 3 -0.003722 -0.003274 0.015661 0.000000 -0.001404 0.000000
# 4 0.000000 0.000000 0.000000 0.030090 0.000000 -0.008414
# 5 0.000355 0.002765 -0.001404 0.000000 0.021903 0.000000
# 6 0.000000 0.000000 0.000000 -0.008414 0.000000 0.034748
#
#
# Mechanical properties :
#
#
# Convention : Reuss Voigt Hill
#
# Bulk Modulus (GPa) = 38.91127 39.80810 39.35968
# Shear Modulus (GPa) = 33.30952 36.18813 34.74882
#
# Velocity S-wave (km/s) = 3.91729 4.08305 4.00103
# Velocity P-wave (km/s) = 6.19564 6.36925 6.28305
#
# Compressibility (1/GPa) = 0.02569949
#
# Stress axis : x y z
#
# Youngs Moduli (GPa) = 92.79934 72.39700 63.85297
#
# Poissons Ratio (x) = 0.02019 0.23765
# Poissons Ratio (y) = 0.02588 0.20908
# Poissons Ratio (z) = 0.34538 0.23706
#
# Static dielectric constant tensor:
#      x y z
#    x 3.989210 0.000000 0.347290 
#    y 0.000000 3.711750 0.000000 
#    z 0.347290 0.000000 3.544520 
# 
# 
# High freq. dielectric constant tensor:
#      x y z
#    x 1.867540 0.000000 0.016530 
#    y 0.000000 1.848120 0.000000 
#    z 0.016530 0.000000 1.860930 
# 
# From -- ./inp_files/70122.got.cif
#   From: 2010.06.25/outbox.cif.g09.slc.cpg/sg15_36_cif.got.tgz:70122.got - 2010.06.28 07:06:18.
