data_PCOD8138507
_publ_section_title
;
Structure prediction by ZEFSAII (Michael W. Deem and Ramdas Pophale) SiO2 
 PCOD8138507
Probable space group: C 2/C
;
_chemical_formula_sum "Si O2"
_cell_formula_units_Z 56
_cell_length_a 16.171654
_cell_length_b 10.541347
_cell_length_c 19.471337
_cell_angle_alpha 90.000000
_cell_angle_beta 126.142892
_cell_angle_gamma 90.000000
_cell_volume 2680.494882
_symmetry_space_group_name_H-M "C 2/C"
_symmetry_group_IT_number 15
_symmetry_cell_setting 'monoclinic'
loop_
_space_group_symop_operation_xyz
x,y,z
-x,y,1/2-z
-x,-y,-z
x,-y,1/2+z
1/2+x,1/2+y,z
1/2-x,1/2+y,1/2-z
1/2-x,1/2-y,-z
1/2+x,1/2-y,1/2+z
loop_
_atom_site_type_symbol
_atom_site_label
_atom_site_fract_x
_atom_site_fract_y
_atom_site_fract_z
Si Si1 0.621098 0.626509 0.942980
Si Si2 0.912835 0.353584 0.982418
Si Si3 0.073037 0.906289 0.076571
Si Si4 0.792374 0.491859 0.184098
Si Si5 0.122481 0.428148 0.133881
Si Si6 0.766489 0.604331 0.525941
Si Si7 0.265646 0.740409 0.620907
O O1 0.498212 0.637034 0.894348
O O2 0.642684 0.678423 0.877826
O O3 0.664361 0.482183 0.971087
O O4 0.674967 0.714297 0.026207
O O5 0.882767 0.208517 0.949762
O O6 0.900853 0.431735 0.906392
O O7 0.847190 0.433207 0.006260
O O8 0.027328 0.339999 0.067437
O O9 0.174162 0.978451 0.151261
O O10 0.000000 0.000000 0.000000
O O11 0.866831 0.437608 0.278825
O O12 0.816371 0.416095 0.125386
O O13 0.813118 0.641298 0.185181
O O14 0.224656 0.364884 0.153406
O O15 0.750000 0.750000 0.500000
#
# Coordination Sequence:
#
# PCOD8138507 Si02
#       7
#     8   8   8   8   8   8   8
#     4  10  20  37  67  91 123 168 217 260 317 388
#     4  11  23  40  68  90 127 172 218 254 340 396
#     4  12  20  41  66  99 121 171 217 261 320 399
#     4  11  25  37  67  94 132 166 222 272 324 380
#     4  11  24  41  63  97 127 169 214 279 324 385
#     4  11  20  38  64  98 125 172 214 266 321 397
#     4  10  20  39  62  90 128 165 209 267 320 382
#
# _framework density 20.891663000000001
#
# number of rings (size 3 to 8) (size 9 to 14) (size 15 to 20)
#    0.000    1.143    7.143    0.000    2.000    0.571 
#    0.000    0.714    0.000    0.000    0.000    0.000 
#    0.000    0.000    0.000    0.000    0.000    0.000 
#
# Total GULP energy -347141.809278 kJ/mol
# GULP energy per Si atom -12397.921760 kJ/mol
# Density = 2.084411 g / cm^3
# Si number density = 20.891663 Si / 1000 Ang^3
#
#
#
# Elastic Constant Matrix: (Units=GPa)
#
#
# Indices 1 2 3 4 5 6 
#
# 1 98.7502 14.1728 24.2587 0.0000 -16.5308 0.0000
# 2 14.1728 106.0429 38.3229 0.0000 -11.2988 0.0000
# 3 24.2587 38.3229 86.2961 0.0000 -21.4506 0.0000
# 4 0.0000 0.0000 0.0000 12.3622 0.0000 -4.4806
# 5 -16.5308 -11.2988 -21.4506 0.0000 23.1956 0.0000
# 6 0.0000 0.0000 0.0000 -4.4806 0.0000 38.7192
#
#
#
# Elastic Compliance Matrix: (Units=1/GPa)
#
#
# Indices 1 2 3 4 5 6 
#
# 1 0.011669 -0.000310 -0.001445 0.000000 0.006829 0.000000
# 2 -0.000310 0.011263 -0.004682 0.000000 0.000936 0.000000
# 3 -0.001445 -0.004682 0.017206 0.000000 0.012600 0.000000
# 4 0.000000 0.000000 0.000000 0.084433 0.000000 0.009771
# 5 0.006829 0.000936 0.012600 0.000000 0.060087 0.000000
# 6 0.000000 0.000000 0.000000 0.009771 0.000000 0.026958
#
#
# Mechanical properties :
#
#
# Convention : Reuss Voigt Hill
#
# Bulk Modulus (GPa) = 36.67868 49.39978 43.03923
# Shear Modulus (GPa) = 21.40611 29.14439 25.27525
#
# Velocity S-wave (km/s) = 3.20445 3.73906 3.48203
# Velocity P-wave (km/s) = 5.59339 6.50675 6.06728
#
# Compressibility (1/GPa) = 0.02726379
#
# Stress axis : x y z
#
# Youngs Moduli (GPa) = 85.69551 88.78349 58.12020
#
# Poissons Ratio (x) = 0.02749 0.08401
# Poissons Ratio (y) = 0.02654 0.27213
# Poissons Ratio (z) = 0.12386 0.41570
#
# Static dielectric constant tensor:
#      x y z
#    x 4.710360 0.000000 -0.187110 
#    y 0.000000 3.820210 0.000000 
#    z -0.187110 0.000000 3.375650 
# 
# 
# High freq. dielectric constant tensor:
#      x y z
#    x 1.832140 0.000000 -0.013720 
#    y 0.000000 1.826990 0.000000 
#    z -0.013720 0.000000 1.776660 
# 
# From -- ./inp_files/248428.got.cif
#   From: 2010.06.25/outbox.cif.g09.slc.cpg/sg15_125_cif.got.tgz:248428.got - 2010.06.28 07:06:18.
