data_PCOD8138047
_publ_section_title
;
Structure prediction by ZEFSAII (Michael W. Deem and Ramdas Pophale) SiO2 
 PCOD8138047
Probable space group: C 2/C
;
_chemical_formula_sum "Si O2"
_cell_formula_units_Z 56
_cell_length_a 11.229762
_cell_length_b 17.105539
_cell_length_c 14.232678
_cell_angle_alpha 90.000000
_cell_angle_beta 66.230279
_cell_angle_gamma 90.000000
_cell_volume 2502.056105
_symmetry_space_group_name_H-M "C 2/C"
_symmetry_group_IT_number 15
_symmetry_cell_setting 'monoclinic'
loop_
_space_group_symop_operation_xyz
x,y,z
-x,y,1/2-z
-x,-y,-z
x,-y,1/2+z
1/2+x,1/2+y,z
1/2-x,1/2+y,1/2-z
1/2-x,1/2-y,-z
1/2+x,1/2-y,1/2+z
loop_
_atom_site_type_symbol
_atom_site_label
_atom_site_fract_x
_atom_site_fract_y
_atom_site_fract_z
Si Si1 0.593325 0.820330 0.805075
Si Si2 0.506374 0.974081 0.602664
Si Si3 0.063192 0.813605 0.078270
Si Si4 0.216852 0.977646 0.422610
Si Si5 0.122957 0.617248 0.758398
Si Si6 0.987723 0.004922 0.865626
Si Si7 0.205558 0.250672 0.367745
O O1 0.500000 0.843516 0.750000
O O2 0.566392 0.890852 0.884149
O O3 0.565697 0.734983 0.857177
O O4 0.742812 0.812777 0.724369
O O5 0.500000 0.000000 0.500000
O O6 0.656878 0.969150 0.591615
O O7 0.420499 0.031063 0.693877
O O8 0.039415 0.903449 0.108254
O O9 0.177793 0.777768 0.103392
O O10 0.094699 0.795919 0.959198
O O11 0.265051 0.897107 0.356447
O O12 0.120808 0.019681 0.377146
O O13 0.133818 0.960057 0.545003
O O14 0.160259 0.669384 0.834464
O O15 0.000000 0.660171 0.750000
O O16 0.000000 0.986497 0.750000
#
# Coordination Sequence:
#
# PCOD8138047 Si02
#       7
#     8   8   8   8   8   8   8
#     4  10  20  37  57  94 120 159 209 267 315 376
#     4  11  24  38  64  94 132 173 218 272 332 382
#     4  10  21  34  62  93 120 160 215 264 329 376
#     4  10  24  40  61  95 129 172 222 265 327 400
#     4  10  21  40  62  91 131 176 213 268 329 392
#     4  11  23  41  66  92 134 178 214 277 336 390
#     4  10  21  36  63  92 128 164 212 269 325 383
#
# _framework density 22.381592000000001
#
# number of rings (size 3 to 8) (size 9 to 14) (size 15 to 20)
#    0.000    1.714    0.000    5.143   12.000    0.000 
#    0.000    1.429    0.000    6.000    0.000    0.000 
#    0.000    0.000    0.000    0.000    0.000    0.000 
#
# Total GULP energy -346902.661430 kJ/mol
# GULP energy per Si atom -12389.380765 kJ/mol
# Density = 2.233065 g / cm^3
# Si number density = 22.381592 Si / 1000 Ang^3
#
#
#
# Elastic Constant Matrix: (Units=GPa)
#
#
# Indices 1 2 3 4 5 6 
#
# 1 70.1278 17.6374 44.5016 0.0000 -3.2117 0.0000
# 2 17.6374 55.4010 28.4127 0.0000 -1.9446 0.0000
# 3 44.5016 28.4127 176.7198 0.0000 -1.7592 0.0000
# 4 0.0000 0.0000 0.0000 40.1932 0.0000 2.4006
# 5 -3.2117 -1.9446 -1.7592 0.0000 25.6544 0.0000
# 6 0.0000 0.0000 0.0000 2.4006 0.0000 21.4595
#
#
#
# Elastic Compliance Matrix: (Units=1/GPa)
#
#
# Indices 1 2 3 4 5 6 
#
# 1 0.017690 -0.003593 -0.003860 0.000000 0.001678 0.000000
# 2 -0.003593 0.020444 -0.002373 0.000000 0.000937 0.000000
# 3 -0.003860 -0.002373 0.007010 0.000000 -0.000182 0.000000
# 4 0.000000 0.000000 0.000000 0.025047 0.000000 -0.002802
# 5 0.001678 0.000937 -0.000182 0.000000 0.039248 0.000000
# 6 0.000000 0.000000 0.000000 -0.002802 0.000000 0.046913
#
#
# Mechanical properties :
#
#
# Convention : Reuss Voigt Hill
#
# Bulk Modulus (GPa) = 39.22813 53.70577 46.46695
# Shear Modulus (GPa) = 27.09999 31.57456 29.33727
#
# Velocity S-wave (km/s) = 3.48345 3.76005 3.62439
# Velocity P-wave (km/s) = 5.80898 6.54968 6.19042
#
# Compressibility (1/GPa) = 0.02549191
#
# Stress axis : x y z
#
# Youngs Moduli (GPa) = 56.52969 48.91437 142.64425
#
# Poissons Ratio (x) = 0.17575 0.55064
# Poissons Ratio (y) = 0.20311 0.33847
# Poissons Ratio (z) = 0.21822 0.11606
#
# Static dielectric constant tensor:
#      x y z
#    x 4.054760 0.000000 -0.167000 
#    y 0.000000 3.850510 0.000000 
#    z -0.167000 0.000000 4.736330 
# 
# 
# High freq. dielectric constant tensor:
#      x y z
#    x 1.862510 0.000000 -0.013430 
#    y 0.000000 1.856000 0.000000 
#    z -0.013430 0.000000 1.906740 
# 
# From -- ./inp_files/145969.got.cif
#   From: 2010.06.25/outbox.cif.g09.slc.cpg/sg15_73_cif.got.tgz:145969.got - 2010.06.28 07:06:18.
