data_PCOD8138213
_publ_section_title
;
Structure prediction by ZEFSAII (Michael W. Deem and Ramdas Pophale) SiO2 
 PCOD8138213
Probable space group: C 2/C
;
_chemical_formula_sum "Si O2"
_cell_formula_units_Z 64
_cell_length_a 12.298708
_cell_length_b 22.205790
_cell_length_c 11.772074
_cell_angle_alpha 90.000000
_cell_angle_beta 79.825360
_cell_angle_gamma 90.000000
_cell_volume 3164.423986
_symmetry_space_group_name_H-M "C 2/C"
_symmetry_group_IT_number 15
_symmetry_cell_setting 'monoclinic'
loop_
_space_group_symop_operation_xyz
x,y,z
-x,y,1/2-z
-x,-y,-z
x,-y,1/2+z
1/2+x,1/2+y,z
1/2-x,1/2+y,1/2-z
1/2-x,1/2-y,-z
1/2+x,1/2-y,1/2+z
loop_
_atom_site_type_symbol
_atom_site_label
_atom_site_fract_x
_atom_site_fract_y
_atom_site_fract_z
Si Si1 0.310278 0.835825 0.412971
Si Si2 0.053639 0.324979 0.438164
Si Si3 0.737917 0.051456 0.250771
Si Si4 0.882751 0.337417 0.821018
Si Si5 0.117827 0.568069 0.762009
Si Si6 0.135610 0.133134 0.117164
Si Si7 0.530634 0.465234 0.876264
Si Si8 0.823117 0.765914 0.728376
O O1 0.420390 0.823359 0.467418
O O2 0.319788 0.902248 0.356759
O O3 0.198655 0.831514 0.506313
O O4 0.293405 0.785635 0.322164
O O5 0.109507 0.336006 0.546560
O O6 0.098673 0.379436 0.355200
O O7 0.094251 0.260815 0.381252
O O8 0.646631 0.094820 0.211831
O O9 0.781438 0.080018 0.359276
O O10 0.837806 0.042238 0.142962
O O11 0.688684 0.987129 0.296062
O O12 0.791283 0.289088 0.802211
O O13 0.000000 0.317183 0.750000
O O14 0.000000 0.540481 0.750000
O O15 0.112305 0.179018 0.224339
O O16 0.022349 0.101342 0.100203
O O17 0.500000 0.490272 0.750000
O O18 0.500000 0.500000 0.000000
#
# Coordination Sequence:
#
# PCOD8138213 Si02
#       8
#     8   8   8   8   8   8   8   8
#     4  10  20  37  61  85 112 148 191 240 286 343
#     4  10  21  37  60  85 114 148 190 243 293 346
#     4  10  21  37  57  83 119 156 189 235 291 355
#     4  11  23  39  57  85 117 150 190 240 296 348
#     4   9  19  34  55  85 114 148 188 228 283 345
#     4  10  21  37  59  86 112 151 196 239 290 348
#     4  10  22  39  60  87 120 160 202 246 296 358
#     4  10  21  38  59  84 113 151 193 239 293 353
#
# _framework density 20.224848999999999
#
# number of rings (size 3 to 8) (size 9 to 14) (size 15 to 20)
#    0.000    2.000    0.000    4.500    0.000    8.000 
#    0.000    4.375    0.000    9.000    0.000    0.000 
#    0.000    0.000    0.000    0.000    0.000    0.000 
#
# Total GULP energy -396590.581961 kJ/mol
# GULP energy per Si atom -12393.455686 kJ/mol
# Density = 2.017882 g / cm^3
# Si number density = 20.224849 Si / 1000 Ang^3
#
#
#
# Elastic Constant Matrix: (Units=GPa)
#
#
# Indices 1 2 3 4 5 6 
#
# 1 72.9884 33.5124 18.3551 0.0000 -5.8267 0.0000
# 2 33.5124 75.3909 -0.5312 0.0000 -3.0700 0.0000
# 3 18.3551 -0.5312 67.6118 0.0000 -1.1650 0.0000
# 4 0.0000 0.0000 0.0000 -53.4804 0.0000 3.0710
# 5 -5.8267 -3.0700 -1.1650 0.0000 30.9681 0.0000
# 6 0.0000 0.0000 0.0000 3.0710 0.0000 37.2649
#
#
#
# Elastic Compliance Matrix: (Units=1/GPa)
#
#
# Indices 1 2 3 4 5 6 
#
# 1 0.019075 -0.008412 -0.005200 0.000000 0.002560 0.000000
# 2 -0.008412 0.017028 0.002421 0.000000 0.000196 0.000000
# 3 -0.005200 0.002421 0.016219 0.000000 -0.000128 0.000000
# 4 0.000000 0.000000 0.000000 -0.018610 0.000000 0.001534
# 5 0.002560 0.000196 -0.000128 0.000000 0.032788 0.000000
# 6 0.000000 0.000000 0.000000 0.001534 0.000000 0.026709
#
#
# Mechanical properties :
#
#
# Convention : Reuss Voigt Hill
#
# Bulk Modulus (GPa) = 33.40040 35.40707 34.40374
# Shear Modulus (GPa) = 39.81821 13.92750 26.87285
#
# Velocity S-wave (km/s) = 4.44190 2.62703 3.64909
# Velocity P-wave (km/s) = 6.54658 5.17169 5.89933
#
# Compressibility (1/GPa) = 0.02993976
#
# Stress axis : x y z
#
# Youngs Moduli (GPa) = 52.42432 58.72558 61.65630
#
# Poissons Ratio (x) = 0.49398 0.32064
# Poissons Ratio (y) = 0.44097 -0.14925
# Poissons Ratio (z) = 0.27263 -0.14216
#
# Static dielectric constant tensor:
#      x y z
#    x 3.802340 0.000000 0.016230 
#    y 0.000000 3.779440 0.000000 
#    z 0.016230 0.000000 3.963570 
# 
# 
# High freq. dielectric constant tensor:
#      x y z
#    x 1.792360 0.000000 -0.010780 
#    y 0.000000 1.791330 0.000000 
#    z -0.010780 0.000000 1.787930 
# 
# From -- ./inp_files/91266.got.cif
#   From: 2010.06.25/outbox.cif.g09.slc.cpg/sg15_46_cif.got.tgz:91266.got - 2010.06.28 07:06:18.
