data_PCOD8138362
_publ_section_title
;
Structure prediction by ZEFSAII (Michael W. Deem and Ramdas Pophale) SiO2 
 PCOD8138362
Probable space group: C 2/C
;
_chemical_formula_sum "Si O2"
_cell_formula_units_Z 64
_cell_length_a 22.043426
_cell_length_b 11.158572
_cell_length_c 12.698755
_cell_angle_alpha 90.000000
_cell_angle_beta 108.545976
_cell_angle_gamma 90.000000
_cell_volume 2961.342794
_symmetry_space_group_name_H-M "C 2/C"
_symmetry_group_IT_number 15
_symmetry_cell_setting 'monoclinic'
loop_
_space_group_symop_operation_xyz
x,y,z
-x,y,1/2-z
-x,-y,-z
x,-y,1/2+z
1/2+x,1/2+y,z
1/2-x,1/2+y,1/2-z
1/2-x,1/2-y,-z
1/2+x,1/2-y,1/2+z
loop_
_atom_site_type_symbol
_atom_site_label
_atom_site_fract_x
_atom_site_fract_y
_atom_site_fract_z
Si Si1 0.842424 0.432673 0.892128
Si Si2 0.705241 0.170608 0.832803
Si Si3 0.509977 0.372141 0.138278
Si Si4 0.771294 0.148127 0.317694
Si Si5 0.098643 0.975692 0.549583
Si Si6 0.058278 0.614993 0.217267
Si Si7 0.828502 0.430614 0.594092
Si Si8 0.837410 0.811210 0.508320
O O1 0.776178 0.421263 0.789989
O O2 0.905440 0.461127 0.854759
O O3 0.831704 0.537069 0.972627
O O4 0.857971 0.307436 0.957090
O O5 0.715807 0.215875 0.718210
O O6 0.670471 0.281072 0.872812
O O7 0.665660 0.048579 0.825214
O O8 0.771254 0.137520 0.926440
O O9 0.500000 0.417632 0.250000
O O10 0.562550 0.463891 0.126120
O O11 0.533029 0.235398 0.149462
O O12 0.444988 0.377989 0.033330
O O13 0.735118 0.146773 0.411342
O O14 0.838453 0.083118 0.367068
O O15 0.111922 0.082634 0.473743
O O16 0.110245 0.647750 0.337039
O O17 0.000000 0.549126 0.250000
#
# Coordination Sequence:
#
# PCOD8138362 Si02
#       8
#     8   8   8   8   8   8   8   8
#     4   9  19  37  60  91 123 158 200 258 311 378
#     4   9  18  33  55  94 121 151 193 252 301 374
#     4  10  24  41  59  84 122 165 211 259 313 366
#     4  10  21  32  61  94 126 148 196 261 313 373
#     4  11  21  37  62  89 117 167 206 249 317 376
#     4  10  21  41  63  83 120 169 211 260 309 364
#     4  10  20  37  63  91 118 165 211 243 324 380
#     4   9  16  32  60  82 120 155 193 243 309 360
#
# _framework density 21.611816000000001
#
# number of rings (size 3 to 8) (size 9 to 14) (size 15 to 20)
#    0.000    2.250    2.500    0.750    1.750    0.500 
#    0.000    6.250    0.000    9.750    0.000    0.000 
#    0.000    0.000    0.000    0.000    0.000    0.000 
#
# Total GULP energy -396420.752053 kJ/mol
# GULP energy per Si atom -12388.148502 kJ/mol
# Density = 2.156263 g / cm^3
# Si number density = 21.611816 Si / 1000 Ang^3
#
#
#
# Elastic Constant Matrix: (Units=GPa)
#
#
# Indices 1 2 3 4 5 6 
#
# 1 144.5613 22.1981 59.6942 0.0000 -13.4819 0.0000
# 2 22.1981 44.9908 37.7348 0.0000 -1.0360 0.0000
# 3 59.6942 37.7348 78.8953 0.0000 -9.9901 0.0000
# 4 0.0000 0.0000 0.0000 22.8244 0.0000 -3.9755
# 5 -13.4819 -1.0360 -9.9901 0.0000 36.3926 0.0000
# 6 0.0000 0.0000 0.0000 -3.9755 0.0000 18.1929
#
#
#
# Elastic Compliance Matrix: (Units=1/GPa)
#
#
# Indices 1 2 3 4 5 6 
#
# 1 0.010292 0.002219 -0.008659 0.000000 0.001499 0.000000
# 2 0.002219 0.038152 -0.020393 0.000000 -0.003690 0.000000
# 3 -0.008659 -0.020393 0.029527 0.000000 0.004317 0.000000
# 4 0.000000 0.000000 0.000000 0.045546 0.000000 0.009953
# 5 0.001499 -0.003690 0.004317 0.000000 0.029114 0.000000
# 6 0.000000 0.000000 0.000000 0.009953 0.000000 0.057141
#
#
# Mechanical properties :
#
#
# Convention : Reuss Voigt Hill
#
# Bulk Modulus (GPa) = 41.14579 56.41129 48.77854
# Shear Modulus (GPa) = 18.41351 25.40332 21.90841
#
# Velocity S-wave (km/s) = 2.92209 3.43218 3.18736
# Velocity P-wave (km/s) = 5.51948 6.47034 6.01373
#
# Compressibility (1/GPa) = 0.02430382
#
# Stress axis : x y z
#
# Youngs Moduli (GPa) = 97.16295 26.21120 33.86735
#
# Poissons Ratio (x) = -0.05815 0.29324
# Poissons Ratio (y) = -0.21557 0.69067
# Poissons Ratio (z) = 0.84129 0.53454
#
# Static dielectric constant tensor:
#      x y z
#    x 4.248950 0.000000 -0.312570 
#    y 0.000000 3.663730 0.000000 
#    z -0.312570 0.000000 3.832560 
# 
# 
# High freq. dielectric constant tensor:
#      x y z
#    x 1.860580 0.000000 -0.017310 
#    y 0.000000 1.825020 0.000000 
#    z -0.017310 0.000000 1.836760 
# 
# From -- ./inp_files/167650.got.cif
#   From: 2010.06.25/outbox.cif.g09.slc.cpg/sg15_84_cif.got.tgz:167650.got - 2010.06.28 07:06:18.
