data_PCOD8138286
_publ_section_title
;
Structure prediction by ZEFSAII (Michael W. Deem and Ramdas Pophale) SiO2 
 PCOD8138286
Probable space group: C 2/C
;
_chemical_formula_sum "Si O2"
_cell_formula_units_Z 56
_cell_length_a 7.806096
_cell_length_b 35.985145
_cell_length_c 18.689181
_cell_angle_alpha 90.000000
_cell_angle_beta 33.346425
_cell_angle_gamma 90.000000
_cell_volume 2885.845301
_symmetry_space_group_name_H-M "C 2/C"
_symmetry_group_IT_number 15
_symmetry_cell_setting 'monoclinic'
loop_
_space_group_symop_operation_xyz
x,y,z
-x,y,1/2-z
-x,-y,-z
x,-y,1/2+z
1/2+x,1/2+y,z
1/2-x,1/2+y,1/2-z
1/2-x,1/2-y,-z
1/2+x,1/2-y,1/2+z
loop_
_atom_site_type_symbol
_atom_site_label
_atom_site_fract_x
_atom_site_fract_y
_atom_site_fract_z
Si Si1 0.701504 0.836229 0.498225
Si Si2 0.694420 0.836229 0.001769
Si Si3 0.703440 0.209626 0.750003
Si Si4 0.703686 0.706083 0.249998
Si Si5 0.011533 0.912103 0.398781
Si Si6 0.606660 0.912103 0.101218
Si Si7 0.693731 0.965650 0.403134
O O1 0.465765 0.845914 0.517117
O O2 0.527899 0.815116 0.623285
O O3 0.969056 0.809785 0.375918
O O4 0.826849 0.875116 0.484696
O O5 0.472759 0.809784 0.124071
O O6 0.765639 0.875116 0.015302
O O7 0.021060 0.815118 0.876706
O O8 0.500000 0.206508 0.750000
O O9 0.771483 0.251824 0.750000
O O10 0.500000 0.706764 0.250000
O O11 0.276030 0.899971 0.250000
O O12 0.165836 0.929046 0.417082
O O13 0.790900 0.942523 0.439382
O O14 0.548431 0.942524 0.060617
O O15 0.000000 0.977411 0.250000
O O16 0.500000 0.000000 0.500000
#
# Coordination Sequence:
#
# PCOD8138286 Si02
#       7
#     8   8   8   8   8   8   8
#     4  11  20  36  58  82 112 157 205 249 298 357
#     4  11  20  36  58  82 112 157 205 249 298 357
#     4  11  21  35  55  81 113 154 205 253 303 358
#     4   9  22  37  51  79 119 157 196 255 314 353
#     4  10  20  37  62  90 118 156 201 239 284 354
#     4  10  20  37  62  90 118 156 201 239 284 354
#     4  10  22  42  66  94 122 154 192 238 298 356
#
# _framework density 19.405061
#
# number of rings (size 3 to 8) (size 9 to 14) (size 15 to 20)
#    0.000    1.714    2.857    2.143    0.000    0.571 
#    2.571    7.143    0.000    0.000    0.000    0.000 
#    0.000    0.000    0.000    0.000    0.000    0.000 
#
# Total GULP energy -347257.082067 kJ/mol
# GULP energy per Si atom -12402.038645 kJ/mol
# Density = 1.936089 g / cm^3
# Si number density = 19.405061 Si / 1000 Ang^3
#
#
#
# Elastic Constant Matrix: (Units=GPa)
#
#
# Indices 1 2 3 4 5 6 
#
# 1 102.0294 50.0748 21.0770 0.0000 0.1252 0.0000
# 2 50.0748 149.8018 71.9747 0.0000 0.1731 0.0000
# 3 21.0770 71.9747 129.2154 0.0000 0.0802 0.0000
# 4 0.0000 0.0000 0.0000 46.6158 0.0000 0.1963
# 5 0.1252 0.1731 0.0802 0.0000 48.1457 0.0000
# 6 0.0000 0.0000 0.0000 0.1963 0.0000 22.9912
#
#
#
# Elastic Compliance Matrix: (Units=1/GPa)
#
#
# Indices 1 2 3 4 5 6 
#
# 1 0.011738 -0.004101 0.000370 0.000000 -0.000016 0.000000
# 2 -0.004101 0.010548 -0.005206 0.000000 -0.000019 0.000000
# 3 0.000370 -0.005206 0.010579 0.000000 0.000000 0.000000
# 4 0.000000 0.000000 0.000000 0.021453 0.000000 -0.000183
# 5 -0.000016 -0.000019 0.000000 0.000000 0.020770 0.000000
# 6 0.000000 0.000000 0.000000 -0.000183 0.000000 0.043496
#
#
# Mechanical properties :
#
#
# Convention : Reuss Voigt Hill
#
# Bulk Modulus (GPa) = 66.71678 74.14442 70.43060
# Shear Modulus (GPa) = 35.34682 39.41187 37.37935
#
# Velocity S-wave (km/s) = 4.27256 4.51156 4.39369
# Velocity P-wave (km/s) = 7.66782 8.08892 7.88119
#
# Compressibility (1/GPa) = 0.01498873
#
# Stress axis : x y z
#
# Youngs Moduli (GPa) = 85.19666 94.80539 94.52975
#
# Poissons Ratio (x) = 0.38882 -0.03497
# Poissons Ratio (y) = 0.34941 0.49215
# Poissons Ratio (z) = -0.03151 0.49359
#
# Static dielectric constant tensor:
#      x y z
#    x 3.612730 0.000000 -0.000470 
#    y 0.000000 3.430140 0.000000 
#    z -0.000470 0.000000 3.555670 
# 
# 
# High freq. dielectric constant tensor:
#      x y z
#    x 1.762630 0.000000 -0.000130 
#    y 0.000000 1.747040 0.000000 
#    z -0.000130 0.000000 1.747050 
# 
# From -- ./inp_files/234932.got.cif
#   From: 2010.06.25/outbox.cif.g09.slc.cpg/sg15_118_cif.got.tgz:234932.got - 2010.06.28 07:06:18.
