data_PCOD8138810
_publ_section_title
;
Structure prediction by ZEFSAII (Michael W. Deem and Ramdas Pophale) SiO2 
 PCOD8138810
Probable space group: C 2/C
;
_chemical_formula_sum "Si O2"
_cell_formula_units_Z 60
_cell_length_a 24.472249
_cell_length_b 25.277321
_cell_length_c 8.386972
_cell_angle_alpha 90.000000
_cell_angle_beta 34.637169
_cell_angle_gamma 90.000000
_cell_volume 2948.811981
_symmetry_space_group_name_H-M "C 2/C"
_symmetry_group_IT_number 15
_symmetry_cell_setting 'monoclinic'
loop_
_space_group_symop_operation_xyz
x,y,z
-x,y,1/2-z
-x,-y,-z
x,-y,1/2+z
1/2+x,1/2+y,z
1/2-x,1/2+y,1/2-z
1/2-x,1/2-y,-z
1/2+x,1/2-y,1/2+z
loop_
_atom_site_type_symbol
_atom_site_label
_atom_site_fract_x
_atom_site_fract_y
_atom_site_fract_z
Si Si1 0.320392 0.044154 0.319925
Si Si2 0.088251 0.833462 0.431838
Si Si3 0.915357 0.538304 0.770501
Si Si4 0.115961 0.938111 0.214735
Si Si5 0.463407 0.216283 0.012515
Si Si6 0.418571 0.857154 0.063519
Si Si7 0.000000 0.999073 0.750000
Si Si8 0.296663 0.848398 0.060029
O O1 0.225802 0.044598 0.440552
O O2 0.321494 0.093417 0.437222
O O3 0.321561 0.991984 0.427409
O O4 0.409812 0.043719 0.977609
O O5 0.106681 0.874535 0.244068
O O6 0.056406 0.778609 0.428610
O O7 0.185620 0.830844 0.305668
O O8 0.000000 0.854255 0.750000
O O9 0.910351 0.597740 0.716229
O O10 0.000000 0.500000 0.500000
O O11 0.067567 0.961607 0.487372
O O12 0.067416 0.960398 0.177259
O O13 0.500000 0.200034 0.750000
O O14 0.546174 0.197581 0.937959
O O15 0.361827 0.190126 0.297675
O O16 0.322745 0.846173 0.187418
O O17 0.500000 0.878557 0.750000
#
# Coordination Sequence:
#
# PCOD8138810 Si02
#       8
#     8   8   8   8   8   8   4   8
#     4  11  22  35  56  86 120 158 199 238 295 360
#     4  10  21  40  62  88 116 159 205 248 304 361
#     4  12  22  35  55  87 124 163 201 242 297 371
#     4  10  21  39  59  87 113 156 193 246 293 352
#     4  10  20  38  63  85 117 157 199 247 308 364
#     4  10  21  37  57  88 119 159 202 251 306 358
#     4  10  20  38  62  80 116 144 194 238 300 338
#     4  10  21  39  61  86 120 159 202 255 305 361
#
# _framework density 20.347176999999999
#
# number of rings (size 3 to 8) (size 9 to 14) (size 15 to 20)
#    0.000    1.600    0.667    5.600    0.000    1.067 
#    6.000    2.667    0.000    0.000    0.000    0.000 
#    0.000    0.000    0.000    0.000    0.000    0.000 
#
# Total GULP energy -371828.458110 kJ/mol
# GULP energy per Si atom -12394.281937 kJ/mol
# Density = 2.030087 g / cm^3
# Si number density = 20.347177 Si / 1000 Ang^3
#
#
#
# Elastic Constant Matrix: (Units=GPa)
#
#
# Indices 1 2 3 4 5 6 
#
# 1 115.0769 52.6962 28.5108 0.0000 -6.0448 0.0000
# 2 52.6962 111.3842 17.7385 0.0000 -8.1642 0.0000
# 3 28.5108 17.7385 88.6229 0.0000 -5.2111 0.0000
# 4 0.0000 0.0000 0.0000 29.7254 0.0000 0.8444
# 5 -6.0448 -8.1642 -5.2111 0.0000 33.8213 0.0000
# 6 0.0000 0.0000 0.0000 0.8444 0.0000 29.1002
#
#
#
# Elastic Compliance Matrix: (Units=1/GPa)
#
#
# Indices 1 2 3 4 5 6 
#
# 1 0.011712 -0.005074 -0.002726 0.000000 0.000448 0.000000
# 2 -0.005074 0.011604 -0.000584 0.000000 0.001804 0.000000
# 3 -0.002726 -0.000584 0.012353 0.000000 0.001275 0.000000
# 4 0.000000 0.000000 0.000000 0.033669 0.000000 -0.000977
# 5 0.000448 0.001804 0.001275 0.000000 0.030279 0.000000
# 6 0.000000 0.000000 0.000000 -0.000977 0.000000 0.034392
#
#
# Mechanical properties :
#
#
# Convention : Reuss Voigt Hill
#
# Bulk Modulus (GPa) = 52.90915 56.99723 54.95319
# Shear Modulus (GPa) = 31.83134 32.93862 32.38498
#
# Velocity S-wave (km/s) = 3.95955 4.02783 3.99384
# Velocity P-wave (km/s) = 6.85301 7.05014 6.95227
#
# Compressibility (1/GPa) = 0.01890032
#
# Stress axis : x y z
#
# Youngs Moduli (GPa) = 85.38011 86.17871 80.95448
#
# Poissons Ratio (x) = 0.43728 0.22068
# Poissons Ratio (y) = 0.43323 0.04728
# Poissons Ratio (z) = 0.23274 0.05034
#
# Static dielectric constant tensor:
#      x y z
#    x 3.995860 0.000000 -0.187050 
#    y 0.000000 3.683020 0.000000 
#    z -0.187050 0.000000 3.844360 
# 
# 
# High freq. dielectric constant tensor:
#      x y z
#    x 1.800220 0.000000 -0.006950 
#    y 0.000000 1.797150 0.000000 
#    z -0.006950 0.000000 1.793140 
# 
# From -- ./inp_files/67726.got.cif
#   From: 2010.06.25/outbox.cif.g09.slc.cpg/sg15_34_cif.got.tgz:67726.got - 2010.06.28 07:06:18.
