data_PCOD8138150
_publ_section_title
;
Structure prediction by ZEFSAII (Michael W. Deem and Ramdas Pophale) SiO2 
 PCOD8138150
Probable space group: C 2/C
;
_chemical_formula_sum "Si O2"
_cell_formula_units_Z 40
_cell_length_a 16.924512
_cell_length_b 8.082403
_cell_length_c 20.518045
_cell_angle_alpha 90.000000
_cell_angle_beta 39.721399
_cell_angle_gamma 90.000000
_cell_volume 1793.622157
_symmetry_space_group_name_H-M "C 2/C"
_symmetry_group_IT_number 15
_symmetry_cell_setting 'monoclinic'
loop_
_space_group_symop_operation_xyz
x,y,z
-x,y,1/2-z
-x,-y,-z
x,-y,1/2+z
1/2+x,1/2+y,z
1/2-x,1/2+y,1/2-z
1/2-x,1/2-y,-z
1/2+x,1/2-y,1/2+z
loop_
_atom_site_type_symbol
_atom_site_label
_atom_site_fract_x
_atom_site_fract_y
_atom_site_fract_z
Si Si1 0.729371 0.244476 0.863475
Si Si2 0.856240 0.948638 0.006775
Si Si3 0.002759 0.634942 0.941836
Si Si4 0.654610 0.940133 0.539949
Si Si5 0.497714 0.647205 0.680005
O O1 0.640977 0.206604 0.857346
O O2 0.868406 0.238191 0.748292
O O3 0.690540 0.428970 0.907824
O O4 0.712004 0.114630 0.934005
O O5 0.895117 0.776946 0.016414
O O6 0.979467 0.015131 0.891450
O O7 0.747982 0.942312 0.020626
O O8 0.970705 0.545279 0.893941
O O9 0.000000 0.500000 0.000000
O O10 0.613532 0.777852 0.606645
O O11 0.500000 0.563478 0.750000
#
# Coordination Sequence:
#
# PCOD8138150 Si02
#       5
#     8   8   8   8   8
#     4  10  20  38  61  86 117 154 196 255 314 360
#     4  11  20  37  64  86 112 163 204 242 310 368
#     4  10  23  39  56  86 125 158 200 253 299 354
#     4  10  20  37  60  86 117 155 203 251 297 367
#     4  11  19  36  63  88 118 151 205 258 308 359
#
# _framework density 22.301242999999999
#
# number of rings (size 3 to 8) (size 9 to 14) (size 15 to 20)
#    0.000    1.600    4.000    2.400    0.000    1.600 
#    0.000    5.000    0.000    0.000    0.000    0.000 
#    0.000    0.000    0.000    0.000    0.000    0.000 
#
# Total GULP energy -247792.366792 kJ/mol
# GULP energy per Si atom -12389.618340 kJ/mol
# Density = 2.225048 g / cm^3
# Si number density = 22.301243 Si / 1000 Ang^3
#
#
#
# Elastic Constant Matrix: (Units=GPa)
#
#
# Indices 1 2 3 4 5 6 
#
# 1 126.1762 47.5928 28.1930 0.0000 -19.5510 0.0000
# 2 47.5928 106.5707 16.4501 0.0000 1.3462 0.0000
# 3 28.1930 16.4501 78.5927 0.0000 -12.7609 0.0000
# 4 0.0000 0.0000 0.0000 3.9217 0.0000 -3.4623
# 5 -19.5510 1.3462 -12.7609 0.0000 23.0506 0.0000
# 6 0.0000 0.0000 0.0000 -3.4623 0.0000 50.9014
#
#
#
# Elastic Compliance Matrix: (Units=1/GPa)
#
#
# Indices 1 2 3 4 5 6 
#
# 1 0.011631 -0.005063 -0.001607 0.000000 0.009271 0.000000
# 2 -0.005063 0.011974 -0.001649 0.000000 -0.005907 0.000000
# 3 -0.001607 -0.001649 0.014767 0.000000 0.006908 0.000000
# 4 0.000000 0.000000 0.000000 0.271279 0.000000 0.018452
# 5 0.009271 -0.005907 0.006908 0.000000 0.055416 0.000000
# 6 0.000000 0.000000 0.000000 0.018452 0.000000 0.020901
#
#
# Mechanical properties :
#
#
# Convention : Reuss Voigt Hill
#
# Bulk Modulus (GPa) = 46.01273 55.09016 50.55144
# Shear Modulus (GPa) = 12.19959 30.18168 21.19064
#
# Velocity S-wave (km/s) = 2.34142 3.68280 3.08588
# Velocity P-wave (km/s) = 5.29026 6.54526 5.95093
#
# Compressibility (1/GPa) = 0.02173311
#
# Stress axis : x y z
#
# Youngs Moduli (GPa) = 85.97808 83.51627 67.71768
#
# Poissons Ratio (x) = 0.42286 0.10883
# Poissons Ratio (y) = 0.43532 0.11166
# Poissons Ratio (z) = 0.13818 0.13772
#
# Static dielectric constant tensor:
#      x y z
#    x 4.608320 0.000000 -0.337580 
#    y 0.000000 3.991270 0.000000 
#    z -0.337580 0.000000 3.660240 
# 
# 
# High freq. dielectric constant tensor:
#      x y z
#    x 1.905650 0.000000 -0.022610 
#    y 0.000000 1.861930 0.000000 
#    z -0.022610 0.000000 1.837510 
# 
# From -- ./inp_files/125745.got.cif
#   From: 2010.06.25/outbox.cif.g09.slc.cpg/sg15_63_cif.got.tgz:125745.got - 2010.06.28 07:06:18.
