data_PCOD8138231
_publ_section_title
;
Structure prediction by ZEFSAII (Michael W. Deem and Ramdas Pophale) SiO2 
 PCOD8138231
Probable space group: C 2/C
;
_chemical_formula_sum "Si O2"
_cell_formula_units_Z 56
_cell_length_a 23.434355
_cell_length_b 15.706781
_cell_length_c 9.813819
_cell_angle_alpha 90.000000
_cell_angle_beta 52.616928
_cell_angle_gamma 90.000000
_cell_volume 2870.275191
_symmetry_space_group_name_H-M "C 2/C"
_symmetry_group_IT_number 15
_symmetry_cell_setting 'monoclinic'
loop_
_space_group_symop_operation_xyz
x,y,z
-x,y,1/2-z
-x,-y,-z
x,-y,1/2+z
1/2+x,1/2+y,z
1/2-x,1/2+y,1/2-z
1/2-x,1/2-y,-z
1/2+x,1/2-y,1/2+z
loop_
_atom_site_type_symbol
_atom_site_label
_atom_site_fract_x
_atom_site_fract_y
_atom_site_fract_z
Si Si1 0.071556 0.452368 0.581682
Si Si2 0.265471 0.348117 0.975473
Si Si3 0.500000 0.496624 0.250000
Si Si4 0.837873 0.502986 0.800054
Si Si5 0.500000 0.211005 0.250000
Si Si6 0.868009 0.912334 0.047164
Si Si7 0.905422 0.145802 0.772223
Si Si8 0.790446 0.084721 0.146016
O O1 0.136392 0.468612 0.591900
O O2 0.094877 0.489579 0.401661
O O3 0.054586 0.351078 0.587722
O O4 0.000000 0.497677 0.750000
O O5 0.337112 0.364333 0.959988
O O6 0.278361 0.364271 0.799570
O O7 0.250000 0.250000 0.000000
O O8 0.200284 0.405260 0.128361
O O9 0.550717 0.559428 0.093597
O O10 0.544372 0.437732 0.290573
O O11 0.783318 0.430558 0.827804
O O12 0.546853 0.269398 0.282890
O O13 0.867331 0.851209 0.180165
O O14 0.820674 0.994238 0.149305
O O15 0.844820 0.139906 0.975954
#
# Coordination Sequence:
#
# PCOD8138231 Si02
#       8
#     8   8   4   8   4   8   8   8
#     4  10  23  41  65  87 115 159 208 248 297 359
#     4  11  25  39  57  90 126 156 196 256 310 352
#     4   9  18  34  62  87 122 154 198 243 294 364
#     4  11  21  43  65  87 118 161 211 251 298 366
#     4   9  24  38  58  91 128 156 204 249 302 356
#     4  10  20  37  61  89 119 161 202 240 295 370
#     4  10  20  37  61  92 122 157 197 249 307 353
#     4  10  21  38  64  88 120 159 204 247 303 367
#
# _framework density 19.510323
#
# number of rings (size 3 to 8) (size 9 to 14) (size 15 to 20)
#    0.429    1.429    1.429    3.429    4.000    3.429 
#    0.000    1.429    0.000    0.000    0.000    0.000 
#    0.000    0.000    0.000    0.000    0.000    0.000 
#
# Total GULP energy -347138.184628 kJ/mol
# GULP energy per Si atom -12397.792308 kJ/mol
# Density = 1.946592 g / cm^3
# Si number density = 19.510323 Si / 1000 Ang^3
#
#
#
# Elastic Constant Matrix: (Units=GPa)
#
#
# Indices 1 2 3 4 5 6 
#
# 1 78.8651 28.7765 30.2342 0.0000 1.9512 0.0000
# 2 28.7765 92.5875 32.3758 0.0000 1.4463 0.0000
# 3 30.2342 32.3758 92.8688 0.0000 -3.3834 0.0000
# 4 0.0000 0.0000 0.0000 22.7408 0.0000 -1.8057
# 5 1.9512 1.4463 -3.3834 0.0000 34.4228 0.0000
# 6 0.0000 0.0000 0.0000 -1.8057 0.0000 17.1239
#
#
#
# Elastic Compliance Matrix: (Units=1/GPa)
#
#
# Indices 1 2 3 4 5 6 
#
# 1 0.015443 -0.003428 -0.003873 0.000000 -0.001112 0.000000
# 2 -0.003428 0.013091 -0.003473 0.000000 -0.000697 0.000000
# 3 -0.003873 -0.003473 0.013301 0.000000 0.001673 0.000000
# 4 0.000000 0.000000 0.000000 0.044345 0.000000 0.004676
# 5 -0.001112 -0.000697 0.001673 0.000000 0.029307 0.000000
# 6 0.000000 0.000000 0.000000 0.004676 0.000000 0.058891
#
#
# Mechanical properties :
#
#
# Convention : Reuss Voigt Hill
#
# Bulk Modulus (GPa) = 49.29436 49.67715 49.48575
# Shear Modulus (GPa) = 24.66828 26.38648 25.52738
#
# Velocity S-wave (km/s) = 3.55966 3.68154 3.62111
# Velocity P-wave (km/s) = 6.49735 6.60219 6.54998
#
# Compressibility (1/GPa) = 0.02028630
#
# Stress axis : x y z
#
# Youngs Moduli (GPa) = 64.75414 76.38565 75.18472
#
# Poissons Ratio (x) = 0.26185 0.29119
# Poissons Ratio (y) = 0.22198 0.26114
# Poissons Ratio (z) = 0.25080 0.26531
#
# Static dielectric constant tensor:
#      x y z
#    x 3.603260 0.000000 -0.269360 
#    y 0.000000 3.360470 0.000000 
#    z -0.269360 0.000000 3.288690 
# 
# 
# High freq. dielectric constant tensor:
#      x y z
#    x 1.772000 0.000000 -0.000510 
#    y 0.000000 1.736410 0.000000 
#    z -0.000510 0.000000 1.760600 
# 
# From -- ./inp_files/61846.got.cif
#   From: 2010.06.25/outbox.cif.g09.slc.cpg/sg15_31_cif.got.tgz:61846.got - 2010.06.28 07:06:18.
