data_PCOD8138595
_publ_section_title
;
Structure prediction by ZEFSAII (Michael W. Deem and Ramdas Pophale) SiO2 
 PCOD8138595
Probable space group: C 2/C
;
_chemical_formula_sum "Si O2"
_cell_formula_units_Z 36
_cell_length_a 6.331401
_cell_length_b 16.430491
_cell_length_c 21.684245
_cell_angle_alpha 90.000000
_cell_angle_beta 123.553061
_cell_angle_gamma 90.000000
_cell_volume 1879.900150
_symmetry_space_group_name_H-M "C 2/C"
_symmetry_group_IT_number 15
_symmetry_cell_setting 'monoclinic'
loop_
_space_group_symop_operation_xyz
x,y,z
-x,y,1/2-z
-x,-y,-z
x,-y,1/2+z
1/2+x,1/2+y,z
1/2-x,1/2+y,1/2-z
1/2-x,1/2-y,-z
1/2+x,1/2-y,1/2+z
loop_
_atom_site_type_symbol
_atom_site_label
_atom_site_fract_x
_atom_site_fract_y
_atom_site_fract_z
Si Si1 0.000000 0.799250 0.250000
Si Si2 0.029071 0.229949 0.618366
Si Si3 0.783563 0.525882 0.536266
Si Si4 0.511792 0.108294 0.820285
Si Si5 0.535159 0.137739 0.491202
O O1 0.026544 0.746270 0.191107
O O2 0.243845 0.855833 0.297725
O O3 0.271136 0.176385 0.641552
O O4 0.771633 0.182102 0.561167
O O5 0.063820 0.310210 0.582460
O O6 0.500000 0.500000 0.500000
O O7 0.919000 0.533893 0.624193
O O8 0.905119 0.451905 0.520723
O O9 0.817030 0.614734 0.506819
O O10 0.500000 0.071287 0.750000
#
# Coordination Sequence:
#
# PCOD8138595 Si02
#       5
#     4   8   8   8   8
#     4  10  20  38  62  80 122 154 202 242 302 362
#     4  10  20  38  58  89 111 155 196 246 295 356
#     4  11  21  38  58  90 119 155 194 245 300 356
#     4  10  21  36  61  83 113 159 200 236 299 365
#     4  10  22  35  60  87 119 144 198 248 296 350
#
# _framework density 19.149954000000001
#
# number of rings (size 3 to 8) (size 9 to 14) (size 15 to 20)
#    0.000    1.778    4.444    0.000    0.000    2.667 
#    2.000    0.000    7.333    0.000    0.000    0.000 
#    0.000    0.000    0.000    0.000    0.000    0.000 
#
# Total GULP energy -223023.367787 kJ/mol
# GULP energy per Si atom -12390.187099 kJ/mol
# Density = 1.910637 g / cm^3
# Si number density = 19.149954 Si / 1000 Ang^3
#
#
#
# Elastic Constant Matrix: (Units=GPa)
#
#
# Indices 1 2 3 4 5 6 
#
# 1 96.8220 17.8082 26.8688 0.0000 4.7495 0.0000
# 2 17.8082 64.8617 30.2149 0.0000 -11.7639 0.0000
# 3 26.8688 30.2149 107.4569 0.0000 -16.7440 0.0000
# 4 0.0000 0.0000 0.0000 59.2277 0.0000 -29.6213
# 5 4.7495 -11.7639 -16.7440 0.0000 38.2469 0.0000
# 6 0.0000 0.0000 0.0000 -29.6213 0.0000 62.3125
#
#
#
# Elastic Compliance Matrix: (Units=1/GPa)
#
#
# Indices 1 2 3 4 5 6 
#
# 1 0.011732 -0.002566 -0.002750 0.000000 -0.003450 0.000000
# 2 -0.002566 0.018753 -0.003953 0.000000 0.004356 0.000000
# 3 -0.002750 -0.003953 0.011772 0.000000 0.004279 0.000000
# 4 0.000000 0.000000 0.000000 0.022150 0.000000 0.010529
# 5 -0.003450 0.004356 0.004279 0.000000 0.029788 0.000000
# 6 0.000000 0.000000 0.000000 0.010529 0.000000 0.021053
#
#
# Mechanical properties :
#
#
# Convention : Reuss Voigt Hill
#
# Bulk Modulus (GPa) = 42.15698 46.54715 44.35206
# Shear Modulus (GPa) = 35.28767 44.90732 40.09750
#
# Velocity S-wave (km/s) = 4.29733 4.84781 4.58085
# Velocity P-wave (km/s) = 6.83262 7.46287 7.15469
#
# Compressibility (1/GPa) = 0.02372087
#
# Stress axis : x y z
#
# Youngs Moduli (GPa) = 85.23340 53.32378 84.94871
#
# Poissons Ratio (x) = 0.13683 0.23358
# Poissons Ratio (y) = 0.21871 0.33577
# Poissons Ratio (z) = 0.23436 0.21077
#
# Static dielectric constant tensor:
#      x y z
#    x 4.279020 0.000000 -0.553110 
#    y 0.000000 3.258880 0.000000 
#    z -0.553110 0.000000 4.052590 
# 
# 
# High freq. dielectric constant tensor:
#      x y z
#    x 1.765590 0.000000 -0.013590 
#    y 0.000000 1.712400 0.000000 
#    z -0.013590 0.000000 1.759580 
# 
# From -- ./inp_files/184088.got.cif
#   From: 2010.06.25/outbox.cif.g09.slc.cpg/sg15_93_cif.got.tgz:184088.got - 2010.06.28 07:06:18.
