data_PCOD8138176
_publ_section_title
;
Structure prediction by ZEFSAII (Michael W. Deem and Ramdas Pophale) SiO2 
 PCOD8138176
Probable space group: C 2/C
;
_chemical_formula_sum "Si O2"
_cell_formula_units_Z 32
_cell_length_a 20.892520
_cell_length_b 13.493044
_cell_length_c 8.714508
_cell_angle_alpha 90.000000
_cell_angle_beta 43.962460
_cell_angle_gamma 90.000000
_cell_volume 1705.375650
_symmetry_space_group_name_H-M "C 2/C"
_symmetry_group_IT_number 15
_symmetry_cell_setting 'monoclinic'
loop_
_space_group_symop_operation_xyz
x,y,z
-x,y,1/2-z
-x,-y,-z
x,-y,1/2+z
1/2+x,1/2+y,z
1/2-x,1/2+y,1/2-z
1/2-x,1/2-y,-z
1/2+x,1/2-y,1/2+z
loop_
_atom_site_type_symbol
_atom_site_label
_atom_site_fract_x
_atom_site_fract_y
_atom_site_fract_z
Si Si1 0.701136 0.430334 0.003316
Si Si2 0.906370 0.770142 0.500308
Si Si3 0.589172 0.614235 0.199965
Si Si4 0.735429 0.107674 0.777364
O O1 0.663383 0.338098 0.974247
O O2 0.616187 0.501566 0.205135
O O3 0.757139 0.390539 0.051827
O O4 0.770136 0.494159 0.775089
O O5 0.931850 0.819023 0.617582
O O6 0.855988 0.665597 0.615847
O O7 0.000000 0.749350 0.250000
O O8 0.500000 0.609421 0.250000
O O9 0.674090 0.659805 0.954516
#
# Coordination Sequence:
#
# PCOD8138176 Si02
#       4
#     8   8   8   8
#     4  10  20  38  62  85 125 151 200 246 301 342
#     4  12  23  37  61  93 122 156 202 246 295 360
#     4  10  20  37  60  89 119 155 192 249 300 346
#     4  10  22  38  60  91 121 158 198 247 301 351
#
# _framework density 18.764195000000001
#
# number of rings (size 3 to 8) (size 9 to 14) (size 15 to 20)
#    1.500    0.000    2.500    3.750    0.000    3.000 
#    0.000    1.250    0.000    1.500    0.000    0.000 
#    0.000    0.000    0.000    0.000    0.000    0.000 
#
# Total GULP energy -198364.394955 kJ/mol
# GULP energy per Si atom -12397.774685 kJ/mol
# Density = 1.872149 g / cm^3
# Si number density = 18.764195 Si / 1000 Ang^3
#
#
#
# Elastic Constant Matrix: (Units=GPa)
#
#
# Indices 1 2 3 4 5 6 
#
# 1 63.3168 8.0921 8.6960 0.0000 10.6261 0.0000
# 2 8.0921 44.7544 35.4946 0.0000 -15.0028 0.0000
# 3 8.6960 35.4946 67.8022 0.0000 -2.9157 0.0000
# 4 0.0000 0.0000 0.0000 21.8311 0.0000 -2.3716
# 5 10.6261 -15.0028 -2.9157 0.0000 25.8865 0.0000
# 6 0.0000 0.0000 0.0000 -2.3716 0.0000 14.2020
#
#
#
# Elastic Compliance Matrix: (Units=1/GPa)
#
#
# Indices 1 2 3 4 5 6 
#
# 1 0.018872 -0.009172 0.001828 0.000000 -0.012857 0.000000
# 2 -0.009172 0.056751 -0.027088 0.000000 0.033605 0.000000
# 3 0.001828 -0.027088 0.028124 0.000000 -0.013282 0.000000
# 4 0.000000 0.000000 0.000000 0.046652 0.000000 0.007791
# 5 -0.012857 0.033605 -0.013282 0.000000 0.061888 0.000000
# 6 0.000000 0.000000 0.000000 0.007791 0.000000 0.071713
#
#
# Mechanical properties :
#
#
# Convention : Reuss Voigt Hill
#
# Bulk Modulus (GPa) = 28.66682 31.15987 29.91335
# Shear Modulus (GPa) = 13.71772 20.62332 17.17052
#
# Velocity S-wave (km/s) = 2.70674 3.31883 3.02829
# Velocity P-wave (km/s) = 5.00791 5.59717 5.31072
#
# Compressibility (1/GPa) = 0.03488353
#
# Stress axis : x y z
#
# Youngs Moduli (GPa) = 52.98730 17.62083 35.55734
#
# Poissons Ratio (x) = 0.16163 -0.06501
# Poissons Ratio (y) = 0.48602 0.96317
# Poissons Ratio (z) = -0.09688 0.47731
#
# Static dielectric constant tensor:
#      x y z
#    x 3.260160 0.000000 0.150830 
#    y 0.000000 3.261670 0.000000 
#    z 0.150830 0.000000 3.353690 
# 
# 
# High freq. dielectric constant tensor:
#      x y z
#    x 1.728540 0.000000 0.017810 
#    y 0.000000 1.710730 0.000000 
#    z 0.017810 0.000000 1.720190 
# 
# From -- ./inp_files/28323.got.cif
#   From: 2010.06.25/outbox.cif.g09.slc.cpg/sg15_15_cif.got.tgz:28323.got - 2010.06.28 07:06:18.
