data_PCOD8138115
_publ_section_title
;
Structure prediction by ZEFSAII (Michael W. Deem and Ramdas Pophale) SiO2 
 PCOD8138115
Probable space group: C 2/C
;
_chemical_formula_sum "Si O2"
_cell_formula_units_Z 64
_cell_length_a 8.244422
_cell_length_b 12.247844
_cell_length_c 30.450880
_cell_angle_alpha 90.000000
_cell_angle_beta 83.402017
_cell_angle_gamma 90.000000
_cell_volume 3054.454959
_symmetry_space_group_name_H-M "C 2/C"
_symmetry_group_IT_number 15
_symmetry_cell_setting 'monoclinic'
loop_
_space_group_symop_operation_xyz
x,y,z
-x,y,1/2-z
-x,-y,-z
x,-y,1/2+z
1/2+x,1/2+y,z
1/2-x,1/2+y,1/2-z
1/2-x,1/2-y,-z
1/2+x,1/2-y,1/2+z
loop_
_atom_site_type_symbol
_atom_site_label
_atom_site_fract_x
_atom_site_fract_y
_atom_site_fract_z
Si Si1 0.053779 0.548895 0.793617
Si Si2 0.733863 0.993025 0.520254
Si Si3 0.035162 0.878061 0.549104
Si Si4 0.942006 0.640226 0.544562
Si Si5 0.250702 0.141142 0.639828
Si Si6 0.323205 0.609558 0.270320
Si Si7 0.704976 0.140945 0.185451
Si Si8 0.443543 0.579695 0.353508
O O1 0.088025 0.628692 0.833600
O O2 0.228452 0.503530 0.774565
O O3 0.000000 0.611333 0.750000
O O4 0.940969 0.446514 0.811422
O O5 0.816604 0.071342 0.482150
O O6 0.591983 0.057912 0.550694
O O7 0.653109 0.893688 0.496387
O O8 0.868499 0.948818 0.550219
O O9 0.089636 0.869572 0.598007
O O10 0.011731 0.758207 0.530894
O O11 0.816264 0.647411 0.588543
O O12 0.162786 0.254743 0.656349
O O13 0.119393 0.044884 0.646793
O O14 0.500000 0.572702 0.250000
O O15 0.236490 0.683925 0.235256
O O16 0.342918 0.653658 0.320242
O O17 0.864362 0.079393 0.162347
#
# Coordination Sequence:
#
# PCOD8138115 Si02
#       8
#     8   8   8   8   8   8   8   8
#     4   9  20  38  58  87 118 153 202 242 283 354
#     4  10  24  40  63  86 118 158 200 248 303 358
#     4  11  21  41  62  87 120 156 197 247 301 358
#     4  11  22  40  61  90 117 156 200 246 301 356
#     4  11  22  37  60  88 120 157 196 244 300 349
#     4   8  17  36  59  82 119 156 186 241 295 331
#     4  10  20  39  60  83 120 158 197 241 292 347
#     4  10  20  37  59  87 122 154 193 251 290 350
#
# _framework density 20.953001
#
# number of rings (size 3 to 8) (size 9 to 14) (size 15 to 20)
#    0.000    2.000    2.500    0.750    1.750    1.500 
#    0.000   25.000    0.000    0.000    0.000    0.000 
#    0.000    0.000    0.000    0.000    0.000    0.000 
#
# Total GULP energy -396470.158663 kJ/mol
# GULP energy per Si atom -12389.692458 kJ/mol
# Density = 2.090531 g / cm^3
# Si number density = 20.953001 Si / 1000 Ang^3
#
#
#
# Elastic Constant Matrix: (Units=GPa)
#
#
# Indices 1 2 3 4 5 6 
#
# 1 51.3125 11.3217 7.1570 0.0000 3.7245 0.0000
# 2 11.3217 61.3862 14.5874 0.0000 -1.5538 0.0000
# 3 7.1570 14.5874 96.3391 0.0000 2.9095 0.0000
# 4 0.0000 0.0000 0.0000 18.8379 0.0000 4.2044
# 5 3.7245 -1.5538 2.9095 0.0000 18.0896 0.0000
# 6 0.0000 0.0000 0.0000 4.2044 0.0000 28.5568
#
#
#
# Elastic Compliance Matrix: (Units=1/GPa)
#
#
# Indices 1 2 3 4 5 6 
#
# 1 0.020755 -0.003741 -0.000841 0.000000 -0.004459 0.000000
# 2 -0.003741 0.017636 -0.002474 0.000000 0.002683 0.000000
# 3 -0.000841 -0.002474 0.010871 0.000000 -0.001788 0.000000
# 4 0.000000 0.000000 0.000000 0.054888 0.000000 -0.008081
# 5 -0.004459 0.002683 -0.001788 0.000000 0.056716 0.000000
# 6 0.000000 0.000000 0.000000 -0.008081 0.000000 0.036208
#
#
# Mechanical properties :
#
#
# Convention : Reuss Voigt Hill
#
# Bulk Modulus (GPa) = 28.44847 30.57446 29.51146
# Shear Modulus (GPa) = 22.43141 24.82830 23.62986
#
# Velocity S-wave (km/s) = 3.27549 3.44605 3.36185
# Velocity P-wave (km/s) = 5.28317 5.51881 5.40227
#
# Compressibility (1/GPa) = 0.03515128
#
# Stress axis : x y z
#
# Youngs Moduli (GPa) = 48.18167 56.70230 91.98798
#
# Poissons Ratio (x) = 0.21212 0.07734
# Poissons Ratio (y) = 0.18025 0.22753
# Poissons Ratio (z) = 0.04051 0.14025
#
# Static dielectric constant tensor:
#      x y z
#    x 3.914690 0.000000 0.167680 
#    y 0.000000 3.556170 0.000000 
#    z 0.167680 0.000000 4.140700 
# 
# 
# High freq. dielectric constant tensor:
#      x y z
#    x 1.822820 0.000000 0.004940 
#    y 0.000000 1.796310 0.000000 
#    z 0.004940 0.000000 1.832550 
# 
# From -- ./inp_files/307500.got.cif
#   From: 2010.06.25/outbox.cif.g09.slc.cpg/sg15_154_cif.got.tgz:307500.got - 2010.06.28 07:06:18.
