data_PCOD8138742
_publ_section_title
;
Structure prediction by ZEFSAII (Michael W. Deem and Ramdas Pophale) SiO2 
 PCOD8138742
Probable space group: C 2/C
;
_chemical_formula_sum "Si O2"
_cell_formula_units_Z 56
_cell_length_a 22.299717
_cell_length_b 18.739042
_cell_length_c 8.911032
_cell_angle_alpha 90.000000
_cell_angle_beta 48.598895
_cell_angle_gamma 90.000000
_cell_volume 2793.141449
_symmetry_space_group_name_H-M "C 2/C"
_symmetry_group_IT_number 15
_symmetry_cell_setting 'monoclinic'
loop_
_space_group_symop_operation_xyz
x,y,z
-x,y,1/2-z
-x,-y,-z
x,-y,1/2+z
1/2+x,1/2+y,z
1/2-x,1/2+y,1/2-z
1/2-x,1/2-y,-z
1/2+x,1/2-y,1/2+z
loop_
_atom_site_type_symbol
_atom_site_label
_atom_site_fract_x
_atom_site_fract_y
_atom_site_fract_z
Si Si1 0.846396 0.805015 0.712454
Si Si2 0.523813 0.690467 0.878598
Si Si3 0.452419 0.555169 0.479539
Si Si4 0.724138 0.538435 0.701818
Si Si5 0.328892 0.228780 0.276057
Si Si6 0.737398 0.323030 0.351403
Si Si7 0.253930 0.406310 0.662462
O O1 0.816415 0.724604 0.737026
O O2 0.827188 0.855204 0.599044
O O3 0.939227 0.795638 0.599965
O O4 0.800460 0.843016 0.925925
O O5 0.500000 0.670953 0.750000
O O6 0.586949 0.756613 0.777575
O O7 0.565482 0.624913 0.892388
O O8 0.500000 0.573250 0.250000
O O9 0.500000 0.500000 0.500000
O O10 0.365204 0.524655 0.585629
O O11 0.763554 0.606161 0.719530
O O12 0.770429 0.465688 0.672289
O O13 0.722381 0.551041 0.526988
O O14 0.250000 0.250000 0.500000
O O15 0.329791 0.277448 0.125733
O O16 0.322554 0.144976 0.243027
#
# Coordination Sequence:
#
# PCOD8138742 Si02
#       7
#     8   8   8   8   8   8   8
#     4  10  22  37  58  92 118 158 194 252 291 372
#     4  12  23  36  60  87 122 156 205 244 305 356
#     4  12  23  35  54  85 127 157 189 236 303 376
#     4  12  21  37  58  82 118 163 193 250 300 359
#     4  11  21  40  61  87 121 164 204 252 296 364
#     4  10  20  38  61  83 125 153 204 239 303 358
#     4  11  23  38  62  88 123 155 210 244 306 364
#
# _framework density 20.049109999999999
#
# number of rings (size 3 to 8) (size 9 to 14) (size 15 to 20)
#    0.000    0.857    2.857    6.429    0.000    0.000 
#    0.000    0.000    0.000    0.857    0.000    0.000 
#    0.000    0.000    0.000    0.000    0.000    0.000 
#
# Total GULP energy -347150.420430 kJ/mol
# GULP energy per Si atom -12398.229301 kJ/mol
# Density = 2.000348 g / cm^3
# Si number density = 20.049110 Si / 1000 Ang^3
#
#
#
# Elastic Constant Matrix: (Units=GPa)
#
#
# Indices 1 2 3 4 5 6 
#
# 1 82.6202 46.1046 38.7274 0.0000 5.9144 0.0000
# 2 46.1046 116.2376 44.7038 0.0000 4.4670 0.0000
# 3 38.7274 44.7038 67.5059 0.0000 13.1763 0.0000
# 4 0.0000 0.0000 0.0000 26.5915 0.0000 10.8584
# 5 5.9144 4.4670 13.1763 0.0000 30.1311 0.0000
# 6 0.0000 0.0000 0.0000 10.8584 0.0000 43.4742
#
#
#
# Elastic Compliance Matrix: (Units=1/GPa)
#
#
# Indices 1 2 3 4 5 6 
#
# 1 0.018000 -0.004230 -0.007607 0.000000 0.000421 0.000000
# 2 -0.004230 0.012625 -0.006266 0.000000 0.001698 0.000000
# 3 -0.007607 -0.006266 0.024987 0.000000 -0.008505 0.000000
# 4 0.000000 0.000000 0.000000 0.041877 0.000000 -0.010459
# 5 0.000421 0.001698 -0.008505 0.000000 0.036573 0.000000
# 6 0.000000 0.000000 0.000000 -0.010459 0.000000 0.025615
#
#
# Mechanical properties :
#
#
# Convention : Reuss Voigt Hill
#
# Bulk Modulus (GPa) = 51.52923 58.38172 54.95547
# Shear Modulus (GPa) = 24.70960 29.16122 26.93541
#
# Velocity S-wave (km/s) = 3.51444 3.81791 3.66932
# Velocity P-wave (km/s) = 6.49813 6.97265 6.73957
#
# Compressibility (1/GPa) = 0.01940646
#
# Stress axis : x y z
#
# Youngs Moduli (GPa) = 55.55651 79.20656 40.02109
#
# Poissons Ratio (x) = 0.33504 0.30445
# Poissons Ratio (y) = 0.23500 0.25075
# Poissons Ratio (z) = 0.42263 0.49627
#
# Static dielectric constant tensor:
#      x y z
#    x 3.817990 0.000000 0.229620 
#    y 0.000000 3.770690 0.000000 
#    z 0.229620 0.000000 3.618410 
# 
# 
# High freq. dielectric constant tensor:
#      x y z
#    x 1.776930 0.000000 0.032980 
#    y 0.000000 1.778840 0.000000 
#    z 0.032980 0.000000 1.770590 
# 
# From -- ./inp_files/62687.got.cif
#   From: 2010.06.25/outbox.cif.g09.slc.cpg/sg15_32_cif.got.tgz:62687.got - 2010.06.28 07:06:18.
