data_PCOD8138681
_publ_section_title
;
Structure prediction by ZEFSAII (Michael W. Deem and Ramdas Pophale) SiO2 
 PCOD8138681
Probable space group: C 2/C
;
_chemical_formula_sum "Si O2"
_cell_formula_units_Z 56
_cell_length_a 15.323546
_cell_length_b 14.360709
_cell_length_c 12.188195
_cell_angle_alpha 90.000000
_cell_angle_beta 94.666791
_cell_angle_gamma 90.000000
_cell_volume 2673.205517
_symmetry_space_group_name_H-M "C 2/C"
_symmetry_group_IT_number 15
_symmetry_cell_setting 'monoclinic'
loop_
_space_group_symop_operation_xyz
x,y,z
-x,y,1/2-z
-x,-y,-z
x,-y,1/2+z
1/2+x,1/2+y,z
1/2-x,1/2+y,1/2-z
1/2-x,1/2-y,-z
1/2+x,1/2-y,1/2+z
loop_
_atom_site_type_symbol
_atom_site_label
_atom_site_fract_x
_atom_site_fract_y
_atom_site_fract_z
Si Si1 0.820741 0.370541 0.428083
Si Si2 0.665645 0.528035 0.177414
Si Si3 0.862701 0.171699 0.514830
Si Si4 0.962884 0.091616 0.944490
Si Si5 0.683330 0.948356 0.449543
Si Si6 0.673120 0.361379 0.891664
Si Si7 0.599679 0.818152 0.287053
O O1 0.853526 0.281988 0.500342
O O2 0.714450 0.369963 0.417157
O O3 0.855879 0.465757 0.485835
O O4 0.857476 0.369839 0.310606
O O5 0.597276 0.441788 0.162761
O O6 0.669272 0.553287 0.305475
O O7 0.636956 0.618751 0.102854
O O8 0.757759 0.491026 0.141867
O O9 0.956360 0.156761 0.584471
O O10 0.907182 0.142446 0.032674
O O11 0.000000 0.000000 0.000000
O O12 0.737031 0.875590 0.531988
O O13 0.602487 0.891477 0.388164
O O14 0.665376 0.266477 0.822234
O O15 0.500000 0.786824 0.250000
#
# Coordination Sequence:
#
# PCOD8138681 Si02
#       7
#     8   8   8   8   8   8   8
#     4  10  20  38  60  86 118 162 207 239 303 361
#     4   9  18  35  61  90 121 158 195 241 306 365
#     4   9  17  34  58  91 120 158 198 241 294 365
#     4   9  19  31  54  93 124 150 191 244 299 355
#     4  10  23  40  60  91 122 158 202 255 300 357
#     4  11  21  38  61  91 125 156 194 252 306 363
#     4  12  25  40  63  90 114 160 210 249 303 360
#
# _framework density 20.948633000000001
#
# number of rings (size 3 to 8) (size 9 to 14) (size 15 to 20)
#    0.000    2.000    1.429    3.000    2.000    0.571 
#    0.000    2.857    0.000    0.000    0.000    0.000 
#    0.000    0.000    0.000    0.000    0.000    0.000 
#
# Total GULP energy -347077.653625 kJ/mol
# GULP energy per Si atom -12395.630487 kJ/mol
# Density = 2.090095 g / cm^3
# Si number density = 20.948633 Si / 1000 Ang^3
#
#
#
# Elastic Constant Matrix: (Units=GPa)
#
#
# Indices 1 2 3 4 5 6 
#
# 1 70.3374 26.4650 37.5098 0.0000 1.5654 0.0000
# 2 26.4650 99.5025 32.8026 0.0000 13.1567 0.0000
# 3 37.5098 32.8026 86.9022 0.0000 2.8837 0.0000
# 4 0.0000 0.0000 0.0000 33.9378 0.0000 1.1376
# 5 1.5654 13.1567 2.8837 0.0000 21.9434 0.0000
# 6 0.0000 0.0000 0.0000 1.1376 0.0000 27.8316
#
#
#
# Elastic Compliance Matrix: (Units=1/GPa)
#
#
# Indices 1 2 3 4 5 6 
#
# 1 0.019115 -0.002882 -0.007207 0.000000 0.001311 0.000000
# 2 -0.002882 0.012864 -0.003377 0.000000 -0.007063 0.000000
# 3 -0.007207 -0.003377 0.015878 0.000000 0.000453 0.000000
# 4 0.000000 0.000000 0.000000 0.029506 0.000000 -0.001206
# 5 0.001311 -0.007063 0.000453 0.000000 0.049654 0.000000
# 6 0.000000 0.000000 0.000000 -0.001206 0.000000 0.035980
#
#
# Mechanical properties :
#
#
# Convention : Reuss Voigt Hill
#
# Bulk Modulus (GPa) = 47.78892 50.03299 48.91096
# Shear Modulus (GPa) = 25.39319 27.40687 26.40003
#
# Velocity S-wave (km/s) = 3.48539 3.62095 3.55382
# Velocity P-wave (km/s) = 6.24974 6.43562 6.34336
#
# Compressibility (1/GPa) = 0.02092535
#
# Stress axis : x y z
#
# Youngs Moduli (GPa) = 52.31369 77.73715 62.98182
#
# Poissons Ratio (x) = 0.22403 0.45388
# Poissons Ratio (y) = 0.15076 0.21271
# Poissons Ratio (z) = 0.37700 0.26255
#
# Static dielectric constant tensor:
#      x y z
#    x 4.007040 0.000000 0.182270 
#    y 0.000000 3.911980 0.000000 
#    z 0.182270 0.000000 3.657260 
# 
# 
# High freq. dielectric constant tensor:
#      x y z
#    x 1.803920 0.000000 -0.001610 
#    y 0.000000 1.821180 0.000000 
#    z -0.001610 0.000000 1.808380 
# 
# From -- ./inp_files/97010.got.cif
#   From: 2010.06.25/outbox.cif.g09.slc.cpg/sg15_49_cif.got.tgz:97010.got - 2010.06.28 07:06:18.
