data_PCOD8138524
_publ_section_title
;
Structure prediction by ZEFSAII (Michael W. Deem and Ramdas Pophale) SiO2 
 PCOD8138524
Probable space group: C 2/C
;
_chemical_formula_sum "Si O2"
_cell_formula_units_Z 64
_cell_length_a 14.881876
_cell_length_b 18.849546
_cell_length_c 19.956697
_cell_angle_alpha 90.000000
_cell_angle_beta 37.848696
_cell_angle_gamma 90.000000
_cell_volume 3434.925283
_symmetry_space_group_name_H-M "C 2/C"
_symmetry_group_IT_number 15
_symmetry_cell_setting 'monoclinic'
loop_
_space_group_symop_operation_xyz
x,y,z
-x,y,1/2-z
-x,-y,-z
x,-y,1/2+z
1/2+x,1/2+y,z
1/2-x,1/2+y,1/2-z
1/2-x,1/2-y,-z
1/2+x,1/2-y,1/2+z
loop_
_atom_site_type_symbol
_atom_site_label
_atom_site_fract_x
_atom_site_fract_y
_atom_site_fract_z
Si Si1 0.166009 0.497404 0.872953
Si Si2 0.247386 0.171485 0.867344
Si Si3 0.385637 0.863579 0.149776
Si Si4 0.107060 0.793521 0.633245
Si Si5 0.800446 0.573363 0.016682
Si Si6 0.955351 0.782867 0.581757
Si Si7 0.832991 0.069894 0.155256
Si Si8 0.665482 0.525265 0.970189
O O1 0.217487 0.578741 0.827326
O O2 0.255276 0.459120 0.879719
O O3 0.203297 0.453805 0.782509
O O4 0.000000 0.500000 0.000000
O O5 0.318632 0.174913 0.753249
O O6 0.327948 0.221567 0.873571
O O7 0.252225 0.090934 0.887669
O O8 0.079885 0.195181 0.955876
O O9 0.406158 0.796181 0.088072
O O10 0.526645 0.910889 0.086844
O O11 0.229700 0.850466 0.543488
O O12 0.023495 0.773878 0.615348
O O13 0.000000 0.829577 0.750000
O O14 0.747377 0.515042 0.993163
O O15 0.830858 0.843955 0.654559
O O16 0.806712 0.041237 0.095218
O O17 0.992955 0.041249 0.084677
#
# Coordination Sequence:
#
# PCOD8138524 Si02
#       8
#     8   8   8   8   8   8   8   8
#     4  10  23  38  52  75 112 151 182 221 273 331
#     4  11  20  32  50  80 109 146 176 213 269 332
#     4  11  22  37  53  77 115 148 179 221 274 332
#     4  12  20  29  48  82 112 139 169 213 277 326
#     4  11  22  36  53  81 114 144 185 223 275 322
#     4  11  21  33  53  78 111 142 175 225 273 326
#     4  10  20  38  53  77 112 142 185 220 271 324
#     4  10  21  34  56  78 108 146 183 224 262 323
#
# _framework density 18.632137
#
# number of rings (size 3 to 8) (size 9 to 14) (size 15 to 20)
#    0.000    1.250    6.250    1.875    0.000    0.000 
#    0.000    0.000    0.000    0.750    0.000    0.000 
#    7.500    0.000    0.000    0.000    0.000    0.000 
#
# Total GULP energy -396423.285213 kJ/mol
# GULP energy per Si atom -12388.227663 kJ/mol
# Density = 1.858973 g / cm^3
# Si number density = 18.632137 Si / 1000 Ang^3
#
#
#
# Elastic Constant Matrix: (Units=GPa)
#
#
# Indices 1 2 3 4 5 6 
#
# 1 34.5789 42.0771 23.1272 0.0004 11.7748 0.0002
# 2 42.0771 131.8898 27.1290 0.0011 8.8978 -0.0004
# 3 23.1272 27.1290 90.5955 0.0029 3.7182 -0.0009
# 4 0.0004 0.0011 0.0029 14.8771 -0.0013 7.9594
# 5 11.7748 8.8978 3.7182 -0.0013 19.6057 0.0002
# 6 0.0002 -0.0004 -0.0009 7.9594 0.0002 28.3196
#
#
#
# Elastic Compliance Matrix: (Units=1/GPa)
#
#
# Indices 1 2 3 4 5 6 
#
# 1 0.067669 -0.017286 -0.010837 -0.000001 -0.030740 -0.000001
# 2 -0.017286 0.012704 0.000422 0.000000 0.004536 0.000000
# 3 -0.010837 0.000422 0.013524 -0.000003 0.003752 0.000001
# 4 -0.000001 0.000000 -0.000003 0.079114 0.000006 -0.022235
# 5 -0.030740 0.004536 0.003752 0.000006 0.066698 -0.000002
# 6 -0.000001 0.000000 0.000001 -0.022235 -0.000002 0.041561
#
#
# Mechanical properties :
#
#
# Convention : Reuss Voigt Hill
#
# Bulk Modulus (GPa) = 25.97617 49.08120 37.52868
# Shear Modulus (GPa) = 14.30614 23.54256 18.92435
#
# Velocity S-wave (km/s) = 2.77396 3.55850 3.19044
# Velocity P-wave (km/s) = 4.92257 6.57900 5.81012
#
# Compressibility (1/GPa) = 0.03849682
#
# Stress axis : x y z
#
# Youngs Moduli (GPa) = 14.77791 78.71621 73.94272
#
# Poissons Ratio (x) = 1.36065 0.80128
# Poissons Ratio (y) = 0.25544 -0.03123
# Poissons Ratio (z) = 0.16014 -0.03324
#
# Static dielectric constant tensor:
#      x y z
#    x 3.490330 0.000000 0.160090 
#    y 0.000000 3.671330 0.000000 
#    z 0.160090 0.000000 3.812660 
# 
# 
# High freq. dielectric constant tensor:
#      x y z
#    x 1.668690 0.000000 0.007840 
#    y 0.000000 1.725290 0.000000 
#    z 0.007840 0.000000 1.742350 
# 
# From -- ./inp_files/249417.got.cif
#   From: 2010.06.25/outbox.cif.g09.slc.cpg/sg15_125_cif.got.tgz:249417.got - 2010.06.28 07:06:18.
