data_PCOD8138679
_publ_section_title
;
Structure prediction by ZEFSAII (Michael W. Deem and Ramdas Pophale) SiO2 
 PCOD8138679
Probable space group: C 2/C
;
_chemical_formula_sum "Si O2"
_cell_formula_units_Z 56
_cell_length_a 13.028933
_cell_length_b 31.302198
_cell_length_c 9.050869
_cell_angle_alpha 90.000000
_cell_angle_beta 49.628020
_cell_angle_gamma 90.000000
_cell_volume 2812.201175
_symmetry_space_group_name_H-M "C 2/C"
_symmetry_group_IT_number 15
_symmetry_cell_setting 'monoclinic'
loop_
_space_group_symop_operation_xyz
x,y,z
-x,y,1/2-z
-x,-y,-z
x,-y,1/2+z
1/2+x,1/2+y,z
1/2-x,1/2+y,1/2-z
1/2-x,1/2-y,-z
1/2+x,1/2-y,1/2+z
loop_
_atom_site_type_symbol
_atom_site_label
_atom_site_fract_x
_atom_site_fract_y
_atom_site_fract_z
Si Si1 0.461322 0.931146 0.122961
Si Si2 0.756931 0.770176 0.331227
Si Si3 0.135010 0.075939 0.543691
Si Si4 0.974964 0.220935 0.104944
Si Si5 0.737219 0.131555 0.836270
Si Si6 0.001416 0.123016 0.413554
Si Si7 0.623798 0.978617 0.747245
O O1 0.500000 0.914489 0.250000
O O2 0.398067 0.892585 0.088329
O O3 0.359428 0.971706 0.224666
O O4 0.595190 0.948557 0.915914
O O5 0.750000 0.750000 0.500000
O O6 0.658776 0.744993 0.316280
O O7 0.705593 0.818801 0.386855
O O8 0.905270 0.767382 0.120702
O O9 0.207201 0.115017 0.559550
O O10 0.098761 0.092189 0.414701
O O11 0.234226 0.035546 0.452281
O O12 0.000000 0.060485 0.750000
O O13 0.000000 0.235334 0.250000
O O14 0.941399 0.170860 0.130110
O O15 0.847684 0.122720 0.609008
O O16 0.000000 0.105046 0.250000
O O17 0.500000 0.973037 0.750000
#
# Coordination Sequence:
#
# PCOD8138679 Si02
#       7
#     8   8   8   8   8   8   8
#     4  10  22  38  61  87 120 159 199 248 303 358
#     4  11  22  39  61  89 121 158 203 251 300 363
#     4  10  20  38  60  86 117 157 199 248 296 350
#     4  10  21  40  59  84 120 162 193 245 312 361
#     4  10  21  39  58  86 123 153 202 247 294 362
#     4   9  20  37  59  83 119 157 196 244 301 356
#     4  10  20  40  63  84 120 159 200 247 307 355
#
# _framework density 19.913226999999999
#
# number of rings (size 3 to 8) (size 9 to 14) (size 15 to 20)
#    0.000    2.000    1.429    1.714    2.000    2.857 
#    7.714    3.571    0.000    0.000    0.000    0.000 
#    0.000    0.000    0.000    0.000    0.000    0.000 
#
# Total GULP energy -347231.026178 kJ/mol
# GULP energy per Si atom -12401.108078 kJ/mol
# Density = 1.986790 g / cm^3
# Si number density = 19.913227 Si / 1000 Ang^3
#
#
#
# Elastic Constant Matrix: (Units=GPa)
#
#
# Indices 1 2 3 4 5 6 
#
# 1 101.6055 41.5709 40.0459 0.0000 10.4110 0.0000
# 2 41.5709 87.8393 29.9727 0.0000 -3.2009 0.0000
# 3 40.0459 29.9727 89.0321 0.0000 20.8964 0.0000
# 4 0.0000 0.0000 0.0000 26.4167 0.0000 1.9306
# 5 10.4110 -3.2009 20.8964 0.0000 35.3951 0.0000
# 6 0.0000 0.0000 0.0000 1.9306 0.0000 22.7774
#
#
#
# Elastic Compliance Matrix: (Units=1/GPa)
#
#
# Indices 1 2 3 4 5 6 
#
# 1 0.013758 -0.005263 -0.003895 0.000000 -0.002224 0.000000
# 2 -0.005263 0.015470 -0.004101 0.000000 0.005368 0.000000
# 3 -0.003895 -0.004101 0.016464 0.000000 -0.008945 0.000000
# 4 0.000000 0.000000 0.000000 0.038091 0.000000 -0.003228
# 5 -0.002224 0.005368 -0.008945 0.000000 0.034673 0.000000
# 6 0.000000 0.000000 0.000000 -0.003228 0.000000 0.044177
#
#
# Mechanical properties :
#
#
# Convention : Reuss Voigt Hill
#
# Bulk Modulus (GPa) = 52.15114 55.73958 53.94536
# Shear Modulus (GPa) = 25.57008 28.04366 26.80687
#
# Velocity S-wave (km/s) = 3.58729 3.75679 3.67302
# Velocity P-wave (km/s) = 6.58819 6.84617 6.71842
#
# Compressibility (1/GPa) = 0.01917504
#
# Stress axis : x y z
#
# Youngs Moduli (GPa) = 72.68368 64.64050 60.74034
#
# Poissons Ratio (x) = 0.34023 0.23656
# Poissons Ratio (y) = 0.38256 0.24907
# Poissons Ratio (z) = 0.28307 0.26506
#
# Static dielectric constant tensor:
#      x y z
#    x 3.414220 0.000000 0.134160 
#    y 0.000000 3.562420 0.000000 
#    z 0.134160 0.000000 3.807660 
# 
# 
# High freq. dielectric constant tensor:
#      x y z
#    x 1.775150 0.000000 0.013870 
#    y 0.000000 1.768900 0.000000 
#    z 0.013870 0.000000 1.784270 
# 
# From -- ./inp_files/35549.got.cif
#   From: 2010.06.25/outbox.cif.g09.slc.cpg/sg15_18_cif.got.tgz:35549.got - 2010.06.28 07:06:18.
