data_PCOD8138204
_publ_section_title
;
Structure prediction by ZEFSAII (Michael W. Deem and Ramdas Pophale) SiO2 
 PCOD8138204
Probable space group: C 2/C
;
_chemical_formula_sum "Si O2"
_cell_formula_units_Z 48
_cell_length_a 9.687807
_cell_length_b 16.321097
_cell_length_c 30.834758
_cell_angle_alpha 90.000000
_cell_angle_beta 148.572695
_cell_angle_gamma 90.000000
_cell_volume 2542.143180
_symmetry_space_group_name_H-M "C 2/C"
_symmetry_group_IT_number 15
_symmetry_cell_setting 'monoclinic'
loop_
_space_group_symop_operation_xyz
x,y,z
-x,y,1/2-z
-x,-y,-z
x,-y,1/2+z
1/2+x,1/2+y,z
1/2-x,1/2+y,1/2-z
1/2-x,1/2-y,-z
1/2+x,1/2-y,1/2+z
loop_
_atom_site_type_symbol
_atom_site_label
_atom_site_fract_x
_atom_site_fract_y
_atom_site_fract_z
Si Si1 0.868768 0.109648 0.053896
Si Si2 0.306141 0.070983 0.234832
Si Si3 0.061312 0.043358 0.814421
Si Si4 0.090526 0.555205 0.457713
Si Si5 0.151323 0.328789 0.052335
Si Si6 0.220547 0.645922 0.406500
O O1 0.068131 0.119916 0.147748
O O2 0.007393 0.127505 0.045523
O O3 0.624351 0.172070 0.994609
O O4 0.767535 0.016036 0.026270
O O5 0.500000 0.033377 0.250000
O O6 0.465717 0.134977 0.307398
O O7 0.201878 0.996739 0.236117
O O8 0.133705 0.121009 0.862787
O O9 0.000000 0.076139 0.750000
O O10 0.290145 0.975082 0.873055
O O11 0.096945 0.632016 0.491235
O O12 0.204609 0.583628 0.442276
O O13 0.269351 0.239440 0.075375
#
# Coordination Sequence:
#
# PCOD8138204 Si02
#       6
#     8   8   8   8   8   8
#     4  10  20  39  61  82 114 155 195 226 280 345
#     4  10  20  37  61  80 114 156 187 233 285 340
#     4  11  20  38  63  82 111 153 203 224 277 347
#     4  11  20  37  64  83 113 156 188 233 280 345
#     4  11  22  38  59  88 116 150 186 246 282 332
#     4  11  23  35  59  89 121 145 188 238 296 326
#
# _framework density 18.881705
#
# number of rings (size 3 to 8) (size 9 to 14) (size 15 to 20)
#    0.000    1.333    5.000    2.500    0.000    2.000 
#    0.000    0.000    3.667    0.000    0.000    0.000 
#    0.000    0.000    0.000    0.000    0.000    0.000 
#
# Total GULP energy -297676.579697 kJ/mol
# GULP energy per Si atom -12403.190821 kJ/mol
# Density = 1.883873 g / cm^3
# Si number density = 18.881705 Si / 1000 Ang^3
#
#
#
# Elastic Constant Matrix: (Units=GPa)
#
#
# Indices 1 2 3 4 5 6 
#
# 1 78.4105 10.4727 23.3692 -0.0013 -2.7748 0.0006
# 2 10.4727 59.6555 25.5754 -0.0021 8.8057 0.0006
# 3 23.3692 25.5754 90.0835 -0.0062 -0.2643 0.0028
# 4 -0.0013 -0.0021 -0.0062 25.8443 -0.0003 -1.9045
# 5 -2.7748 8.8057 -0.2643 -0.0003 29.9387 0.0012
# 6 0.0006 0.0006 0.0028 -1.9045 0.0012 25.0494
#
#
#
# Elastic Compliance Matrix: (Units=1/GPa)
#
#
# Indices 1 2 3 4 5 6 
#
# 1 0.013953 -0.001301 -0.003245 0.000000 0.001647 0.000000
# 2 -0.001301 0.020218 -0.005420 0.000000 -0.006115 0.000000
# 3 -0.003245 -0.005420 0.013486 0.000003 0.001413 -0.000001
# 4 0.000000 0.000000 0.000003 0.038911 0.000000 0.002958
# 5 0.001647 -0.006115 0.001413 0.000000 0.035365 -0.000002
# 6 0.000000 0.000000 -0.000001 0.002958 -0.000002 0.040146
#
#
# Mechanical properties :
#
#
# Convention : Reuss Voigt Hill
#
# Bulk Modulus (GPa) = 36.07195 38.55380 37.31288
# Shear Modulus (GPa) = 26.14331 27.41529 26.77930
#
# Velocity S-wave (km/s) = 3.72504 3.81458 3.77007
# Velocity P-wave (km/s) = 6.13570 6.31382 6.22540
#
# Compressibility (1/GPa) = 0.02772237
#
# Stress axis : x y z
#
# Youngs Moduli (GPa) = 71.67068 49.46135 74.15243
#
# Poissons Ratio (x) = 0.06436 0.24065
# Poissons Ratio (y) = 0.09326 0.40193
# Poissons Ratio (z) = 0.23259 0.26810
#
# Static dielectric constant tensor:
#      x y z
#    x 3.653540 0.000000 0.050590 
#    y 0.000000 3.171330 0.000000 
#    z 0.050590 0.000000 3.538060 
# 
# 
# High freq. dielectric constant tensor:
#      x y z
#    x 1.750200 0.000000 -0.002600 
#    y 0.000000 1.708710 0.000000 
#    z -0.002600 0.000000 1.740360 
# 
# From -- ./inp_files/134791.got.cif
#   From: 2010.06.25/outbox.cif.g09.slc.cpg/sg15_68_cif.got.tgz:134791.got - 2010.06.28 07:06:18.
