data_PCOD8138140
_publ_section_title
;
Structure prediction by ZEFSAII (Michael W. Deem and Ramdas Pophale) SiO2 
 PCOD8138140
Probable space group: C 2/C
;
_chemical_formula_sum "Si O2"
_cell_formula_units_Z 64
_cell_length_a 19.931143
_cell_length_b 9.732439
_cell_length_c 19.499109
_cell_angle_alpha 90.000000
_cell_angle_beta 117.616487
_cell_angle_gamma 90.000000
_cell_volume 3351.481349
_symmetry_space_group_name_H-M "C 2/C"
_symmetry_group_IT_number 15
_symmetry_cell_setting 'monoclinic'
loop_
_space_group_symop_operation_xyz
x,y,z
-x,y,1/2-z
-x,-y,-z
x,-y,1/2+z
1/2+x,1/2+y,z
1/2-x,1/2+y,1/2-z
1/2-x,1/2-y,-z
1/2+x,1/2-y,1/2+z
loop_
_atom_site_type_symbol
_atom_site_label
_atom_site_fract_x
_atom_site_fract_y
_atom_site_fract_z
Si Si1 0.606236 0.711664 0.921755
Si Si2 0.416698 0.938082 0.220970
Si Si3 0.154726 0.678651 0.069119
Si Si4 0.329796 0.330103 0.665360
Si Si5 0.663033 0.429674 0.982750
Si Si6 0.061176 0.677894 0.158943
Si Si7 0.413317 0.592313 0.729045
Si Si8 0.333108 0.983777 0.547547
O O1 0.526697 0.788600 0.894394
O O2 0.624872 0.671417 0.852337
O O3 0.669349 0.822815 0.975595
O O4 0.613766 0.568979 0.967590
O O5 0.500000 0.874756 0.250000
O O6 0.360059 0.812916 0.210641
O O7 0.390028 0.011376 0.138789
O O8 0.422160 0.048246 0.284573
O O9 0.240546 0.660646 0.135235
O O10 0.140009 0.832395 0.034488
O O11 0.098818 0.646869 0.104392
O O12 0.134542 0.571384 0.000011
O O13 0.351270 0.346991 0.595002
O O14 0.369729 0.452315 0.726058
O O15 0.751541 0.462198 0.030938
O O16 0.096967 0.813992 0.209230
O O17 0.500000 0.561479 0.750000
#
# Coordination Sequence:
#
# PCOD8138140 Si02
#       8
#     8   8   8   8   8   8   8   8
#     4  10  20  37  61  84 109 148 198 232 280 340
#     4  12  20  37  64  85 111 152 192 237 285 338
#     4  11  23  38  56  85 120 153 187 237 290 334
#     4  10  20  37  60  85 110 147 200 234 275 341
#     4  10  20  38  63  84 110 151 195 240 275 336
#     4  11  23  37  55  85 123 152 181 237 296 337
#     4   9  18  36  57  82 110 147 191 236 280 339
#     4  11  19  39  63  86 111 149 199 237 278 338
#
# _framework density 19.096034
#
# number of rings (size 3 to 8) (size 9 to 14) (size 15 to 20)
#    0.000    1.500    5.000    1.875    0.000    2.000 
#    0.000    1.250    0.000    0.000    0.000    0.000 
#    0.000    0.000    0.000    0.000    0.000    0.000 
#
# Total GULP energy -396746.577939 kJ/mol
# GULP energy per Si atom -12398.330561 kJ/mol
# Density = 1.905257 g / cm^3
# Si number density = 19.096034 Si / 1000 Ang^3
#
#
#
# Elastic Constant Matrix: (Units=GPa)
#
#
# Indices 1 2 3 4 5 6 
#
# 1 62.1363 34.9299 32.8364 0.0000 -15.9814 0.0000
# 2 34.9299 127.1372 45.8583 0.0000 -1.8722 0.0000
# 3 32.8364 45.8583 71.9067 0.0000 -3.7186 0.0000
# 4 0.0000 0.0000 0.0000 41.3462 0.0000 11.2231
# 5 -15.9814 -1.8722 -3.7186 0.0000 22.9198 0.0000
# 6 0.0000 0.0000 0.0000 11.2231 0.0000 18.8517
#
#
#
# Elastic Compliance Matrix: (Units=1/GPa)
#
#
# Indices 1 2 3 4 5 6 
#
# 1 0.027720 -0.004050 -0.009170 0.000000 0.017510 0.000000
# 2 -0.004050 0.010808 -0.005187 0.000000 -0.002783 0.000000
# 3 -0.009170 -0.005187 0.021228 0.000000 -0.003373 0.000000
# 4 0.000000 0.000000 0.000000 0.028848 0.000000 -0.017174
# 5 0.017510 -0.002783 -0.003373 0.000000 0.055065 0.000000
# 6 0.000000 0.000000 0.000000 -0.017174 0.000000 0.063270
#
#
# Mechanical properties :
#
#
# Convention : Reuss Voigt Hill
#
# Bulk Modulus (GPa) = 43.58932 54.26994 48.92963
# Shear Modulus (GPa) = 19.88853 26.46058 23.17456
#
# Velocity S-wave (km/s) = 3.23073 3.72648 3.48743
# Velocity P-wave (km/s) = 6.06570 6.85542 6.47261
#
# Compressibility (1/GPa) = 0.02294140
#
# Stress axis : x y z
#
# Youngs Moduli (GPa) = 36.07513 92.52049 47.10751
#
# Poissons Ratio (x) = 0.37475 0.43196
# Poissons Ratio (y) = 0.14612 0.24436
# Poissons Ratio (z) = 0.33080 0.47993
#
# Static dielectric constant tensor:
#      x y z
#    x 3.145770 0.000000 0.218390 
#    y 0.000000 3.787140 0.000000 
#    z 0.218390 0.000000 3.503000 
# 
# 
# High freq. dielectric constant tensor:
#      x y z
#    x 1.711410 0.000000 0.023780 
#    y 0.000000 1.764230 0.000000 
#    z 0.023780 0.000000 1.735430 
# 
# From -- ./inp_files/251918.got.cif
#   From: 2010.06.25/outbox.cif.g09.slc.cpg/sg15_126_cif.got.tgz:251918.got - 2010.06.28 07:06:18.
