data_PCOD8138057
_publ_section_title
;
Structure prediction by ZEFSAII (Michael W. Deem and Ramdas Pophale) SiO2 
 PCOD8138057
Probable space group: C 2/C
;
_chemical_formula_sum "Si O2"
_cell_formula_units_Z 56
_cell_length_a 13.746049
_cell_length_b 17.544981
_cell_length_c 17.614881
_cell_angle_alpha 90.000000
_cell_angle_beta 137.513624
_cell_angle_gamma 90.000000
_cell_volume 2869.334137
_symmetry_space_group_name_H-M "C 2/C"
_symmetry_group_IT_number 15
_symmetry_cell_setting 'monoclinic'
loop_
_space_group_symop_operation_xyz
x,y,z
-x,y,1/2-z
-x,-y,-z
x,-y,1/2+z
1/2+x,1/2+y,z
1/2-x,1/2+y,1/2-z
1/2-x,1/2-y,-z
1/2+x,1/2-y,1/2+z
loop_
_atom_site_type_symbol
_atom_site_label
_atom_site_fract_x
_atom_site_fract_y
_atom_site_fract_z
Si Si1 0.944085 0.861901 0.405007
Si Si2 0.155611 0.693158 0.673978
Si Si3 0.436067 0.101797 0.296682
Si Si4 0.086272 0.009130 0.722496
Si Si5 0.632079 0.220340 0.488968
Si Si6 0.090493 0.463799 0.117362
Si Si7 0.614462 0.640709 0.150627
O O1 0.017441 0.786815 0.416889
O O2 0.990864 0.877438 0.518200
O O3 0.776337 0.841680 0.299129
O O4 0.989933 0.937680 0.384699
O O5 0.201291 0.709774 0.612396
O O6 0.038982 0.623515 0.604854
O O7 0.093442 0.772889 0.671177
O O8 0.500000 0.106621 0.250000
O O9 0.548814 0.143781 0.416818
O O10 0.275394 0.137124 0.207421
O O11 0.422792 0.013756 0.314132
O O12 0.090265 0.919820 0.703319
O O13 0.000000 0.019448 0.750000
O O14 0.247988 0.039735 0.823509
O O15 0.750000 0.250000 0.500000
O O16 0.000000 0.500000 0.000000
#
# Coordination Sequence:
#
# PCOD8138057 Si02
#       7
#     8   8   8   8   8   8   8
#     4  10  21  35  56  81 117 149 192 235 293 352
#     4  10  20  37  58  82 109 156 196 236 288 354
#     4  11  21  36  54  84 120 148 188 239 299 348
#     4  10  23  37  60  86 117 158 201 243 288 352
#     4  11  22  31  55  87 119 147 183 241 298 358
#     4  10  21  38  59  82 115 158 195 236 295 352
#     4  10  21  39  58  84 118 153 193 246 295 342
#
# _framework density 19.516724
#
# number of rings (size 3 to 8) (size 9 to 14) (size 15 to 20)
#    0.000    1.714    2.857    2.143    4.000    1.143 
#    0.000    0.714    0.000    1.714    0.000    0.000 
#    0.000    0.000    0.000    0.000    0.000    0.000 
#
# Total GULP energy -346960.759705 kJ/mol
# GULP energy per Si atom -12391.455704 kJ/mol
# Density = 1.947230 g / cm^3
# Si number density = 19.516724 Si / 1000 Ang^3
#
#
#
# Elastic Constant Matrix: (Units=GPa)
#
#
# Indices 1 2 3 4 5 6 
#
# 1 34.6458 10.1885 2.5146 0.0001 4.2371 0.0000
# 2 10.1885 163.1957 17.9054 0.0000 -2.1936 0.0000
# 3 2.5146 17.9054 87.6768 0.0002 1.1600 0.0001
# 4 0.0001 0.0000 0.0002 34.0078 0.0001 -3.4665
# 5 4.2371 -2.1936 1.1600 0.0001 12.7843 0.0001
# 6 0.0000 0.0000 0.0001 -3.4665 0.0001 14.5674
#
#
#
# Elastic Compliance Matrix: (Units=1/GPa)
#
#
# Indices 1 2 3 4 5 6 
#
# 1 0.030769 -0.002026 -0.000330 0.000000 -0.010516 0.000000
# 2 -0.002026 0.006420 -0.001278 0.000000 0.001889 0.000000
# 3 -0.000330 -0.001278 0.011691 0.000000 -0.001171 0.000000
# 4 0.000000 0.000000 0.000000 0.030136 0.000000 0.007171
# 5 -0.010516 0.001889 -0.001171 0.000000 0.082136 0.000000
# 6 0.000000 0.000000 0.000000 0.007171 0.000000 0.070353
#
#
# Mechanical properties :
#
#
# Convention : Reuss Voigt Hill
#
# Bulk Modulus (GPa) = 24.03084 38.52614 31.27849
# Shear Modulus (GPa) = 19.79067 29.26587 24.52827
#
# Velocity S-wave (km/s) = 3.18785 3.87657 3.54896
# Velocity P-wave (km/s) = 5.08817 6.31031 5.73191
#
# Compressibility (1/GPa) = 0.04161320
#
# Stress axis : x y z
#
# Youngs Moduli (GPa) = 32.49991 155.77030 85.53263
#
# Poissons Ratio (x) = 0.31561 0.02819
# Poissons Ratio (y) = 0.06585 0.10930
# Poissons Ratio (z) = 0.01071 0.19906
#
# Static dielectric constant tensor:
#      x y z
#    x 3.125350 0.000000 0.039840 
#    y 0.000000 4.414830 0.000000 
#    z 0.039840 0.000000 3.631350 
# 
# 
# High freq. dielectric constant tensor:
#      x y z
#    x 1.703160 0.000000 -0.001530 
#    y 0.000000 1.792050 0.000000 
#    z -0.001530 0.000000 1.770980 
# 
# From -- ./inp_files/206241.got.cif
#   From: 2010.06.25/outbox.cif.g09.slc.cpg/sg15_104_cif.got.tgz:206241.got - 2010.06.28 07:06:18.
