data_PCOD8138436
_publ_section_title
;
Structure prediction by ZEFSAII (Michael W. Deem and Ramdas Pophale) SiO2 
 PCOD8138436
Probable space group: C 2/C
;
_chemical_formula_sum "Si O2"
_cell_formula_units_Z 48
_cell_length_a 14.422433
_cell_length_b 8.933985
_cell_length_c 25.242876
_cell_angle_alpha 90.000000
_cell_angle_beta 139.321974
_cell_angle_gamma 90.000000
_cell_volume 2120.029973
_symmetry_space_group_name_H-M "C 2/C"
_symmetry_group_IT_number 15
_symmetry_cell_setting 'monoclinic'
loop_
_space_group_symop_operation_xyz
x,y,z
-x,y,1/2-z
-x,-y,-z
x,-y,1/2+z
1/2+x,1/2+y,z
1/2-x,1/2+y,1/2-z
1/2-x,1/2-y,-z
1/2+x,1/2-y,1/2+z
loop_
_atom_site_type_symbol
_atom_site_label
_atom_site_fract_x
_atom_site_fract_y
_atom_site_fract_z
Si Si1 0.709198 0.228793 0.043556
Si Si2 0.154850 0.026920 0.315726
Si Si3 0.110835 0.724829 0.590130
Si Si4 0.712419 0.955508 0.881754
Si Si5 0.416088 0.061035 0.288899
Si Si6 0.812889 0.236260 0.267091
O O1 0.815247 0.108140 0.115197
O O2 0.717982 0.383784 0.079412
O O3 0.750000 0.250000 0.000000
O O4 0.550111 0.167285 0.986054
O O5 0.133136 0.154584 0.261825
O O6 0.000000 0.944456 0.250000
O O7 0.279983 0.913060 0.356510
O O8 0.162649 0.829726 0.563305
O O9 0.112387 0.821832 0.645784
O O10 0.630281 0.933258 0.791632
O O11 0.587300 0.933740 0.871239
O O12 0.355175 0.200158 0.296957
O O13 0.346772 0.910555 0.281531
#
# Coordination Sequence:
#
# PCOD8138436 Si02
#       6
#     8   8   8   8   8   8
#     4  12  25  45  67  92 134 177 222 266 336 391
#     4  12  25  42  67  97 132 172 221 271 324 393
#     4  11  25  42  66 101 133 170 216 279 328 388
#     4  10  22  40  65  89 130 168 216 258 333 378
#     4  10  20  37  64  96 123 166 211 276 311 388
#     4  11  21  39  66  97 129 165 221 265 330 382
#
# _framework density 22.641190000000002
#
# number of rings (size 3 to 8) (size 9 to 14) (size 15 to 20)
#    0.000    1.000    3.333    4.000    4.667    0.000 
#    0.000    0.833    0.000    0.000    0.000    0.000 
#    0.000    0.000    0.000    0.000    0.000    0.000 
#
# Total GULP energy -297368.237957 kJ/mol
# GULP energy per Si atom -12390.343248 kJ/mol
# Density = 2.258966 g / cm^3
# Si number density = 22.641190 Si / 1000 Ang^3
#
#
#
# Elastic Constant Matrix: (Units=GPa)
#
#
# Indices 1 2 3 4 5 6 
#
# 1 128.1863 46.0775 54.1411 0.0000 30.6916 0.0000
# 2 46.0775 74.8603 25.6469 0.0000 13.3899 0.0000
# 3 54.1411 25.6469 88.4145 0.0000 31.2359 0.0000
# 4 0.0000 0.0000 0.0000 27.8488 0.0000 2.9642
# 5 30.6916 13.3899 31.2359 0.0000 48.1668 0.0000
# 6 0.0000 0.0000 0.0000 2.9642 0.0000 35.7964
#
#
#
# Elastic Compliance Matrix: (Units=1/GPa)
#
#
# Indices 1 2 3 4 5 6 
#
# 1 0.012684 -0.005501 -0.005002 0.000000 -0.003309 0.000000
# 2 -0.005501 0.017330 -0.001550 0.000000 -0.000307 0.000000
# 3 -0.005002 -0.001550 0.017570 0.000000 -0.007776 0.000000
# 4 0.000000 0.000000 0.000000 0.036227 0.000000 -0.003000
# 5 -0.003309 -0.000307 -0.007776 0.000000 0.027998 0.000000
# 6 0.000000 0.000000 0.000000 -0.003000 0.000000 0.028184
#
#
# Mechanical properties :
#
#
# Convention : Reuss Voigt Hill
#
# Bulk Modulus (GPa) = 42.59395 60.35468 51.47431
# Shear Modulus (GPa) = 29.08237 33.40213 31.24225
#
# Velocity S-wave (km/s) = 3.58787 3.84511 3.71871
# Velocity P-wave (km/s) = 6.00143 6.81381 6.42048
#
# Compressibility (1/GPa) = 0.02347751
#
# Stress axis : x y z
#
# Youngs Moduli (GPa) = 78.84219 57.70249 56.91476
#
# Poissons Ratio (x) = 0.31744 0.28469
# Poissons Ratio (y) = 0.43374 0.08820
# Poissons Ratio (z) = 0.39438 0.08942
#
# Static dielectric constant tensor:
#      x y z
#    x 4.672260 0.000000 0.172160 
#    y 0.000000 3.930520 0.000000 
#    z 0.172160 0.000000 4.082490 
# 
# 
# High freq. dielectric constant tensor:
#      x y z
#    x 1.914370 0.000000 0.012520 
#    y 0.000000 1.877400 0.000000 
#    z 0.012520 0.000000 1.873110 
# 
# From -- ./inp_files/295408.got.cif
#   From: 2010.06.25/outbox.cif.g09.slc.cpg/sg15_148_cif.got.tgz:295408.got - 2010.06.28 07:06:18.
