data_PCOD8138529
_publ_section_title
;
Structure prediction by ZEFSAII (Michael W. Deem and Ramdas Pophale) SiO2 
 PCOD8138529
Probable space group: C 2/C
;
_chemical_formula_sum "Si O2"
_cell_formula_units_Z 56
_cell_length_a 18.043582
_cell_length_b 8.397592
_cell_length_c 23.398063
_cell_angle_alpha 90.000000
_cell_angle_beta 51.896486
_cell_angle_gamma 90.000000
_cell_volume 2789.815105
_symmetry_space_group_name_H-M "C 2/C"
_symmetry_group_IT_number 15
_symmetry_cell_setting 'monoclinic'
loop_
_space_group_symop_operation_xyz
x,y,z
-x,y,1/2-z
-x,-y,-z
x,-y,1/2+z
1/2+x,1/2+y,z
1/2-x,1/2+y,1/2-z
1/2-x,1/2-y,-z
1/2+x,1/2-y,1/2+z
loop_
_atom_site_type_symbol
_atom_site_label
_atom_site_fract_x
_atom_site_fract_y
_atom_site_fract_z
Si Si1 0.495440 0.274358 0.035053
Si Si2 0.343228 0.799698 0.885292
Si Si3 0.333645 0.446010 0.485619
Si Si4 0.474231 0.299266 0.913165
Si Si5 0.861395 0.019547 0.666287
Si Si6 0.512497 0.042376 0.363347
Si Si7 0.813299 0.696163 0.269919
O O1 0.588715 0.364240 0.011169
O O2 0.401303 0.377103 0.094063
O O3 0.491988 0.104764 0.069083
O O4 0.501828 0.252401 0.964644
O O5 0.318938 0.639768 0.931649
O O6 0.446538 0.855273 0.853545
O O7 0.343001 0.756031 0.819254
O O8 0.266913 0.939108 0.934765
O O9 0.368711 0.627589 0.458642
O O10 0.548111 0.425962 0.851105
O O11 0.480048 0.139273 0.873797
O O12 0.815083 0.138301 0.734267
O O13 0.788854 0.884730 0.680847
O O14 0.617411 0.064558 0.289751
#
# Coordination Sequence:
#
# PCOD8138529 Si02
#       7
#     8   8   8   8   8   8   8
#     4   9  18  35  57  80 104 140 178 223 270 305
#     4  10  20  38  55  74 108 146 175 215 265 322
#     4   9  19  34  58  81  99 137 187 218 266 318
#     4  11  19  35  55  81 111 136 177 232 262 301
#     4  10  21  35  58  81 103 137 181 219 267 321
#     4  10  22  33  52  82 111 144 181 210 260 325
#     4  11  21  38  55  77 109 142 175 219 267 320
#
# _framework density 20.073014000000001
#
# number of rings (size 3 to 8) (size 9 to 14) (size 15 to 20)
#    0.000    2.000    0.000    6.000    0.000    0.571 
#    0.000    8.571    0.000    0.000    0.000    0.000 
#    0.000    0.000    0.000    0.000    0.000    0.000 
#
# Total GULP energy -347164.370728 kJ/mol
# GULP energy per Si atom -12398.727526 kJ/mol
# Density = 2.002733 g / cm^3
# Si number density = 20.073014 Si / 1000 Ang^3
#
#
#
# Elastic Constant Matrix: (Units=GPa)
#
#
# Indices 1 2 3 4 5 6 
#
# 1 57.8163 8.1850 23.1215 0.0000 2.8137 0.0002
# 2 8.1850 82.1027 14.7673 0.0000 2.6971 0.0001
# 3 23.1215 14.7673 58.5404 0.0000 1.5632 0.0000
# 4 0.0000 0.0000 0.0000 24.6132 0.0000 -9.6844
# 5 2.8137 2.6971 1.5632 0.0000 35.8218 0.0000
# 6 0.0002 0.0001 0.0000 -9.6844 0.0000 24.7163
#
#
#
# Elastic Compliance Matrix: (Units=1/GPa)
#
#
# Indices 1 2 3 4 5 6 
#
# 1 0.020624 -0.000583 -0.007966 0.000000 -0.001228 0.000000
# 2 -0.000583 0.012799 -0.002977 0.000000 -0.000788 0.000000
# 3 -0.007966 -0.002977 0.020981 0.000000 -0.000066 0.000000
# 4 0.000000 0.000000 0.000000 0.048034 0.000000 0.018821
# 5 -0.001228 -0.000788 -0.000066 0.000000 0.028075 0.000000
# 6 0.000000 0.000000 0.000000 0.018821 0.000000 0.047833
#
#
# Mechanical properties :
#
#
# Convention : Reuss Voigt Hill
#
# Bulk Modulus (GPa) = 31.89577 32.28968 32.09272
# Shear Modulus (GPa) = 23.60157 27.18930 25.39544
#
# Velocity S-wave (km/s) = 3.43269 3.68437 3.56076
# Velocity P-wave (km/s) = 5.62455 5.84983 5.73830
#
# Compressibility (1/GPa) = 0.03135212
#
# Stress axis : x y z
#
# Youngs Moduli (GPa) = 48.48678 78.12857 47.66124
#
# Poissons Ratio (x) = 0.04554 0.37967
# Poissons Ratio (y) = 0.02826 0.14191
# Poissons Ratio (z) = 0.38625 0.23263
#
# Static dielectric constant tensor:
#      x y z
#    x 3.505490 0.000000 -0.164750 
#    y 0.000000 3.605010 0.000000 
#    z -0.164750 0.000000 3.666160 
# 
# 
# High freq. dielectric constant tensor:
#      x y z
#    x 1.771260 0.000000 -0.013170 
#    y 0.000000 1.773180 0.000000 
#    z -0.013170 0.000000 1.786510 
# 
# From -- ./inp_files/276344.got.cif
#   From: 2010.06.25/outbox.cif.g09.slc.cpg/sg15_139_cif.got.tgz:276344.got - 2010.06.28 07:06:18.
