data_PCOD8138714
_publ_section_title
;
Structure prediction by ZEFSAII (Michael W. Deem and Ramdas Pophale) SiO2 
 PCOD8138714
Probable space group: C 2/C
;
_chemical_formula_sum "Si O2"
_cell_formula_units_Z 52
_cell_length_a 10.468215
_cell_length_b 27.628839
_cell_length_c 9.030388
_cell_angle_alpha 90.000000
_cell_angle_beta 81.449303
_cell_angle_gamma 90.000000
_cell_volume 2582.779515
_symmetry_space_group_name_H-M "C 2/C"
_symmetry_group_IT_number 15
_symmetry_cell_setting 'monoclinic'
loop_
_space_group_symop_operation_xyz
x,y,z
-x,y,1/2-z
-x,-y,-z
x,-y,1/2+z
1/2+x,1/2+y,z
1/2-x,1/2+y,1/2-z
1/2-x,1/2-y,-z
1/2+x,1/2-y,1/2+z
loop_
_atom_site_type_symbol
_atom_site_label
_atom_site_fract_x
_atom_site_fract_y
_atom_site_fract_z
Si Si1 0.500000 0.643865 0.750000
Si Si2 0.851251 0.061333 0.649157
Si Si3 0.365734 0.468354 0.825458
Si Si4 0.857423 0.697263 0.342941
Si Si5 0.865147 0.397711 0.697511
Si Si6 0.627636 0.128390 0.639900
Si Si7 0.251360 0.797536 0.177819
O O1 0.448058 0.607419 0.632022
O O2 0.386153 0.677071 0.837347
O O3 0.869951 0.029841 0.500402
O O4 0.708975 0.082766 0.680227
O O5 0.865994 0.024935 0.783508
O O6 0.500000 0.443343 0.750000
O O7 0.238520 0.440962 0.786973
O O8 0.800520 0.645593 0.302546
O O9 0.771172 0.740606 0.291397
O O10 0.851812 0.697241 0.523536
O O11 0.000000 0.702144 0.250000
O O12 0.894066 0.374269 0.531961
O O13 0.000000 0.415518 0.750000
O O14 0.500000 0.120302 0.750000
O O15 0.690735 0.179523 0.681688
#
# Coordination Sequence:
#
# PCOD8138714 Si02
#       7
#     4   8   8   8   8   8   8
#     4  10  20  38  60  92 120 162 198 246 310 370
#     4  10  23  37  61  87 121 157 200 247 310 364
#     4  11  23  39  59  90 121 156 202 256 306 367
#     4  10  20  38  60  92 119 163 205 253 308 368
#     4  10  23  40  60  87 123 163 208 253 308 363
#     4  10  21  40  59  88 119 161 204 253 301 369
#     4  10  21  36  63  87 123 158 203 253 307 369
#
# _framework density 20.13335
#
# number of rings (size 3 to 8) (size 9 to 14) (size 15 to 20)
#    0.000    1.846    1.538    2.308    2.154    3.692 
#    0.000    3.846    0.000    0.000    0.000    0.000 
#    0.000    0.000    0.000    0.000    0.000    0.000 
#
# Total GULP energy -322230.161154 kJ/mol
# GULP energy per Si atom -12393.467737 kJ/mol
# Density = 2.008753 g / cm^3
# Si number density = 20.133350 Si / 1000 Ang^3
#
#
#
# Elastic Constant Matrix: (Units=GPa)
#
#
# Indices 1 2 3 4 5 6 
#
# 1 94.6264 13.1164 19.7057 0.0000 -6.0700 0.0000
# 2 13.1164 65.8671 3.5430 0.0000 -5.0509 0.0000
# 3 19.7057 3.5430 53.6111 0.0000 -1.5722 0.0000
# 4 0.0000 0.0000 0.0000 47.7949 0.0000 8.5217
# 5 -6.0700 -5.0509 -1.5722 0.0000 31.8294 0.0000
# 6 0.0000 0.0000 0.0000 8.5217 0.0000 24.4926
#
#
#
# Elastic Compliance Matrix: (Units=1/GPa)
#
#
# Indices 1 2 3 4 5 6 
#
# 1 0.011823 -0.001998 -0.004163 0.000000 0.001732 0.000000
# 2 -0.001998 0.015755 -0.000245 0.000000 0.002107 0.000000
# 3 -0.004163 -0.000245 0.020204 0.000000 0.000165 0.000000
# 4 0.000000 0.000000 0.000000 0.022306 0.000000 -0.007761
# 5 0.001732 0.002107 0.000165 0.000000 0.032090 0.000000
# 6 0.000000 0.000000 0.000000 -0.007761 0.000000 0.043529
#
#
# Mechanical properties :
#
#
# Convention : Reuss Voigt Hill
#
# Bulk Modulus (GPa) = 28.59571 31.87053 30.23312
# Shear Modulus (GPa) = 29.38151 32.67269 31.02710
#
# Velocity S-wave (km/s) = 3.82428 4.03279 3.92992
# Velocity P-wave (km/s) = 5.80811 6.12769 5.97004
#
# Compressibility (1/GPa) = 0.03497028
#
# Stress axis : x y z
#
# Youngs Moduli (GPa) = 84.58256 63.47338 49.49506
#
# Poissons Ratio (x) = 0.12679 0.20604
# Poissons Ratio (y) = 0.16896 0.01213
# Poissons Ratio (z) = 0.35211 0.01556
#
# Static dielectric constant tensor:
#      x y z
#    x 3.803990 0.000000 0.030250 
#    y 0.000000 3.769530 0.000000 
#    z 0.030250 0.000000 3.689990 
# 
# 
# High freq. dielectric constant tensor:
#      x y z
#    x 1.791870 0.000000 -0.004400 
#    y 0.000000 1.790330 0.000000 
#    z -0.004400 0.000000 1.780110 
# 
# From -- ./inp_files/33555.got.cif
#   From: 2010.06.25/outbox.cif.g09.slc.cpg/sg15_17_cif.got.tgz:33555.got - 2010.06.28 07:06:18.
