data_PCOD8138920
_publ_section_title
;
Structure prediction by ZEFSAII (Michael W. Deem and Ramdas Pophale) SiO2 
 PCOD8138920
Probable space group: C 2/C
;
_chemical_formula_sum "Si O2"
_cell_formula_units_Z 56
_cell_length_a 23.950738
_cell_length_b 12.880321
_cell_length_c 9.207507
_cell_angle_alpha 90.000000
_cell_angle_beta 73.495730
_cell_angle_gamma 90.000000
_cell_volume 2723.422493
_symmetry_space_group_name_H-M "C 2/C"
_symmetry_group_IT_number 15
_symmetry_cell_setting 'monoclinic'
loop_
_space_group_symop_operation_xyz
x,y,z
-x,y,1/2-z
-x,-y,-z
x,-y,1/2+z
1/2+x,1/2+y,z
1/2-x,1/2+y,1/2-z
1/2-x,1/2-y,-z
1/2+x,1/2-y,1/2+z
loop_
_atom_site_type_symbol
_atom_site_label
_atom_site_fract_x
_atom_site_fract_y
_atom_site_fract_z
Si Si1 0.386898 0.359144 0.329068
Si Si2 0.770422 0.774653 0.322458
Si Si3 0.934604 0.925528 0.801524
Si Si4 0.444417 0.258542 0.035099
Si Si5 0.422416 0.262097 0.586520
Si Si6 0.161402 0.393097 0.897876
Si Si7 0.831603 0.390657 0.268154
O O1 0.325697 0.350342 0.292138
O O2 0.393137 0.478680 0.373076
O O3 0.439103 0.328951 0.182356
O O4 0.390007 0.276073 0.457237
O O5 0.750000 0.750000 0.500000
O O6 0.788457 0.671142 0.222089
O O7 0.722596 0.832164 0.262618
O O8 0.919781 0.877793 0.655617
O O9 0.000000 0.968562 0.750000
O O10 0.925339 0.830392 0.916438
O O11 0.401963 0.159593 0.071346
O O12 0.511163 0.221563 0.974055
O O13 0.389337 0.178189 0.707852
O O14 0.157100 0.502808 0.822754
O O15 0.179434 0.408452 0.052611
#
# Coordination Sequence:
#
# PCOD8138920 Si02
#       7
#     8   8   8   8   8   8   8
#     4  11  22  38  65  96 132 175 220 266 332 400
#     4  11  24  47  67  96 133 169 223 274 327 397
#     4  10  20  38  62  96 134 168 212 267 330 401
#     4  10  22  41  63  99 134 171 219 273 331 396
#     4  11  22  39  67  94 138 173 215 276 329 394
#     4  11  26  46  70  95 134 172 224 276 330 391
#     4  12  25  46  69  97 131 176 222 275 331 389
#
# _framework density 20.562362
#
# number of rings (size 3 to 8) (size 9 to 14) (size 15 to 20)
#    0.000    1.143    2.857    3.429    2.000    4.000 
#   12.857    0.000    0.000    0.000    0.000    0.000 
#    0.000    0.000    0.000    0.000    0.000    0.000 
#
# Total GULP energy -347254.563224 kJ/mol
# GULP energy per Si atom -12401.948687 kJ/mol
# Density = 2.051556 g / cm^3
# Si number density = 20.562362 Si / 1000 Ang^3
#
#
#
# Elastic Constant Matrix: (Units=GPa)
#
#
# Indices 1 2 3 4 5 6 
#
# 1 100.4468 64.6063 52.6525 0.0000 6.8779 0.0000
# 2 64.6063 118.1814 36.8362 0.0000 -7.6970 0.0000
# 3 52.6525 36.8362 128.0022 0.0000 0.2328 0.0000
# 4 0.0000 0.0000 0.0000 -14.1979 0.0000 -42.8756
# 5 6.8779 -7.6970 0.2328 0.0000 27.0913 0.0000
# 6 0.0000 0.0000 0.0000 -42.8756 0.0000 -4.7212
#
#
#
# Elastic Compliance Matrix: (Units=1/GPa)
#
#
# Indices 1 2 3 4 5 6 
#
# 1 0.019225 -0.009379 -0.005195 0.000000 -0.007501 0.000000
# 2 -0.009379 0.014067 -0.000202 0.000000 0.006379 0.000000
# 3 -0.005195 -0.000202 0.010005 0.000000 0.001176 0.000000
# 4 0.000000 0.000000 0.000000 0.002665 0.000000 -0.024206
# 5 -0.007501 0.006379 0.001176 0.000000 0.040619 0.000000
# 6 0.000000 0.000000 0.000000 -0.024206 0.000000 0.008016
#
#
# Mechanical properties :
#
#
# Convention : Reuss Voigt Hill
#
# Bulk Modulus (GPa) = 72.75245 72.75780 72.75513
# Shear Modulus (GPa) = 38.84075 14.47013 26.65544
#
# Velocity S-wave (km/s) = 4.35089 2.65565 3.60435
# Velocity P-wave (km/s) = 7.79093 6.69807 7.26507
#
# Compressibility (1/GPa) = 0.01374524
#
# Stress axis : x y z
#
# Youngs Moduli (GPa) = 52.01637 71.08787 99.94637
#
# Poissons Ratio (x) = 0.66672 0.51925
# Poissons Ratio (y) = 0.48785 0.02018
# Poissons Ratio (z) = 0.27024 0.01435
#
# Static dielectric constant tensor:
#      x y z
#    x 3.720110 0.000000 -0.019740 
#    y 0.000000 3.539230 0.000000 
#    z -0.019740 0.000000 4.052660 
# 
# 
# High freq. dielectric constant tensor:
#      x y z
#    x 1.807100 0.000000 0.004970 
#    y 0.000000 1.796630 0.000000 
#    z 0.004970 0.000000 1.824750 
# 
# From -- ./inp_files/65415.got.cif
#   From: 2010.06.25/outbox.cif.g09.slc.cpg/sg15_33_cif.got.tgz:65415.got - 2010.06.28 07:06:18.
