data_PCOD8138388
_publ_section_title
;
Structure prediction by ZEFSAII (Michael W. Deem and Ramdas Pophale) SiO2 
 PCOD8138388
Probable space group: C 2/C
;
_chemical_formula_sum "Si O2"
_cell_formula_units_Z 48
_cell_length_a 15.650860
_cell_length_b 19.541762
_cell_length_c 13.078433
_cell_angle_alpha 90.000000
_cell_angle_beta 30.006985
_cell_angle_gamma 90.000000
_cell_volume 2000.411459
_symmetry_space_group_name_H-M "C 2/C"
_symmetry_group_IT_number 15
_symmetry_cell_setting 'monoclinic'
loop_
_space_group_symop_operation_xyz
x,y,z
-x,y,1/2-z
-x,-y,-z
x,-y,1/2+z
1/2+x,1/2+y,z
1/2-x,1/2+y,1/2-z
1/2-x,1/2-y,-z
1/2+x,1/2-y,1/2+z
loop_
_atom_site_type_symbol
_atom_site_label
_atom_site_fract_x
_atom_site_fract_y
_atom_site_fract_z
Si Si1 0.275234 0.311825 0.148062
Si Si2 0.000000 0.125074 0.250000
Si Si3 0.500000 0.994125 0.750000
Si Si4 0.239378 0.385828 0.580198
Si Si5 0.722453 0.546971 0.171862
Si Si6 0.615043 0.170239 0.394659
Si Si7 0.108663 0.897000 0.287980
O O1 0.286975 0.229998 0.147191
O O2 0.389585 0.345208 0.118991
O O3 0.079586 0.334684 0.366040
O O4 0.349031 0.329484 0.958740
O O5 0.936374 0.077356 0.224923
O O6 0.610579 0.949800 0.715404
O O7 0.618351 0.045720 0.567594
O O8 0.142873 0.323602 0.741860
O O9 0.418199 0.406712 0.445617
O O10 0.270907 0.367397 0.427782
O O11 0.781995 0.598688 0.198261
O O12 0.674703 0.470933 0.260464
#
# Coordination Sequence:
#
# PCOD8138388 Si02
#       7
#     8   4   4   8   8   8   8
#     4  12  28  47  67  95 132 176 221 271 329 391
#     4  12  26  45  68  93 132 174 222 276 324 385
#     4  10  20  37  64 101 136 172 214 270 328 381
#     4  10  21  41  68 100 137 171 214 268 327 390
#     4  11  23  40  68  99 132 173 220 271 325 385
#     4  12  26  44  68  97 132 175 221 268 326 393
#     4  10  23  43  69 101 135 171 216 271 329 384
#
# _framework density 23.995062000000001
#
# number of rings (size 3 to 8) (size 9 to 14) (size 15 to 20)
#    0.000    1.000    0.000    8.000    0.000   12.000 
#    0.000    1.667    0.000    0.000    0.000    0.000 
#    0.000    0.000    0.000    0.000    0.000    0.000 
#
# Total GULP energy -297487.258169 kJ/mol
# GULP energy per Si atom -12395.302424 kJ/mol
# Density = 2.394045 g / cm^3
# Si number density = 23.995062 Si / 1000 Ang^3
#
#
#
# Elastic Constant Matrix: (Units=GPa)
#
#
# Indices 1 2 3 4 5 6 
#
# 1 64.7610 11.9649 15.5692 0.0970 -10.8867 -0.0206
# 2 11.9649 67.6360 16.4612 0.1375 9.7129 -0.1154
# 3 15.5692 16.4612 149.5754 0.0192 19.0001 -0.1124
# 4 0.0970 0.1375 0.0192 32.9983 -0.0736 2.2852
# 5 -10.8867 9.7129 19.0001 -0.0736 40.5009 0.0430
# 6 -0.0206 -0.1154 -0.1124 2.2852 0.0430 20.6226
#
#
#
# Elastic Compliance Matrix: (Units=1/GPa)
#
#
# Indices 1 2 3 4 5 6 
#
# 1 0.017782 -0.003547 -0.002314 -0.000019 0.006716 -0.000027
# 2 -0.003547 0.016260 -0.000855 -0.000074 -0.004452 0.000100
# 3 -0.002314 -0.000855 0.007522 -0.000006 -0.003946 0.000043
# 4 -0.000019 -0.000074 -0.000006 0.030540 0.000074 -0.003385
# 5 0.006716 -0.004452 -0.003946 0.000074 0.029415 -0.000109
# 6 -0.000027 0.000100 0.000043 -0.003385 -0.000109 0.048866
#
#
# Mechanical properties :
#
#
# Convention : Reuss Voigt Hill
#
# Bulk Modulus (GPa) = 35.54514 41.10701 38.32607
# Shear Modulus (GPa) = 28.86949 34.68949 31.77949
#
# Velocity S-wave (km/s) = 3.47240 3.80635 3.64320
# Velocity P-wave (km/s) = 5.56079 6.04040 5.80555
#
# Compressibility (1/GPa) = 0.02813324
#
# Stress axis : x y z
#
# Youngs Moduli (GPa) = 56.23682 61.49995 132.94839
#
# Poissons Ratio (x) = 0.21814 0.30760
# Poissons Ratio (y) = 0.19947 0.11362
# Poissons Ratio (z) = 0.13011 0.05256
#
# Static dielectric constant tensor:
#      x y z
#    x 4.344910 -0.000040 0.205200 
#    y -0.000040 4.095820 0.000250 
#    z 0.205200 0.000250 4.791100 
# 
# 
# High freq. dielectric constant tensor:
#      x y z
#    x 1.946220 -0.000010 0.003490 
#    y -0.000010 1.929470 0.000010 
#    z 0.003490 0.000010 1.988470 
# 
# From -- ./inp_files/163204.got.cif
#   From: 2010.06.25/outbox.cif.g09.slc.cpg/sg15_82_cif.got.tgz:163204.got - 2010.06.28 07:06:18.
