data_PCOD8138807
_publ_section_title
;
Structure prediction by ZEFSAII (Michael W. Deem and Ramdas Pophale) SiO2 
 PCOD8138807
Probable space group: C 2/C
;
_chemical_formula_sum "Si O2"
_cell_formula_units_Z 64
_cell_length_a 30.485456
_cell_length_b 18.629015
_cell_length_c 8.419496
_cell_angle_alpha 90.000000
_cell_angle_beta 141.290705
_cell_angle_gamma 90.000000
_cell_volume 2990.234238
_symmetry_space_group_name_H-M "C 2/C"
_symmetry_group_IT_number 15
_symmetry_cell_setting 'monoclinic'
loop_
_space_group_symop_operation_xyz
x,y,z
-x,y,1/2-z
-x,-y,-z
x,-y,1/2+z
1/2+x,1/2+y,z
1/2-x,1/2+y,1/2-z
1/2-x,1/2-y,-z
1/2+x,1/2-y,1/2+z
loop_
_atom_site_type_symbol
_atom_site_label
_atom_site_fract_x
_atom_site_fract_y
_atom_site_fract_z
Si Si1 0.568225 0.813820 0.850784
Si Si2 0.338440 0.096973 0.089642
Si Si3 0.962904 0.847564 0.308967
Si Si4 0.202738 0.544642 0.198373
Si Si5 0.220225 0.814738 0.128336
Si Si6 0.301512 0.166903 0.556748
Si Si7 0.632522 0.450993 0.304937
Si Si8 0.090332 0.904481 0.843363
O O1 0.500000 0.843069 0.750000
O O2 0.553926 0.736624 0.731848
O O3 0.588388 0.868852 0.765427
O O4 0.630357 0.807661 0.153655
O O5 0.278653 0.158454 0.918314
O O6 0.315701 0.036151 0.900072
O O7 0.345400 0.067280 0.287700
O O8 0.891232 0.893032 0.128720
O O9 0.000000 0.868920 0.250000
O O10 0.014126 0.870769 0.597027
O O11 0.283824 0.550193 0.475509
O O12 0.184307 0.593509 0.995475
O O13 0.238025 0.843516 0.001391
O O14 0.219098 0.728215 0.128085
O O15 0.144435 0.841012 0.963866
O O16 0.605393 0.529532 0.269750
O O17 0.596063 0.430868 0.038149
#
# Coordination Sequence:
#
# PCOD8138807 Si02
#       8
#     8   8   8   8   8   8   8   8
#     4  10  23  47  69  94 127 178 217 277 333 396
#     4  11  23  42  67  97 133 169 224 270 331 389
#     4  11  25  42  66  90 133 180 228 264 321 395
#     4  12  24  43  66 104 135 174 215 281 326 394
#     4  10  20  38  61  96 125 178 211 274 316 389
#     4  10  24  37  68  93 135 162 231 261 338 382
#     4  12  25  40  65  99 140 185 214 265 329 389
#     4  12  24  41  63  95 138 178 227 262 324 389
#
# _framework density 21.403006999999999
#
# number of rings (size 3 to 8) (size 9 to 14) (size 15 to 20)
#    0.000    1.000    2.500    4.500    8.750    1.500 
#    0.000    5.625    0.000    0.000    0.000    0.000 
#    0.000    0.000    0.000    0.000    0.000    0.000 
#
# Total GULP energy -396917.378656 kJ/mol
# GULP energy per Si atom -12403.668083 kJ/mol
# Density = 2.135429 g / cm^3
# Si number density = 21.403007 Si / 1000 Ang^3
#
#
#
# Elastic Constant Matrix: (Units=GPa)
#
#
# Indices 1 2 3 4 5 6 
#
# 1 65.1935 13.9124 11.7095 0.0000 7.4777 0.0000
# 2 13.9124 71.1757 21.3941 0.0000 6.0228 0.0000
# 3 11.7095 21.3941 62.5102 0.0000 -4.2957 0.0000
# 4 0.0000 0.0000 0.0000 27.9777 0.0000 1.3186
# 5 7.4777 6.0228 -4.2957 0.0000 35.3541 0.0000
# 6 0.0000 0.0000 0.0000 1.3186 0.0000 37.2842
#
#
#
# Elastic Compliance Matrix: (Units=1/GPa)
#
#
# Indices 1 2 3 4 5 6 
#
# 1 0.016672 -0.002179 -0.002616 0.000000 -0.003473 0.000000
# 2 -0.002179 0.016348 -0.005392 0.000000 -0.002979 0.000000
# 3 -0.002616 -0.005392 0.018589 0.000000 0.003731 0.000000
# 4 0.000000 0.000000 0.000000 0.035802 0.000000 -0.001266
# 5 -0.003473 -0.002979 0.003731 0.000000 0.029981 0.000000
# 6 0.000000 0.000000 0.000000 -0.001266 0.000000 0.026866
#
#
# Mechanical properties :
#
#
# Convention : Reuss Voigt Hill
#
# Bulk Modulus (GPa) = 32.01379 32.54572 32.27976
# Shear Modulus (GPa) = 28.56427 30.24744 29.40586
#
# Velocity S-wave (km/s) = 3.65717 3.76338 3.71065
# Velocity P-wave (km/s) = 5.72916 5.84150 5.78560
#
# Compressibility (1/GPa) = 0.03123654
#
# Stress axis : x y z
#
# Youngs Moduli (GPa) = 59.98044 61.16805 53.79474
#
# Poissons Ratio (x) = 0.13326 0.14073
# Poissons Ratio (y) = 0.13067 0.29006
# Poissons Ratio (z) = 0.15691 0.32981
#
# Static dielectric constant tensor:
#      x y z
#    x 4.027110 0.000000 0.090550 
#    y 0.000000 3.945070 0.000000 
#    z 0.090550 0.000000 3.639690 
# 
# 
# High freq. dielectric constant tensor:
#      x y z
#    x 1.848430 0.000000 0.000130 
#    y 0.000000 1.847900 0.000000 
#    z 0.000130 0.000000 1.819900 
# 
# From -- ./inp_files/70642.got.cif
#   From: 2010.06.25/outbox.cif.g09.slc.cpg/sg15_36_cif.got.tgz:70642.got - 2010.06.28 07:06:18.
