data_PCOD8138964
_publ_section_title
;
Structure prediction by ZEFSAII (Michael W. Deem and Ramdas Pophale) SiO2 
 PCOD8138964
Probable space group: C 2/C
;
_chemical_formula_sum "Si O2"
_cell_formula_units_Z 52
_cell_length_a 16.983209
_cell_length_b 19.747413
_cell_length_c 8.079784
_cell_angle_alpha 90.000000
_cell_angle_beta 106.671674
_cell_angle_gamma 90.000000
_cell_volume 2595.847075
_symmetry_space_group_name_H-M "C 2/C"
_symmetry_group_IT_number 15
_symmetry_cell_setting 'monoclinic'
loop_
_space_group_symop_operation_xyz
x,y,z
-x,y,1/2-z
-x,-y,-z
x,-y,1/2+z
1/2+x,1/2+y,z
1/2-x,1/2+y,1/2-z
1/2-x,1/2-y,-z
1/2+x,1/2-y,1/2+z
loop_
_atom_site_type_symbol
_atom_site_label
_atom_site_fract_x
_atom_site_fract_y
_atom_site_fract_z
Si Si1 0.146093 0.412428 0.115705
Si Si2 0.500000 0.623324 0.250000
Si Si3 0.830845 0.091245 0.682435
Si Si4 0.584397 0.956094 0.397444
Si Si5 0.550966 0.693937 0.618556
Si Si6 0.989155 0.347806 0.926581
Si Si7 0.090369 0.970765 0.593622
O O1 0.234476 0.395877 0.092878
O O2 0.155969 0.433114 0.314003
O O3 0.105663 0.474402 0.995599
O O4 0.081040 0.349580 0.064213
O O5 0.518101 0.666652 0.424248
O O6 0.421073 0.577017 0.251105
O O7 0.860979 0.161015 0.786046
O O8 0.874857 0.073923 0.535875
O O9 0.846614 0.030101 0.820868
O O10 0.500000 0.966255 0.250000
O O11 0.575850 0.896610 0.525543
O O12 0.500000 0.671503 0.750000
O O13 0.552510 0.774247 0.599458
O O14 0.000000 0.375580 0.750000
O O15 0.000000 0.000000 0.500000
#
# Coordination Sequence:
#
# PCOD8138964 Si02
#       7
#     8   4   8   8   8   8   8
#     4  11  22  37  63  93 125 159 200 265 324 353
#     4  12  22  36  66  90 116 166 222 246 294 366
#     4  12  22  38  60  96 130 156 204 271 315 361
#     4  10  20  38  63  91 119 161 212 251 304 386
#     4  11  23  41  63  88 122 168 212 252 301 379
#     4  10  22  41  65  85 119 165 215 251 303 384
#     4  12  20  36  62  91 121 163 210 251 303 369
#
# _framework density 20.031994999999998
#
# number of rings (size 3 to 8) (size 9 to 14) (size 15 to 20)
#    0.000    0.923    4.615    4.154    3.231    0.000 
#    0.000    3.846    3.385    0.000    0.000    0.000 
#    0.000    0.000    0.000    0.000    0.000    0.000 
#
# Total GULP energy -322257.795930 kJ/mol
# GULP energy per Si atom -12394.530613 kJ/mol
# Density = 1.998640 g / cm^3
# Si number density = 20.031995 Si / 1000 Ang^3
#
#
#
# Elastic Constant Matrix: (Units=GPa)
#
#
# Indices 1 2 3 4 5 6 
#
# 1 94.7901 46.5156 30.7443 0.0000 -6.5151 0.0000
# 2 46.5156 119.1987 49.8777 0.0000 1.2385 0.0000
# 3 30.7443 49.8777 102.9704 0.0000 -23.4718 0.0000
# 4 0.0000 0.0000 0.0000 24.8629 0.0000 -16.5205
# 5 -6.5151 1.2385 -23.4718 0.0000 31.9187 0.0000
# 6 0.0000 0.0000 0.0000 -16.5205 0.0000 1.9367
#
#
#
# Elastic Compliance Matrix: (Units=1/GPa)
#
#
# Indices 1 2 3 4 5 6 
#
# 1 0.013416 -0.004729 -0.001260 0.000000 0.001995 0.000000
# 2 -0.004729 0.012896 -0.006210 0.000000 -0.006032 0.000000
# 3 -0.001260 -0.006210 0.015728 0.000000 0.011550 0.000000
# 4 0.000000 0.000000 0.000000 -0.008616 0.000000 -0.073498
# 5 0.001995 -0.006032 0.011550 0.000000 0.040464 0.000000
# 6 0.000000 0.000000 0.000000 -0.073498 0.000000 -0.110613
#
#
# Mechanical properties :
#
#
# Convention : Reuss Voigt Hill
#
# Bulk Modulus (GPa) = 56.68047 63.47049 60.07548
# Shear Modulus (GPa) = -775.63468 24.39844 -375.61812
#
# Velocity S-wave (km/s) = -19.69869 3.49373 -13.70825
# Velocity P-wave (km/s) = 22.11398 6.93024 14.84924
#
# Compressibility (1/GPa) = 0.01764276
#
# Stress axis : x y z
#
# Youngs Moduli (GPa) = 74.53759 77.54506 63.57901
#
# Poissons Ratio (x) = 0.36669 0.08013
# Poissons Ratio (y) = 0.35247 0.39480
# Poissons Ratio (z) = 0.09394 0.48153
#
# Static dielectric constant tensor:
#      x y z
#    x 3.645680 0.000000 -0.339040 
#    y 0.000000 3.626530 0.000000 
#    z -0.339040 0.000000 3.927410 
# 
# 
# High freq. dielectric constant tensor:
#      x y z
#    x 1.764280 0.000000 -0.025370 
#    y 0.000000 1.775670 0.000000 
#    z -0.025370 0.000000 1.795740 
# 
# From -- ./inp_files/49839.got.cif
#   From: 2010.06.25/outbox.cif.g09.slc.cpg/sg15_25_cif.got.tgz:49839.got - 2010.06.28 07:06:18.
