data_PCOD8138994
_publ_section_title
;
Structure prediction by ZEFSAII (Michael W. Deem and Ramdas Pophale) SiO2 
 PCOD8138994
Probable space group: C 2/C
;
_chemical_formula_sum "Si O2"
_cell_formula_units_Z 60
_cell_length_a 9.392455
_cell_length_b 19.942729
_cell_length_c 16.914775
_cell_angle_alpha 90.000000
_cell_angle_beta 113.257461
_cell_angle_gamma 90.000000
_cell_volume 2910.867693
_symmetry_space_group_name_H-M "C 2/C"
_symmetry_group_IT_number 15
_symmetry_cell_setting 'monoclinic'
loop_
_space_group_symop_operation_xyz
x,y,z
-x,y,1/2-z
-x,-y,-z
x,-y,1/2+z
1/2+x,1/2+y,z
1/2-x,1/2+y,1/2-z
1/2-x,1/2-y,-z
1/2+x,1/2-y,1/2+z
loop_
_atom_site_type_symbol
_atom_site_label
_atom_site_fract_x
_atom_site_fract_y
_atom_site_fract_z
Si Si1 0.452525 0.074615 0.651344
Si Si2 0.000000 0.146180 0.750000
Si Si3 0.419090 0.267155 0.374332
Si Si4 0.650753 0.533726 0.495407
Si Si5 0.019481 0.164669 0.049074
Si Si6 0.581539 0.767410 0.346926
Si Si7 0.316013 0.179243 0.043269
Si Si8 0.229939 0.427219 0.098379
O O1 0.500000 0.051788 0.750000
O O2 0.288026 0.042089 0.590140
O O3 0.437476 0.154279 0.642564
O O4 0.589199 0.050126 0.623652
O O5 0.903769 0.193630 0.788426
O O6 0.873713 0.100354 0.679962
O O7 0.493118 0.320734 0.450637
O O8 0.257469 0.245273 0.375858
O O9 0.515651 0.198009 0.384487
O O10 0.500000 0.500000 0.500000
O O11 0.591805 0.604828 0.447572
O O12 0.713320 0.492628 0.435179
O O13 0.991090 0.230374 0.094270
O O14 0.204929 0.147753 0.088125
O O15 0.500000 0.742568 0.250000
O O16 0.250000 0.250000 0.000000
O O17 0.335793 0.128378 0.975481
#
# Coordination Sequence:
#
# PCOD8138994 Si02
#       8
#     8   4   8   8   8   8   8   8
#     4  11  25  44  72 102 132 171 231 290 333 399
#     4  12  22  40  68 104 132 174 230 282 332 404
#     4  11  22  36  67 100 130 169 218 280 339 396
#     4  12  25  46  68  95 137 186 226 268 339 414
#     4  11  22  43  64  98 132 173 218 272 339 406
#     4  11  24  41  68 101 136 168 221 287 345 394
#     4  10  20  38  63  96 129 170 210 273 329 395
#     4  12  25  42  70  98 138 175 235 270 341 400
#
# _framework density 20.612411000000002
#
# number of rings (size 3 to 8) (size 9 to 14) (size 15 to 20)
#    0.000    0.800    5.333    4.000    5.600    0.000 
#    1.200    0.000    1.467    0.000    0.000    0.000 
#    0.000    0.000    0.000    0.000    0.000    0.000 
#
# Total GULP energy -371957.281199 kJ/mol
# GULP energy per Si atom -12398.576040 kJ/mol
# Density = 2.056550 g / cm^3
# Si number density = 20.612411 Si / 1000 Ang^3
#
#
#
# Elastic Constant Matrix: (Units=GPa)
#
#
# Indices 1 2 3 4 5 6 
#
# 1 156.7547 40.9485 52.1733 0.0000 -6.3741 0.0000
# 2 40.9485 82.8027 55.2125 0.0000 -2.6627 0.0000
# 3 52.1733 55.2125 101.6452 0.0000 -6.6303 0.0000
# 4 0.0000 0.0000 0.0000 29.2199 0.0000 0.1525
# 5 -6.3741 -2.6627 -6.6303 0.0000 39.7798 0.0000
# 6 0.0000 0.0000 0.0000 0.1525 0.0000 44.7441
#
#
#
# Elastic Compliance Matrix: (Units=1/GPa)
#
#
# Indices 1 2 3 4 5 6 
#
# 1 0.007892 -0.001896 -0.002980 0.000000 0.000641 0.000000
# 2 -0.001896 0.019398 -0.009604 0.000000 -0.000606 0.000000
# 3 -0.002980 -0.009604 0.016692 0.000000 0.001662 0.000000
# 4 0.000000 0.000000 0.000000 0.034224 0.000000 -0.000117
# 5 0.000641 -0.000606 0.001662 0.000000 0.025478 0.000000
# 6 0.000000 0.000000 0.000000 -0.000117 0.000000 0.022350
#
#
# Mechanical properties :
#
#
# Convention : Reuss Voigt Hill
#
# Bulk Modulus (GPa) = 66.55212 70.87457 68.71334
# Shear Modulus (GPa) = 31.24992 35.60665 33.42829
#
# Velocity S-wave (km/s) = 3.89790 4.16075 4.03147
# Velocity P-wave (km/s) = 7.25367 7.58562 7.42150
#
# Compressibility (1/GPa) = 0.01502582
#
# Stress axis : x y z
#
# Youngs Moduli (GPa) = 126.70496 51.55048 59.90739
#
# Poissons Ratio (x) = 0.09772 0.17850
# Poissons Ratio (y) = 0.24019 0.57532
# Poissons Ratio (z) = 0.37752 0.49507
#
# Static dielectric constant tensor:
#      x y z
#    x 4.056760 0.000000 0.061140 
#    y 0.000000 3.719120 0.000000 
#    z 0.061140 0.000000 3.722980 
# 
# 
# High freq. dielectric constant tensor:
#      x y z
#    x 1.835500 0.000000 0.001150 
#    y 0.000000 1.787190 0.000000 
#    z 0.001150 0.000000 1.793310 
# 
# From -- ./inp_files/192238.got.cif
#   From: 2010.06.25/outbox.cif.g09.slc.cpg/sg15_97_cif.got.tgz:192238.got - 2010.06.28 07:06:18.
