data_PCOD8138751
_publ_section_title
;
Structure prediction by ZEFSAII (Michael W. Deem and Ramdas Pophale) SiO2 
 PCOD8138751
Probable space group: C 2/C
;
_chemical_formula_sum "Si O2"
_cell_formula_units_Z 48
_cell_length_a 12.005217
_cell_length_b 8.461455
_cell_length_c 24.008765
_cell_angle_alpha 90.000000
_cell_angle_beta 70.970100
_cell_angle_gamma 90.000000
_cell_volume 2305.562214
_symmetry_space_group_name_H-M "C 2/C"
_symmetry_group_IT_number 15
_symmetry_cell_setting 'monoclinic'
loop_
_space_group_symop_operation_xyz
x,y,z
-x,y,1/2-z
-x,-y,-z
x,-y,1/2+z
1/2+x,1/2+y,z
1/2-x,1/2+y,1/2-z
1/2-x,1/2-y,-z
1/2+x,1/2-y,1/2+z
loop_
_atom_site_type_symbol
_atom_site_label
_atom_site_fract_x
_atom_site_fract_y
_atom_site_fract_z
Si Si1 0.335848 0.900433 0.488812
Si Si2 0.240797 0.392609 0.594161
Si Si3 0.696085 0.381909 0.319928
Si Si4 0.599416 0.901304 0.417880
Si Si5 0.244221 0.028442 0.197443
Si Si6 0.450354 0.304947 0.315670
O O1 0.250000 0.750000 0.500000
O O2 0.461106 0.863503 0.439701
O O3 0.276976 0.044971 0.465297
O O4 0.360325 0.956269 0.547830
O O5 0.283558 0.537860 0.624478
O O6 0.339591 0.260245 0.574046
O O7 0.119525 0.327154 0.639232
O O8 0.762946 0.215564 0.308009
O O9 0.748204 0.489798 0.262135
O O10 0.556083 0.362468 0.337119
O O11 0.638360 0.955328 0.349808
O O12 0.130259 0.955586 0.185806
O O13 0.500000 0.229933 0.250000
#
# Coordination Sequence:
#
# PCOD8138751 Si02
#       6
#     8   8   8   8   8   8
#     4  11  24  41  61  85 113 152 198 242 289 338
#     4  11  23  38  62  88 116 154 191 236 291 341
#     4  11  21  37  60  89 121 152 187 233 286 343
#     4  10  23  42  60  84 117 151 194 242 284 339
#     4  10  20  38  61  85 118 153 189 233 285 344
#     4   9  20  38  58  86 119 151 188 232 285 347
#
# _framework density 20.819217999999999
#
# number of rings (size 3 to 8) (size 9 to 14) (size 15 to 20)
#    0.000    1.667    0.000    5.500    0.000    6.000 
#    0.000   10.833    0.000    0.000    0.000    0.000 
#    0.000    0.000    0.000    0.000    0.000    0.000 
#
# Total GULP energy -297702.618316 kJ/mol
# GULP energy per Si atom -12404.275763 kJ/mol
# Density = 2.077183 g / cm^3
# Si number density = 20.819218 Si / 1000 Ang^3
#
#
#
# Elastic Constant Matrix: (Units=GPa)
#
#
# Indices 1 2 3 4 5 6 
#
# 1 84.9720 28.2537 19.6599 0.0000 -10.1004 0.0000
# 2 28.2537 101.0417 2.5527 0.0000 -10.3526 0.0000
# 3 19.6599 2.5527 36.0279 0.0000 -6.6236 0.0000
# 4 0.0000 0.0000 0.0000 20.1890 0.0000 8.8872
# 5 -10.1004 -10.3526 -6.6236 0.0000 29.3720 0.0000
# 6 0.0000 0.0000 0.0000 8.8872 0.0000 28.8382
#
#
#
# Elastic Compliance Matrix: (Units=1/GPa)
#
#
# Indices 1 2 3 4 5 6 
#
# 1 0.015028 -0.003793 -0.007540 0.000000 0.002130 0.000000
# 2 -0.003793 0.011225 0.001838 0.000000 0.003067 0.000000
# 3 -0.007540 0.001838 0.032740 0.000000 0.005438 0.000000
# 4 0.000000 0.000000 0.000000 0.057306 0.000000 -0.017660
# 5 0.002130 0.003067 0.005438 0.000000 0.037086 0.000000
# 6 0.000000 0.000000 0.000000 -0.017660 0.000000 0.040119
#
#
# Mechanical properties :
#
#
# Convention : Reuss Voigt Hill
#
# Bulk Modulus (GPa) = 24.99780 35.88602 30.44191
# Shear Modulus (GPa) = 22.14076 27.11819 24.62947
#
# Velocity S-wave (km/s) = 3.26464 3.61301 3.44323
# Velocity P-wave (km/s) = 5.12285 5.88893 5.51920
#
# Compressibility (1/GPa) = 0.04000352
#
# Stress axis : x y z
#
# Youngs Moduli (GPa) = 66.54412 89.08387 30.54344
#
# Poissons Ratio (x) = 0.33792 0.23030
# Poissons Ratio (y) = 0.25242 -0.05615
# Poissons Ratio (z) = 0.50174 -0.16377
#
# Static dielectric constant tensor:
#      x y z
#    x 3.895930 0.000000 -0.154620 
#    y 0.000000 3.709390 0.000000 
#    z -0.154620 0.000000 3.997120 
# 
# 
# High freq. dielectric constant tensor:
#      x y z
#    x 1.818660 0.000000 -0.003710 
#    y 0.000000 1.816570 0.000000 
#    z -0.003710 0.000000 1.822000 
# 
# From -- ./inp_files/267784.got.cif
#   From: 2010.06.25/outbox.cif.g09.slc.cpg/sg15_134_cif.got.tgz:267784.got - 2010.06.28 07:06:18.
