data_PCOD8138516
_publ_section_title
;
Structure prediction by ZEFSAII (Michael W. Deem and Ramdas Pophale) SiO2 
 PCOD8138516
Probable space group: C 2/C
;
_chemical_formula_sum "Si O2"
_cell_formula_units_Z 60
_cell_length_a 16.653030
_cell_length_b 8.521016
_cell_length_c 22.940580
_cell_angle_alpha 90.000000
_cell_angle_beta 117.408924
_cell_angle_gamma 90.000000
_cell_volume 2889.858887
_symmetry_space_group_name_H-M "C 2/C"
_symmetry_group_IT_number 15
_symmetry_cell_setting 'monoclinic'
loop_
_space_group_symop_operation_xyz
x,y,z
-x,y,1/2-z
-x,-y,-z
x,-y,1/2+z
1/2+x,1/2+y,z
1/2-x,1/2+y,1/2-z
1/2-x,1/2-y,-z
1/2+x,1/2-y,1/2+z
loop_
_atom_site_type_symbol
_atom_site_label
_atom_site_fract_x
_atom_site_fract_y
_atom_site_fract_z
Si Si1 0.219065 0.605092 0.861744
Si Si2 0.964642 0.696607 0.641905
Si Si3 0.123786 0.630113 0.995471
Si Si4 0.388436 0.794870 0.884802
Si Si5 0.297140 0.471039 0.503121
Si Si6 0.500000 0.709296 0.750000
Si Si7 0.388900 0.970202 0.770955
Si Si8 0.030502 0.945745 0.378198
O O1 0.129769 0.694765 0.854537
O O2 0.290598 0.736777 0.870943
O O3 0.200451 0.515581 0.794881
O O4 0.259856 0.487897 0.925378
O O5 0.952263 0.589667 0.578848
O O6 0.039512 0.612708 0.706829
O O7 0.997151 0.871491 0.635419
O O8 0.158538 0.799873 0.985172
O O9 0.075571 0.627809 0.042657
O O10 0.212135 0.517918 0.019663
O O11 0.368960 0.928849 0.831092
O O12 0.452964 0.654285 0.884809
O O13 0.376602 0.584122 0.554098
O O14 0.421939 0.815139 0.750114
O O15 0.455704 0.607286 0.683834
#
# Coordination Sequence:
#
# PCOD8138516 Si02
#       8
#     8   8   8   8   8   4   8   8
#     4  10  20  38  61  82 114 156 194 232 279 350
#     4  10  20  37  68  82 106 157 210 219 273 367
#     4   8  16  34  57  87 113 149 186 239 286 336
#     4  10  22  37  56  85 129 142 178 255 303 320
#     4   8  16  34  59  85 108 149 198 232 271 344
#     4  10  22  38  56  82 120 148 188 248 290 334
#     4  11  22  40  58  84 120 159 187 239 294 341
#     4  10  21  36  59  90 110 151 194 237 290 344
#
# _framework density 20.762259
#
# number of rings (size 3 to 8) (size 9 to 14) (size 15 to 20)
#    0.000    2.400    1.333    2.400    1.867    6.400 
#    7.200    0.667    0.000    0.000    0.000    0.000 
#    0.000    0.000    0.000    0.000    0.000    0.000 
#
# Total GULP energy -371702.803138 kJ/mol
# GULP energy per Si atom -12390.093438 kJ/mol
# Density = 2.071500 g / cm^3
# Si number density = 20.762259 Si / 1000 Ang^3
#
#
#
# Elastic Constant Matrix: (Units=GPa)
#
#
# Indices 1 2 3 4 5 6 
#
# 1 72.8400 18.1309 44.9242 0.0000 -15.0177 0.0000
# 2 18.1309 41.2587 31.1611 0.0000 0.9992 0.0000
# 3 44.9242 31.1611 161.3768 0.0000 -3.4205 0.0000
# 4 0.0000 0.0000 0.0000 25.8854 0.0000 -2.5168
# 5 -15.0177 0.9992 -3.4205 0.0000 36.1912 0.0000
# 6 0.0000 0.0000 0.0000 -2.5168 0.0000 9.6065
#
#
#
# Elastic Compliance Matrix: (Units=1/GPa)
#
#
# Indices 1 2 3 4 5 6 
#
# 1 0.019248 -0.005530 -0.004126 0.000000 0.007750 0.000000
# 2 -0.005530 0.030026 -0.004333 0.000000 -0.003533 0.000000
# 3 -0.004126 -0.004333 0.008165 0.000000 -0.000821 0.000000
# 4 0.000000 0.000000 0.000000 0.039642 0.000000 0.010386
# 5 0.007750 -0.003533 -0.000821 0.000000 0.030867 0.000000
# 6 0.000000 0.000000 0.000000 0.010386 0.000000 0.106818
#
#
# Mechanical properties :
#
#
# Convention : Reuss Voigt Hill
#
# Bulk Modulus (GPa) = 33.94469 51.54532 42.74500
# Shear Modulus (GPa) = 18.34443 26.42056 22.38250
#
# Velocity S-wave (km/s) = 2.97568 3.57112 3.28691
# Velocity P-wave (km/s) = 5.30951 6.47180 5.91925
#
# Compressibility (1/GPa) = 0.02945969
#
# Stress axis : x y z
#
# Youngs Moduli (GPa) = 51.95412 33.30486 122.47874
#
# Poissons Ratio (x) = 0.18416 0.50537
# Poissons Ratio (y) = 0.28729 0.53074
# Poissons Ratio (z) = 0.21437 0.14432
#
# Static dielectric constant tensor:
#      x y z
#    x 3.614120 0.000000 -0.155220 
#    y 0.000000 3.410420 0.000000 
#    z -0.155220 0.000000 4.682280 
# 
# 
# High freq. dielectric constant tensor:
#      x y z
#    x 1.796080 0.000000 -0.005910 
#    y 0.000000 1.772220 0.000000 
#    z -0.005910 0.000000 1.844620 
# 
# From -- ./inp_files/276577.got.cif
#   From: 2010.06.25/outbox.cif.g09.slc.cpg/sg15_139_cif.got.tgz:276577.got - 2010.06.28 07:06:18.
