data_PCOD8138307
_publ_section_title
;
Structure prediction by ZEFSAII (Michael W. Deem and Ramdas Pophale) SiO2 
 PCOD8138307
Probable space group: C 2/C
;
_chemical_formula_sum "Si O2"
_cell_formula_units_Z 48
_cell_length_a 12.491175
_cell_length_b 21.302255
_cell_length_c 10.443772
_cell_angle_alpha 90.000000
_cell_angle_beta 44.482535
_cell_angle_gamma 90.000000
_cell_volume 1947.212281
_symmetry_space_group_name_H-M "C 2/C"
_symmetry_group_IT_number 15
_symmetry_cell_setting 'monoclinic'
loop_
_space_group_symop_operation_xyz
x,y,z
-x,y,1/2-z
-x,-y,-z
x,-y,1/2+z
1/2+x,1/2+y,z
1/2-x,1/2+y,1/2-z
1/2-x,1/2-y,-z
1/2+x,1/2-y,1/2+z
loop_
_atom_site_type_symbol
_atom_site_label
_atom_site_fract_x
_atom_site_fract_y
_atom_site_fract_z
Si Si1 0.181093 0.564429 0.194705
Si Si2 0.025333 0.080284 0.863480
Si Si3 0.268291 0.015708 0.088217
Si Si4 0.166475 0.644214 0.564861
Si Si5 0.560151 0.811784 0.892846
Si Si6 0.224513 0.810949 0.274526
O O1 0.128407 0.527364 0.370197
O O2 0.108014 0.634111 0.251613
O O3 0.362708 0.569175 0.067487
O O4 0.144092 0.530883 0.089143
O O5 0.137770 0.122859 0.849429
O O6 0.000000 0.115747 0.750000
O O7 0.106290 0.013688 0.765698
O O8 0.235333 0.080871 0.041858
O O9 0.153774 0.680795 0.443583
O O10 0.236501 0.693384 0.607387
O O11 0.000000 0.620268 0.750000
O O12 0.617382 0.742602 0.803566
O O13 0.378320 0.813251 0.060321
#
# Coordination Sequence:
#
# PCOD8138307 Si02
#       6
#     8   8   8   8   8   8
#     4  10  21  39  61  92 127 163 204 253 305 365
#     4  10  22  39  60  90 123 162 207 251 301 363
#     4  10  20  37  62  91 124 160 203 249 301 364
#     4   9  20  36  60  93 126 158 199 252 312 370
#     4  10  22  39  61  91 122 158 207 255 306 368
#     4  11  21  40  63  87 122 165 204 254 311 364
#
# _framework density 24.650624000000001
#
# number of rings (size 3 to 8) (size 9 to 14) (size 15 to 20)
#    0.000    2.000    0.000    3.000    0.000    4.000 
#    0.000   20.833    0.000    0.000    0.000    0.000 
#    0.000    0.000    0.000    0.000    0.000    0.000 
#
# Total GULP energy -297422.087664 kJ/mol
# GULP energy per Si atom -12392.586986 kJ/mol
# Density = 2.459452 g / cm^3
# Si number density = 24.650624 Si / 1000 Ang^3
#
#
#
# Elastic Constant Matrix: (Units=GPa)
#
#
# Indices 1 2 3 4 5 6 
#
# 1 51.6254 19.4037 12.8578 0.0000 27.7199 0.0000
# 2 19.4037 115.5637 43.3913 0.0000 -1.6710 0.0000
# 3 12.8578 43.3913 90.1125 0.0000 5.4768 0.0000
# 4 0.0000 0.0000 0.0000 31.9071 0.0000 -4.8254
# 5 27.7199 -1.6710 5.4768 0.0000 33.5581 0.0000
# 6 0.0000 0.0000 0.0000 -4.8254 0.0000 18.1386
#
#
#
# Elastic Compliance Matrix: (Units=1/GPa)
#
#
# Indices 1 2 3 4 5 6 
#
# 1 0.040025 -0.007105 -0.000262 0.000000 -0.033373 0.000000
# 2 -0.007105 0.011887 -0.005154 0.000000 0.007302 0.000000
# 3 -0.000262 -0.005154 0.013755 0.000000 -0.002285 0.000000
# 4 0.000000 0.000000 0.000000 0.032655 0.000000 0.008687
# 5 -0.033373 0.007302 -0.002285 0.000000 0.058103 0.000000
# 6 0.000000 0.000000 0.000000 0.008687 0.000000 0.057442
#
#
# Mechanical properties :
#
#
# Convention : Reuss Voigt Hill
#
# Bulk Modulus (GPa) = 24.61420 45.40079 35.00749
# Shear Modulus (GPa) = 19.80590 28.83068 24.31829
#
# Velocity S-wave (km/s) = 2.83762 3.42361 3.14430
# Velocity P-wave (km/s) = 4.55445 5.83831 5.23588
#
# Compressibility (1/GPa) = 0.04062695
#
# Stress axis : x y z
#
# Youngs Moduli (GPa) = 24.98416 84.12637 72.69996
#
# Poissons Ratio (x) = 0.59770 0.01902
# Poissons Ratio (y) = 0.17751 0.37468
# Poissons Ratio (z) = 0.00654 0.43357
#
# Static dielectric constant tensor:
#      x y z
#    x 4.342640 0.000000 0.258300 
#    y 0.000000 4.251290 0.000000 
#    z 0.258300 0.000000 4.489470 
# 
# 
# High freq. dielectric constant tensor:
#      x y z
#    x 1.976900 0.000000 0.008710 
#    y 0.000000 1.973250 0.000000 
#    z 0.008710 0.000000 1.983190 
# 
# From -- ./inp_files/99991.got.cif
#   From: 2010.06.25/outbox.cif.g09.slc.cpg/sg15_50_cif.got.tgz:99991.got - 2010.06.28 07:06:18.
