data_PCOD8138235
_publ_section_title
;
Structure prediction by ZEFSAII (Michael W. Deem and Ramdas Pophale) SiO2 
 PCOD8138235
Probable space group: C 2/C
;
_chemical_formula_sum "Si O2"
_cell_formula_units_Z 40
_cell_length_a 12.915049
_cell_length_b 13.653561
_cell_length_c 15.404589
_cell_angle_alpha 90.000000
_cell_angle_beta 40.162523
_cell_angle_gamma 90.000000
_cell_volume 1751.957277
_symmetry_space_group_name_H-M "C 2/C"
_symmetry_group_IT_number 15
_symmetry_cell_setting 'monoclinic'
loop_
_space_group_symop_operation_xyz
x,y,z
-x,y,1/2-z
-x,-y,-z
x,-y,1/2+z
1/2+x,1/2+y,z
1/2-x,1/2+y,1/2-z
1/2-x,1/2-y,-z
1/2+x,1/2-y,1/2+z
loop_
_atom_site_type_symbol
_atom_site_label
_atom_site_fract_x
_atom_site_fract_y
_atom_site_fract_z
Si Si1 0.182718 0.910130 0.658871
Si Si2 0.745975 0.274716 0.867219
Si Si3 0.102885 0.957808 0.356282
Si Si4 0.196606 0.904530 0.051553
Si Si5 0.126615 0.756763 0.391718
O O1 0.201270 0.956619 0.744635
O O2 0.283347 0.808821 0.593488
O O3 0.000000 0.884709 0.750000
O O4 0.259055 0.987618 0.541023
O O5 0.788504 0.361713 0.908065
O O6 0.854943 0.296260 0.713556
O O7 0.787362 0.169057 0.878987
O O8 0.557433 0.272695 0.962874
O O9 0.206103 0.866189 0.329325
O O10 0.000000 0.000000 0.500000
O O11 0.990898 0.913266 0.351781
#
# Coordination Sequence:
#
# PCOD8138235 Si02
#       5
#     8   8   8   8   8
#     4  10  20  37  61  90 126 169 207 255 316 379
#     4  10  21  37  64  92 124 160 216 263 308 365
#     4  10  20  38  62  86 125 169 210 245 317 387
#     4   9  19  35  60  89 121 164 209 253 308 369
#     4  11  22  39  65  93 124 166 210 262 315 372
#
# _framework density 22.831607000000002
#
# number of rings (size 3 to 8) (size 9 to 14) (size 15 to 20)
#    0.000    2.000    2.000    2.400    2.800    3.200 
#    0.000    9.000    0.000    0.000    0.000    0.000 
#    0.000    0.000    0.000    0.000    0.000    0.000 
#
# Total GULP energy -247781.869706 kJ/mol
# GULP energy per Si atom -12389.093485 kJ/mol
# Density = 2.277964 g / cm^3
# Si number density = 22.831607 Si / 1000 Ang^3
#
#
#
# Elastic Constant Matrix: (Units=GPa)
#
#
# Indices 1 2 3 4 5 6 
#
# 1 63.0001 57.9624 0.1839 -0.0002 0.0691 0.0001
# 2 57.9624 146.3920 5.4931 -0.0001 -1.8441 0.0001
# 3 0.1839 5.4931 49.3218 -0.0004 11.2281 0.0003
# 4 -0.0002 -0.0001 -0.0004 26.9363 0.0002 -1.0268
# 5 0.0691 -1.8441 11.2281 0.0002 18.5057 -0.0002
# 6 0.0001 0.0001 0.0003 -1.0268 -0.0002 51.6943
#
#
#
# Elastic Compliance Matrix: (Units=1/GPa)
#
#
# Indices 1 2 3 4 5 6 
#
# 1 0.025081 -0.010011 0.001473 0.000000 -0.001985 0.000000
# 2 -0.010011 0.010884 -0.001659 0.000000 0.002129 0.000000
# 3 0.001473 -0.001659 0.023777 0.000000 -0.014597 0.000000
# 4 0.000000 0.000000 0.000000 0.037153 -0.000001 0.000738
# 5 -0.001985 0.002129 -0.014597 -0.000001 0.063114 0.000000
# 6 0.000000 0.000000 0.000000 0.000738 0.000000 0.019359
#
#
# Mechanical properties :
#
#
# Convention : Reuss Voigt Hill
#
# Bulk Modulus (GPa) = 25.41397 42.88808 34.15103
# Shear Modulus (GPa) = 23.48758 32.43224 27.95991
#
# Velocity S-wave (km/s) = 3.21086 3.77304 3.50325
# Velocity P-wave (km/s) = 4.99013 6.14869 5.59945
#
# Compressibility (1/GPa) = 0.03934843
#
# Stress axis : x y z
#
# Youngs Moduli (GPa) = 39.87027 91.87967 42.05665
#
# Poissons Ratio (x) = 0.91981 -0.06196
# Poissons Ratio (y) = 0.39914 0.06979
# Poissons Ratio (z) = -0.05874 0.15247
#
# Static dielectric constant tensor:
#      x y z
#    x 4.035430 0.000000 0.238490 
#    y 0.000000 4.601920 0.000000 
#    z 0.238490 0.000000 3.863300 
# 
# 
# High freq. dielectric constant tensor:
#      x y z
#    x 1.870800 0.000000 0.030770 
#    y 0.000000 1.916180 0.000000 
#    z 0.030770 0.000000 1.872940 
# 
# From -- ./inp_files/126585.got.cif
#   From: 2010.06.25/outbox.cif.g09.slc.cpg/sg15_64_cif.got.tgz:126585.got - 2010.06.28 07:06:18.
