data_PCOD8138981
_publ_section_title
;
Structure prediction by ZEFSAII (Michael W. Deem and Ramdas Pophale) SiO2 
 PCOD8138981
Probable space group: C 2/C
;
_chemical_formula_sum "Si O2"
_cell_formula_units_Z 40
_cell_length_a 23.777803
_cell_length_b 14.884575
_cell_length_c 13.577105
_cell_angle_alpha 90.000000
_cell_angle_beta 22.731774
_cell_angle_gamma 90.000000
_cell_volume 1856.830340
_symmetry_space_group_name_H-M "C 2/C"
_symmetry_group_IT_number 15
_symmetry_cell_setting 'monoclinic'
loop_
_space_group_symop_operation_xyz
x,y,z
-x,y,1/2-z
-x,-y,-z
x,-y,1/2+z
1/2+x,1/2+y,z
1/2-x,1/2+y,1/2-z
1/2-x,1/2-y,-z
1/2+x,1/2-y,1/2+z
loop_
_atom_site_type_symbol
_atom_site_label
_atom_site_fract_x
_atom_site_fract_y
_atom_site_fract_z
Si Si1 0.481888 0.157606 0.645612
Si Si2 0.010974 0.779296 0.431645
Si Si3 0.202995 0.893461 0.265870
Si Si4 0.000000 0.696107 0.250000
Si Si5 0.500000 0.682529 0.250000
Si Si6 0.238921 0.405895 0.862682
O O1 0.493451 0.180402 0.511671
O O2 0.434500 0.253045 0.771580
O O3 0.635473 0.120738 0.438112
O O4 0.353885 0.089180 0.884723
O O5 0.060138 0.759733 0.240415
O O6 0.859015 0.830044 0.676436
O O7 0.131630 0.838459 0.291669
O O8 0.125892 0.877115 0.496022
O O9 0.185979 0.998648 0.273243
O O10 0.371668 0.866066 0.000136
#
# Coordination Sequence:
#
# PCOD8138981 Si02
#       6
#     8   8   8   4   4   8
#     4   9  19  39  62  88 120 167 208 239 303 385
#     4  11  22  39  61  87 122 169 208 248 303 369
#     4  11  23  40  62  94 126 158 204 259 310 358
#     4  12  24  42  62  88 126 168 208 256 302 362
#     4   8  18  38  60  84 118 156 198 238 296 378
#     4  10  20  38  63  93 123 154 203 262 306 362
#
# _framework density 21.542086999999999
#
# number of rings (size 3 to 8) (size 9 to 14) (size 15 to 20)
#    0.000    2.000    0.000    6.600    0.000    2.400 
#    0.000   10.000    0.000    0.000    0.000    0.000 
#    0.000    0.000    0.000    0.000    0.000    0.000 
#
# Total GULP energy -247919.292198 kJ/mol
# GULP energy per Si atom -12395.964610 kJ/mol
# Density = 2.149306 g / cm^3
# Si number density = 21.542087 Si / 1000 Ang^3
#
#
#
# Elastic Constant Matrix: (Units=GPa)
#
#
# Indices 1 2 3 4 5 6 
#
# 1 94.3233 29.7842 35.5002 0.0001 25.5588 0.0000
# 2 29.7842 73.0297 27.3252 -0.0001 12.0897 0.0001
# 3 35.5002 27.3252 121.7622 -0.0002 0.7812 0.0001
# 4 0.0001 -0.0001 -0.0002 36.2329 0.0000 1.8149
# 5 25.5588 12.0897 0.7812 0.0000 28.3936 0.0000
# 6 0.0000 0.0001 0.0001 1.8149 0.0000 13.5361
#
#
#
# Elastic Compliance Matrix: (Units=1/GPa)
#
#
# Indices 1 2 3 4 5 6 
#
# 1 0.016850 -0.003045 -0.004141 0.000000 -0.013757 0.000000
# 2 -0.003045 0.016706 -0.002834 0.000000 -0.004294 0.000000
# 3 -0.004141 -0.002834 0.010026 0.000000 0.004658 0.000000
# 4 0.000000 0.000000 0.000000 0.027786 0.000000 -0.003725
# 5 -0.013757 -0.004294 0.004658 0.000000 0.049303 0.000000
# 6 0.000000 0.000000 0.000000 -0.003725 0.000000 0.074376
#
#
# Mechanical properties :
#
#
# Convention : Reuss Voigt Hill
#
# Bulk Modulus (GPa) = 42.47679 52.70381 47.59030
# Shear Modulus (GPa) = 22.42820 28.73290 25.58055
#
# Velocity S-wave (km/s) = 3.23016 3.65609 3.44970
# Velocity P-wave (km/s) = 5.80283 6.50702 6.16498
#
# Compressibility (1/GPa) = 0.02354227
#
# Stress axis : x y z
#
# Youngs Moduli (GPa) = 59.34862 59.85822 99.73995
#
# Poissons Ratio (x) = 0.18228 0.41302
# Poissons Ratio (y) = 0.18072 0.28264
# Poissons Ratio (z) = 0.24576 0.16962
#
# Static dielectric constant tensor:
#      x y z
#    x 3.965080 0.000000 0.169770 
#    y 0.000000 3.773110 0.000000 
#    z 0.169770 0.000000 4.012740 
# 
# 
# High freq. dielectric constant tensor:
#      x y z
#    x 1.838130 0.000000 -0.002270 
#    y 0.000000 1.827330 0.000000 
#    z -0.002270 0.000000 1.853600 
# 
# From -- ./inp_files/178312.got.cif
#   From: 2010.06.25/outbox.cif.g09.slc.cpg/sg15_90_cif.got.tgz:178312.got - 2010.06.28 07:06:18.
