data_PCOD8138845
_publ_section_title
;
Structure prediction by ZEFSAII (Michael W. Deem and Ramdas Pophale) SiO2 
 PCOD8138845
Probable space group: C 2/C
;
_chemical_formula_sum "Si O2"
_cell_formula_units_Z 48
_cell_length_a 28.741286
_cell_length_b 15.748117
_cell_length_c 14.659633
_cell_angle_alpha 90.000000
_cell_angle_beta 20.079715
_cell_angle_gamma 90.000000
_cell_volume 2278.065116
_symmetry_space_group_name_H-M "C 2/C"
_symmetry_group_IT_number 15
_symmetry_cell_setting 'monoclinic'
loop_
_space_group_symop_operation_xyz
x,y,z
-x,y,1/2-z
-x,-y,-z
x,-y,1/2+z
1/2+x,1/2+y,z
1/2-x,1/2+y,1/2-z
1/2-x,1/2-y,-z
1/2+x,1/2-y,1/2+z
loop_
_atom_site_type_symbol
_atom_site_label
_atom_site_fract_x
_atom_site_fract_y
_atom_site_fract_z
Si Si1 0.804941 0.782448 0.257508
Si Si2 0.126985 0.596647 0.964367
Si Si3 0.127557 0.971621 0.580856
Si Si4 0.126385 0.853504 0.174412
Si Si5 0.880941 0.253578 0.139843
Si Si6 0.595312 0.283394 0.695942
O O1 0.696931 0.836301 0.402518
O O2 0.850375 0.837064 0.261769
O O3 0.741573 0.692771 0.402817
O O4 0.941246 0.766877 0.943909
O O5 0.234267 0.526171 0.733909
O O6 0.070145 0.653771 0.985406
O O7 0.000000 0.552407 0.250000
O O8 0.120793 0.884688 0.650128
O O9 0.000000 0.982363 0.750000
O O10 0.132730 0.046776 0.644459
O O11 0.976944 0.818994 0.420136
O O12 0.720269 0.240423 0.408835
O O13 0.897411 0.256622 0.217488
#
# Coordination Sequence:
#
# PCOD8138845 Si02
#       6
#     8   8   8   8   8   8
#     4  10  20  38  62  87 118 158 201 243 294 363
#     4  11  21  39  63  87 117 164 201 254 303 357
#     4  11  23  39  60  89 125 154 196 256 306 354
#     4  10  22  38  60  88 119 158 201 242 299 367
#     4   9  19  34  64  87 114 155 201 238 285 372
#     4   9  19  39  60  91 118 154 196 245 299 350
#
# _framework density 21.070511
#
# number of rings (size 3 to 8) (size 9 to 14) (size 15 to 20)
#    0.000    2.000    3.333    0.000    2.333    2.667 
#    0.000    2.500    0.000    0.000    0.000    0.000 
#    0.000    0.000    0.000    0.000    0.000    0.000 
#
# Total GULP energy -297421.299928 kJ/mol
# GULP energy per Si atom -12392.554164 kJ/mol
# Density = 2.102255 g / cm^3
# Si number density = 21.070511 Si / 1000 Ang^3
#
#
#
# Elastic Constant Matrix: (Units=GPa)
#
#
# Indices 1 2 3 4 5 6 
#
# 1 38.0860 26.2551 5.4405 0.0000 -11.7365 0.0000
# 2 26.2551 87.5885 36.2438 0.0000 -0.8279 0.0000
# 3 5.4405 36.2438 176.6341 0.0001 -1.5216 0.0000
# 4 0.0000 0.0000 0.0001 23.3147 0.0000 5.8325
# 5 -11.7365 -0.8279 -1.5216 0.0000 23.4057 0.0000
# 6 0.0000 0.0000 0.0000 5.8325 0.0000 16.2456
#
#
#
# Elastic Compliance Matrix: (Units=1/GPa)
#
#
# Indices 1 2 3 4 5 6 
#
# 1 0.041064 -0.012749 0.001526 0.000000 0.020239 0.000000
# 2 -0.012749 0.016436 -0.003032 0.000000 -0.006009 0.000000
# 3 0.001526 -0.003032 0.006246 0.000000 0.001064 0.000000
# 4 0.000000 0.000000 0.000000 0.047124 0.000000 -0.016918
# 5 0.020239 -0.006009 0.001064 0.000000 0.052730 0.000000
# 6 0.000000 0.000000 0.000000 -0.016918 0.000000 0.067629
#
#
# Mechanical properties :
#
#
# Convention : Reuss Voigt Hill
#
# Bulk Modulus (GPa) = 28.38040 48.68747 38.53394
# Shear Modulus (GPa) = 18.41729 28.21784 23.31757
#
# Velocity S-wave (km/s) = 2.95969 3.66349 3.33024
# Velocity P-wave (km/s) = 5.01779 6.40718 5.75457
#
# Compressibility (1/GPa) = 0.03523558
#
# Stress axis : x y z
#
# Youngs Moduli (GPa) = 24.35222 60.84092 160.11097
#
# Poissons Ratio (x) = 0.77567 -0.24426
# Poissons Ratio (y) = 0.31047 0.48540
# Poissons Ratio (z) = -0.03715 0.18445
#
# Static dielectric constant tensor:
#      x y z
#    x 3.800890 0.000000 -0.117480 
#    y 0.000000 3.395060 0.000000 
#    z -0.117480 0.000000 4.755640 
# 
# 
# High freq. dielectric constant tensor:
#      x y z
#    x 1.821590 0.000000 0.000510 
#    y 0.000000 1.777360 0.000000 
#    z 0.000510 0.000000 1.861600 
# 
# From -- ./inp_files/182439.got.cif
#   From: 2010.06.25/outbox.cif.g09.slc.cpg/sg15_92_cif.got.tgz:182439.got - 2010.06.28 07:06:18.
