data_PCOD8138579
_publ_section_title
;
Structure prediction by ZEFSAII (Michael W. Deem and Ramdas Pophale) SiO2 
 PCOD8138579
Probable space group: C 2/C
;
_chemical_formula_sum "Si O2"
_cell_formula_units_Z 48
_cell_length_a 9.313769
_cell_length_b 29.183234
_cell_length_c 17.765115
_cell_angle_alpha 90.000000
_cell_angle_beta 31.308212
_cell_angle_gamma 90.000000
_cell_volume 2509.174076
_symmetry_space_group_name_H-M "C 2/C"
_symmetry_group_IT_number 15
_symmetry_cell_setting 'monoclinic'
loop_
_space_group_symop_operation_xyz
x,y,z
-x,y,1/2-z
-x,-y,-z
x,-y,1/2+z
1/2+x,1/2+y,z
1/2-x,1/2+y,1/2-z
1/2-x,1/2-y,-z
1/2+x,1/2-y,1/2+z
loop_
_atom_site_type_symbol
_atom_site_label
_atom_site_fract_x
_atom_site_fract_y
_atom_site_fract_z
Si Si1 0.298669 0.778040 0.903255
Si Si2 0.168660 0.380514 0.604441
Si Si3 0.706089 0.460158 0.553755
Si Si4 0.737645 0.116662 0.591477
Si Si5 0.913435 0.457641 0.627681
Si Si6 0.215681 0.719751 0.590467
O O1 0.500000 0.754727 0.750000
O O2 0.419226 0.827806 0.871843
O O3 0.250000 0.750000 0.000000
O O4 0.008257 0.783231 0.996216
O O5 0.491819 0.384178 0.477249
O O6 0.000000 0.400544 0.750000
O O7 0.062012 0.409987 0.582126
O O8 0.738517 0.414152 0.492331
O O9 0.854274 0.451926 0.566489
O O10 0.378427 0.469980 0.702862
O O11 0.866430 0.503403 0.446553
O O12 0.500000 0.095800 0.750000
O O13 0.642558 0.167007 0.603953
O O14 0.250000 0.750000 0.500000
O O15 0.000000 0.739817 0.750000
#
# Coordination Sequence:
#
# PCOD8138579 Si02
#       6
#     8   8   8   8   8   8
#     4  10  21  37  60  85 118 152 192 240 287 341
#     4  10  20  38  58  84 115 150 193 236 280 340
#     4  10  22  40  58  85 115 150 188 237 288 344
#     4  10  22  38  57  85 119 150 190 238 286 338
#     4  10  22  39  60  84 115 148 192 236 287 344
#     4  10  21  39  59  86 119 153 194 242 289 343
#
# _framework density 19.129799999999999
#
# number of rings (size 3 to 8) (size 9 to 14) (size 15 to 20)
#    0.000    2.000    1.667    1.000    2.333    2.667 
#    3.000    0.000    0.000    0.000    0.000    0.000 
#    0.000    0.000    0.000    0.000    0.000    0.000 
#
# Total GULP energy -297433.720761 kJ/mol
# GULP energy per Si atom -12393.071698 kJ/mol
# Density = 1.908626 g / cm^3
# Si number density = 19.129800 Si / 1000 Ang^3
#
#
#
# Elastic Constant Matrix: (Units=GPa)
#
#
# Indices 1 2 3 4 5 6 
#
# 1 61.7320 54.8219 38.4422 0.0000 3.3377 0.0000
# 2 54.8219 99.0651 43.3194 0.0000 12.6924 0.0000
# 3 38.4422 43.3194 144.2410 -0.0002 9.4717 0.0001
# 4 0.0000 0.0000 -0.0002 32.5598 0.0000 1.4272
# 5 3.3377 12.6924 9.4717 0.0000 33.7831 0.0000
# 6 0.0000 0.0000 0.0001 1.4272 0.0000 52.1377
#
#
#
# Elastic Compliance Matrix: (Units=1/GPa)
#
#
# Indices 1 2 3 4 5 6 
#
# 1 0.034260 -0.017736 -0.004095 0.000000 0.004427 0.000000
# 2 -0.017736 0.021211 -0.001258 0.000000 -0.005864 0.000000
# 3 -0.004095 -0.001258 0.008501 0.000000 -0.001506 0.000000
# 4 0.000000 0.000000 0.000000 0.030750 0.000000 -0.000842
# 5 0.004427 -0.005864 -0.001506 0.000000 0.031789 0.000000
# 6 0.000000 0.000000 0.000000 -0.000842 0.000000 0.019203
#
#
# Mechanical properties :
#
#
# Convention : Reuss Voigt Hill
#
# Bulk Modulus (GPa) = 56.19906 64.24500 60.22203
# Shear Modulus (GPa) = 25.27513 34.92643 30.10078
#
# Velocity S-wave (km/s) = 3.63884 4.27753 3.97104
# Velocity P-wave (km/s) = 6.86268 7.61925 7.25084
#
# Compressibility (1/GPa) = 0.01779389
#
# Stress axis : x y z
#
# Youngs Moduli (GPa) = 29.18823 47.14584 117.63332
#
# Poissons Ratio (x) = 0.83617 0.48171
# Poissons Ratio (y) = 0.51768 0.14801
# Poissons Ratio (z) = 0.11953 0.05932
#
# Static dielectric constant tensor:
#      x y z
#    x 3.333790 0.000000 -0.075710 
#    y 0.000000 3.723250 0.000000 
#    z -0.075710 0.000000 3.797240 
# 
# 
# High freq. dielectric constant tensor:
#      x y z
#    x 1.735100 0.000000 -0.008310 
#    y 0.000000 1.739000 0.000000 
#    z -0.008310 0.000000 1.764310 
# 
# From -- ./inp_files/52886.got.cif
#   From: 2010.06.25/outbox.cif.g09.slc.cpg/sg15_27_cif.got.tgz:52886.got - 2010.06.28 07:06:18.
