data_PCOD8138392
_publ_section_title
;
Structure prediction by ZEFSAII (Michael W. Deem and Ramdas Pophale) SiO2 
 PCOD8138392
Probable space group: C 2/C
;
_chemical_formula_sum "Si O2"
_cell_formula_units_Z 48
_cell_length_a 13.683293
_cell_length_b 14.091998
_cell_length_c 19.979936
_cell_angle_alpha 90.000000
_cell_angle_beta 138.408091
_cell_angle_gamma 90.000000
_cell_volume 2557.455123
_symmetry_space_group_name_H-M "C 2/C"
_symmetry_group_IT_number 15
_symmetry_cell_setting 'monoclinic'
loop_
_space_group_symop_operation_xyz
x,y,z
-x,y,1/2-z
-x,-y,-z
x,-y,1/2+z
1/2+x,1/2+y,z
1/2-x,1/2+y,1/2-z
1/2-x,1/2-y,-z
1/2+x,1/2-y,1/2+z
loop_
_atom_site_type_symbol
_atom_site_label
_atom_site_fract_x
_atom_site_fract_y
_atom_site_fract_z
Si Si1 0.341912 0.364278 0.740531
Si Si2 0.323112 0.242098 0.230898
Si Si3 0.615932 0.010203 0.463660
Si Si4 0.310861 0.056453 0.852195
Si Si5 0.849806 0.692731 0.100316
Si Si6 0.820756 0.165431 0.078479
O O1 0.228486 0.323964 0.735497
O O2 0.314646 0.476695 0.719936
O O3 0.507142 0.346054 0.850623
O O4 0.306570 0.315383 0.650794
O O5 0.255377 0.345445 0.206734
O O6 0.276616 0.195002 0.136453
O O7 0.498054 0.249928 0.322741
O O8 0.453067 0.965268 0.379499
O O9 0.736940 0.929608 0.514204
O O10 0.640847 0.065949 0.545851
O O11 0.629618 0.083443 0.409720
O O12 0.750000 0.750000 0.000000
O O13 0.750000 0.250000 0.000000
#
# Coordination Sequence:
#
# PCOD8138392 Si02
#       6
#     8   8   8   8   8   8
#     4  10  22  40  59  91 121 154 209 249 303 376
#     4  11  23  39  62  88 126 162 204 256 310 362
#     4  10  20  39  62  87 119 159 206 251 305 368
#     4  10  20  37  64  85 116 165 198 251 308 363
#     4  11  23  38  60  92 123 159 206 258 306 362
#     4  10  22  39  64  88 120 161 203 250 306 374
#
# _framework density 18.768657999999999
#
# number of rings (size 3 to 8) (size 9 to 14) (size 15 to 20)
#    0.000    1.667    3.333    1.000    2.333    2.667 
#    3.000    2.500    0.000    0.000    0.000    0.000 
#    0.000    0.000    0.000    0.000    0.000    0.000 
#
# Total GULP energy -297666.841402 kJ/mol
# GULP energy per Si atom -12402.785058 kJ/mol
# Density = 1.872594 g / cm^3
# Si number density = 18.768658 Si / 1000 Ang^3
#
#
#
# Elastic Constant Matrix: (Units=GPa)
#
#
# Indices 1 2 3 4 5 6 
#
# 1 92.8584 36.8359 34.6463 0.0000 -8.5964 0.0000
# 2 36.8359 110.4859 47.5593 0.0000 -6.2557 0.0000
# 3 34.6463 47.5593 103.0128 0.0000 4.9959 0.0000
# 4 0.0000 0.0000 0.0000 35.6186 0.0000 3.8344
# 5 -8.5964 -6.2557 4.9959 0.0000 28.1471 0.0000
# 6 0.0000 0.0000 0.0000 3.8344 0.0000 25.4941
#
#
#
# Elastic Compliance Matrix: (Units=1/GPa)
#
#
# Indices 1 2 3 4 5 6 
#
# 1 0.013554 -0.002791 -0.003471 0.000000 0.004135 0.000000
# 2 -0.002791 0.012216 -0.004833 0.000000 0.002721 0.000000
# 3 -0.003471 -0.004833 0.013324 0.000000 -0.004499 0.000000
# 4 0.000000 0.000000 0.000000 0.028537 0.000000 -0.004292
# 5 0.004135 0.002721 -0.004499 0.000000 0.038194 0.000000
# 6 0.000000 0.000000 0.000000 -0.004292 0.000000 0.039870
#
#
# Mechanical properties :
#
#
# Convention : Reuss Voigt Hill
#
# Bulk Modulus (GPa) = 59.15429 60.49336 59.82383
# Shear Modulus (GPa) = 28.81515 30.33968 29.57742
#
# Velocity S-wave (km/s) = 3.92252 4.02494 3.97406
# Velocity P-wave (km/s) = 7.21809 7.34175 7.28018
#
# Compressibility (1/GPa) = 0.01690494
#
# Stress axis : x y z
#
# Youngs Moduli (GPa) = 73.77941 81.86072 75.05000
#
# Poissons Ratio (x) = 0.22845 0.26048
# Poissons Ratio (y) = 0.20590 0.36273
# Poissons Ratio (z) = 0.25607 0.39565
#
# Static dielectric constant tensor:
#      x y z
#    x 3.615040 0.000000 -0.035560 
#    y 0.000000 3.372070 0.000000 
#    z -0.035560 0.000000 3.573280 
# 
# 
# High freq. dielectric constant tensor:
#      x y z
#    x 1.731860 0.000000 0.008840 
#    y 0.000000 1.726320 0.000000 
#    z 0.008840 0.000000 1.734080 
# 
# From -- ./inp_files/123580.got.cif
#   From: 2010.06.25/outbox.cif.g09.slc.cpg/sg15_62_cif.got.tgz:123580.got - 2010.06.28 07:06:18.
