data_PCOD8138839
_publ_section_title
;
Structure prediction by ZEFSAII (Michael W. Deem and Ramdas Pophale) SiO2 
 PCOD8138839
Probable space group: C 2/C
;
_chemical_formula_sum "Si O2"
_cell_formula_units_Z 52
_cell_length_a 11.703070
_cell_length_b 30.683708
_cell_length_c 8.290479
_cell_angle_alpha 90.000000
_cell_angle_beta 61.049159
_cell_angle_gamma 90.000000
_cell_volume 2605.030805
_symmetry_space_group_name_H-M "C 2/C"
_symmetry_group_IT_number 15
_symmetry_cell_setting 'monoclinic'
loop_
_space_group_symop_operation_xyz
x,y,z
-x,y,1/2-z
-x,-y,-z
x,-y,1/2+z
1/2+x,1/2+y,z
1/2-x,1/2+y,1/2-z
1/2-x,1/2-y,-z
1/2+x,1/2-y,1/2+z
loop_
_atom_site_type_symbol
_atom_site_label
_atom_site_fract_x
_atom_site_fract_y
_atom_site_fract_z
Si Si1 0.062572 0.458017 0.876971
Si Si2 0.853808 0.949034 0.604281
Si Si3 0.970150 0.715787 0.085333
Si Si4 0.083999 0.369701 0.035912
Si Si5 0.866335 0.143785 0.239094
Si Si6 0.295668 0.734033 0.145330
Si Si7 0.000000 0.993065 0.250000
O O1 0.213131 0.467391 0.744494
O O2 0.000000 0.445832 0.750000
O O3 0.043943 0.417916 0.010700
O O4 0.000000 0.500000 0.000000
O O5 0.871699 0.897609 0.617180
O O6 0.886163 0.961396 0.396651
O O7 0.955269 0.974411 0.643445
O O8 0.828445 0.738795 0.148438
O O9 0.000000 0.725377 0.250000
O O10 0.963651 0.664133 0.066993
O O11 0.080149 0.736121 0.891839
O O12 0.000000 0.358166 0.250000
O O13 0.241966 0.363527 0.946220
O O14 0.844639 0.184006 0.130085
O O15 0.000000 0.149279 0.250000
O O16 0.250000 0.750000 0.000000
#
# Coordination Sequence:
#
# PCOD8138839 Si02
#       7
#     8   8   8   8   8   8   4
#     4  11  22  38  59  86 119 156 200 247 300 358
#     4  10  21  39  60  88 121 162 201 254 301 365
#     4   9  18  36  58  81 112 150 191 243 300 350
#     4  10  22  38  58  85 117 155 200 243 302 362
#     4  10  21  40  60  87 123 159 202 257 309 363
#     4   9  19  36  59  83 115 154 194 247 302 365
#     4  10  20  38  62  86 122 158 204 244 310 350
#
# _framework density 19.961376999999999
#
# number of rings (size 3 to 8) (size 9 to 14) (size 15 to 20)
#    0.000    2.154    0.769    1.846    0.000    4.308 
#    6.923    3.077    0.000    0.000    0.000    0.000 
#    0.000    0.000    0.000    0.000    0.000    0.000 
#
# Total GULP energy -322110.472345 kJ/mol
# GULP energy per Si atom -12388.864321 kJ/mol
# Density = 1.991594 g / cm^3
# Si number density = 19.961377 Si / 1000 Ang^3
#
#
#
# Elastic Constant Matrix: (Units=GPa)
#
#
# Indices 1 2 3 4 5 6 
#
# 1 92.7093 56.9647 33.3910 0.0000 -22.9898 0.0000
# 2 56.9647 132.9748 48.3590 0.0000 -24.7741 0.0000
# 3 33.3910 48.3590 82.0010 0.0000 -26.0882 0.0000
# 4 0.0000 0.0000 0.0000 37.1912 0.0000 -0.3192
# 5 -22.9898 -24.7741 -26.0882 0.0000 33.9782 0.0000
# 6 0.0000 0.0000 0.0000 -0.3192 0.0000 33.8256
#
#
#
# Elastic Compliance Matrix: (Units=1/GPa)
#
#
# Indices 1 2 3 4 5 6 
#
# 1 0.015990 -0.005184 -0.001607 0.000000 0.005805 0.000000
# 2 -0.005184 0.011579 -0.004165 0.000000 0.001737 0.000000
# 3 -0.001607 -0.004165 0.018517 0.000000 0.010093 0.000000
# 4 0.000000 0.000000 0.000000 0.026890 0.000000 0.000254
# 5 0.005805 0.001737 0.010093 0.000000 0.042374 0.000000
# 6 0.000000 0.000000 0.000000 0.000254 0.000000 0.029566
#
#
# Mechanical properties :
#
#
# Convention : Reuss Voigt Hill
#
# Bulk Modulus (GPa) = 41.36729 65.01275 53.19002
# Shear Modulus (GPa) = 28.58993 32.26368 30.42681
#
# Velocity S-wave (km/s) = 3.78863 4.02469 3.90844
# Velocity P-wave (km/s) = 6.31719 7.36461 6.86092
#
# Compressibility (1/GPa) = 0.02417369
#
# Stress axis : x y z
#
# Youngs Moduli (GPa) = 62.53890 86.36061 54.00534
#
# Poissons Ratio (x) = 0.44768 0.08679
# Poissons Ratio (y) = 0.32420 0.22494
# Poissons Ratio (z) = 0.10051 0.35971
#
# Static dielectric constant tensor:
#      x y z
#    x 3.988660 0.000000 -0.500790 
#    y 0.000000 3.692040 0.000000 
#    z -0.500790 0.000000 3.962750 
# 
# 
# High freq. dielectric constant tensor:
#      x y z
#    x 1.781270 0.000000 -0.026270 
#    y 0.000000 1.786750 0.000000 
#    z -0.026270 0.000000 1.772410 
# 
# From -- ./inp_files/35089.got.cif
#   From: 2010.06.25/outbox.cif.g09.slc.cpg/sg15_18_cif.got.tgz:35089.got - 2010.06.28 07:06:18.
