data_PCOD8138903
_publ_section_title
;
Structure prediction by ZEFSAII (Michael W. Deem and Ramdas Pophale) SiO2 
 PCOD8138903
Probable space group: C 2/C
;
_chemical_formula_sum "Si O2"
_cell_formula_units_Z 52
_cell_length_a 14.508626
_cell_length_b 19.052436
_cell_length_c 10.163213
_cell_angle_alpha 90.000000
_cell_angle_beta 64.602442
_cell_angle_gamma 90.000000
_cell_volume 2537.847909
_symmetry_space_group_name_H-M "C 2/C"
_symmetry_group_IT_number 15
_symmetry_cell_setting 'monoclinic'
loop_
_space_group_symop_operation_xyz
x,y,z
-x,y,1/2-z
-x,-y,-z
x,-y,1/2+z
1/2+x,1/2+y,z
1/2-x,1/2+y,1/2-z
1/2-x,1/2-y,-z
1/2+x,1/2-y,1/2+z
loop_
_atom_site_type_symbol
_atom_site_label
_atom_site_fract_x
_atom_site_fract_y
_atom_site_fract_z
Si Si1 0.641372 0.154436 0.855572
Si Si2 0.194063 0.065265 0.359506
Si Si3 0.111665 0.008558 0.669510
Si Si4 0.421562 0.298414 0.489066
Si Si5 0.000000 0.430454 0.250000
Si Si6 0.630381 0.663830 0.757886
Si Si7 0.899157 0.565327 0.369533
O O1 0.575507 0.119686 0.782368
O O2 0.758877 0.168062 0.740932
O O3 0.590811 0.227592 0.922583
O O4 0.645082 0.100331 0.973690
O O5 0.149939 0.009809 0.494940
O O6 0.136326 0.139225 0.400459
O O7 0.314044 0.073403 0.309716
O O8 0.186712 0.035402 0.216675
O O9 0.102854 0.086609 0.728469
O O10 0.000000 0.973454 0.750000
O O11 0.374367 0.288194 0.371374
O O12 0.543277 0.312607 0.412988
O O13 0.070836 0.483320 0.118651
O O14 0.000000 0.604676 0.250000
#
# Coordination Sequence:
#
# PCOD8138903 Si02
#       7
#     8   8   8   8   4   8   8
#     4  12  22  43  65  86 134 166 202 275 314 381
#     4  11  22  39  61  95 124 170 209 271 316 387
#     4  11  20  37  61  90 128 158 210 262 323 368
#     4  10  22  37  63  93 124 159 218 251 323 381
#     4  10  26  42  58  96 126 166 216 250 330 378
#     4  10  20  38  62  94 116 163 214 263 304 380
#     4  10  24  38  65  89 119 158 222 260 308 375
#
# _framework density 20.489801
#
# number of rings (size 3 to 8) (size 9 to 14) (size 15 to 20)
#    0.462    0.923    6.154    2.308    2.154    0.000 
#    1.385    0.769    0.000    0.000    0.000    0.000 
#    0.000    0.000    0.000    0.000    0.000    0.000 
#
# Total GULP energy -322320.011818 kJ/mol
# GULP energy per Si atom -12396.923531 kJ/mol
# Density = 2.044317 g / cm^3
# Si number density = 20.489801 Si / 1000 Ang^3
#
#
#
# Elastic Constant Matrix: (Units=GPa)
#
#
# Indices 1 2 3 4 5 6 
#
# 1 144.4746 38.7138 38.9600 0.0000 -23.6607 0.0000
# 2 38.7138 89.0842 33.6269 0.0000 -2.4418 0.0000
# 3 38.9600 33.6269 42.1705 0.0000 -15.2536 0.0000
# 4 0.0000 0.0000 0.0000 -3.6861 0.0000 21.1882
# 5 -23.6607 -2.4418 -15.2536 0.0000 40.0132 0.0000
# 6 0.0000 0.0000 0.0000 21.1882 0.0000 7.2317
#
#
#
# Elastic Compliance Matrix: (Units=1/GPa)
#
#
# Indices 1 2 3 4 5 6 
#
# 1 0.009613 -0.001670 -0.006414 0.000000 0.003137 0.000000
# 2 -0.001670 0.017088 -0.013993 0.000000 -0.005279 0.000000
# 3 -0.006414 -0.013993 0.045373 0.000000 0.012650 0.000000
# 4 0.000000 0.000000 0.000000 -0.015205 0.000000 0.044551
# 5 0.003137 -0.005279 0.012650 0.000000 0.031347 0.000000
# 6 0.000000 0.000000 0.000000 0.044551 0.000000 0.007751
#
#
# Mechanical properties :
#
#
# Convention : Reuss Voigt Hill
#
# Bulk Modulus (GPa) = 35.81768 55.37007 45.59388
# Shear Modulus (GPa) = 33.46129 19.67367 26.56748
#
# Velocity S-wave (km/s) = 4.04551 3.10202 3.60477
# Velocity P-wave (km/s) = 6.27218 6.31759 6.29493
#
# Compressibility (1/GPa) = 0.02791917
#
# Stress axis : x y z
#
# Youngs Moduli (GPa) = 104.02952 58.51936 22.03973
#
# Poissons Ratio (x) = 0.09774 0.14137
# Poissons Ratio (y) = 0.17375 0.30840
# Poissons Ratio (z) = 0.66727 0.81885
#
# Static dielectric constant tensor:
#      x y z
#    x 3.973280 0.000000 -0.176000 
#    y 0.000000 3.593900 0.000000 
#    z -0.176000 0.000000 3.574230 
# 
# 
# High freq. dielectric constant tensor:
#      x y z
#    x 1.811710 0.000000 -0.025900 
#    y 0.000000 1.786840 0.000000 
#    z -0.025900 0.000000 1.775210 
# 
# From -- ./inp_files/98188.got.cif
#   From: 2010.06.25/outbox.cif.g09.slc.cpg/sg15_50_cif.got.tgz:98188.got - 2010.06.28 07:06:18.
