data_PCOD8138092
_publ_section_title
;
Structure prediction by ZEFSAII (Michael W. Deem and Ramdas Pophale) SiO2 
 PCOD8138092
Probable space group: C 2/C
;
_chemical_formula_sum "Si O2"
_cell_formula_units_Z 56
_cell_length_a 34.733077
_cell_length_b 8.365672
_cell_length_c 22.272123
_cell_angle_alpha 90.000000
_cell_angle_beta 26.545448
_cell_angle_gamma 90.000000
_cell_volume 2892.167223
_symmetry_space_group_name_H-M "C 2/C"
_symmetry_group_IT_number 15
_symmetry_cell_setting 'monoclinic'
loop_
_space_group_symop_operation_xyz
x,y,z
-x,y,1/2-z
-x,-y,-z
x,-y,1/2+z
1/2+x,1/2+y,z
1/2-x,1/2+y,1/2-z
1/2-x,1/2-y,-z
1/2+x,1/2-y,1/2+z
loop_
_atom_site_type_symbol
_atom_site_label
_atom_site_fract_x
_atom_site_fract_y
_atom_site_fract_z
Si Si1 0.907031 0.201381 0.220712
Si Si2 0.592761 0.281692 0.422430
Si Si3 0.796796 0.776184 0.112732
Si Si4 0.906816 0.085344 0.352735
Si Si5 0.652447 0.011533 0.772002
Si Si6 0.216488 0.801566 0.983121
Si Si7 0.219239 0.016739 0.670390
O O1 0.911745 0.195394 0.286368
O O2 0.897143 0.379035 0.207201
O O3 0.824502 0.094049 0.319426
O O4 0.998363 0.145132 0.065953
O O5 0.645334 0.296554 0.410349
O O6 0.638227 0.394061 0.311431
O O7 0.589913 0.099643 0.400195
O O8 0.710811 0.884739 0.236609
O O9 0.768446 0.591483 0.150023
O O10 0.847617 0.819499 0.981453
O O11 0.000000 0.058543 0.250000
O O12 0.870621 0.905849 0.390658
O O13 0.710898 0.901418 0.650185
O O14 0.207767 0.636788 0.957439
O O15 0.250000 0.750000 0.000000
#
# Coordination Sequence:
#
# PCOD8138092 Si02
#       7
#     8   8   8   8   8   8   8
#     4  11  21  37  60  85 118 150 191 239 286 347
#     4  11  20  38  57  86 119 149 192 237 290 335
#     4  10  21  37  61  82 117 152 192 238 282 348
#     4  11  22  39  59  87 115 153 188 238 299 337
#     4   9  22  35  57  87 111 155 194 234 280 342
#     4  10  20  37  59  81 115 148 193 237 278 341
#     4  10  22  37  60  86 110 155 196 234 284 338
#
# _framework density 19.362642000000001
#
# number of rings (size 3 to 8) (size 9 to 14) (size 15 to 20)
#    0.000    1.714    2.857    1.714    2.000    1.714 
#    0.000    2.143    0.000    0.000    0.000    0.000 
#    0.000    0.000    0.000    0.000    0.000    0.000 
#
# Total GULP energy -347050.032083 kJ/mol
# GULP energy per Si atom -12394.644003 kJ/mol
# Density = 1.931857 g / cm^3
# Si number density = 19.362642 Si / 1000 Ang^3
#
#
#
# Elastic Constant Matrix: (Units=GPa)
#
#
# Indices 1 2 3 4 5 6 
#
# 1 86.6008 22.7666 1.1687 -0.0039 -2.6208 0.0036
# 2 22.7666 88.4891 10.7715 -0.0077 -0.4144 0.0088
# 3 1.1687 10.7715 42.6370 -0.0066 -5.4712 0.0077
# 4 -0.0039 -0.0077 -0.0066 11.0915 0.0037 -5.9797
# 5 -2.6208 -0.4144 -5.4712 0.0037 31.4710 -0.0001
# 6 0.0036 0.0088 0.0077 -5.9797 -0.0001 24.5462
#
#
#
# Elastic Compliance Matrix: (Units=1/GPa)
#
#
# Indices 1 2 3 4 5 6 
#
# 1 0.012432 -0.003270 0.000627 0.000002 0.001101 0.000000
# 2 -0.003270 0.012523 -0.003158 0.000005 -0.000656 -0.000002
# 3 0.000627 -0.003158 0.024789 0.000009 0.004320 -0.000005
# 4 0.000002 0.000005 0.000009 0.103791 -0.000010 0.025284
# 5 0.001101 -0.000656 0.004320 -0.000010 0.032609 -0.000004
# 6 0.000000 -0.000002 -0.000005 0.025284 -0.000004 0.046899
#
#
# Mechanical properties :
#
#
# Convention : Reuss Voigt Hill
#
# Bulk Modulus (GPa) = 26.21841 31.90447 29.06144
# Shear Modulus (GPa) = 19.42806 25.62308 22.52557
#
# Velocity S-wave (km/s) = 3.17105 3.64170 3.41449
# Velocity P-wave (km/s) = 5.19399 5.84771 5.53052
#
# Compressibility (1/GPa) = 0.03814113
#
# Stress axis : x y z
#
# Youngs Moduli (GPa) = 80.43991 79.85048 40.34057
#
# Poissons Ratio (x) = 0.26107 -0.02527
# Poissons Ratio (y) = 0.26300 0.12741
# Poissons Ratio (z) = -0.05040 0.25220
#
# Static dielectric constant tensor:
#      x y z
#    x 3.468670 -0.000010 0.053650 
#    y -0.000010 3.877680 0.000040 
#    z 0.053650 0.000040 3.600740 
# 
# 
# High freq. dielectric constant tensor:
#      x y z
#    x 1.755430 0.000000 0.004990 
#    y 0.000000 1.759430 0.000000 
#    z 0.004990 0.000000 1.749690 
# 
# From -- ./inp_files/218180.got.cif
#   From: 2010.06.25/outbox.cif.g09.slc.cpg/sg15_110_cif.got.tgz:218180.got - 2010.06.28 07:06:18.
