data_PCOD8138223
_publ_section_title
;
Structure prediction by ZEFSAII (Michael W. Deem and Ramdas Pophale) SiO2 
 PCOD8138223
Probable space group: C 2/C
;
_chemical_formula_sum "Si O2"
_cell_formula_units_Z 56
_cell_length_a 12.253852
_cell_length_b 20.143558
_cell_length_c 12.644172
_cell_angle_alpha 90.000000
_cell_angle_beta 109.488957
_cell_angle_gamma 90.000000
_cell_volume 2942.221691
_symmetry_space_group_name_H-M "C 2/C"
_symmetry_group_IT_number 15
_symmetry_cell_setting 'monoclinic'
loop_
_space_group_symop_operation_xyz
x,y,z
-x,y,1/2-z
-x,-y,-z
x,-y,1/2+z
1/2+x,1/2+y,z
1/2-x,1/2+y,1/2-z
1/2-x,1/2-y,-z
1/2+x,1/2-y,1/2+z
loop_
_atom_site_type_symbol
_atom_site_label
_atom_site_fract_x
_atom_site_fract_y
_atom_site_fract_z
Si Si1 0.691930 0.923020 0.500415
Si Si2 0.752736 0.555011 0.867353
Si Si3 0.862490 0.958645 0.378441
Si Si4 0.599093 0.401759 0.501986
Si Si5 0.460248 0.138377 0.857263
Si Si6 0.918394 0.782451 0.858497
Si Si7 0.320856 0.701991 0.105401
O O1 0.752073 0.930080 0.405671
O O2 0.560413 0.901020 0.448294
O O3 0.760019 0.868940 0.590887
O O4 0.688095 0.991744 0.560951
O O5 0.658938 0.531839 0.752284
O O6 0.688364 0.599087 0.933821
O O7 0.845406 0.595857 0.830100
O O8 0.965670 0.904709 0.421844
O O9 0.889578 0.032536 0.424547
O O10 0.634245 0.334447 0.575012
O O11 0.500000 0.153309 0.750000
O O12 0.437360 0.208226 0.909508
O O13 0.046358 0.811258 0.880755
O O14 0.830165 0.772650 0.729975
O O15 0.250000 0.750000 0.000000
#
# Coordination Sequence:
#
# PCOD8138223 Si02
#       7
#     8   8   8   8   8   8   8
#     4  11  21  38  62  89 118 155 202 254 299 356
#     4  11  24  38  60  87 123 163 199 253 307 366
#     4  10  20  37  61  87 122 155 201 250 309 374
#     4  10  22  38  57  93 125 156 196 253 320 362
#     4  12  22  40  61  86 117 162 210 246 298 362
#     4  11  22  36  63  93 121 158 203 257 303 364
#     4  11  20  36  62  95 121 153 205 256 298 353
#
# _framework density 19.033235000000001
#
# number of rings (size 3 to 8) (size 9 to 14) (size 15 to 20)
#    0.000    1.143    5.714    1.714    0.000    0.571 
#    0.000    0.000    0.000    0.000    0.000    0.000 
#    0.000    0.000    0.000    0.000    0.000    0.000 
#
# Total GULP energy -347027.277414 kJ/mol
# GULP energy per Si atom -12393.831336 kJ/mol
# Density = 1.898991 g / cm^3
# Si number density = 19.033235 Si / 1000 Ang^3
#
#
#
# Elastic Constant Matrix: (Units=GPa)
#
#
# Indices 1 2 3 4 5 6 
#
# 1 73.1308 44.5030 40.6580 0.0000 0.2048 0.0000
# 2 44.5030 83.3254 32.4997 0.0000 -19.3214 0.0000
# 3 40.6580 32.4997 113.6880 0.0000 1.0084 0.0000
# 4 0.0000 0.0000 0.0000 27.2254 0.0000 2.8724
# 5 0.2048 -19.3214 1.0084 0.0000 20.2591 0.0000
# 6 0.0000 0.0000 0.0000 2.8724 0.0000 21.0463
#
#
#
# Elastic Compliance Matrix: (Units=1/GPa)
#
#
# Indices 1 2 3 4 5 6 
#
# 1 0.025557 -0.015196 -0.004667 0.000000 -0.014518 0.000000
# 2 -0.015196 0.027202 -0.002574 0.000000 0.026225 0.000000
# 3 -0.004667 -0.002574 0.011227 0.000000 -0.002967 0.000000
# 4 0.000000 0.000000 0.000000 0.037267 0.000000 -0.005086
# 5 -0.014518 0.026225 -0.002967 0.000000 0.074666 0.000000
# 6 0.000000 0.000000 0.000000 -0.005086 0.000000 0.048208
#
#
# Mechanical properties :
#
#
# Convention : Reuss Voigt Hill
#
# Bulk Modulus (GPa) = 52.32380 56.16284 54.24332
# Shear Modulus (GPa) = 18.15723 23.87171 21.01447
#
# Velocity S-wave (km/s) = 3.09200 3.54533 3.32640
# Velocity P-wave (km/s) = 6.34805 6.80669 6.58136
#
# Compressibility (1/GPa) = 0.01911176
#
# Stress axis : x y z
#
# Youngs Moduli (GPa) = 39.12866 36.76201 89.06848
#
# Poissons Ratio (x) = 0.55863 0.41569
# Poissons Ratio (y) = 0.59459 0.22929
# Poissons Ratio (z) = 0.18262 0.09464
#
# Static dielectric constant tensor:
#      x y z
#    x 3.381890 0.000000 0.150830 
#    y 0.000000 3.439970 0.000000 
#    z 0.150830 0.000000 3.535090 
# 
# 
# High freq. dielectric constant tensor:
#      x y z
#    x 1.728910 0.000000 0.014360 
#    y 0.000000 1.744640 0.000000 
#    z 0.014360 0.000000 1.739590 
# 
# From -- ./inp_files/98846.got.cif
#   From: 2010.06.25/outbox.cif.g09.slc.cpg/sg15_50_cif.got.tgz:98846.got - 2010.06.28 07:06:18.
