data_PCOD8138182
_publ_section_title
;
Structure prediction by ZEFSAII (Michael W. Deem and Ramdas Pophale) SiO2 
 PCOD8138182
Probable space group: C 2/C
;
_chemical_formula_sum "Si O2"
_cell_formula_units_Z 56
_cell_length_a 30.670915
_cell_length_b 8.858830
_cell_length_c 19.843789
_cell_angle_alpha 90.000000
_cell_angle_beta 148.026599
_cell_angle_gamma 90.000000
_cell_volume 2855.055711
_symmetry_space_group_name_H-M "C 2/C"
_symmetry_group_IT_number 15
_symmetry_cell_setting 'monoclinic'
loop_
_space_group_symop_operation_xyz
x,y,z
-x,y,1/2-z
-x,-y,-z
x,-y,1/2+z
1/2+x,1/2+y,z
1/2-x,1/2+y,1/2-z
1/2-x,1/2-y,-z
1/2+x,1/2-y,1/2+z
loop_
_atom_site_type_symbol
_atom_site_label
_atom_site_fract_x
_atom_site_fract_y
_atom_site_fract_z
Si Si1 0.137962 0.248524 0.581649
Si Si2 0.307619 0.247910 0.011246
Si Si3 0.609670 0.457295 0.475090
Si Si4 0.174767 0.806257 0.694358
Si Si5 0.163507 0.902831 0.255346
Si Si6 0.954197 0.767976 0.287466
Si Si7 0.945468 0.451886 0.490048
O O1 0.231105 0.263822 0.681983
O O2 0.129544 0.186723 0.646371
O O3 0.092803 0.408463 0.519580
O O4 0.098915 0.136201 0.473966
O O5 0.327176 0.412419 0.002907
O O6 0.398147 0.191761 0.154776
O O7 0.250000 0.250000 0.000000
O O8 0.260326 0.141211 0.895413
O O9 0.650653 0.391667 0.595487
O O10 0.520252 0.385155 0.343906
O O11 0.124459 0.652101 0.634972
O O12 0.157272 0.917688 0.734502
O O13 0.105474 0.862215 0.241512
O O14 0.999560 0.633389 0.383846
O O15 0.000000 0.500000 0.500000
#
# Coordination Sequence:
#
# PCOD8138182 Si02
#       7
#     8   8   8   8   8   8   8
#     4  11  21  36  61  89 126 154 206 265 316 376
#     4  10  21  39  64  85 118 165 213 250 308 394
#     4  10  21  36  61  86 118 157 207 255 314 359
#     4  10  22  34  61  90 123 156 203 259 321 371
#     4  10  20  37  60  90 119 158 204 258 312 370
#     4  10  22  37  61  86 122 165 207 252 315 384
#     4  11  22  36  60  96 125 160 203 265 320 367
#
# _framework density 19.614328
#
# number of rings (size 3 to 8) (size 9 to 14) (size 15 to 20)
#    0.000    1.714    2.857    2.143    4.000    1.714 
#    0.000    0.000    6.286    2.571    0.000    0.000 
#    0.000    0.000    0.000    0.000    0.000    0.000 
#
# Total GULP energy -347000.398007 kJ/mol
# GULP energy per Si atom -12392.871357 kJ/mol
# Density = 1.956969 g / cm^3
# Si number density = 19.614328 Si / 1000 Ang^3
#
#
#
# Elastic Constant Matrix: (Units=GPa)
#
#
# Indices 1 2 3 4 5 6 
#
# 1 74.9196 46.2635 26.1569 0.0000 8.8411 0.0000
# 2 46.2635 142.9363 56.4471 0.0000 12.8275 0.0000
# 3 26.1569 56.4471 121.7816 0.0000 11.1943 0.0000
# 4 0.0000 0.0000 0.0000 11.9819 0.0000 1.9436
# 5 8.8411 12.8275 11.1943 0.0000 25.3453 0.0000
# 6 0.0000 0.0000 0.0000 1.9436 0.0000 36.8164
#
#
#
# Elastic Compliance Matrix: (Units=1/GPa)
#
#
# Indices 1 2 3 4 5 6 
#
# 1 0.017071 -0.004794 -0.001168 0.000000 -0.003013 0.000000
# 2 -0.004794 0.010089 -0.003472 0.000000 -0.001901 0.000000
# 3 -0.001168 -0.003472 0.010290 0.000000 -0.002380 0.000000
# 4 0.000000 0.000000 0.000000 0.084180 0.000000 -0.004444
# 5 -0.003013 -0.001901 -0.002380 0.000000 0.042519 0.000000
# 6 0.000000 0.000000 0.000000 -0.004444 0.000000 0.027396
#
#
# Mechanical properties :
#
#
# Convention : Reuss Voigt Hill
#
# Bulk Modulus (GPa) = 53.81101 66.37472 60.09287
# Shear Modulus (GPa) = 23.08312 28.88005 25.98158
#
# Velocity S-wave (km/s) = 3.43425 3.84134 3.64348
# Velocity P-wave (km/s) = 6.57415 7.32038 6.95728
#
# Compressibility (1/GPa) = 0.01858356
#
# Stress axis : x y z
#
# Youngs Moduli (GPa) = 58.57860 99.11294 97.17739
#
# Poissons Ratio (x) = 0.47513 0.11347
# Poissons Ratio (y) = 0.28081 0.33742
# Poissons Ratio (z) = 0.06840 0.34415
#
# Static dielectric constant tensor:
#      x y z
#    x 3.471510 0.000000 0.156470 
#    y 0.000000 3.380910 0.000000 
#    z 0.156470 0.000000 3.944540 
# 
# 
# High freq. dielectric constant tensor:
#      x y z
#    x 1.765600 0.000000 0.010790 
#    y 0.000000 1.747260 0.000000 
#    z 0.010790 0.000000 1.774260 
# 
# From -- ./inp_files/259033.got.cif
#   From: 2010.06.25/outbox.cif.g09.slc.cpg/sg15_130_cif.got.tgz:259033.got - 2010.06.28 07:06:18.
