data_PCOD8138661
_publ_section_title
;
Structure prediction by ZEFSAII (Michael W. Deem and Ramdas Pophale) SiO2 
 PCOD8138661
Probable space group: C 2/C
;
_chemical_formula_sum "Si O2"
_cell_formula_units_Z 64
_cell_length_a 16.049186
_cell_length_b 18.140241
_cell_length_c 18.221819
_cell_angle_alpha 90.000000
_cell_angle_beta 36.249976
_cell_angle_gamma 90.000000
_cell_volume 3136.913249
_symmetry_space_group_name_H-M "C 2/C"
_symmetry_group_IT_number 15
_symmetry_cell_setting 'monoclinic'
loop_
_space_group_symop_operation_xyz
x,y,z
-x,y,1/2-z
-x,-y,-z
x,-y,1/2+z
1/2+x,1/2+y,z
1/2-x,1/2+y,1/2-z
1/2-x,1/2-y,-z
1/2+x,1/2-y,1/2+z
loop_
_atom_site_type_symbol
_atom_site_label
_atom_site_fract_x
_atom_site_fract_y
_atom_site_fract_z
Si Si1 0.608470 0.194452 0.528728
Si Si2 0.477107 0.117435 0.044505
Si Si3 0.108980 0.150965 0.605177
Si Si4 0.166189 0.852874 0.525316
Si Si5 0.996966 0.997686 0.339423
Si Si6 0.099749 0.588535 0.740993
Si Si7 0.304310 0.975689 0.182082
Si Si8 0.932702 0.687054 0.378727
O O1 0.591219 0.183584 0.453933
O O2 0.761319 0.163929 0.447156
O O3 0.578475 0.280017 0.567299
O O4 0.490300 0.146808 0.651072
O O5 0.472037 0.141374 0.132695
O O6 0.380826 0.047411 0.097810
O O7 0.634960 0.095744 0.904595
O O8 0.064681 0.227271 0.597237
O O9 0.275130 0.156660 0.502801
O O10 0.000000 0.142826 0.750000
O O11 0.092301 0.074770 0.571085
O O12 0.283829 0.862255 0.380403
O O13 0.071015 0.925338 0.588866
O O14 0.000000 0.999746 0.250000
O O15 0.142990 0.986682 0.276951
O O16 0.169544 0.531006 0.748450
O O17 0.000000 0.548062 0.750000
O O18 0.000000 0.676753 0.250000
#
# Coordination Sequence:
#
# PCOD8138661 Si02
#       8
#     8   8   8   8   8   8   8   8
#     4   9  20  38  59  83 114 155 195 233 286 358
#     4  10  20  38  60  83 116 156 197 241 288 349
#     4   9  20  39  59  84 120 159 196 236 298 361
#     4  10  21  37  60  87 115 149 193 240 293 345
#     4  11  22  37  58  84 119 158 191 238 297 356
#     4   9  20  38  57  81 117 153 189 247 298 332
#     4  10  22  37  58  88 117 154 203 236 287 368
#     4  10  21  38  63  91 115 153 206 252 290 345
#
# _framework density 20.402222999999999
#
# number of rings (size 3 to 8) (size 9 to 14) (size 15 to 20)
#    0.000    2.250    0.000    2.250    0.000   10.500 
#    0.000    7.500    0.000    0.000    0.000    0.000 
#    0.000    0.000    0.000    0.000    0.000    0.000 
#
# Total GULP energy -396442.683671 kJ/mol
# GULP energy per Si atom -12388.833865 kJ/mol
# Density = 2.035579 g / cm^3
# Si number density = 20.402223 Si / 1000 Ang^3
#
#
#
# Elastic Constant Matrix: (Units=GPa)
#
#
# Indices 1 2 3 4 5 6 
#
# 1 144.7911 69.9683 49.1706 -0.0005 4.0640 -0.0002
# 2 69.9683 137.0104 22.7848 -0.0006 -15.7028 0.0001
# 3 49.1706 22.7848 53.5806 -0.0017 -5.0714 0.0006
# 4 -0.0005 -0.0006 -0.0017 19.4933 0.0005 -2.0783
# 5 4.0640 -15.7028 -5.0714 0.0005 31.5318 0.0002
# 6 -0.0002 0.0001 0.0006 -2.0783 0.0002 30.9486
#
#
#
# Elastic Compliance Matrix: (Units=1/GPa)
#
#
# Indices 1 2 3 4 5 6 
#
# 1 0.013476 -0.005868 -0.010472 -0.000001 -0.006343 0.000000
# 2 -0.005868 0.010791 0.001397 0.000000 0.006355 0.000000
# 3 -0.010472 0.001397 0.028304 0.000002 0.006598 -0.000001
# 4 -0.000001 0.000000 0.000002 0.051670 0.000000 0.003470
# 5 -0.006343 0.006355 0.006598 0.000000 0.036758 0.000000
# 6 0.000000 0.000000 -0.000001 0.003470 0.000000 0.032545
#
#
# Mechanical properties :
#
#
# Convention : Reuss Voigt Hill
#
# Bulk Modulus (GPa) = 44.07941 68.80327 56.44134
# Shear Modulus (GPa) = 23.69769 29.29197 26.49483
#
# Velocity S-wave (km/s) = 3.41181 3.79321 3.60755
# Velocity P-wave (km/s) = 6.09694 7.27882 6.71394
#
# Compressibility (1/GPa) = 0.02268633
#
# Stress axis : x y z
#
# Youngs Moduli (GPa) = 74.20408 92.66871 35.33034
#
# Poissons Ratio (x) = 0.54374 0.36999
# Poissons Ratio (y) = 0.43540 -0.04937
# Poissons Ratio (z) = 0.77710 -0.12948
#
# Static dielectric constant tensor:
#      x y z
#    x 3.080910 0.000000 -0.381060 
#    y 0.000000 4.022340 0.000000 
#    z -0.381060 0.000000 3.541800 
# 
# 
# High freq. dielectric constant tensor:
#      x y z
#    x 1.789450 0.000000 -0.006400 
#    y 0.000000 1.807370 0.000000 
#    z -0.006400 0.000000 1.785440 
# 
# From -- ./inp_files/206445.got.cif
#   From: 2010.06.25/outbox.cif.g09.slc.cpg/sg15_104_cif.got.tgz:206445.got - 2010.06.28 07:06:18.
