data_PCOD8138030
_publ_section_title
;
Structure prediction by ZEFSAII (Michael W. Deem and Ramdas Pophale) SiO2 
 PCOD8138030
Probable space group: C 2/C
;
_chemical_formula_sum "Si O2"
_cell_formula_units_Z 64
_cell_length_a 13.986002
_cell_length_b 15.003373
_cell_length_c 26.039158
_cell_angle_alpha 90.000000
_cell_angle_beta 144.635409
_cell_angle_gamma 90.000000
_cell_volume 3162.430035
_symmetry_space_group_name_H-M "C 2/C"
_symmetry_group_IT_number 15
_symmetry_cell_setting 'monoclinic'
loop_
_space_group_symop_operation_xyz
x,y,z
-x,y,1/2-z
-x,-y,-z
x,-y,1/2+z
1/2+x,1/2+y,z
1/2-x,1/2+y,1/2-z
1/2-x,1/2-y,-z
1/2+x,1/2-y,1/2+z
loop_
_atom_site_type_symbol
_atom_site_label
_atom_site_fract_x
_atom_site_fract_y
_atom_site_fract_z
Si Si1 0.435562 0.985521 0.556809
Si Si2 0.740328 0.468349 0.746882
Si Si3 0.620272 0.784678 0.698702
Si Si4 0.328892 0.478636 0.397451
Si Si5 0.538720 0.702177 0.555190
Si Si6 0.998556 0.624101 0.511529
Si Si7 0.194241 0.607019 0.412443
Si Si8 0.842364 0.116954 0.715813
O O1 0.382997 0.076440 0.504382
O O2 0.571682 0.002968 0.661338
O O3 0.522495 0.921077 0.553309
O O4 0.285836 0.937406 0.521475
O O5 0.738614 0.359765 0.751209
O O6 0.671701 0.488508 0.660847
O O7 0.631069 0.525185 0.739911
O O8 0.553517 0.746712 0.616613
O O9 0.468457 0.831789 0.662553
O O10 0.690015 0.703173 0.762525
O O11 0.500000 0.500000 0.500000
O O12 0.317842 0.370823 0.391549
O O13 0.182916 0.526687 0.365443
O O14 0.556892 0.773948 0.517359
O O15 0.353873 0.664935 0.470401
O O16 0.187372 0.608743 0.610392
O O17 0.000000 0.132775 0.750000
#
# Coordination Sequence:
#
# PCOD8138030 Si02
#       8
#     8   8   8   8   8   8   8   8
#     4   9  20  36  58  81 112 152 186 236 285 333
#     4  10  21  40  53  82 121 152 182 236 297 343
#     4  11  22  36  60  86 114 153 190 238 286 332
#     4  10  23  36  54  80 123 154 179 232 302 342
#     4  11  20  38  58  84 115 150 191 233 289 341
#     4  10  20  37  57  85 116 150 189 231 290 340
#     4  10  21  36  58  88 113 148 194 241 279 339
#     4  11  24  35  60  91 116 147 196 242 279 338
#
# _framework density 20.237601000000002
#
# number of rings (size 3 to 8) (size 9 to 14) (size 15 to 20)
#    0.000    1.750    3.750    1.125    7.000    1.500 
#    0.000    0.625    0.000    4.500    0.000    0.000 
#    0.000    0.000    0.000    0.000    0.000    0.000 
#
# Total GULP energy -396487.725237 kJ/mol
# GULP energy per Si atom -12390.241414 kJ/mol
# Density = 2.019154 g / cm^3
# Si number density = 20.237601 Si / 1000 Ang^3
#
#
#
# Elastic Constant Matrix: (Units=GPa)
#
#
# Indices 1 2 3 4 5 6 
#
# 1 37.3703 36.0211 8.3634 0.0000 -14.8544 0.0000
# 2 36.0211 131.3349 18.2163 0.0000 -1.1323 0.0000
# 3 8.3634 18.2163 74.1469 0.0000 -16.2021 0.0000
# 4 0.0000 0.0000 0.0000 27.1222 0.0000 -6.7731
# 5 -14.8544 -1.1323 -16.2021 0.0000 19.0186 0.0000
# 6 0.0000 0.0000 0.0000 -6.7731 0.0000 40.1292
#
#
#
# Elastic Compliance Matrix: (Units=1/GPa)
#
#
# Indices 1 2 3 4 5 6 
#
# 1 0.066682 -0.019193 0.010229 0.000000 0.059653 0.000000
# 2 -0.019193 0.013440 -0.005207 0.000000 -0.018627 0.000000
# 3 0.010229 -0.005207 0.018788 0.000000 0.023685 0.000000
# 4 0.000000 0.000000 0.000000 0.038493 0.000000 0.006497
# 5 0.059653 -0.018627 0.023685 0.000000 0.118241 0.000000
# 6 0.000000 0.000000 0.000000 0.006497 0.000000 0.026016
#
#
# Mechanical properties :
#
#
# Convention : Reuss Voigt Hill
#
# Bulk Modulus (GPa) = 14.17095 40.89483 27.53289
# Shear Modulus (GPa) = 14.99141 29.27074 22.13107
#
# Velocity S-wave (km/s) = 2.72466 3.80722 3.31049
# Velocity P-wave (km/s) = 4.11289 6.29109 5.31478
#
# Compressibility (1/GPa) = 0.07056689
#
# Stress axis : x y z
#
# Youngs Moduli (GPa) = 14.99652 74.40523 53.22626
#
# Poissons Ratio (x) = 1.42808 -0.54446
# Poissons Ratio (y) = 0.28783 0.27716
# Poissons Ratio (z) = -0.15340 0.38744
#
# Static dielectric constant tensor:
#      x y z
#    x 3.657300 0.000000 -0.293640 
#    y 0.000000 4.443970 0.000000 
#    z -0.293640 0.000000 3.604190 
# 
# 
# High freq. dielectric constant tensor:
#      x y z
#    x 1.753660 0.000000 -0.032450 
#    y 0.000000 1.808110 0.000000 
#    z -0.032450 0.000000 1.789160 
# 
# From -- ./inp_files/274362.got.cif
#   From: 2010.06.25/outbox.cif.g09.slc.cpg/sg15_138_cif.got.tgz:274362.got - 2010.06.28 07:06:18.
