data_PCOD8138598
_publ_section_title
;
Structure prediction by ZEFSAII (Michael W. Deem and Ramdas Pophale) SiO2 
 PCOD8138598
Probable space group: C 2/C
;
_chemical_formula_sum "Si O2"
_cell_formula_units_Z 52
_cell_length_a 17.791428
_cell_length_b 12.887754
_cell_length_c 18.459618
_cell_angle_alpha 90.000000
_cell_angle_beta 38.312766
_cell_angle_gamma 90.000000
_cell_volume 2624.038067
_symmetry_space_group_name_H-M "C 2/C"
_symmetry_group_IT_number 15
_symmetry_cell_setting 'monoclinic'
loop_
_space_group_symop_operation_xyz
x,y,z
-x,y,1/2-z
-x,-y,-z
x,-y,1/2+z
1/2+x,1/2+y,z
1/2-x,1/2+y,1/2-z
1/2-x,1/2-y,-z
1/2+x,1/2-y,1/2+z
loop_
_atom_site_type_symbol
_atom_site_label
_atom_site_fract_x
_atom_site_fract_y
_atom_site_fract_z
Si Si1 0.392095 0.693465 0.969079
Si Si2 0.576175 0.900254 0.061470
Si Si3 0.000000 0.258328 0.250000
Si Si4 0.292735 0.104910 0.486844
Si Si5 0.138993 0.693731 0.856893
Si Si6 0.316865 0.355632 0.800059
Si Si7 0.858961 0.084621 0.757983
O O1 0.279020 0.612711 0.036809
O O2 0.516574 0.640447 0.853430
O O3 0.374531 0.792835 0.930808
O O4 0.399468 0.735341 0.045552
O O5 0.553045 0.825150 0.145168
O O6 0.459236 0.891915 0.096731
O O7 0.679944 0.864082 0.929177
O O8 0.613142 0.010324 0.070381
O O9 0.109203 0.183564 0.187308
O O10 0.182986 0.102201 0.627762
O O11 0.174653 0.773728 0.769212
O O12 0.256230 0.626341 0.782935
O O13 0.373937 0.463298 0.729711
#
# Coordination Sequence:
#
# PCOD8138598 Si02
#       7
#     8   8   4   8   8   8   8
#     4  10  20  38  58  89 127 151 205 248 296 361
#     4  10  21  41  62  87 119 157 204 247 301 361
#     4  10  22  40  60  90 112 152 202 252 290 356
#     4   9  21  38  59  90 116 164 200 247 302 357
#     4  10  22  39  57  92 121 158 201 246 305 356
#     4  10  22  38  61  85 118 159 195 245 300 357
#     4  10  21  36  62  83 117 165 195 245 303 362
#
# _framework density 19.816784999999999
#
# number of rings (size 3 to 8) (size 9 to 14) (size 15 to 20)
#    0.000    2.154    0.000    1.846    4.308    7.385 
#   13.846    0.000    0.000    0.000    0.000    0.000 
#    0.000    0.000    0.000    0.000    0.000    0.000 
#
# Total GULP energy -322142.634199 kJ/mol
# GULP energy per Si atom -12390.101315 kJ/mol
# Density = 1.977168 g / cm^3
# Si number density = 19.816785 Si / 1000 Ang^3
#
#
#
# Elastic Constant Matrix: (Units=GPa)
#
#
# Indices 1 2 3 4 5 6 
#
# 1 135.5965 62.0043 31.2083 0.0000 -18.6973 0.0000
# 2 62.0043 114.0590 43.8321 0.0000 -20.7259 0.0000
# 3 31.2083 43.8321 62.4603 0.0000 -19.9248 0.0000
# 4 0.0000 0.0000 0.0000 53.6181 0.0000 4.0071
# 5 -18.6973 -20.7259 -19.9248 0.0000 28.1246 0.0000
# 6 0.0000 0.0000 0.0000 4.0071 0.0000 45.7683
#
#
#
# Elastic Compliance Matrix: (Units=1/GPa)
#
#
# Indices 1 2 3 4 5 6 
#
# 1 0.010073 -0.004639 -0.000946 0.000000 0.002608 0.000000
# 2 -0.004639 0.014450 -0.006989 0.000000 0.002613 0.000000
# 3 -0.000946 -0.006989 0.025250 0.000000 0.012109 0.000000
# 4 0.000000 0.000000 0.000000 0.018773 0.000000 -0.001644
# 5 0.002608 0.002613 0.012109 0.000000 0.047795 0.000000
# 6 0.000000 0.000000 0.000000 -0.001644 0.000000 0.021993
#
#
# Mechanical properties :
#
#
# Convention : Reuss Voigt Hill
#
# Bulk Modulus (GPa) = 40.60678 65.13390 52.87034
# Shear Modulus (GPa) = 29.12237 37.17361 33.14799
#
# Velocity S-wave (km/s) = 3.83767 4.33582 4.09433
# Velocity P-wave (km/s) = 6.33818 7.61612 7.00635
#
# Compressibility (1/GPa) = 0.02462643
#
# Stress axis : x y z
#
# Youngs Moduli (GPa) = 99.27284 69.20594 39.60378
#
# Poissons Ratio (x) = 0.32101 0.03746
# Poissons Ratio (y) = 0.46048 0.27678
# Poissons Ratio (z) = 0.09390 0.48367
#
# Static dielectric constant tensor:
#      x y z
#    x 3.945790 0.000000 -0.109050 
#    y 0.000000 3.864770 0.000000 
#    z -0.109050 0.000000 3.424160 
# 
# 
# High freq. dielectric constant tensor:
#      x y z
#    x 1.790900 0.000000 -0.010050 
#    y 0.000000 1.779730 0.000000 
#    z -0.010050 0.000000 1.762440 
# 
# From -- ./inp_files/248576.got.cif
#   From: 2010.06.25/outbox.cif.g09.slc.cpg/sg15_125_cif.got.tgz:248576.got - 2010.06.28 07:06:18.
