data_PCOD8138968
_publ_section_title
;
Structure prediction by ZEFSAII (Michael W. Deem and Ramdas Pophale) SiO2 
 PCOD8138968
Probable space group: C 2/C
;
_chemical_formula_sum "Si O2"
_cell_formula_units_Z 44
_cell_length_a 27.584969
_cell_length_b 10.848740
_cell_length_c 14.732502
_cell_angle_alpha 90.000000
_cell_angle_beta 149.571506
_cell_angle_gamma 90.000000
_cell_volume 2232.933174
_symmetry_space_group_name_H-M "C 2/C"
_symmetry_group_IT_number 15
_symmetry_cell_setting 'monoclinic'
loop_
_space_group_symop_operation_xyz
x,y,z
-x,y,1/2-z
-x,-y,-z
x,-y,1/2+z
1/2+x,1/2+y,z
1/2-x,1/2+y,1/2-z
1/2-x,1/2-y,-z
1/2+x,1/2-y,1/2+z
loop_
_atom_site_type_symbol
_atom_site_label
_atom_site_fract_x
_atom_site_fract_y
_atom_site_fract_z
Si Si1 0.211801 0.375215 0.897295
Si Si2 0.493407 0.088571 0.346504
Si Si3 0.000000 0.194098 0.250000
Si Si4 0.975307 0.180129 0.503185
Si Si5 0.087132 0.661238 0.041791
Si Si6 0.608071 0.467375 0.779321
O O1 0.115610 0.405656 0.796763
O O2 0.192368 0.357394 0.756963
O O3 0.250000 0.250000 0.000000
O O4 0.284836 0.488190 0.027045
O O5 0.500000 0.076776 0.250000
O O6 0.554581 0.210075 0.476304
O O7 0.537450 0.970795 0.466291
O O8 0.931939 0.114284 0.203681
O O9 0.078536 0.281171 0.427664
O O10 0.888903 0.108858 0.311663
O O11 0.037617 0.238598 0.524864
O O12 0.037977 0.083558 0.660414
#
# Coordination Sequence:
#
# PCOD8138968 Si02
#       6
#     8   8   4   8   8   8
#     4  11  21  40  63  90 126 157 203 256 305 358
#     4  11  22  40  64  88 121 169 208 244 308 375
#     4  10  22  40  64  88 124 166 208 250 310 370
#     4   9  19  36  63  85 120 167 195 243 317 367
#     4  10  20  42  62  84 127 168 196 252 315 366
#     4  10  20  38  63  91 123 159 202 253 307 362
#
# _framework density 19.705023000000001
#
# number of rings (size 3 to 8) (size 9 to 14) (size 15 to 20)
#    0.000    1.818    4.545    2.182    1.273    0.000 
#    3.273   10.000    4.000    0.000    0.000    0.000 
#    0.000    0.000    0.000    0.000    0.000    0.000 
#
# Total GULP energy -272563.836460 kJ/mol
# GULP energy per Si atom -12389.265294 kJ/mol
# Density = 1.966017 g / cm^3
# Si number density = 19.705023 Si / 1000 Ang^3
#
#
#
# Elastic Constant Matrix: (Units=GPa)
#
#
# Indices 1 2 3 4 5 6 
#
# 1 65.2987 33.2138 50.1728 0.0000 -15.1681 0.0000
# 2 33.2138 125.5654 80.3688 0.0000 -1.1016 0.0000
# 3 50.1728 80.3688 162.8051 0.0000 -24.7635 0.0000
# 4 0.0000 0.0000 0.0000 57.1213 0.0000 -10.9624
# 5 -15.1681 -1.1016 -24.7635 0.0000 22.4981 0.0000
# 6 0.0000 0.0000 0.0000 -10.9624 0.0000 33.4121
#
#
#
# Elastic Compliance Matrix: (Units=1/GPa)
#
#
# Indices 1 2 3 4 5 6 
#
# 1 0.022372 -0.003646 -0.003396 0.000000 0.011166 0.000000
# 2 -0.003646 0.013207 -0.006812 0.000000 -0.009309 0.000000
# 3 -0.003396 -0.006812 0.012194 0.000000 0.010799 0.000000
# 4 0.000000 0.000000 0.000000 0.018683 0.000000 0.006130
# 5 0.011166 -0.009309 0.010799 0.000000 0.063407 0.000000
# 6 0.000000 0.000000 0.000000 0.006130 0.000000 0.031940
#
#
# Mechanical properties :
#
#
# Convention : Reuss Voigt Hill
#
# Bulk Modulus (GPa) = 49.83855 75.68667 62.76261
# Shear Modulus (GPa) = 25.48421 35.26721 30.37571
#
# Velocity S-wave (km/s) = 3.60013 4.23514 3.93048
# Velocity P-wave (km/s) = 6.52905 7.89990 7.24696
#
# Compressibility (1/GPa) = 0.02006479
#
# Stress axis : x y z
#
# Youngs Moduli (GPa) = 44.69853 75.71928 82.00615
#
# Poissons Ratio (x) = 0.27607 0.27852
# Poissons Ratio (y) = 0.16297 0.55861
# Poissons Ratio (z) = 0.15181 0.51579
#
# Static dielectric constant tensor:
#      x y z
#    x 2.837080 0.000000 -0.691240 
#    y 0.000000 4.102650 0.000000 
#    z -0.691240 0.000000 4.129820 
# 
# 
# High freq. dielectric constant tensor:
#      x y z
#    x 1.736920 0.000000 -0.041330 
#    y 0.000000 1.796410 0.000000 
#    z -0.041330 0.000000 1.768580 
# 
# From -- ./inp_files/151390.got.cif
#   From: 2010.06.25/outbox.cif.g09.slc.cpg/sg15_76_cif.got.tgz:151390.got - 2010.06.28 07:06:18.
