data_PCOD8138700
_publ_section_title
;
Structure prediction by ZEFSAII (Michael W. Deem and Ramdas Pophale) SiO2 
 PCOD8138700
Probable space group: C 2/C
;
_chemical_formula_sum "Si O2"
_cell_formula_units_Z 52
_cell_length_a 11.351348
_cell_length_b 20.256042
_cell_length_c 17.451347
_cell_angle_alpha 90.000000
_cell_angle_beta 138.912281
_cell_angle_gamma 90.000000
_cell_volume 2637.166771
_symmetry_space_group_name_H-M "C 2/C"
_symmetry_group_IT_number 15
_symmetry_cell_setting 'monoclinic'
loop_
_space_group_symop_operation_xyz
x,y,z
-x,y,1/2-z
-x,-y,-z
x,-y,1/2+z
1/2+x,1/2+y,z
1/2-x,1/2+y,1/2-z
1/2-x,1/2-y,-z
1/2+x,1/2-y,1/2+z
loop_
_atom_site_type_symbol
_atom_site_label
_atom_site_fract_x
_atom_site_fract_y
_atom_site_fract_z
Si Si1 0.794761 0.505127 0.317505
Si Si2 0.888934 0.171376 0.430489
Si Si3 0.981977 0.294686 0.572989
Si Si4 0.990188 0.050126 0.926726
Si Si5 0.638064 0.646949 0.252724
Si Si6 0.165467 0.437396 0.002815
Si Si7 0.000000 0.694126 0.250000
O O1 0.697726 0.459652 0.207675
O O2 0.672152 0.568748 0.274588
O O3 0.817789 0.458759 0.401579
O O4 0.988071 0.528292 0.380102
O O5 0.011531 0.123990 0.541214
O O6 0.949153 0.167590 0.371586
O O7 0.678568 0.148594 0.330164
O O8 0.901793 0.244345 0.472043
O O9 0.179760 0.313422 0.642177
O O10 0.986460 0.264637 0.662861
O O11 0.852420 0.358303 0.510770
O O12 0.159234 0.037735 0.954765
O O13 0.000000 0.000000 0.000000
O O14 0.500000 0.668854 0.250000
#
# Coordination Sequence:
#
# PCOD8138700 Si02
#       7
#     8   8   8   8   8   8   4
#     4  10  22  40  61  92 118 166 213 255 316 372
#     4  11  23  38  61  92 121 163 214 257 324 378
#     4  10  22  39  61  91 119 165 208 257 322 374
#     4  12  23  36  63  93 124 165 205 260 311 387
#     4  10  21  40  63  80 122 167 205 260 321 387
#     4  10  22  40  64  88 127 161 210 266 309 379
#     4  10  20  38  60  88 128 160 192 264 330 376
#
# _framework density 19.718131
#
# number of rings (size 3 to 8) (size 9 to 14) (size 15 to 20)
#    0.000    1.538    3.077    1.846    0.000    3.692 
#    0.000    0.000    3.385    0.000    0.000    0.000 
#    0.000    0.000    0.000    0.000    0.000    0.000 
#
# Total GULP energy -322358.463744 kJ/mol
# GULP energy per Si atom -12398.402452 kJ/mol
# Density = 1.967325 g / cm^3
# Si number density = 19.718131 Si / 1000 Ang^3
#
#
#
# Elastic Constant Matrix: (Units=GPa)
#
#
# Indices 1 2 3 4 5 6 
#
# 1 87.0441 28.6407 39.8448 -0.0001 -8.8940 -0.0002
# 2 28.6407 87.8349 53.2596 0.0000 -4.4758 0.0000
# 3 39.8448 53.2596 131.8616 -0.0002 -7.6107 -0.0002
# 4 -0.0001 0.0000 -0.0002 30.7197 -0.0001 -4.7657
# 5 -8.8940 -4.4758 -7.6107 -0.0001 26.6322 -0.0001
# 6 -0.0002 0.0000 -0.0002 -4.7657 -0.0001 19.1132
#
#
#
# Elastic Compliance Matrix: (Units=1/GPa)
#
#
# Indices 1 2 3 4 5 6 
#
# 1 0.014065 -0.002589 -0.003008 0.000000 0.003402 0.000000
# 2 -0.002589 0.015571 -0.005497 0.000000 0.000182 0.000000
# 3 -0.003008 -0.005497 0.010779 0.000000 0.001152 0.000000
# 4 0.000000 0.000000 0.000000 0.033862 0.000000 0.008443
# 5 0.003402 0.000182 0.001152 0.000000 0.039044 0.000000
# 6 0.000000 0.000000 0.000000 0.008443 0.000000 0.054425
#
#
# Mechanical properties :
#
#
# Convention : Reuss Voigt Hill
#
# Bulk Modulus (GPa) = 54.85905 61.13675 57.99790
# Shear Modulus (GPa) = 25.50886 27.62606 26.56746
#
# Velocity S-wave (km/s) = 3.60067 3.74712 3.67462
# Velocity P-wave (km/s) = 6.72075 7.05648 6.89066
#
# Compressibility (1/GPa) = 0.01822853
#
# Stress axis : x y z
#
# Youngs Moduli (GPa) = 71.09939 64.22065 92.77116
#
# Poissons Ratio (x) = 0.16626 0.27905
# Poissons Ratio (y) = 0.18407 0.50992
# Poissons Ratio (z) = 0.21386 0.35299
#
# Static dielectric constant tensor:
#      x y z
#    x 3.727270 0.000000 0.323570 
#    y 0.000000 3.431210 0.000000 
#    z 0.323570 0.000000 5.159090 
# 
# 
# High freq. dielectric constant tensor:
#      x y z
#    x 1.770410 0.000000 -0.004850 
#    y 0.000000 1.746130 0.000000 
#    z -0.004850 0.000000 1.782020 
# 
# From -- ./inp_files/200438.got.cif
#   From: 2010.06.25/outbox.cif.g09.slc.cpg/sg15_101_cif.got.tgz:200438.got - 2010.06.28 07:06:18.
