data_PCOD8138263
_publ_section_title
;
Structure prediction by ZEFSAII (Michael W. Deem and Ramdas Pophale) SiO2 
 PCOD8138263
Probable space group: C 2/C
;
_chemical_formula_sum "Si O2"
_cell_formula_units_Z 40
_cell_length_a 17.271316
_cell_length_b 7.462939
_cell_length_c 22.667518
_cell_angle_alpha 90.000000
_cell_angle_beta 42.767738
_cell_angle_gamma 90.000000
_cell_volume 1983.933020
_symmetry_space_group_name_H-M "C 2/C"
_symmetry_group_IT_number 15
_symmetry_cell_setting 'monoclinic'
loop_
_space_group_symop_operation_xyz
x,y,z
-x,y,1/2-z
-x,-y,-z
x,-y,1/2+z
1/2+x,1/2+y,z
1/2-x,1/2+y,1/2-z
1/2-x,1/2-y,-z
1/2+x,1/2-y,1/2+z
loop_
_atom_site_type_symbol
_atom_site_label
_atom_site_fract_x
_atom_site_fract_y
_atom_site_fract_z
Si Si1 0.151436 0.872296 0.427054
Si Si2 0.337387 0.048293 0.997615
Si Si3 0.621800 0.014853 0.659584
Si Si4 0.907445 0.105053 0.846407
Si Si5 0.469141 0.313254 0.441063
O O1 0.117787 0.720449 0.492990
O O2 0.287404 0.899869 0.345551
O O3 0.099000 0.814924 0.393102
O O4 0.104266 0.062208 0.475187
O O5 0.204891 0.015510 0.087154
O O6 0.416084 0.883809 0.973058
O O7 0.349359 0.088630 0.921549
O O8 0.500000 0.083062 0.750000
O O9 0.629966 0.800369 0.655374
O O10 0.969586 0.115381 0.874500
O O11 0.000000 0.019265 0.750000
#
# Coordination Sequence:
#
# PCOD8138263 Si02
#       5
#     8   8   8   8   8
#     4  11  21  36  61  86 111 152 189 240 293 333
#     4  11  20  39  61  84 115 156 198 231 282 347
#     4  10  20  37  62  85 117 154 195 237 284 342
#     4  10  20  38  61  84 116 159 194 235 286 341
#     4  10  21  39  57  84 119 146 187 244 291 334
#
# _framework density 20.161971000000001
#
# number of rings (size 3 to 8) (size 9 to 14) (size 15 to 20)
#    0.000    1.600    4.000    2.400    0.000    0.800 
#    0.000    8.000    0.000    0.000    0.000    0.000 
#    0.000    0.000    0.000    0.000    0.000    0.000 
#
# Total GULP energy -248017.761382 kJ/mol
# GULP energy per Si atom -12400.888069 kJ/mol
# Density = 2.011608 g / cm^3
# Si number density = 20.161971 Si / 1000 Ang^3
#
#
#
# Elastic Constant Matrix: (Units=GPa)
#
#
# Indices 1 2 3 4 5 6 
#
# 1 168.1016 33.1336 43.9724 0.0000 -21.3691 0.0000
# 2 33.1336 36.8509 -13.3252 0.0000 -5.1670 -0.0002
# 3 43.9724 -13.3252 93.0550 -0.0001 -17.7930 -0.0002
# 4 0.0000 0.0000 -0.0001 3.3838 0.0000 6.2420
# 5 -21.3691 -5.1670 -17.7930 0.0000 24.6466 0.0001
# 6 0.0000 -0.0002 -0.0002 6.2420 0.0001 21.1908
#
#
#
# Elastic Compliance Matrix: (Units=1/GPa)
#
#
# Indices 1 2 3 4 5 6 
#
# 1 0.009813 -0.010602 -0.005747 0.000000 0.002137 0.000000
# 2 -0.010602 0.042566 0.012824 -0.000001 0.008990 0.000001
# 3 -0.005747 0.012824 0.017239 0.000000 0.010152 0.000000
# 4 0.000000 -0.000001 0.000000 0.647177 0.000000 -0.190635
# 5 0.002137 0.008990 0.010152 0.000000 0.051640 0.000000
# 6 0.000000 0.000001 0.000000 -0.190635 0.000000 0.103344
#
#
# Mechanical properties :
#
#
# Convention : Reuss Voigt Hill
#
# Bulk Modulus (GPa) = 15.98202 47.28546 31.63374
# Shear Modulus (GPa) = 5.55750 25.45936 15.50843
#
# Velocity S-wave (km/s) = 1.66205 3.55736 2.77644
# Velocity P-wave (km/s) = 3.40987 6.35428 5.09922
#
# Compressibility (1/GPa) = 0.06257032
#
# Stress axis : x y z
#
# Youngs Moduli (GPa) = 101.90188 23.49271 58.00671
#
# Poissons Ratio (x) = 0.24907 0.33335
# Poissons Ratio (y) = 1.08034 -0.74389
# Poissons Ratio (z) = 0.58561 -0.30127
#
# Static dielectric constant tensor:
#      x y z
#    x 4.001920 0.000000 -0.119300 
#    y 0.000000 3.666220 0.000000 
#    z -0.119300 0.000000 3.549600 
# 
# 
# High freq. dielectric constant tensor:
#      x y z
#    x 1.792660 0.000000 -0.008380 
#    y 0.000000 1.796140 0.000000 
#    z -0.008380 0.000000 1.764160 
# 
# From -- ./inp_files/158770.got.cif
#   From: 2010.06.25/outbox.cif.g09.slc.cpg/sg15_80_cif.got.tgz:158770.got - 2010.06.28 07:06:18.
