data_PCOD8138097
_publ_section_title
;
Structure prediction by ZEFSAII (Michael W. Deem and Ramdas Pophale) SiO2 
 PCOD8138097
Probable space group: C 2/C
;
_chemical_formula_sum "Si O2"
_cell_formula_units_Z 64
_cell_length_a 12.168000
_cell_length_b 26.779140
_cell_length_c 10.134325
_cell_angle_alpha 90.000000
_cell_angle_beta 84.527807
_cell_angle_gamma 90.000000
_cell_volume 3287.205658
_symmetry_space_group_name_H-M "C 2/C"
_symmetry_group_IT_number 15
_symmetry_cell_setting 'monoclinic'
loop_
_space_group_symop_operation_xyz
x,y,z
-x,y,1/2-z
-x,-y,-z
x,-y,1/2+z
1/2+x,1/2+y,z
1/2-x,1/2+y,1/2-z
1/2-x,1/2-y,-z
1/2+x,1/2-y,1/2+z
loop_
_atom_site_type_symbol
_atom_site_label
_atom_site_fract_x
_atom_site_fract_y
_atom_site_fract_z
Si Si1 0.904417 0.614974 0.567371
Si Si2 0.700077 0.774844 0.163400
Si Si3 0.359951 0.118364 0.881291
Si Si4 0.679966 0.460509 0.368832
Si Si5 0.577080 0.716664 0.967565
Si Si6 0.210339 0.950091 0.061407
Si Si7 0.008170 0.115020 0.601686
Si Si8 0.860805 0.723822 0.534771
O O1 0.880704 0.618919 0.724079
O O2 0.835051 0.568532 0.517916
O O3 0.867125 0.665406 0.495457
O O4 0.035072 0.604856 0.538907
O O5 0.677127 0.825366 0.081355
O O6 0.834703 0.772564 0.162046
O O7 0.636825 0.773099 0.307997
O O8 0.647540 0.728705 0.090405
O O9 0.268176 0.077206 0.922748
O O10 0.700264 0.472344 0.211274
O O11 0.680052 0.510817 0.452503
O O12 0.560930 0.435880 0.401622
O O13 0.537645 0.659097 0.985391
O O14 0.468369 0.750016 0.961352
O O15 0.133382 0.900816 0.054687
O O16 0.000000 0.137245 0.750000
O O17 0.750000 0.750000 0.500000
#
# Coordination Sequence:
#
# PCOD8138097 Si02
#       8
#     8   8   8   8   8   8   8   8
#     4   9  18  33  55  79 106 145 190 234 279 342
#     4  10  21  37  56  84 115 151 199 238 283 345
#     4   9  16  34  59  77 103 145 193 237 275 339
#     4  10  20  37  59  84 109 146 192 242 290 344
#     4  11  21  35  61  85 112 152 194 241 283 334
#     4  10  21  37  59  84 112 146 192 240 295 347
#     4  10  21  36  59  83 110 150 198 231 279 352
#     4  11  22  34  55  84 119 153 192 240 288 343
#
# _framework density 19.469422000000002
#
# number of rings (size 3 to 8) (size 9 to 14) (size 15 to 20)
#    0.000    2.000    2.500    1.500    3.500    0.500 
#    0.000    3.750    0.000    0.000    0.000    0.000 
#    0.000    0.000    0.000    0.000    0.000    0.000 
#
# Total GULP energy -396630.472420 kJ/mol
# GULP energy per Si atom -12394.702263 kJ/mol
# Density = 1.942511 g / cm^3
# Si number density = 19.469422 Si / 1000 Ang^3
#
#
#
# Elastic Constant Matrix: (Units=GPa)
#
#
# Indices 1 2 3 4 5 6 
#
# 1 122.0040 27.2841 15.3572 0.0000 5.5404 0.0000
# 2 27.2841 90.4690 37.0854 0.0000 10.0060 0.0000
# 3 15.3572 37.0854 39.5437 0.0000 4.7339 0.0000
# 4 0.0000 0.0000 0.0000 22.9603 0.0000 10.4093
# 5 5.5404 10.0060 4.7339 0.0000 23.6846 0.0000
# 6 0.0000 0.0000 0.0000 10.4093 0.0000 32.6999
#
#
#
# Elastic Compliance Matrix: (Units=1/GPa)
#
#
# Indices 1 2 3 4 5 6 
#
# 1 0.008865 -0.001956 -0.001495 0.000000 -0.000949 0.000000
# 2 -0.001956 0.018831 -0.016396 0.000000 -0.004221 0.000000
# 3 -0.001495 -0.016396 0.041364 0.000000 -0.000991 0.000000
# 4 0.000000 0.000000 0.000000 0.050899 0.000000 -0.016203
# 5 -0.000949 -0.004221 -0.000991 0.000000 0.044425 0.000000
# 6 0.000000 0.000000 0.000000 -0.016203 0.000000 0.035739
#
#
# Mechanical properties :
#
#
# Convention : Reuss Voigt Hill
#
# Bulk Modulus (GPa) = 34.05138 45.71892 39.88515
# Shear Modulus (GPa) = 20.03164 27.35495 23.69330
#
# Velocity S-wave (km/s) = 3.21109 3.75243 3.49226
# Velocity P-wave (km/s) = 5.59248 6.50444 6.06562
#
# Compressibility (1/GPa) = 0.02936738
#
# Stress axis : x y z
#
# Youngs Moduli (GPa) = 112.80179 53.10357 24.17558
#
# Poissons Ratio (x) = 0.10386 0.03614
# Poissons Ratio (y) = 0.22062 0.39637
# Poissons Ratio (z) = 0.16865 0.87066
#
# Static dielectric constant tensor:
#      x y z
#    x 3.991250 0.000000 -0.014460 
#    y 0.000000 3.493780 0.000000 
#    z -0.014460 0.000000 3.210780 
# 
# 
# High freq. dielectric constant tensor:
#      x y z
#    x 1.783920 0.000000 0.003450 
#    y 0.000000 1.751250 0.000000 
#    z 0.003450 0.000000 1.711150 
# 
# From -- ./inp_files/90812.got.cif
#   From: 2010.06.25/outbox.cif.g09.slc.cpg/sg15_46_cif.got.tgz:90812.got - 2010.06.28 07:06:18.
