data_PCOD8138253
_publ_section_title
;
Structure prediction by ZEFSAII (Michael W. Deem and Ramdas Pophale) SiO2 
 PCOD8138253
Probable space group: C 2/C
;
_chemical_formula_sum "Si O2"
_cell_formula_units_Z 52
_cell_length_a 8.154083
_cell_length_b 11.273333
_cell_length_c 24.688244
_cell_angle_alpha 90.000000
_cell_angle_beta 74.350990
_cell_angle_gamma 90.000000
_cell_volume 2185.311579
_symmetry_space_group_name_H-M "C 2/C"
_symmetry_group_IT_number 15
_symmetry_cell_setting 'monoclinic'
loop_
_space_group_symop_operation_xyz
x,y,z
-x,y,1/2-z
-x,-y,-z
x,-y,1/2+z
1/2+x,1/2+y,z
1/2-x,1/2+y,1/2-z
1/2-x,1/2-y,-z
1/2+x,1/2-y,1/2+z
loop_
_atom_site_type_symbol
_atom_site_label
_atom_site_fract_x
_atom_site_fract_y
_atom_site_fract_z
Si Si1 0.910976 0.703413 0.363045
Si Si2 0.958501 0.164848 0.955243
Si Si3 0.500000 0.764500 0.250000
Si Si4 0.692210 0.368795 0.214473
Si Si5 0.276053 0.614083 0.344886
Si Si6 0.257514 0.517944 0.054163
Si Si7 0.673769 0.143949 0.471638
O O1 0.820583 0.742763 0.315991
O O2 0.845454 0.573643 0.387244
O O3 0.861278 0.815786 0.407403
O O4 0.114734 0.692830 0.339591
O O5 0.998790 0.305651 0.962953
O O6 0.124312 0.083765 0.930671
O O7 0.865211 0.121767 0.016789
O O8 0.340172 0.847493 0.246009
O O9 0.440619 0.680182 0.305135
O O10 0.500000 0.398955 0.250000
O O11 0.749208 0.480568 0.173587
O O12 0.294025 0.609079 0.409472
O O13 0.142326 0.465296 0.015402
O O14 0.750000 0.250000 0.500000
#
# Coordination Sequence:
#
# PCOD8138253 Si02
#       7
#     8   8   4   8   8   8   8
#     4  11  24  41  68 103 142 181 240 294 357 429
#     4   9  20  36  59  95 144 186 229 279 350 424
#     4  12  28  50  78 104 142 194 250 302 376 420
#     4  12  27  49  75 105 141 189 251 306 362 434
#     4  11  25  47  73 106 146 196 240 307 364 430
#     4  10  20  37  62 102 140 191 226 281 352 431
#     4   9  20  39  67 102 147 185 239 286 361 437
#
# _framework density 23.795235999999999
#
# number of rings (size 3 to 8) (size 9 to 14) (size 15 to 20)
#    0.000    1.538    2.308    1.385    0.000   13.538 
#    0.000    0.000    0.000    0.000    0.000    0.000 
#    0.000    0.000    0.000    0.000    0.000    0.000 
#
# Total GULP energy -322130.485947 kJ/mol
# GULP energy per Si atom -12389.634075 kJ/mol
# Density = 2.374108 g / cm^3
# Si number density = 23.795236 Si / 1000 Ang^3
#
#
#
# Elastic Constant Matrix: (Units=GPa)
#
#
# Indices 1 2 3 4 5 6 
#
# 1 94.9294 21.5051 25.2988 0.0000 4.3602 0.0000
# 2 21.5051 112.0951 48.1031 0.0000 1.8078 0.0000
# 3 25.2988 48.1031 88.1148 0.0000 11.6285 0.0000
# 4 0.0000 0.0000 0.0000 42.8055 0.0000 7.9923
# 5 4.3602 1.8078 11.6285 0.0000 27.4861 0.0000
# 6 0.0000 0.0000 0.0000 7.9923 0.0000 18.9986
#
#
#
# Elastic Compliance Matrix: (Units=1/GPa)
#
#
# Indices 1 2 3 4 5 6 
#
# 1 0.011508 -0.001065 -0.002638 0.000000 -0.000639 0.000000
# 2 -0.001065 0.011858 -0.006447 0.000000 0.002117 0.000000
# 3 -0.002638 -0.006447 0.016432 0.000000 -0.006109 0.000000
# 4 0.000000 0.000000 0.000000 0.025353 0.000000 -0.010665
# 5 -0.000639 0.002117 -0.006109 0.000000 0.038929 0.000000
# 6 0.000000 0.000000 0.000000 -0.010665 0.000000 0.057122
#
#
# Mechanical properties :
#
#
# Convention : Reuss Voigt Hill
#
# Bulk Modulus (GPa) = 51.28962 53.88372 52.58667
# Shear Modulus (GPa) = 26.59564 31.20685 28.90125
#
# Velocity S-wave (km/s) = 3.34681 3.62536 3.48887
# Velocity P-wave (km/s) = 6.04452 6.34178 6.19493
#
# Compressibility (1/GPa) = 0.01949712
#
# Stress axis : x y z
#
# Youngs Moduli (GPa) = 86.89675 84.33323 60.85739
#
# Poissons Ratio (x) = 0.08985 0.16055
# Poissons Ratio (y) = 0.09258 0.39233
# Poissons Ratio (z) = 0.22924 0.54367
#
# Static dielectric constant tensor:
#      x y z
#    x 4.563810 0.000000 0.256250 
#    y 0.000000 4.436020 0.000000 
#    z 0.256250 0.000000 4.392380 
# 
# 
# High freq. dielectric constant tensor:
#      x y z
#    x 1.934460 0.000000 0.006410 
#    y 0.000000 1.957000 0.000000 
#    z 0.006410 0.000000 1.935500 
# 
# From -- ./inp_files/287911.got.cif
#   From: 2010.06.25/outbox.cif.g09.slc.cpg/sg15_144_cif.got.tgz:287911.got - 2010.06.28 07:06:18.
