data_PCOD8138727
_publ_section_title
;
Structure prediction by ZEFSAII (Michael W. Deem and Ramdas Pophale) SiO2 
 PCOD8138727
Probable space group: C 2/C
;
_chemical_formula_sum "Si O2"
_cell_formula_units_Z 60
_cell_length_a 11.205254
_cell_length_b 20.458523
_cell_length_c 16.911396
_cell_angle_alpha 90.000000
_cell_angle_beta 132.291616
_cell_angle_gamma 90.000000
_cell_volume 2867.797090
_symmetry_space_group_name_H-M "C 2/C"
_symmetry_group_IT_number 15
_symmetry_cell_setting 'monoclinic'
loop_
_space_group_symop_operation_xyz
x,y,z
-x,y,1/2-z
-x,-y,-z
x,-y,1/2+z
1/2+x,1/2+y,z
1/2-x,1/2+y,1/2-z
1/2-x,1/2-y,-z
1/2+x,1/2-y,1/2+z
loop_
_atom_site_type_symbol
_atom_site_label
_atom_site_fract_x
_atom_site_fract_y
_atom_site_fract_z
Si Si1 0.890570 0.347982 0.464395
Si Si2 0.932796 0.505467 0.804357
Si Si3 0.434780 0.851405 0.803177
Si Si4 0.206104 0.184011 0.527306
Si Si5 0.500000 0.785798 0.250000
Si Si6 0.674835 0.924843 0.520597
Si Si7 0.811386 0.964283 0.180053
Si Si8 0.879792 0.772739 0.855957
O O1 0.765145 0.407306 0.407303
O O2 0.817784 0.289055 0.379373
O O3 0.932919 0.327990 0.573247
O O4 0.061369 0.368784 0.504710
O O5 0.908352 0.428605 0.790582
O O6 0.764375 0.538579 0.763325
O O7 0.000000 0.532665 0.750000
O O8 0.072514 0.520873 0.928865
O O9 0.500000 0.825099 0.750000
O O10 0.261595 0.819219 0.735790
O O11 0.250000 0.250000 0.500000
O O12 0.337240 0.172542 0.656657
O O13 0.200859 0.116151 0.476439
O O14 0.019195 0.192019 0.471826
O O15 0.537277 0.743989 0.189881
O O16 0.767929 0.963396 0.630143
O O17 0.000000 0.954149 0.250000
#
# Coordination Sequence:
#
# PCOD8138727 Si02
#       8
#     8   8   8   8   4   8   8   8
#     4  11  21  45  64  90 137 175 224 265 344 417
#     4  10  22  41  65  90 128 175 218 269 336 412
#     4  11  24  43  65  89 125 180 226 267 341 401
#     4  10  21  35  58  98 130 159 210 274 333 394
#     4  10  20  38  60  96 134 166 208 264 352 394
#     4  11  20  39  66  92 126 179 214 268 347 402
#     4  11  24  41  68 101 124 178 232 280 331 395
#     4  11  24  37  66  99 130 174 216 284 328 408
#
# _framework density 20.921982
#
# number of rings (size 3 to 8) (size 9 to 14) (size 15 to 20)
#    0.000    1.333    5.333    1.600    4.667    1.067 
#    1.200    3.333    0.000    0.000    0.000    0.000 
#    0.000    0.000    0.000    0.000    0.000    0.000 
#
# Total GULP energy -371666.848009 kJ/mol
# GULP energy per Si atom -12388.894934 kJ/mol
# Density = 2.087436 g / cm^3
# Si number density = 20.921982 Si / 1000 Ang^3
#
#
#
# Elastic Constant Matrix: (Units=GPa)
#
#
# Indices 1 2 3 4 5 6 
#
# 1 112.4848 25.4072 51.5560 0.0000 -2.8211 0.0000
# 2 25.4072 84.7844 33.4709 0.0000 4.7232 0.0000
# 3 51.5560 33.4709 109.0894 0.0001 -3.2399 0.0000
# 4 0.0000 0.0000 0.0001 25.4974 0.0001 2.0284
# 5 -2.8211 4.7232 -3.2399 0.0001 35.7851 0.0000
# 6 0.0000 0.0000 0.0000 2.0284 0.0000 19.9414
#
#
#
# Elastic Compliance Matrix: (Units=1/GPa)
#
#
# Indices 1 2 3 4 5 6 
#
# 1 0.011525 -0.001534 -0.004956 0.000000 0.000662 0.000000
# 2 -0.001534 0.013791 -0.003574 0.000000 -0.002265 0.000000
# 3 -0.004956 -0.003574 0.012642 0.000000 0.001226 0.000000
# 4 0.000000 0.000000 0.000000 0.039540 0.000000 -0.004022
# 5 0.000662 -0.002265 0.001226 0.000000 0.028407 0.000000
# 6 0.000000 0.000000 0.000000 -0.004022 0.000000 0.050556
#
#
# Mechanical properties :
#
#
# Convention : Reuss Voigt Hill
#
# Bulk Modulus (GPa) = 56.08483 58.58076 57.33279
# Shear Modulus (GPa) = 27.39240 29.30639 28.34940
#
# Velocity S-wave (km/s) = 3.62230 3.74671 3.68503
# Velocity P-wave (km/s) = 6.66030 6.83941 6.75045
#
# Compressibility (1/GPa) = 0.01783013
#
# Stress axis : x y z
#
# Youngs Moduli (GPa) = 86.76897 72.50948 79.10065
#
# Poissons Ratio (x) = 0.11122 0.39205
# Poissons Ratio (y) = 0.13309 0.28269
# Poissons Ratio (z) = 0.43006 0.25914
#
# Static dielectric constant tensor:
#      x y z
#    x 3.952050 0.000000 -0.098340 
#    y 0.000000 3.598960 0.000000 
#    z -0.098340 0.000000 4.631710 
# 
# 
# High freq. dielectric constant tensor:
#      x y z
#    x 1.803290 0.000000 -0.000900 
#    y 0.000000 1.815300 0.000000 
#    z -0.000900 0.000000 1.817650 
# 
# From -- ./inp_files/200553.got.cif
#   From: 2010.06.25/outbox.cif.g09.slc.cpg/sg15_101_cif.got.tgz:200553.got - 2010.06.28 07:06:18.
