data_PCOD8138786
_publ_section_title
;
Structure prediction by ZEFSAII (Michael W. Deem and Ramdas Pophale) SiO2 
 PCOD8138786
Probable space group: C 2/C
;
_chemical_formula_sum "Si O2"
_cell_formula_units_Z 40
_cell_length_a 8.047474
_cell_length_b 26.265109
_cell_length_c 10.944975
_cell_angle_alpha 90.000000
_cell_angle_beta 128.031004
_cell_angle_gamma 90.000000
_cell_volume 1822.224990
_symmetry_space_group_name_H-M "C 2/C"
_symmetry_group_IT_number 15
_symmetry_cell_setting 'monoclinic'
loop_
_space_group_symop_operation_xyz
x,y,z
-x,y,1/2-z
-x,-y,-z
x,-y,1/2+z
1/2+x,1/2+y,z
1/2-x,1/2+y,1/2-z
1/2-x,1/2-y,-z
1/2+x,1/2-y,1/2+z
loop_
_atom_site_type_symbol
_atom_site_label
_atom_site_fract_x
_atom_site_fract_y
_atom_site_fract_z
Si Si1 0.751087 0.720244 0.161927
Si Si2 0.500000 0.495147 0.750000
Si Si3 0.280201 0.327890 0.092696
Si Si4 0.500000 0.666957 0.250000
Si Si5 0.804528 0.917234 0.495349
Si Si6 0.831114 0.424196 0.332104
O O1 0.665462 0.777223 0.095455
O O2 0.671561 0.702616 0.258435
O O3 0.000000 0.722518 0.250000
O O4 0.670112 0.678730 0.028257
O O5 0.472179 0.459853 0.616492
O O6 0.288634 0.528169 0.663959
O O7 0.500000 0.340764 0.250000
O O8 0.143016 0.377524 0.060487
O O9 0.637107 0.634855 0.408488
O O10 0.571731 0.939105 0.417546
O O11 0.805174 0.907846 0.349918
#
# Coordination Sequence:
#
# PCOD8138786 Si02
#       6
#     8   4   8   4   8   8
#     4  10  22  39  61  91 128 162 210 250 303 370
#     4  11  22  40  64  84 124 162 202 259 320 354
#     4  10  20  38  61  90 120 162 209 251 299 373
#     4  11  22  40  62  90 134 164 196 259 316 350
#     4  10  24  39  58  95 122 152 216 254 295 389
#     4  11  21  40  64  86 121 162 203 254 317 360
#
# _framework density 21.951186
#
# number of rings (size 3 to 8) (size 9 to 14) (size 15 to 20)
#    0.000    1.600    1.000    3.600    0.000    1.600 
#    0.000   11.000    0.000    0.000    0.000    0.000 
#    0.000    0.000    0.000    0.000    0.000    0.000 
#
# Total GULP energy -247868.096065 kJ/mol
# GULP energy per Si atom -12393.404803 kJ/mol
# Density = 2.190122 g / cm^3
# Si number density = 21.951186 Si / 1000 Ang^3
#
#
#
# Elastic Constant Matrix: (Units=GPa)
#
#
# Indices 1 2 3 4 5 6 
#
# 1 92.1167 39.2133 7.4627 0.0000 -11.5895 0.0000
# 2 39.2133 112.9776 17.6071 0.0000 -15.5107 0.0000
# 3 7.4627 17.6071 62.5112 0.0000 -7.0329 0.0000
# 4 0.0000 0.0000 0.0000 32.5961 0.0000 -5.5864
# 5 -11.5895 -15.5107 -7.0329 0.0000 34.8606 0.0000
# 6 0.0000 0.0000 0.0000 -5.5864 0.0000 28.8332
#
#
#
# Elastic Compliance Matrix: (Units=1/GPa)
#
#
# Indices 1 2 3 4 5 6 
#
# 1 0.012932 -0.004138 -0.000104 0.000000 0.002437 0.000000
# 2 -0.004138 0.011066 -0.002275 0.000000 0.003089 0.000000
# 3 -0.000104 -0.002275 0.016917 0.000000 0.002366 0.000000
# 4 0.000000 0.000000 0.000000 0.031732 0.000000 0.006148
# 5 0.002437 0.003089 0.002366 0.000000 0.031348 0.000000
# 6 0.000000 0.000000 0.000000 0.006148 0.000000 0.035873
#
#
# Mechanical properties :
#
#
# Convention : Reuss Voigt Hill
#
# Bulk Modulus (GPa) = 35.86763 44.01908 39.94336
# Shear Modulus (GPa) = 30.82673 32.81278 31.81975
#
# Velocity S-wave (km/s) = 3.75151 3.87047 3.81145
# Velocity P-wave (km/s) = 5.92792 6.33014 6.13233
#
# Compressibility (1/GPa) = 0.02788029
#
# Stress axis : x y z
#
# Youngs Moduli (GPa) = 77.32568 90.36507 59.11340
#
# Poissons Ratio (x) = 0.37391 0.00616
# Poissons Ratio (y) = 0.31996 0.13451
# Poissons Ratio (z) = 0.00806 0.20562
#
# Static dielectric constant tensor:
#      x y z
#    x 4.116160 0.000000 -0.837060 
#    y 0.000000 3.948080 0.000000 
#    z -0.837060 0.000000 5.349510 
# 
# 
# High freq. dielectric constant tensor:
#      x y z
#    x 1.848910 0.000000 -0.000020 
#    y 0.000000 1.863810 0.000000 
#    z -0.000020 0.000000 1.869490 
# 
# From -- ./inp_files/23537.got.cif
#   From: 2010.06.25/outbox.cif.g09.slc.cpg/sg15_12_cif.got.tgz:23537.got - 2010.06.28 07:06:18.
