data_PCOD8138720
_publ_section_title
;
Structure prediction by ZEFSAII (Michael W. Deem and Ramdas Pophale) SiO2 
 PCOD8138720
Probable space group: C 2/C
;
_chemical_formula_sum "Si O2"
_cell_formula_units_Z 60
_cell_length_a 14.102661
_cell_length_b 12.484717
_cell_length_c 20.176329
_cell_angle_alpha 90.000000
_cell_angle_beta 120.745574
_cell_angle_gamma 90.000000
_cell_volume 3053.096045
_symmetry_space_group_name_H-M "C 2/C"
_symmetry_group_IT_number 15
_symmetry_cell_setting 'monoclinic'
loop_
_space_group_symop_operation_xyz
x,y,z
-x,y,1/2-z
-x,-y,-z
x,-y,1/2+z
1/2+x,1/2+y,z
1/2-x,1/2+y,1/2-z
1/2-x,1/2-y,-z
1/2+x,1/2-y,1/2+z
loop_
_atom_site_type_symbol
_atom_site_label
_atom_site_fract_x
_atom_site_fract_y
_atom_site_fract_z
Si Si1 0.358223 0.686286 0.785435
Si Si2 0.871637 0.319282 0.913490
Si Si3 0.951755 0.947640 0.080848
Si Si4 0.470050 0.968023 0.611065
Si Si5 0.518523 0.666862 0.042621
Si Si6 0.362015 0.858110 0.360420
Si Si7 0.781214 0.511535 0.948893
Si Si8 0.000000 0.338169 0.750000
O O1 0.317340 0.751598 0.835098
O O2 0.451328 0.600951 0.839439
O O3 0.250675 0.626085 0.720539
O O4 0.402423 0.764927 0.744066
O O5 0.778700 0.396647 0.910932
O O6 0.973733 0.386465 0.920414
O O7 0.915413 0.242844 0.987730
O O8 0.841307 0.945606 0.084292
O O9 0.929625 0.877228 0.007325
O O10 0.978785 0.069411 0.073266
O O11 0.450873 0.913129 0.675066
O O12 0.543452 0.075430 0.644355
O O13 0.348768 0.999458 0.541539
O O14 0.605565 0.733593 0.118065
O O15 0.346743 0.903544 0.428286
#
# Coordination Sequence:
#
# PCOD8138720 Si02
#       8
#     8   8   8   8   8   8   8   4
#     4  10  22  39  55  86 119 162 190 245 297 358
#     4   9  18  39  60  83 118 153 202 236 302 345
#     4  10  24  37  57  89 126 148 201 242 297 342
#     4  10  20  38  60  94 115 150 196 255 290 351
#     4  10  20  40  57  86 115 162 193 244 288 356
#     4  11  21  38  65  83 119 157 200 238 302 347
#     4  11  20  37  64  91 113 155 198 257 283 358
#     4  10  22  38  58  84 122 146 200 246 296 344
#
# _framework density 19.652182
#
# number of rings (size 3 to 8) (size 9 to 14) (size 15 to 20)
#    0.000    1.867    2.667    1.600    1.867    4.267 
#    4.800    0.000    0.000    0.000    0.000    0.000 
#    0.000    0.000    0.000    0.000    0.000    0.000 
#
# Total GULP energy -372039.608194 kJ/mol
# GULP energy per Si atom -12401.320273 kJ/mol
# Density = 1.960745 g / cm^3
# Si number density = 19.652182 Si / 1000 Ang^3
#
#
#
# Elastic Constant Matrix: (Units=GPa)
#
#
# Indices 1 2 3 4 5 6 
#
# 1 38.9253 23.3878 32.2535 0.0000 6.6850 0.0000
# 2 23.3878 110.7226 41.2176 0.0000 1.3008 0.0000
# 3 32.2535 41.2176 116.0772 0.0000 14.9245 0.0000
# 4 0.0000 0.0000 0.0000 24.4724 0.0000 -3.9017
# 5 6.6850 1.3008 14.9245 0.0000 29.1372 0.0000
# 6 0.0000 0.0000 0.0000 -3.9017 0.0000 27.7983
#
#
#
# Elastic Compliance Matrix: (Units=1/GPa)
#
#
# Indices 1 2 3 4 5 6 
#
# 1 0.035536 -0.004580 -0.007735 0.000000 -0.003986 0.000000
# 2 -0.004580 0.011062 -0.002919 0.000000 0.002052 0.000000
# 3 -0.007735 -0.002919 0.012371 0.000000 -0.004431 0.000000
# 4 0.000000 0.000000 0.000000 0.041798 0.000000 0.005867
# 5 -0.003986 0.002052 -0.004431 0.000000 0.037413 0.000000
# 6 0.000000 0.000000 0.000000 0.005867 0.000000 0.036797
#
#
# Mechanical properties :
#
#
# Convention : Reuss Voigt Hill
#
# Bulk Modulus (GPa) = 35.08814 51.04919 43.06867
# Shear Modulus (GPa) = 23.26184 27.53934 25.40059
#
# Velocity S-wave (km/s) = 3.44419 3.74751 3.59905
# Velocity P-wave (km/s) = 5.80603 6.69013 6.26370
#
# Compressibility (1/GPa) = 0.02849966
#
# Stress axis : x y z
#
# Youngs Moduli (GPa) = 28.14043 90.40340 80.83674
#
# Poissons Ratio (x) = 0.41403 0.62530
# Poissons Ratio (y) = 0.12888 0.23597
# Poissons Ratio (z) = 0.21768 0.26390
#
# Static dielectric constant tensor:
#      x y z
#    x 3.260860 0.000000 -0.123370 
#    y 0.000000 3.771550 0.000000 
#    z -0.123370 0.000000 3.539840 
# 
# 
# High freq. dielectric constant tensor:
#      x y z
#    x 1.739050 0.000000 -0.003110 
#    y 0.000000 1.775900 0.000000 
#    z -0.003110 0.000000 1.766560 
# 
# From -- ./inp_files/243784.got.cif
#   From: 2010.06.25/outbox.cif.g09.slc.cpg/sg15_122_cif.got.tgz:243784.got - 2010.06.28 07:06:18.
