data_PCOD8138617
_publ_section_title
;
Structure prediction by ZEFSAII (Michael W. Deem and Ramdas Pophale) SiO2 
 PCOD8138617
Probable space group: C 2/C
;
_chemical_formula_sum "Si O2"
_cell_formula_units_Z 44
_cell_length_a 11.557871
_cell_length_b 29.087520
_cell_length_c 13.740283
_cell_angle_alpha 90.000000
_cell_angle_beta 147.263593
_cell_angle_gamma 90.000000
_cell_volume 2498.024894
_symmetry_space_group_name_H-M "C 2/C"
_symmetry_group_IT_number 15
_symmetry_cell_setting 'monoclinic'
loop_
_space_group_symop_operation_xyz
x,y,z
-x,y,1/2-z
-x,-y,-z
x,-y,1/2+z
1/2+x,1/2+y,z
1/2-x,1/2+y,1/2-z
1/2-x,1/2-y,-z
1/2+x,1/2-y,1/2+z
loop_
_atom_site_type_symbol
_atom_site_label
_atom_site_fract_x
_atom_site_fract_y
_atom_site_fract_z
Si Si1 0.291100 0.303359 0.041100
Si Si2 0.500000 0.478353 0.750000
Si Si3 0.102258 0.628557 0.541879
Si Si4 0.872185 0.890000 0.750000
Si Si5 0.981500 0.128557 0.541879
Si Si6 0.210146 0.444906 0.960146
O O1 0.500000 0.313996 0.250000
O O2 0.100261 0.327930 0.965659
O O3 0.331058 0.327930 0.965659
O O4 0.250000 0.250000 0.000000
O O5 0.385926 0.445619 0.750000
O O6 0.318678 0.507818 0.568679
O O7 0.275765 0.634267 0.750000
O O8 0.149979 0.582830 0.514408
O O9 0.872280 0.626125 0.428771
O O10 0.000000 0.866729 0.750000
O O11 0.985263 0.873875 0.928772
O O12 0.878838 0.082830 0.514409
O O13 0.000000 0.456676 0.750000
#
# Coordination Sequence:
#
# PCOD8138617 Si02
#       6
#     8   4   8   8   8   8
#     4   9  20  33  61 102 112 130 178 227 296 351
#     4  10  24  38  48  88 106 142 222 228 260 352
#     4  10  20  38  59  81 120 148 175 242 295 327
#     4  10  24  39  53  81 105 168 200 209 281 338
#     4  10  20  38  59  81 120 148 175 242 295 327
#     4  11  19  35  58  82 111 146 188 248 302 318
#
# _framework density 17.613916
#
# number of rings (size 3 to 8) (size 9 to 14) (size 15 to 20)
#    0.545    1.455    3.636    1.091    2.545    3.636 
#    0.000    0.000    0.000    1.091    0.000    0.000 
#    0.000    0.000    0.000    0.000    0.000    0.000 
#
# Total GULP energy -272724.335268 kJ/mol
# GULP energy per Si atom -12396.560694 kJ/mol
# Density = 1.757383 g / cm^3
# Si number density = 17.613916 Si / 1000 Ang^3
#
#
#
# Elastic Constant Matrix: (Units=GPa)
#
#
# Indices 1 2 3 4 5 6 
#
# 1 146.7084 53.1906 62.5845 0.0000 0.9908 0.0000
# 2 53.1906 120.7257 41.5582 0.0000 0.7604 0.0000
# 3 62.5845 41.5582 126.4572 0.0000 0.3326 0.0000
# 4 0.0000 0.0000 0.0000 25.3268 0.0000 -1.4475
# 5 0.9908 0.7604 0.3326 0.0000 34.5252 0.0000
# 6 0.0000 0.0000 0.0000 -1.4475 0.0000 3.1857
#
#
#
# Elastic Compliance Matrix: (Units=1/GPa)
#
#
# Indices 1 2 3 4 5 6 
#
# 1 0.009453 -0.002879 -0.003732 0.000000 -0.000172 0.000000
# 2 -0.002879 0.010218 -0.001933 0.000000 -0.000124 0.000000
# 3 -0.003732 -0.001933 0.010390 0.000000 0.000050 0.000000
# 4 0.000000 0.000000 0.000000 0.040537 0.000000 0.018419
# 5 -0.000172 -0.000124 0.000050 0.000000 0.028972 0.000000
# 6 0.000000 0.000000 0.000000 0.018419 0.000000 0.322276
#
#
# Mechanical properties :
#
#
# Convention : Reuss Voigt Hill
#
# Bulk Modulus (GPa) = 77.08089 78.72867 77.90478
# Shear Modulus (GPa) = 11.28014 28.37807 19.82910
#
# Velocity S-wave (km/s) = 2.53338 4.01823 3.35888
# Velocity P-wave (km/s) = 7.23973 8.14384 7.70506
#
# Compressibility (1/GPa) = 0.01297338
#
# Stress axis : x y z
#
# Youngs Moduli (GPa) = 105.78337 97.86745 96.24914
#
# Poissons Ratio (x) = 0.28179 0.35918
# Poissons Ratio (y) = 0.30458 0.18601
# Poissons Ratio (z) = 0.39476 0.18914
#
# Static dielectric constant tensor:
#      x y z
#    x 3.151930 0.000000 -0.012430 
#    y 0.000000 2.859660 0.000000 
#    z -0.012430 0.000000 3.342120 
# 
# 
# High freq. dielectric constant tensor:
#      x y z
#    x 1.665670 0.000000 -0.002000 
#    y 0.000000 1.663430 0.000000 
#    z -0.002000 0.000000 1.696250 
# 
# From -- ./inp_files/149072.got.cif
#   From: 2010.06.25/outbox.cif.g09.slc.cpg/sg15_75_cif.got.tgz:149072.got - 2010.06.28 07:06:18.
