data_PCOD8138888
_publ_section_title
;
Structure prediction by ZEFSAII (Michael W. Deem and Ramdas Pophale) SiO2 
 PCOD8138888
Probable space group: C 2/C
;
_chemical_formula_sum "Si O2"
_cell_formula_units_Z 56
_cell_length_a 13.679166
_cell_length_b 12.039772
_cell_length_c 26.121955
_cell_angle_alpha 90.000000
_cell_angle_beta 41.820963
_cell_angle_gamma 90.000000
_cell_volume 2868.682747
_symmetry_space_group_name_H-M "C 2/C"
_symmetry_group_IT_number 15
_symmetry_cell_setting 'monoclinic'
loop_
_space_group_symop_operation_xyz
x,y,z
-x,y,1/2-z
-x,-y,-z
x,-y,1/2+z
1/2+x,1/2+y,z
1/2-x,1/2+y,1/2-z
1/2-x,1/2-y,-z
1/2+x,1/2-y,1/2+z
loop_
_atom_site_type_symbol
_atom_site_label
_atom_site_fract_x
_atom_site_fract_y
_atom_site_fract_z
Si Si1 0.914424 0.214790 0.425891
Si Si2 0.932894 0.649035 0.721127
Si Si3 0.393750 0.277336 0.138750
Si Si4 0.215832 0.488037 0.403310
Si Si5 0.485553 0.815084 0.500354
Si Si6 0.175659 0.458897 0.804553
Si Si7 0.000216 0.995170 0.149168
O O1 0.750000 0.250000 0.500000
O O2 0.012146 0.253032 0.436212
O O3 0.969912 0.267609 0.350853
O O4 0.924298 0.080749 0.419779
O O5 0.777551 0.701960 0.793186
O O6 0.917137 0.532128 0.698469
O O7 0.000000 0.624997 0.750000
O O8 0.410317 0.158233 0.160304
O O9 0.483706 0.372801 0.132182
O O10 0.451473 0.273666 0.058074
O O11 0.152968 0.601694 0.451947
O O12 0.176806 0.482305 0.358916
O O13 0.390138 0.481594 0.345166
O O14 0.131601 0.382278 0.460257
O O15 0.345828 0.448437 0.722970
#
# Coordination Sequence:
#
# PCOD8138888 Si02
#       7
#     8   8   8   8   8   8   8
#     4  12  22  38  63  93 124 159 209 259 305 369
#     4  11  23  40  63  91 121 163 205 257 314 372
#     4  10  23  41  62  91 126 165 207 256 310 371
#     4  10  20  38  62  91 121 162 213 252 301 368
#     4  10  21  38  61  90 126 164 204 255 311 362
#     4  10  21  41  62  87 125 161 209 256 306 374
#     4  11  23  37  62  95 124 165 210 253 310 366
#
# _framework density 19.521155
#
# number of rings (size 3 to 8) (size 9 to 14) (size 15 to 20)
#    0.000    1.429    4.286    1.286    2.000    1.143 
#    0.000    5.714    0.000    0.000    0.000    0.000 
#    0.000    0.000    0.000    0.000    0.000    0.000 
#
# Total GULP energy -347174.858435 kJ/mol
# GULP energy per Si atom -12399.102087 kJ/mol
# Density = 1.947672 g / cm^3
# Si number density = 19.521155 Si / 1000 Ang^3
#
#
#
# Elastic Constant Matrix: (Units=GPa)
#
#
# Indices 1 2 3 4 5 6 
#
# 1 99.0523 57.1096 35.9682 0.0000 13.7884 0.0000
# 2 57.1096 122.1216 48.1546 0.0000 9.0295 0.0000
# 3 35.9682 48.1546 87.4115 0.0000 12.1461 0.0000
# 4 0.0000 0.0000 0.0000 26.8672 0.0000 8.8904
# 5 13.7884 9.0295 12.1461 0.0000 36.2378 0.0000
# 6 0.0000 0.0000 0.0000 8.8904 0.0000 5.5534
#
#
#
# Elastic Compliance Matrix: (Units=1/GPa)
#
#
# Indices 1 2 3 4 5 6 
#
# 1 0.014727 -0.005663 -0.002473 0.000000 -0.003364 0.000000
# 2 -0.005663 0.012656 -0.004723 0.000000 0.000584 0.000000
# 3 -0.002473 -0.004723 0.015486 0.000000 -0.003073 0.000000
# 4 0.000000 0.000000 0.000000 0.079148 0.000000 -0.126709
# 5 -0.003364 0.000584 -0.003073 0.000000 0.029760 0.000000
# 6 0.000000 0.000000 0.000000 -0.126709 0.000000 0.382920
#
#
# Mechanical properties :
#
#
# Convention : Reuss Voigt Hill
#
# Bulk Modulus (GPa) = 58.30329 65.67223 61.98776
# Shear Modulus (GPa) = 8.83185 24.88855 16.86020
#
# Velocity S-wave (km/s) = 2.12934 3.57452 2.94205
# Velocity P-wave (km/s) = 5.99808 7.12397 6.58513
#
# Compressibility (1/GPa) = 0.01715169
#
# Stress axis : x y z
#
# Youngs Moduli (GPa) = 67.90241 79.01291 64.57241
#
# Poissons Ratio (x) = 0.44748 0.15966
# Poissons Ratio (y) = 0.38455 0.30498
# Poissons Ratio (z) = 0.16790 0.37318
#
# Static dielectric constant tensor:
#      x y z
#    x 3.372120 0.000000 0.046820 
#    y 0.000000 3.613540 0.000000 
#    z 0.046820 0.000000 3.734820 
# 
# 
# High freq. dielectric constant tensor:
#      x y z
#    x 1.745610 0.000000 0.000070 
#    y 0.000000 1.761520 0.000000 
#    z 0.000070 0.000000 1.768820 
# 
# From -- ./inp_files/295909.got.cif
#   From: 2010.06.25/outbox.cif.g09.slc.cpg/sg15_148_cif.got.tgz:295909.got - 2010.06.28 07:06:18.
