data_PCOD8138548
_publ_section_title
;
Structure prediction by ZEFSAII (Michael W. Deem and Ramdas Pophale) SiO2 
 PCOD8138548
Probable space group: C 2/C
;
_chemical_formula_sum "Si O2"
_cell_formula_units_Z 52
_cell_length_a 18.905858
_cell_length_b 25.103289
_cell_length_c 11.864407
_cell_angle_alpha 90.000000
_cell_angle_beta 152.785021
_cell_angle_gamma 90.000000
_cell_volume 2575.153712
_symmetry_space_group_name_H-M "C 2/C"
_symmetry_group_IT_number 15
_symmetry_cell_setting 'monoclinic'
loop_
_space_group_symop_operation_xyz
x,y,z
-x,y,1/2-z
-x,-y,-z
x,-y,1/2+z
1/2+x,1/2+y,z
1/2-x,1/2+y,1/2-z
1/2-x,1/2-y,-z
1/2+x,1/2-y,1/2+z
loop_
_atom_site_type_symbol
_atom_site_label
_atom_site_fract_x
_atom_site_fract_y
_atom_site_fract_z
Si Si1 0.000000 0.369950 0.750000
Si Si2 0.722728 0.629325 0.446615
Si Si3 0.770345 0.610333 0.754341
Si Si4 0.000000 0.117496 0.750000
Si Si5 0.435063 0.298814 0.514423
Si Si6 0.488521 0.437475 0.996385
Si Si7 0.201670 0.808740 0.406891
Si Si8 0.000000 0.299591 0.250000
O O1 0.936173 0.402648 0.549958
O O2 0.853001 0.335893 0.573149
O O3 0.771600 0.593159 0.625157
O O4 0.583455 0.670634 0.276995
O O5 0.865021 0.662494 0.601082
O O6 0.668612 0.585065 0.280429
O O7 0.728359 0.673711 0.681497
O O8 0.636199 0.585386 0.640539
O O9 0.983017 0.078982 0.619104
O O10 0.145043 0.157330 0.934544
O O11 0.438960 0.304695 0.383381
O O12 0.438674 0.237675 0.560802
O O13 0.500000 0.500000 0.000000
O O14 0.250000 0.750000 0.500000
#
# Coordination Sequence:
#
# PCOD8138548 Si02
#       8
#     4   8   8   4   8   8   8   4
#     4  10  21  40  57  94 136 177 210 267 344 380
#     4  11  23  41  63  94 135 168 227 274 327 397
#     4  10  21  43  63  93 131 169 219 275 331 406
#     4  12  23  44  67 104 131 170 236 281 318 424
#     4  10  20  38  56  88 130 177 218 251 319 397
#     4  11  25  46  74  96 122 173 231 289 349 391
#     4  11  24  37  63  93 140 186 215 268 331 407
#     4  12  24  34  64  96 135 179 212 274 328 392
#
# _framework density 20.192969999999999
#
# number of rings (size 3 to 8) (size 9 to 14) (size 15 to 20)
#    0.000    1.231    6.154    2.308    6.462    1.231 
#    0.000    0.769    0.000    2.769    0.000    0.000 
#    0.000    0.000    0.000    0.000    0.000    0.000 
#
# Total GULP energy -322102.587933 kJ/mol
# GULP energy per Si atom -12388.561074 kJ/mol
# Density = 2.014701 g / cm^3
# Si number density = 20.192970 Si / 1000 Ang^3
#
#
#
# Elastic Constant Matrix: (Units=GPa)
#
#
# Indices 1 2 3 4 5 6 
#
# 1 130.3303 55.6840 60.0604 0.0000 -16.3215 0.0000
# 2 55.6840 112.6484 44.1732 0.0000 -11.5995 0.0000
# 3 60.0604 44.1732 139.2734 0.0000 -19.4132 0.0001
# 4 0.0000 0.0000 0.0000 58.5024 0.0000 -94.9272
# 5 -16.3215 -11.5995 -19.4132 0.0000 38.9529 0.0000
# 6 0.0000 0.0000 0.0001 -94.9272 0.0000 214.3622
#
#
#
# Elastic Compliance Matrix: (Units=1/GPa)
#
#
# Indices 1 2 3 4 5 6 
#
# 1 0.011130 -0.004033 -0.003265 0.000000 0.001836 0.000000
# 2 -0.004033 0.011684 -0.001845 0.000000 0.000870 0.000000
# 3 -0.003265 -0.001845 0.009571 0.000000 0.002852 0.000000
# 4 0.000000 0.000000 0.000000 0.060734 0.000000 0.026895
# 5 0.001836 0.000870 0.002852 0.000000 0.028122 0.000000
# 6 0.000000 0.000000 0.000000 0.026895 0.000000 0.016575
#
#
# Mechanical properties :
#
#
# Convention : Reuss Voigt Hill
#
# Bulk Modulus (GPa) = 70.92670 78.00970 74.46820
# Shear Modulus (GPa) = 31.09429 77.18580 54.14005
#
# Velocity S-wave (km/s) = 3.92836 6.18927 5.18358
# Velocity P-wave (km/s) = 7.46838 9.47587 8.53138
#
# Compressibility (1/GPa) = 0.01409906
#
# Stress axis : x y z
#
# Youngs Moduli (GPa) = 89.84573 85.58881 104.48216
#
# Poissons Ratio (x) = 0.34514 0.34113
# Poissons Ratio (y) = 0.36231 0.19282
# Poissons Ratio (z) = 0.29334 0.15795
#
# Static dielectric constant tensor:
#      x y z
#    x 3.876510 0.000000 -0.408250 
#    y 0.000000 3.317670 0.000000 
#    z -0.408250 0.000000 4.195070 
# 
# 
# High freq. dielectric constant tensor:
#      x y z
#    x 1.797400 0.000000 -0.021600 
#    y 0.000000 1.757620 0.000000 
#    z -0.021600 0.000000 1.792190 
# 
# From -- ./inp_files/108377.got.cif
#   From: 2010.06.25/outbox.cif.g09.slc.cpg/sg15_55_cif.got.tgz:108377.got - 2010.06.28 07:06:18.
