data_PCOD8138172
_publ_section_title
;
Structure prediction by ZEFSAII (Michael W. Deem and Ramdas Pophale) SiO2 
 PCOD8138172
Probable space group: C 2/C
;
_chemical_formula_sum "Si O2"
_cell_formula_units_Z 56
_cell_length_a 8.381289
_cell_length_b 24.286071
_cell_length_c 14.198522
_cell_angle_alpha 90.000000
_cell_angle_beta 118.190069
_cell_angle_gamma 90.000000
_cell_volume 2547.282080
_symmetry_space_group_name_H-M "C 2/C"
_symmetry_group_IT_number 15
_symmetry_cell_setting 'monoclinic'
loop_
_space_group_symop_operation_xyz
x,y,z
-x,y,1/2-z
-x,-y,-z
x,-y,1/2+z
1/2+x,1/2+y,z
1/2-x,1/2+y,1/2-z
1/2-x,1/2-y,-z
1/2+x,1/2-y,1/2+z
loop_
_atom_site_type_symbol
_atom_site_label
_atom_site_fract_x
_atom_site_fract_y
_atom_site_fract_z
Si Si1 0.456790 0.050557 0.419648
Si Si2 0.320931 0.860465 0.016516
Si Si3 0.850842 0.110967 0.847700
Si Si4 0.322689 0.589929 0.433123
Si Si5 0.351325 0.491036 0.784882
Si Si6 0.623102 0.198574 0.692930
Si Si7 0.046044 0.180559 0.156121
O O1 0.333058 0.094709 0.438566
O O2 0.633282 0.079892 0.429253
O O3 0.345580 0.030140 0.299116
O O4 0.500000 0.000000 0.500000
O O5 0.148594 0.820031 0.952222
O O6 0.294871 0.891846 0.108653
O O7 0.510219 0.827571 0.074828
O O8 0.806585 0.163833 0.767413
O O9 0.836225 0.056673 0.781283
O O10 0.050582 0.112339 0.947771
O O11 0.396851 0.534492 0.400987
O O12 0.316274 0.635923 0.349217
O O13 0.500000 0.472782 0.750000
O O14 0.500000 0.199420 0.750000
O O15 0.656472 0.262213 0.675541
O O16 0.000000 0.165349 0.250000
#
# Coordination Sequence:
#
# PCOD8138172 Si02
#       7
#     8   8   8   8   8   8   8
#     4  12  24  38  60  92 128 166 206 255 313 374
#     4  10  20  37  60  88 120 159 207 254 303 367
#     4  10  21  39  62  90 122 157 206 258 309 371
#     4  11  23  39  60  93 126 162 204 256 314 373
#     4  12  23  39  62  89 123 165 205 252 310 377
#     4   9  19  36  63  91 115 157 208 256 306 364
#     4  10  20  38  63  89 120 160 208 255 304 368
#
# _framework density 21.984217999999998
#
# number of rings (size 3 to 8) (size 9 to 14) (size 15 to 20)
#    0.000    1.429    0.000    6.857    0.000    3.429 
#    0.000    0.714    0.000   13.714    0.000    0.000 
#    0.000    0.000    0.000    0.000    0.000    0.000 
#
# Total GULP energy -347113.028757 kJ/mol
# GULP energy per Si atom -12396.893884 kJ/mol
# Density = 2.193418 g / cm^3
# Si number density = 21.984218 Si / 1000 Ang^3
#
#
#
# Elastic Constant Matrix: (Units=GPa)
#
#
# Indices 1 2 3 4 5 6 
#
# 1 95.4627 42.5512 33.3737 0.0000 11.2766 0.0000
# 2 42.5512 146.4980 50.6473 0.0000 12.6995 0.0000
# 3 33.3737 50.6473 104.0635 0.0000 16.5867 0.0000
# 4 0.0000 0.0000 0.0000 38.9398 0.0000 3.6446
# 5 11.2766 12.6995 16.5867 0.0000 26.0980 0.0000
# 6 0.0000 0.0000 0.0000 3.6446 0.0000 32.5198
#
#
#
# Elastic Compliance Matrix: (Units=1/GPa)
#
#
# Indices 1 2 3 4 5 6 
#
# 1 0.012817 -0.002664 -0.002379 0.000000 -0.002730 0.000000
# 2 -0.002664 0.008822 -0.003270 0.000000 -0.001064 0.000000
# 3 -0.002379 -0.003270 0.012848 0.000000 -0.005547 0.000000
# 4 0.000000 0.000000 0.000000 0.025953 0.000000 -0.002909
# 5 -0.002730 -0.001064 -0.005547 0.000000 0.043539 0.000000
# 6 0.000000 0.000000 0.000000 -0.002909 0.000000 0.031076
#
#
# Mechanical properties :
#
#
# Convention : Reuss Voigt Hill
#
# Bulk Modulus (GPa) = 55.98465 66.57431 61.27948
# Shear Modulus (GPa) = 31.71884 34.14166 32.93025
#
# Velocity S-wave (km/s) = 3.80254 3.94510 3.87448
# Velocity P-wave (km/s) = 6.69330 7.14844 6.92461
#
# Compressibility (1/GPa) = 0.01786204
#
# Stress axis : x y z
#
# Youngs Moduli (GPa) = 78.02328 113.34740 77.83294
#
# Poissons Ratio (x) = 0.30191 0.18516
# Poissons Ratio (y) = 0.20782 0.25452
# Poissons Ratio (z) = 0.18561 0.37065
#
# Static dielectric constant tensor:
#      x y z
#    x 3.648890 0.000000 0.025010 
#    y 0.000000 4.215320 0.000000 
#    z 0.025010 0.000000 4.251800 
# 
# 
# High freq. dielectric constant tensor:
#      x y z
#    x 1.839020 0.000000 0.000370 
#    y 0.000000 1.864770 0.000000 
#    z 0.000370 0.000000 1.876740 
# 
# From -- ./inp_files/137925.got.cif
#   From: 2010.06.25/outbox.cif.g09.slc.cpg/sg15_69_cif.got.tgz:137925.got - 2010.06.28 07:06:18.
