data_PCOD8138218
_publ_section_title
;
Structure prediction by ZEFSAII (Michael W. Deem and Ramdas Pophale) SiO2 
 PCOD8138218
Probable space group: C 2/C
;
_chemical_formula_sum "Si O2"
_cell_formula_units_Z 64
_cell_length_a 15.365961
_cell_length_b 18.563868
_cell_length_c 20.229066
_cell_angle_alpha 90.000000
_cell_angle_beta 34.980460
_cell_angle_gamma 90.000000
_cell_volume 3308.138855
_symmetry_space_group_name_H-M "C 2/C"
_symmetry_group_IT_number 15
_symmetry_cell_setting 'monoclinic'
loop_
_space_group_symop_operation_xyz
x,y,z
-x,y,1/2-z
-x,-y,-z
x,-y,1/2+z
1/2+x,1/2+y,z
1/2-x,1/2+y,1/2-z
1/2-x,1/2-y,-z
1/2+x,1/2-y,1/2+z
loop_
_atom_site_type_symbol
_atom_site_label
_atom_site_fract_x
_atom_site_fract_y
_atom_site_fract_z
Si Si1 0.530256 0.188093 0.383468
Si Si2 0.268910 0.421847 0.937645
Si Si3 0.792400 0.090134 0.783887
Si Si4 0.432599 0.660823 0.946585
Si Si5 0.585159 0.432904 0.793821
Si Si6 0.011033 0.668216 0.546166
Si Si7 0.279863 0.082472 0.522863
Si Si8 0.850554 0.815836 0.642273
O O1 0.408413 0.253418 0.451563
O O2 0.577457 0.176556 0.430832
O O3 0.444395 0.117396 0.411849
O O4 0.673346 0.205758 0.247567
O O5 0.402067 0.419429 0.909847
O O6 0.351331 0.416792 0.817057
O O7 0.185800 0.497751 0.000691
O O8 0.142640 0.357714 0.015924
O O9 0.618556 0.106002 0.871257
O O10 0.804442 0.101809 0.855664
O O11 0.893568 0.147117 0.681469
O O12 0.857893 0.012509 0.721413
O O13 0.325470 0.609370 0.970891
O O14 0.408149 0.647070 0.039417
O O15 0.654500 0.377749 0.801056
O O16 0.947460 0.746677 0.606369
#
# Coordination Sequence:
#
# PCOD8138218 Si02
#       8
#     8   8   8   8   8   8   8   8
#     4  10  21  37  56  88 118 153 197 233 292 351
#     4  10  20  37  63  88 111 149 201 251 286 331
#     4  10  20  37  61  86 116 150 194 240 286 348
#     4  11  21  38  56  85 121 157 186 234 300 357
#     4  10  21  37  61  88 114 148 196 248 292 346
#     4  10  21  37  62  87 115 152 197 250 285 343
#     4  10  21  36  60  86 116 149 196 243 281 346
#     4  11  23  37  58  85 121 155 191 241 297 358
#
# _framework density 19.346226000000001
#
# number of rings (size 3 to 8) (size 9 to 14) (size 15 to 20)
#    0.000    1.750    3.750    0.750    1.750    3.000 
#    2.250    0.000    0.000    0.750    0.000    0.000 
#    0.000    0.000    0.000    0.000    0.000    0.000 
#
# Total GULP energy -396554.140408 kJ/mol
# GULP energy per Si atom -12392.316888 kJ/mol
# Density = 1.930219 g / cm^3
# Si number density = 19.346226 Si / 1000 Ang^3
#
#
#
# Elastic Constant Matrix: (Units=GPa)
#
#
# Indices 1 2 3 4 5 6 
#
# 1 51.3331 40.8729 12.6373 0.0007 -11.6747 0.0004
# 2 40.8729 104.2155 38.3722 0.0012 -4.3791 0.0001
# 3 12.6373 38.3722 65.0002 0.0016 -14.0477 0.0001
# 4 0.0007 0.0012 0.0016 24.7422 -0.0013 -9.0332
# 5 -11.6747 -4.3791 -14.0477 -0.0013 20.9687 0.0000
# 6 0.0004 0.0001 0.0001 -9.0332 0.0000 33.9403
#
#
#
# Elastic Compliance Matrix: (Units=1/GPa)
#
#
# Indices 1 2 3 4 5 6 
#
# 1 0.034578 -0.015151 0.006663 0.000000 0.020552 0.000000
# 2 -0.015151 0.019029 -0.010819 0.000000 -0.011710 0.000000
# 3 0.006663 -0.010819 0.024309 0.000000 0.017736 0.000000
# 4 0.000000 0.000000 0.000000 0.044767 0.000003 0.011915
# 5 0.020552 -0.011710 0.017736 0.000003 0.068570 0.000001
# 6 0.000000 0.000000 0.000000 0.011915 0.000001 0.032635
#
#
# Mechanical properties :
#
#
# Convention : Reuss Voigt Hill
#
# Bulk Modulus (GPa) = 25.44324 44.92374 35.18349
# Shear Modulus (GPa) = 18.14215 24.50799 21.32507
#
# Velocity S-wave (km/s) = 3.06561 3.56309 3.32367
# Velocity P-wave (km/s) = 5.07057 6.34025 5.74062
#
# Compressibility (1/GPa) = 0.03930317
#
# Stress axis : x y z
#
# Youngs Moduli (GPa) = 28.91991 52.55096 41.13740
#
# Poissons Ratio (x) = 0.79622 -0.27411
# Poissons Ratio (y) = 0.43817 0.44505
# Poissons Ratio (z) = -0.19270 0.56853
#
# Static dielectric constant tensor:
#      x y z
#    x 3.515170 -0.000010 -0.173870 
#    y -0.000010 3.584190 0.000010 
#    z -0.173870 0.000010 3.472980 
# 
# 
# High freq. dielectric constant tensor:
#      x y z
#    x 1.729760 0.000000 -0.018750 
#    y 0.000000 1.760030 0.000000 
#    z -0.018750 0.000000 1.744190 
# 
# From -- ./inp_files/124310.got.cif
#   From: 2010.06.25/outbox.cif.g09.slc.cpg/sg15_63_cif.got.tgz:124310.got - 2010.06.28 07:06:18.
