data_PCOD8138195
_publ_section_title
;
Structure prediction by ZEFSAII (Michael W. Deem and Ramdas Pophale) SiO2 
 PCOD8138195
Probable space group: C 2/C
;
_chemical_formula_sum "Si O2"
_cell_formula_units_Z 36
_cell_length_a 14.059310
_cell_length_b 5.268979
_cell_length_c 28.051744
_cell_angle_alpha 90.000000
_cell_angle_beta 47.898754
_cell_angle_gamma 90.000000
_cell_volume 1541.812535
_symmetry_space_group_name_H-M "C 2/C"
_symmetry_group_IT_number 15
_symmetry_cell_setting 'monoclinic'
loop_
_space_group_symop_operation_xyz
x,y,z
-x,y,1/2-z
-x,-y,-z
x,-y,1/2+z
1/2+x,1/2+y,z
1/2-x,1/2+y,1/2-z
1/2-x,1/2-y,-z
1/2+x,1/2-y,1/2+z
loop_
_atom_site_type_symbol
_atom_site_label
_atom_site_fract_x
_atom_site_fract_y
_atom_site_fract_z
Si Si1 0.441893 0.605111 0.588277
Si Si2 0.000000 0.018139 0.250000
Si Si3 0.832163 0.873815 0.224303
Si Si4 0.281176 0.673771 0.386939
Si Si5 0.682052 0.332806 0.951152
O O1 0.428231 0.550380 0.648961
O O2 0.341010 0.825856 0.607832
O O3 0.404932 0.358214 0.568118
O O4 0.588146 0.687585 0.528269
O O5 0.911798 0.840479 0.246403
O O6 0.912128 0.195866 0.312898
O O7 0.733943 0.105853 0.263420
O O8 0.273128 0.412662 0.419215
O O9 0.274007 0.918317 0.424458
#
# Coordination Sequence:
#
# PCOD8138195 Si02
#       5
#     8   4   8   8   8
#     4   9  20  37  65  89 128 170 216 264 332 381
#     4  12  26  44  68 100 138 174 224 276 326 404
#     4  12  26  44  67  98 136 178 222 269 336 395
#     4  10  20  37  60  92 128 165 211 268 324 381
#     4   9  19  35  66  89 124 172 213 265 329 384
#
# _framework density 23.349143000000002
#
# number of rings (size 3 to 8) (size 9 to 14) (size 15 to 20)
#    1.333    0.444    2.222    2.000    0.000    3.556 
#    0.000    2.222    0.000    0.000    0.000    0.000 
#    0.000    0.000    0.000    0.000    0.000    0.000 
#
# Total GULP energy -223086.820538 kJ/mol
# GULP energy per Si atom -12393.712252 kJ/mol
# Density = 2.329600 g / cm^3
# Si number density = 23.349143 Si / 1000 Ang^3
#
#
#
# Elastic Constant Matrix: (Units=GPa)
#
#
# Indices 1 2 3 4 5 6 
#
# 1 66.8699 26.5666 33.9020 -0.0380 6.0368 0.0143
# 2 26.5666 136.3853 35.1807 -0.5229 -19.1761 -0.1571
# 3 33.9020 35.1807 167.1312 -0.1180 -30.4159 -0.1635
# 4 -0.0380 -0.5229 -0.1180 20.6596 -0.0397 -4.2628
# 5 6.0368 -19.1761 -30.4159 -0.0397 52.1735 -0.0174
# 6 0.0143 -0.1571 -0.1635 -4.2628 -0.0174 3.7975
#
#
#
# Elastic Compliance Matrix: (Units=1/GPa)
#
#
# Indices 1 2 3 4 5 6 
#
# 1 0.018989 -0.003448 -0.004203 -0.000227 -0.005915 -0.000677
# 2 -0.003448 0.008597 -0.000516 0.000376 0.003258 0.000784
# 3 -0.004203 -0.000516 0.007830 0.000138 0.004862 0.000509
# 4 -0.000227 0.000376 0.000138 0.063015 0.000317 0.070761
# 5 -0.005915 0.003258 0.004862 0.000317 0.023884 0.000831
# 6 -0.000677 0.000784 0.000509 0.070761 0.000831 0.342826
#
#
# Mechanical properties :
#
#
# Convention : Reuss Voigt Hill
#
# Bulk Modulus (GPa) = 52.40743 62.40943 57.40843
# Shear Modulus (GPa) = 10.24931 33.64193 21.94562
#
# Velocity S-wave (km/s) = 2.09741 3.79993 3.06909
# Velocity P-wave (km/s) = 5.32535 6.78524 6.09913
#
# Compressibility (1/GPa) = 0.01908126
#
# Stress axis : x y z
#
# Youngs Moduli (GPa) = 52.66091 116.31304 127.71373
#
# Poissons Ratio (x) = 0.40105 0.53684
# Poissons Ratio (y) = 0.18158 0.06594
# Poissons Ratio (z) = 0.22136 0.06005
#
# Static dielectric constant tensor:
#      x y z
#    x 3.787200 -0.000450 -0.083210 
#    y -0.000450 3.729280 -0.000310 
#    z -0.083210 -0.000310 4.245730 
# 
# 
# High freq. dielectric constant tensor:
#      x y z
#    x 1.890030 -0.000050 -0.013080 
#    y -0.000050 1.897910 -0.000040 
#    z -0.013080 -0.000040 1.938660 
# 
# From -- ./inp_files/297260.got.cif
#   From: 2010.06.25/outbox.cif.g09.slc.cpg/sg15_149_cif.got.tgz:297260.got - 2010.06.28 07:06:18.
