data_PCOD8138929
_publ_section_title
;
Structure prediction by ZEFSAII (Michael W. Deem and Ramdas Pophale) SiO2 
 PCOD8138929
Probable space group: C 2/C
;
_chemical_formula_sum "Si O2"
_cell_formula_units_Z 48
_cell_length_a 27.219491
_cell_length_b 11.281560
_cell_length_c 15.239341
_cell_angle_alpha 90.000000
_cell_angle_beta 146.338268
_cell_angle_gamma 90.000000
_cell_volume 2593.888608
_symmetry_space_group_name_H-M "C 2/C"
_symmetry_group_IT_number 15
_symmetry_cell_setting 'monoclinic'
loop_
_space_group_symop_operation_xyz
x,y,z
-x,y,1/2-z
-x,-y,-z
x,-y,1/2+z
1/2+x,1/2+y,z
1/2-x,1/2+y,1/2-z
1/2-x,1/2-y,-z
1/2+x,1/2-y,1/2+z
loop_
_atom_site_type_symbol
_atom_site_label
_atom_site_fract_x
_atom_site_fract_y
_atom_site_fract_z
Si Si1 0.260572 0.142318 0.580401
Si Si2 0.000000 0.015590 0.250000
Si Si3 0.833968 0.093800 0.585497
Si Si4 0.071411 0.499430 0.680878
Si Si5 0.175916 0.723286 0.282304
Si Si6 0.500000 0.098205 0.750000
Si Si7 0.122026 0.790529 0.008328
O O1 0.250000 0.250000 0.500000
O O2 0.363192 0.108805 0.744863
O O3 0.217047 0.173014 0.609722
O O4 0.209234 0.033159 0.460861
O O5 0.053423 0.099002 0.398642
O O6 0.066193 0.926685 0.298766
O O7 0.832332 0.155165 0.677459
O O8 0.777233 0.173070 0.430950
O O9 0.119919 0.373794 0.752282
O O10 0.000000 0.500000 0.500000
O O11 0.026847 0.514709 0.709331
O O12 0.136645 0.748787 0.128846
O O13 0.415761 0.178917 0.601044
#
# Coordination Sequence:
#
# PCOD8138929 Si02
#       7
#     8   4   8   8   8   4   8
#     4  10  20  40  61  84 114 157 196 245 305 362
#     4   9  20  39  62  88 114 161 205 246 296 364
#     4   9  21  40  58  83 125 152 197 249 303 357
#     4  11  22  38  60  89 123 156 203 251 304 361
#     4  10  21  41  57  86 126 161 193 251 308 367
#     4  11  20  37  62  88 120 161 205 260 292 358
#     4  10  20  38  63  84 119 157 204 250 303 356
#
# _framework density 18.505033999999998
#
# number of rings (size 3 to 8) (size 9 to 14) (size 15 to 20)
#    0.000    2.000    3.333    0.000    0.000    1.333 
#   21.000    0.000    0.000    0.000    0.000    0.000 
#    0.000    0.000    0.000    0.000    0.000    0.000 
#
# Total GULP energy -297577.976277 kJ/mol
# GULP energy per Si atom -12399.082345 kJ/mol
# Density = 1.846292 g / cm^3
# Si number density = 18.505034 Si / 1000 Ang^3
#
#
#
# Elastic Constant Matrix: (Units=GPa)
#
#
# Indices 1 2 3 4 5 6 
#
# 1 129.9168 61.3190 63.5454 0.0000 3.9992 0.0000
# 2 61.3190 107.1576 41.9142 0.0000 -4.5370 0.0000
# 3 63.5454 41.9142 113.3361 0.0000 -4.5725 0.0000
# 4 0.0000 0.0000 0.0000 19.4014 0.0000 -2.2675
# 5 3.9992 -4.5370 -4.5725 0.0000 35.6103 0.0000
# 6 0.0000 0.0000 0.0000 -2.2675 0.0000 34.3479
#
#
#
# Elastic Compliance Matrix: (Units=1/GPa)
#
#
# Indices 1 2 3 4 5 6 
#
# 1 0.012989 -0.005448 -0.005383 0.000000 -0.002844 0.000000
# 2 -0.005448 0.013222 -0.001752 0.000000 0.002071 0.000000
# 3 -0.005383 -0.001752 0.012570 0.000000 0.001995 0.000000
# 4 0.000000 0.000000 0.000000 0.051944 0.000000 0.003429
# 5 -0.002844 0.002071 0.001995 0.000000 0.028921 0.000000
# 6 0.000000 0.000000 0.000000 0.003429 0.000000 0.029340
#
#
# Mechanical properties :
#
#
# Convention : Reuss Voigt Hill
#
# Bulk Modulus (GPa) = 73.44123 75.99642 74.71882
# Shear Modulus (GPa) = 27.98157 30.11403 29.04780
#
# Velocity S-wave (km/s) = 3.89280 4.03841 3.96627
# Velocity P-wave (km/s) = 7.74458 7.93109 7.83839
#
# Compressibility (1/GPa) = 0.01361633
#
# Stress axis : x y z
#
# Youngs Moduli (GPa) = 76.98966 75.62969 79.55652
#
# Poissons Ratio (x) = 0.41200 0.42822
# Poissons Ratio (y) = 0.41941 0.13938
# Poissons Ratio (z) = 0.41441 0.13250
#
# Static dielectric constant tensor:
#      x y z
#    x 3.589580 0.000000 0.413780 
#    y 0.000000 3.591190 0.000000 
#    z 0.413780 0.000000 3.595650 
# 
# 
# High freq. dielectric constant tensor:
#      x y z
#    x 1.711690 0.000000 0.013540 
#    y 0.000000 1.726650 0.000000 
#    z 0.013540 0.000000 1.718810 
# 
# From -- ./inp_files/111838.got.cif
#   From: 2010.06.25/outbox.cif.g09.slc.cpg/sg15_56_cif.got.tgz:111838.got - 2010.06.28 07:06:18.
