data_PCOD8138081
_publ_section_title
;
Structure prediction by ZEFSAII (Michael W. Deem and Ramdas Pophale) SiO2 
 PCOD8138081
Probable space group: C 2/C
;
_chemical_formula_sum "Si O2"
_cell_formula_units_Z 52
_cell_length_a 25.824384
_cell_length_b 14.842367
_cell_length_c 19.942681
_cell_angle_alpha 90.000000
_cell_angle_beta 160.373880
_cell_angle_gamma 90.000000
_cell_volume 2567.450722
_symmetry_space_group_name_H-M "C 2/C"
_symmetry_group_IT_number 15
_symmetry_cell_setting 'monoclinic'
loop_
_space_group_symop_operation_xyz
x,y,z
-x,y,1/2-z
-x,-y,-z
x,-y,1/2+z
1/2+x,1/2+y,z
1/2-x,1/2+y,1/2-z
1/2-x,1/2-y,-z
1/2+x,1/2-y,1/2+z
loop_
_atom_site_type_symbol
_atom_site_label
_atom_site_fract_x
_atom_site_fract_y
_atom_site_fract_z
Si Si1 0.424205 0.837525 0.085836
Si Si2 0.420643 0.405313 0.408178
Si Si3 0.164068 0.207519 0.817112
Si Si4 0.362294 0.986795 0.915976
Si Si5 0.573985 0.127647 0.123971
Si Si6 0.000000 0.740809 0.250000
Si Si7 0.896012 0.747611 0.811437
O O1 0.500000 0.847052 0.250000
O O2 0.557359 0.804007 0.198827
O O3 0.364008 0.936544 0.989694
O O4 0.284828 0.766600 0.914325
O O5 0.500000 0.500000 0.500000
O O6 0.418724 0.361947 0.332321
O O7 0.250322 0.427687 0.225814
O O8 0.507456 0.340573 0.565852
O O9 0.165316 0.309149 0.787436
O O10 0.067056 0.201400 0.768379
O O11 0.347524 0.181685 0.045538
O O12 0.322335 0.908008 0.812351
O O13 0.525619 0.035197 0.101978
O O14 0.431535 0.185343 0.919379
#
# Coordination Sequence:
#
# PCOD8138081 Si02
#       7
#     8   8   8   8   8   4   8
#     4  11  22  38  58  86 122 155 189 231 291 364
#     4  11  21  36  62  87 115 145 203 256 286 330
#     4  10  22  39  62  86 120 160 200 242 298 359
#     4  10  20  37  58  93 115 149 195 249 300 336
#     4   9  20  37  64  85 116 149 198 254 290 343
#     4  10  22  40  58  88 116 164 196 230 298 376
#     4  10  21  39  63  85 111 155 199 239 290 339
#
# _framework density 20.253553
#
# number of rings (size 3 to 8) (size 9 to 14) (size 15 to 20)
#    0.000    1.846    1.538    2.308    2.154    2.462 
#    8.308    0.000    1.692    0.000    0.000    0.000 
#    0.000    0.000    0.000    0.000    0.000    0.000 
#
# Total GULP energy -322176.385798 kJ/mol
# GULP energy per Si atom -12391.399454 kJ/mol
# Density = 2.020745 g / cm^3
# Si number density = 20.253553 Si / 1000 Ang^3
#
#
#
# Elastic Constant Matrix: (Units=GPa)
#
#
# Indices 1 2 3 4 5 6 
#
# 1 95.4612 29.6113 39.7668 -0.0020 -3.8539 -0.0013
# 2 29.6113 89.8053 12.1207 -0.0024 -5.9502 -0.0019
# 3 39.7668 12.1207 77.8088 -0.0033 1.2100 -0.0027
# 4 -0.0020 -0.0024 -0.0033 27.9016 -0.0021 7.3270
# 5 -3.8539 -5.9502 1.2100 -0.0021 30.9989 -0.0012
# 6 -0.0013 -0.0019 -0.0027 7.3270 -0.0012 23.9230
#
#
#
# Elastic Compliance Matrix: (Units=1/GPa)
#
#
# Indices 1 2 3 4 5 6 
#
# 1 0.014570 -0.003786 -0.006878 0.000000 0.001353 0.000000
# 2 -0.003786 0.012518 -0.000045 0.000001 0.001934 0.000001
# 3 -0.006878 -0.000045 0.016397 0.000001 -0.001504 0.000001
# 4 0.000000 0.000001 0.000001 0.038975 0.000002 -0.011937
# 5 0.001353 0.001934 -0.001504 0.000002 0.032857 0.000001
# 6 0.000000 0.000001 0.000001 -0.011937 0.000001 0.045457
#
#
# Mechanical properties :
#
#
# Convention : Reuss Voigt Hill
#
# Bulk Modulus (GPa) = 45.31561 47.34145 46.32853
# Shear Modulus (GPa) = 26.37870 28.66978 27.52424
#
# Velocity S-wave (km/s) = 3.61283 3.76645 3.69044
# Velocity P-wave (km/s) = 6.31079 6.50692 6.40961
#
# Compressibility (1/GPa) = 0.02206745
#
# Stress axis : x y z
#
# Youngs Moduli (GPa) = 68.63652 79.88632 60.98526
#
# Poissons Ratio (x) = 0.30246 0.41943
# Poissons Ratio (y) = 0.25986 0.00275
# Poissons Ratio (z) = 0.47205 0.00360
#
# Static dielectric constant tensor:
#      x y z
#    x 3.160330 -0.000610 -0.549310 
#    y -0.000610 2.130480 -0.000580 
#    z -0.549310 -0.000580 3.099700 
# 
# 
# High freq. dielectric constant tensor:
#      x y z
#    x 1.793110 0.000000 0.005730 
#    y 0.000000 1.787070 0.000000 
#    z 0.005730 0.000000 1.779920 
# 
# From -- ./inp_files/257829.got.cif
#   From: 2010.06.25/outbox.cif.g09.slc.cpg/sg15_129_cif.got.tgz:257829.got - 2010.06.28 07:06:18.
