data_PCOD8138240
_publ_section_title
;
Structure prediction by ZEFSAII (Michael W. Deem and Ramdas Pophale) SiO2 
 PCOD8138240
Probable space group: C 2/C
;
_chemical_formula_sum "Si O2"
_cell_formula_units_Z 40
_cell_length_a 24.075177
_cell_length_b 9.086625
_cell_length_c 13.600266
_cell_angle_alpha 90.000000
_cell_angle_beta 144.568552
_cell_angle_gamma 90.000000
_cell_volume 1724.821419
_symmetry_space_group_name_H-M "C 2/C"
_symmetry_group_IT_number 15
_symmetry_cell_setting 'monoclinic'
loop_
_space_group_symop_operation_xyz
x,y,z
-x,y,1/2-z
-x,-y,-z
x,-y,1/2+z
1/2+x,1/2+y,z
1/2-x,1/2+y,1/2-z
1/2-x,1/2-y,-z
1/2+x,1/2-y,1/2+z
loop_
_atom_site_type_symbol
_atom_site_label
_atom_site_fract_x
_atom_site_fract_y
_atom_site_fract_z
Si Si1 0.211902 0.886404 0.655213
Si Si2 0.288134 0.153496 0.466535
Si Si3 0.661017 0.821554 0.920948
Si Si4 0.069577 0.640196 0.099277
Si Si5 0.426883 0.652351 0.068087
O O1 0.211115 0.835776 0.767237
O O2 0.147436 0.765146 0.504179
O O3 0.321580 0.904043 0.775371
O O4 0.161203 0.044446 0.579805
O O5 0.250000 0.250000 0.500000
O O6 0.390631 0.210892 0.579696
O O7 0.309181 0.988633 0.525375
O O8 0.571514 0.804585 0.716287
O O9 0.750000 0.750000 0.000000
O O10 0.032585 0.775379 0.975730
O O11 0.000000 0.500000 0.000000
O O12 0.500000 0.573117 0.250000
#
# Coordination Sequence:
#
# PCOD8138240 Si02
#       5
#     8   8   8   8   8
#     4  10  22  42  65  94 132 171 213 273 331 392
#     4  11  21  38  66  93 122 168 215 264 325 391
#     4  10  20  37  61  91 124 163 209 262 323 385
#     4  10  21  41  68  96 126 171 224 273 328 395
#     4  11  24  42  62  94 131 167 218 274 326 391
#
# _framework density 23.190807
#
# number of rings (size 3 to 8) (size 9 to 14) (size 15 to 20)
#    0.000    1.600    0.000    7.200    0.000    1.600 
#    0.000   15.000    0.000    0.000    0.000    0.000 
#    0.000    0.000    0.000    0.000    0.000    0.000 
#
# Total GULP energy -247770.442430 kJ/mol
# GULP energy per Si atom -12388.522122 kJ/mol
# Density = 2.313802 g / cm^3
# Si number density = 23.190807 Si / 1000 Ang^3
#
#
#
# Elastic Constant Matrix: (Units=GPa)
#
#
# Indices 1 2 3 4 5 6 
#
# 1 73.3521 48.2777 53.7587 0.0000 -30.5709 0.0000
# 2 48.2777 127.3908 37.0129 0.0000 -17.3808 0.0000
# 3 53.7587 37.0129 166.7465 0.0000 -44.5591 0.0000
# 4 0.0000 0.0000 0.0000 48.6638 0.0000 -3.5435
# 5 -30.5709 -17.3808 -44.5591 0.0000 48.2384 0.0000
# 6 0.0000 0.0000 0.0000 -3.5435 0.0000 45.0065
#
#
#
# Elastic Compliance Matrix: (Units=1/GPa)
#
#
# Indices 1 2 3 4 5 6 
#
# 1 0.025296 -0.007097 -0.003956 0.000000 0.009820 0.000000
# 2 -0.007097 0.010492 -0.000309 0.000000 -0.001003 0.000000
# 3 -0.003956 -0.000309 0.008818 0.000000 0.005527 0.000000
# 4 0.000000 0.000000 0.000000 0.020668 0.000000 0.001627
# 5 0.009820 -0.001003 0.005527 0.000000 0.031698 0.000000
# 6 0.000000 0.000000 0.000000 0.001627 0.000000 0.022347
#
#
# Mechanical properties :
#
#
# Convention : Reuss Voigt Hill
#
# Bulk Modulus (GPa) = 45.69856 71.73200 58.71528
# Shear Modulus (GPa) = 33.48128 43.61107 38.54617
#
# Velocity S-wave (km/s) = 3.80377 4.34122 4.08135
# Velocity P-wave (km/s) = 6.24818 7.49177 6.89806
#
# Compressibility (1/GPa) = 0.02188253
#
# Stress axis : x y z
#
# Youngs Moduli (GPa) = 39.53219 95.30635 113.40394
#
# Poissons Ratio (x) = 0.67642 0.44860
# Poissons Ratio (y) = 0.28057 0.03502
# Poissons Ratio (z) = 0.15638 0.02943
#
# Static dielectric constant tensor:
#      x y z
#    x 4.129990 0.000000 -0.516760 
#    y 0.000000 3.837550 0.000000 
#    z -0.516760 0.000000 4.490010 
# 
# 
# High freq. dielectric constant tensor:
#      x y z
#    x 1.898280 0.000000 -0.032910 
#    y 0.000000 1.921010 0.000000 
#    z -0.032910 0.000000 1.934860 
# 
# From -- ./inp_files/181265.got.cif
#   From: 2010.06.25/outbox.cif.g09.slc.cpg/sg15_91_cif.got.tgz:181265.got - 2010.06.28 07:06:18.
