data_PCOD8138753
_publ_section_title
;
Structure prediction by ZEFSAII (Michael W. Deem and Ramdas Pophale) SiO2 
 PCOD8138753
Probable space group: C 2/C
;
_chemical_formula_sum "Si O2"
_cell_formula_units_Z 40
_cell_length_a 16.728783
_cell_length_b 8.962826
_cell_length_c 11.890776
_cell_angle_alpha 90.000000
_cell_angle_beta 118.121231
_cell_angle_gamma 90.000000
_cell_volume 1572.405644
_symmetry_space_group_name_H-M "C 2/C"
_symmetry_group_IT_number 15
_symmetry_cell_setting 'monoclinic'
loop_
_space_group_symop_operation_xyz
x,y,z
-x,y,1/2-z
-x,-y,-z
x,-y,1/2+z
1/2+x,1/2+y,z
1/2-x,1/2+y,1/2-z
1/2-x,1/2-y,-z
1/2+x,1/2-y,1/2+z
loop_
_atom_site_type_symbol
_atom_site_label
_atom_site_fract_x
_atom_site_fract_y
_atom_site_fract_z
Si Si1 0.902877 0.940850 0.167819
Si Si2 0.345089 0.752518 0.433066
Si Si3 0.784635 0.577913 0.460201
Si Si4 0.343141 0.178510 0.268180
Si Si5 0.904588 0.367482 0.241674
O O1 0.825081 0.066148 0.111899
O O2 0.889824 0.833884 0.267342
O O3 0.000000 0.021517 0.250000
O O4 0.908140 0.840587 0.058503
O O5 0.329602 0.916058 0.473888
O O6 0.249725 0.664275 0.365489
O O7 0.389844 0.760774 0.339333
O O8 0.817650 0.685275 0.382202
O O9 0.820684 0.653311 0.598896
O O10 0.407834 0.039228 0.284527
O O11 0.000000 0.326354 0.250000
#
# Coordination Sequence:
#
# PCOD8138753 Si02
#       5
#     8   8   8   8   8
#     4  11  21  39  65  89 118 160 203 241 294 362
#     4  10  21  38  60  87 124 156 197 244 302 353
#     4  10  21  38  61  88 123 157 198 244 303 350
#     4  10  20  38  61  85 121 159 195 246 296 356
#     4  11  22  35  62  92 120 153 200 253 293 350
#
# _framework density 25.438727
#
# number of rings (size 3 to 8) (size 9 to 14) (size 15 to 20)
#    0.000    1.600    4.000    1.800    2.800    2.400 
#    0.000    2.000    0.000    0.000    0.000    0.000 
#    0.000    0.000    0.000    0.000    0.000    0.000 
#
# Total GULP energy -248070.622952 kJ/mol
# GULP energy per Si atom -12403.531148 kJ/mol
# Density = 2.538083 g / cm^3
# Si number density = 25.438727 Si / 1000 Ang^3
#
#
#
# Elastic Constant Matrix: (Units=GPa)
#
#
# Indices 1 2 3 4 5 6 
#
# 1 175.7723 25.3265 77.1424 0.0000 3.0961 0.0000
# 2 25.3265 69.2389 32.3705 0.0000 -16.5487 0.0000
# 3 77.1424 32.3705 143.7221 0.0000 -17.4100 0.0000
# 4 0.0000 0.0000 0.0000 8.7993 0.0000 -16.3354
# 5 3.0961 -16.5487 -17.4100 0.0000 50.7740 0.0000
# 6 0.0000 0.0000 0.0000 -16.3354 0.0000 1.8175
#
#
#
# Elastic Compliance Matrix: (Units=1/GPa)
#
#
# Indices 1 2 3 4 5 6 
#
# 1 0.007749 -0.001476 -0.004113 0.000000 -0.002364 0.000000
# 2 -0.001476 0.017325 -0.002519 0.000000 0.004873 0.000000
# 3 -0.004113 -0.002519 0.010083 0.000000 0.002887 0.000000
# 4 0.000000 0.000000 0.000000 -0.007245 0.000000 -0.065120
# 5 -0.002364 0.004873 0.002887 0.000000 0.022417 0.000000
# 6 0.000000 0.000000 0.000000 -0.065120 0.000000 -0.035078
#
#
# Mechanical properties :
#
#
# Convention : Reuss Voigt Hill
#
# Bulk Modulus (GPa) = 52.80087 73.15690 62.97888
# Shear Modulus (GPa) = 132.34130 29.20444 80.77287
#
# Velocity S-wave (km/s) = 7.22056 3.39194 5.64100
# Velocity P-wave (km/s) = 9.50350 6.64536 8.19992
#
# Compressibility (1/GPa) = 0.01893908
#
# Stress axis : x y z
#
# Youngs Moduli (GPa) = 129.05563 57.71882 99.18096
#
# Poissons Ratio (x) = 0.08522 0.40792
# Poissons Ratio (y) = 0.19055 0.24988
# Poissons Ratio (z) = 0.53079 0.14542
#
# Static dielectric constant tensor:
#      x y z
#    x 4.458660 0.000000 -0.227480 
#    y 0.000000 4.281630 0.000000 
#    z -0.227480 0.000000 4.653190 
# 
# 
# High freq. dielectric constant tensor:
#      x y z
#    x 2.011070 0.000000 -0.015460 
#    y 0.000000 2.011870 0.000000 
#    z -0.015460 0.000000 2.018410 
# 
# From -- ./inp_files/95153.got.cif
#   From: 2010.06.25/outbox.cif.g09.slc.cpg/sg15_48_cif.got.tgz:95153.got - 2010.06.28 07:06:18.
