data_PCOD8138200
_publ_section_title
;
Structure prediction by ZEFSAII (Michael W. Deem and Ramdas Pophale) SiO2 
 PCOD8138200
Probable space group: C 2/C
;
_chemical_formula_sum "Si O2"
_cell_formula_units_Z 64
_cell_length_a 14.084000
_cell_length_b 18.154215
_cell_length_c 17.191270
_cell_angle_alpha 90.000000
_cell_angle_beta 137.111583
_cell_angle_gamma 90.000000
_cell_volume 2991.479400
_symmetry_space_group_name_H-M "C 2/C"
_symmetry_group_IT_number 15
_symmetry_cell_setting 'monoclinic'
loop_
_space_group_symop_operation_xyz
x,y,z
-x,y,1/2-z
-x,-y,-z
x,-y,1/2+z
1/2+x,1/2+y,z
1/2-x,1/2+y,1/2-z
1/2-x,1/2-y,-z
1/2+x,1/2-y,1/2+z
loop_
_atom_site_type_symbol
_atom_site_label
_atom_site_fract_x
_atom_site_fract_y
_atom_site_fract_z
Si Si1 0.358677 0.694286 0.133287
Si Si2 0.172830 0.089269 0.166856
Si Si3 0.890407 0.677021 0.396858
Si Si4 0.622298 0.987404 0.280690
Si Si5 0.048548 0.160017 0.575478
Si Si6 0.277492 0.850684 0.093427
Si Si7 0.408908 0.936172 0.410603
Si Si8 0.407519 0.460766 0.271873
O O1 0.500000 0.658993 0.250000
O O2 0.224501 0.687570 0.106217
O O3 0.379526 0.782176 0.135040
O O4 0.341879 0.650207 0.043666
O O5 0.311277 0.130561 0.282730
O O6 0.236056 0.033725 0.140721
O O7 0.093479 0.039768 0.183989
O O8 0.069103 0.144973 0.061157
O O9 0.952763 0.753781 0.400249
O O10 0.022942 0.638954 0.517176
O O11 0.500000 0.035379 0.250000
O O12 0.637841 0.925881 0.358169
O O13 0.584744 0.946416 0.177973
O O14 0.202311 0.148601 0.632358
O O15 0.029211 0.104786 0.636330
O O16 0.250462 0.940206 0.346822
O O17 0.500000 0.000000 0.500000
O O18 0.500000 0.468048 0.250000
#
# Coordination Sequence:
#
# PCOD8138200 Si02
#       8
#     8   8   8   8   8   8   8   8
#     4  10  21  36  59 101 139 172 220 262 350 422
#     4  11  24  45  66 103 133 174 234 281 349 411
#     4  11  24  42  68  98 140 185 219 291 345 410
#     4  11  22  38  66  93 132 175 222 278 339 408
#     4  11  24  43  69  98 136 180 221 284 351 408
#     4  10  20  37  60  94 133 174 214 269 332 418
#     4  11  22  46  67  99 134 178 237 279 342 412
#     4  11  25  46  74 101 137 184 237 287 340 401
#
# _framework density 21.394096999999999
#
# number of rings (size 3 to 8) (size 9 to 14) (size 15 to 20)
#    0.000    1.250    5.000    2.250    1.750    4.500 
#    0.000    1.250    0.000    0.750    0.000    0.000 
#    0.000    0.000    0.000    0.000    0.000    0.000 
#
# Total GULP energy -396522.136426 kJ/mol
# GULP energy per Si atom -12391.316763 kJ/mol
# Density = 2.134540 g / cm^3
# Si number density = 21.394097 Si / 1000 Ang^3
#
#
#
# Elastic Constant Matrix: (Units=GPa)
#
#
# Indices 1 2 3 4 5 6 
#
# 1 123.2957 27.7109 34.3622 0.0000 4.0340 0.0000
# 2 27.7109 117.1186 53.5819 0.0000 -3.9814 0.0000
# 3 34.3622 53.5819 111.5832 0.0001 9.8621 -0.0001
# 4 0.0000 0.0000 0.0001 20.4080 0.0001 26.7978
# 5 4.0340 -3.9814 9.8621 0.0001 26.0509 -0.0001
# 6 0.0000 0.0000 -0.0001 26.7978 -0.0001 -24.0038
#
#
#
# Elastic Compliance Matrix: (Units=1/GPa)
#
#
# Indices 1 2 3 4 5 6 
#
# 1 0.008996 -0.001176 -0.002138 0.000000 -0.000763 0.000000
# 2 -0.001176 0.011470 -0.005501 0.000000 0.004017 0.000000
# 3 -0.002138 -0.005501 0.012733 0.000000 -0.005330 0.000000
# 4 0.000000 0.000000 0.000000 0.019871 0.000000 0.022184
# 5 -0.000763 0.004017 -0.005330 0.000000 0.041136 0.000000
# 6 0.000000 0.000000 0.000000 0.022184 0.000000 -0.016894
#
#
# Mechanical properties :
#
#
# Convention : Reuss Voigt Hill
#
# Bulk Modulus (GPa) = 64.23163 64.81195 64.52179
# Shear Modulus (GPa) = 49.93489 20.24720 35.09105
#
# Velocity S-wave (km/s) = 4.83644 3.07969 4.05436
# Velocity P-wave (km/s) = 7.82793 6.55790 7.22089
#
# Compressibility (1/GPa) = 0.01556865
#
# Stress axis : x y z
#
# Youngs Moduli (GPa) = 111.16336 87.18580 78.53771
#
# Poissons Ratio (x) = 0.10256 0.16791
# Poissons Ratio (y) = 0.13076 0.43200
# Poissons Ratio (z) = 0.23766 0.47957
#
# Static dielectric constant tensor:
#      x y z
#    x 3.892590 0.000000 0.115290 
#    y 0.000000 4.060600 0.000000 
#    z 0.115290 0.000000 4.131570 
# 
# 
# High freq. dielectric constant tensor:
#      x y z
#    x 1.821000 0.000000 0.009170 
#    y 0.000000 1.839380 0.000000 
#    z 0.009170 0.000000 1.850610 
# 
# From -- ./inp_files/206485.got.cif
#   From: 2010.06.25/outbox.cif.g09.slc.cpg/sg15_104_cif.got.tgz:206485.got - 2010.06.28 07:06:18.
