data_PCOD8138651
_publ_section_title
;
Structure prediction by ZEFSAII (Michael W. Deem and Ramdas Pophale) SiO2 
 PCOD8138651
Probable space group: C 2/C
;
_chemical_formula_sum "Si O2"
_cell_formula_units_Z 60
_cell_length_a 24.730417
_cell_length_b 8.403692
_cell_length_c 25.757527
_cell_angle_alpha 90.000000
_cell_angle_beta 147.731166
_cell_angle_gamma 90.000000
_cell_volume 2857.982351
_symmetry_space_group_name_H-M "C 2/C"
_symmetry_group_IT_number 15
_symmetry_cell_setting 'monoclinic'
loop_
_space_group_symop_operation_xyz
x,y,z
-x,y,1/2-z
-x,-y,-z
x,-y,1/2+z
1/2+x,1/2+y,z
1/2-x,1/2+y,1/2-z
1/2-x,1/2-y,-z
1/2+x,1/2-y,1/2+z
loop_
_atom_site_type_symbol
_atom_site_label
_atom_site_fract_x
_atom_site_fract_y
_atom_site_fract_z
Si Si1 0.898225 0.695162 0.881129
Si Si2 0.423661 0.080511 0.247217
Si Si3 0.188095 0.868413 0.787131
Si Si4 0.877052 0.424274 0.102069
Si Si5 0.170317 0.104016 0.387458
Si Si6 0.195187 0.771597 0.270766
Si Si7 0.107314 0.330105 0.599261
Si Si8 0.000000 0.856444 0.250000
O O1 0.882283 0.777253 0.811866
O O2 0.813075 0.757368 0.852275
O O3 0.898686 0.503882 0.878782
O O4 0.007506 0.741674 0.992015
O O5 0.340140 0.118830 0.223465
O O6 0.481397 0.247216 0.285175
O O7 0.370055 0.020499 0.150856
O O8 0.514209 0.958543 0.337603
O O9 0.159656 0.813073 0.822010
O O10 0.304902 0.826383 0.872245
O O11 0.175104 0.058869 0.780606
O O12 0.866000 0.236232 0.101528
O O13 0.783039 0.467524 0.988478
O O14 0.098613 0.957941 0.340699
O O15 0.133067 0.787263 0.167025
#
# Coordination Sequence:
#
# PCOD8138651 Si02
#       8
#     8   8   8   8   8   8   8   4
#     4   9  20  39  61  89 122 158 198 253 291 373
#     4  10  21  40  59  92 116 167 197 260 306 371
#     4  10  21  38  61  88 123 156 199 252 308 360
#     4   9  23  39  60  85 125 152 216 246 309 361
#     4  11  21  42  60  89 119 165 199 266 301 374
#     4  10  20  38  60  89 125 157 199 246 309 360
#     4   9  20  39  61  90 118 158 203 241 305 368
#     4  10  20  38  60  80 124 152 204 258 310 352
#
# _framework density 20.993832000000001
#
# number of rings (size 3 to 8) (size 9 to 14) (size 15 to 20)
#    0.000    2.400    1.333    0.800    1.867    5.867 
#    9.600    0.000    0.000    0.000    0.000    0.000 
#    0.000    0.000    0.000    0.000    0.000    0.000 
#
# Total GULP energy -371813.602906 kJ/mol
# GULP energy per Si atom -12393.786764 kJ/mol
# Density = 2.094605 g / cm^3
# Si number density = 20.993832 Si / 1000 Ang^3
#
#
#
# Elastic Constant Matrix: (Units=GPa)
#
#
# Indices 1 2 3 4 5 6 
#
# 1 69.6603 24.8287 43.2164 0.0000 8.1090 0.0000
# 2 24.8287 51.1873 34.5274 -0.0001 7.4711 0.0002
# 3 43.2164 34.5274 148.6288 0.0000 15.8072 0.0000
# 4 0.0000 -0.0001 0.0000 23.4026 0.0000 11.1812
# 5 8.1090 7.4711 15.8072 0.0000 23.0460 0.0000
# 6 0.0000 0.0002 0.0000 11.1812 0.0000 25.7495
#
#
#
# Elastic Compliance Matrix: (Units=1/GPa)
#
#
# Indices 1 2 3 4 5 6 
#
# 1 0.019307 -0.006436 -0.003903 0.000000 -0.002030 0.000000
# 2 -0.006436 0.025680 -0.003721 0.000000 -0.003508 0.000000
# 3 -0.003903 -0.003721 0.009118 0.000000 -0.003675 0.000000
# 4 0.000000 0.000000 0.000000 0.053916 0.000000 -0.023412
# 5 -0.002030 -0.003508 -0.003675 0.000000 0.047763 0.000000
# 6 0.000000 0.000000 0.000000 -0.023412 0.000000 0.049002
#
#
# Mechanical properties :
#
#
# Convention : Reuss Voigt Hill
#
# Bulk Modulus (GPa) = 38.48356 52.73572 45.60964
# Shear Modulus (GPa) = 20.69812 25.56656 23.13234
#
# Velocity S-wave (km/s) = 3.14333 3.49350 3.32303
# Velocity P-wave (km/s) = 5.61647 6.43793 6.04118
#
# Compressibility (1/GPa) = 0.02598512
#
# Stress axis : x y z
#
# Youngs Moduli (GPa) = 51.79489 38.94089 109.67056
#
# Poissons Ratio (x) = 0.25063 0.42802
# Poissons Ratio (y) = 0.33336 0.40810
# Poissons Ratio (z) = 0.20214 0.14490
#
# Static dielectric constant tensor:
#      x y z
#    x 3.721030 0.000000 0.173340 
#    y 0.000000 3.775830 0.000000 
#    z 0.173340 0.000000 3.831610 
# 
# 
# High freq. dielectric constant tensor:
#      x y z
#    x 1.817130 0.000000 0.009260 
#    y 0.000000 1.821290 0.000000 
#    z 0.009260 0.000000 1.816200 
# 
# From -- ./inp_files/303107.got.cif
#   From: 2010.06.25/outbox.cif.g09.slc.cpg/sg15_152_cif.got.tgz:303107.got - 2010.06.28 07:06:18.
