data_PCOD8138423
_publ_section_title
;
Structure prediction by ZEFSAII (Michael W. Deem and Ramdas Pophale) SiO2 
 PCOD8138423
Probable space group: C 2/C
;
_chemical_formula_sum "Si O2"
_cell_formula_units_Z 40
_cell_length_a 5.866336
_cell_length_b 22.863875
_cell_length_c 12.838980
_cell_angle_alpha 90.000000
_cell_angle_beta 76.793690
_cell_angle_gamma 90.000000
_cell_volume 1676.514163
_symmetry_space_group_name_H-M "C 2/C"
_symmetry_group_IT_number 15
_symmetry_cell_setting 'monoclinic'
loop_
_space_group_symop_operation_xyz
x,y,z
-x,y,1/2-z
-x,-y,-z
x,-y,1/2+z
1/2+x,1/2+y,z
1/2-x,1/2+y,1/2-z
1/2-x,1/2-y,-z
1/2+x,1/2-y,1/2+z
loop_
_atom_site_type_symbol
_atom_site_label
_atom_site_fract_x
_atom_site_fract_y
_atom_site_fract_z
Si Si1 0.034187 0.185670 0.943688
Si Si2 0.272125 0.935670 0.443688
Si Si3 0.397513 0.540219 0.146359
Si Si4 0.293872 0.709781 0.353641
Si Si5 0.399348 0.875000 0.951304
O O1 0.169387 0.125000 0.911226
O O2 0.131134 0.232580 0.848809
O O3 0.078769 0.215545 0.049899
O O4 0.754621 0.173331 0.969371
O O5 0.526009 0.923331 0.469371
O O6 0.121333 0.965545 0.549899
O O7 0.270058 0.982580 0.348809
O O8 0.500000 0.547910 0.250000
O O9 0.251190 0.597278 0.126608
O O10 0.500000 0.702090 0.250000
O O11 0.127798 0.652723 0.373392
#
# Coordination Sequence:
#
# PCOD8138423 Si02
#       5
#     8   8   8   8   8
#     4   9  20  38  62  90 129 172 216 267 331 387
#     4   9  20  38  62  90 129 172 216 267 331 387
#     4  10  21  37  62  95 130 169 220 270 324 394
#     4  10  21  37  62  95 130 169 220 270 324 394
#     4  10  20  37  64  94 128 178 214 272 328 383
#
# _framework density 23.859029
#
# number of rings (size 3 to 8) (size 9 to 14) (size 15 to 20)
#    0.000    2.400    0.000    1.200    0.000   10.400 
#    0.000    0.000   48.400    0.000    0.000    0.000 
#    0.000    0.000    0.000    0.000    0.000    0.000 
#
# Total GULP energy -247861.455449 kJ/mol
# GULP energy per Si atom -12393.072772 kJ/mol
# Density = 2.380472 g / cm^3
# Si number density = 23.859029 Si / 1000 Ang^3
#
#
#
# Elastic Constant Matrix: (Units=GPa)
#
#
# Indices 1 2 3 4 5 6 
#
# 1 148.5768 40.3453 49.5254 0.0000 -2.2013 0.0000
# 2 40.3453 106.3727 26.8289 0.0000 -1.0778 0.0000
# 3 49.5254 26.8289 53.3305 0.0000 -5.3945 0.0000
# 4 0.0000 0.0000 0.0000 13.4383 0.0000 -2.0996
# 5 -2.2013 -1.0778 -5.3945 0.0000 35.4697 0.0000
# 6 0.0000 0.0000 0.0000 -2.0996 0.0000 39.7635
#
#
#
# Elastic Compliance Matrix: (Units=1/GPa)
#
#
# Indices 1 2 3 4 5 6 
#
# 1 0.010016 -0.001651 -0.008545 0.000000 -0.000728 0.000000
# 2 -0.001651 0.011048 -0.004063 0.000000 -0.000385 0.000000
# 3 -0.008545 -0.004063 0.029112 0.000000 0.003774 0.000000
# 4 0.000000 0.000000 0.000000 0.075033 0.000000 0.003962
# 5 -0.000728 -0.000385 0.003774 0.000000 0.028710 0.000000
# 6 0.000000 0.000000 0.000000 0.003962 0.000000 0.025358
#
#
# Mechanical properties :
#
#
# Convention : Reuss Voigt Hill
#
# Bulk Modulus (GPa) = 46.17296 60.18657 53.17976
# Shear Modulus (GPa) = 23.25412 30.50631 26.88021
#
# Velocity S-wave (km/s) = 3.12532 3.57964 3.36017
# Velocity P-wave (km/s) = 5.69367 6.50890 6.11489
#
# Compressibility (1/GPa) = 0.02165770
#
# Stress axis : x y z
#
# Youngs Moduli (GPa) = 99.83696 90.51266 34.35031
#
# Poissons Ratio (x) = 0.14946 0.29351
# Poissons Ratio (y) = 0.16486 0.13958
# Poissons Ratio (z) = 0.85307 0.36779
#
# Static dielectric constant tensor:
#      x y z
#    x 4.562370 0.000000 -0.055380 
#    y 0.000000 4.681860 0.000000 
#    z -0.055380 0.000000 3.868070 
# 
# 
# High freq. dielectric constant tensor:
#      x y z
#    x 1.955830 0.000000 -0.004730 
#    y 0.000000 1.961470 0.000000 
#    z -0.004730 0.000000 1.896560 
# 
# From -- ./inp_files/129285.got.cif
#   From: 2010.06.25/outbox.cif.g09.slc.cpg/sg15_65_cif.got.tgz:129285.got - 2010.06.28 07:06:18.
