data_PCOD8138689
_publ_section_title
;
Structure prediction by ZEFSAII (Michael W. Deem and Ramdas Pophale) SiO2 
 PCOD8138689
Probable space group: C 2/C
;
_chemical_formula_sum "Si O2"
_cell_formula_units_Z 56
_cell_length_a 30.516454
_cell_length_b 8.941335
_cell_length_c 13.577578
_cell_angle_alpha 90.000000
_cell_angle_beta 48.375688
_cell_angle_gamma 90.000000
_cell_volume 2769.359963
_symmetry_space_group_name_H-M "C 2/C"
_symmetry_group_IT_number 15
_symmetry_cell_setting 'monoclinic'
loop_
_space_group_symop_operation_xyz
x,y,z
-x,y,1/2-z
-x,-y,-z
x,-y,1/2+z
1/2+x,1/2+y,z
1/2-x,1/2+y,1/2-z
1/2-x,1/2-y,-z
1/2+x,1/2-y,1/2+z
loop_
_atom_site_type_symbol
_atom_site_label
_atom_site_fract_x
_atom_site_fract_y
_atom_site_fract_z
Si Si1 0.168795 0.064954 0.610755
Si Si2 0.889466 0.861680 0.947181
Si Si3 0.788958 0.074967 0.747709
Si Si4 0.021220 0.147466 0.026049
Si Si5 0.728008 0.895205 0.683024
Si Si6 0.610627 0.153698 0.267272
Si Si7 0.449093 0.120413 0.749858
O O1 0.176889 0.001200 0.710322
O O2 0.230247 0.036920 0.463303
O O3 0.148464 0.238409 0.639316
O O4 0.117249 0.975220 0.633719
O O5 0.947531 0.909596 0.920650
O O6 0.896947 0.695806 0.890735
O O7 0.833877 0.863052 0.100263
O O8 0.755822 0.219811 0.839142
O O9 0.742820 0.962776 0.768188
O O10 0.969496 0.261450 0.134987
O O11 0.067328 0.241969 0.893724
O O12 0.000000 0.000000 0.000000
O O13 0.659241 0.927140 0.764225
O O14 0.573767 0.031202 0.264427
O O15 0.500000 0.075149 0.750000
#
# Coordination Sequence:
#
# PCOD8138689 Si02
#       7
#     8   8   8   8   8   8   8
#     4  10  21  39  64  90 120 160 206 239 303 371
#     4  10  21  40  62  88 122 158 203 253 298 356
#     4  10  20  38  60  87 123 157 199 244 303 361
#     4  11  22  41  65  85 121 162 208 253 297 359
#     4  10  22  38  60  91 121 160 196 249 297 370
#     4  11  21  41  61  86 128 156 197 257 307 349
#     4  10  24  39  59  91 123 157 204 256 302 353
#
# _framework density 20.221278000000002
#
# number of rings (size 3 to 8) (size 9 to 14) (size 15 to 20)
#    0.000    1.714    2.857    3.000    0.000    4.571 
#    2.571    2.857    0.000    0.000    0.000    0.000 
#    0.000    0.000    0.000    0.000    0.000    0.000 
#
# Total GULP energy -347061.881986 kJ/mol
# GULP energy per Si atom -12395.067214 kJ/mol
# Density = 2.017525 g / cm^3
# Si number density = 20.221278 Si / 1000 Ang^3
#
#
#
# Elastic Constant Matrix: (Units=GPa)
#
#
# Indices 1 2 3 4 5 6 
#
# 1 164.3523 93.7544 48.9969 0.0000 14.1298 0.0000
# 2 93.7544 93.5956 30.3923 0.0000 6.0355 0.0001
# 3 48.9969 30.3923 85.2032 0.0000 5.1294 0.0000
# 4 0.0000 0.0000 0.0000 26.5731 0.0000 3.1005
# 5 14.1298 6.0355 5.1294 0.0000 29.1920 0.0000
# 6 0.0000 0.0001 0.0000 3.1005 0.0000 46.2251
#
#
#
# Elastic Compliance Matrix: (Units=1/GPa)
#
#
# Indices 1 2 3 4 5 6 
#
# 1 0.015623 -0.014198 -0.003680 0.000000 -0.003980 0.000000
# 2 -0.014198 0.025077 -0.000891 0.000000 0.001844 0.000000
# 3 -0.003680 -0.000891 0.014203 0.000000 -0.000530 0.000000
# 4 0.000000 0.000000 0.000000 0.037929 0.000000 -0.002544
# 5 -0.003980 0.001844 -0.000530 0.000000 0.035894 0.000000
# 6 0.000000 0.000000 0.000000 -0.002544 0.000000 0.021804
#
#
# Mechanical properties :
#
#
# Convention : Reuss Voigt Hill
#
# Bulk Modulus (GPa) = 57.59101 76.60424 67.09763
# Shear Modulus (GPa) = 25.79245 31.73187 28.76216
#
# Velocity S-wave (km/s) = 3.57530 3.96565 3.77553
# Velocity P-wave (km/s) = 6.75174 7.67683 7.22910
#
# Compressibility (1/GPa) = 0.01736382
#
# Stress axis : x y z
#
# Youngs Moduli (GPa) = 64.00925 39.87795 70.40874
#
# Poissons Ratio (x) = 0.56617 0.25911
# Poissons Ratio (y) = 0.90878 0.06276
# Poissons Ratio (z) = 0.23556 0.03555
#
# Static dielectric constant tensor:
#      x y z
#    x 3.933840 0.000000 0.130760 
#    y 0.000000 3.543390 0.000000 
#    z 0.130760 0.000000 3.767200 
# 
# 
# High freq. dielectric constant tensor:
#      x y z
#    x 1.796790 0.000000 0.005050 
#    y 0.000000 1.769430 0.000000 
#    z 0.005050 0.000000 1.798380 
# 
# From -- ./inp_files/171969.got.cif
#   From: 2010.06.25/outbox.cif.g09.slc.cpg/sg15_86_cif.got.tgz:171969.got - 2010.06.28 07:06:18.
