data_PCOD8138822
_publ_section_title
;
Structure prediction by ZEFSAII (Michael W. Deem and Ramdas Pophale) SiO2 
 PCOD8138822
Probable space group: C 2/C
;
_chemical_formula_sum "Si O2"
_cell_formula_units_Z 64
_cell_length_a 25.533304
_cell_length_b 13.125739
_cell_length_c 9.571327
_cell_angle_alpha 90.000000
_cell_angle_beta 78.624033
_cell_angle_gamma 90.000000
_cell_volume 3144.748060
_symmetry_space_group_name_H-M "C 2/C"
_symmetry_group_IT_number 15
_symmetry_cell_setting 'monoclinic'
loop_
_space_group_symop_operation_xyz
x,y,z
-x,y,1/2-z
-x,-y,-z
x,-y,1/2+z
1/2+x,1/2+y,z
1/2-x,1/2+y,1/2-z
1/2-x,1/2-y,-z
1/2+x,1/2-y,1/2+z
loop_
_atom_site_type_symbol
_atom_site_label
_atom_site_fract_x
_atom_site_fract_y
_atom_site_fract_z
Si Si1 0.886840 0.598971 0.526635
Si Si2 0.632156 0.694263 0.339382
Si Si3 0.714009 0.977551 0.956149
Si Si4 0.134009 0.697423 0.559385
Si Si5 0.786441 0.027397 0.163889
Si Si6 0.437237 0.530199 0.262719
Si Si7 0.613858 0.399762 0.428748
Si Si8 0.062812 0.531074 0.721468
O O1 0.889509 0.720886 0.541662
O O2 0.825356 0.565757 0.576396
O O3 0.920018 0.538638 0.627015
O O4 0.910648 0.569080 0.362918
O O5 0.655042 0.746070 0.186918
O O6 0.679806 0.629963 0.385415
O O7 0.582191 0.622396 0.326340
O O8 0.765747 0.966638 0.832862
O O9 0.682723 0.870482 0.978103
O O10 0.734739 0.014415 0.095382
O O11 0.113762 0.778463 0.454800
O O12 0.082595 0.629294 0.624554
O O13 0.824806 0.930387 0.128447
O O14 0.500000 0.537086 0.250000
O O15 0.420982 0.425522 0.191473
O O16 0.408850 0.536696 0.427480
O O17 0.000000 0.522874 0.750000
#
# Coordination Sequence:
#
# PCOD8138822 Si02
#       8
#     8   8   8   8   8   8   8   8
#     4  10  21  38  57  84 117 147 191 242 285 342
#     4   9  20  36  56  85 116 147 192 240 282 345
#     4  11  22  38  59  82 113 155 195 237 289 341
#     4   9  20  37  59  85 114 150 196 234 279 352
#     4  11  22  37  58  82 113 154 193 236 290 340
#     4  10  20  38  62  86 116 154 190 232 290 344
#     4  10  21  38  59  87 118 149 192 242 282 339
#     4  10  20  38  62  85 113 152 191 236 290 344
#
# _framework density 20.351392000000001
#
# number of rings (size 3 to 8) (size 9 to 14) (size 15 to 20)
#    0.000    2.000    0.000    5.250    0.000    8.000 
#    0.000   10.000    0.000    6.000    0.000    0.000 
#    0.000    0.000    0.000    0.000    0.000    0.000 
#
# Total GULP energy -396831.735023 kJ/mol
# GULP energy per Si atom -12400.991719 kJ/mol
# Density = 2.030507 g / cm^3
# Si number density = 20.351392 Si / 1000 Ang^3
#
#
#
# Elastic Constant Matrix: (Units=GPa)
#
#
# Indices 1 2 3 4 5 6 
#
# 1 119.4353 31.6928 20.3315 0.0000 1.5971 0.0000
# 2 31.6928 89.6555 24.5414 0.0000 -0.6911 0.0000
# 3 20.3315 24.5414 55.3500 0.0000 -5.6517 0.0000
# 4 0.0000 0.0000 0.0000 32.2137 0.0000 6.3029
# 5 1.5971 -0.6911 -5.6517 0.0000 34.1716 0.0000
# 6 0.0000 0.0000 0.0000 6.3029 0.0000 19.3795
#
#
#
# Elastic Compliance Matrix: (Units=1/GPa)
#
#
# Indices 1 2 3 4 5 6 
#
# 1 0.009511 -0.002717 -0.002380 0.000000 -0.000893 0.000000
# 2 -0.002717 0.013487 -0.005026 0.000000 -0.000431 0.000000
# 3 -0.002380 -0.005026 0.021534 0.000000 0.003571 0.000000
# 4 0.000000 0.000000 0.000000 0.033152 0.000000 -0.010782
# 5 -0.000893 -0.000431 0.003571 0.000000 0.029888 0.000000
# 6 0.000000 0.000000 0.000000 -0.010782 0.000000 0.055108
#
#
# Mechanical properties :
#
#
# Convention : Reuss Voigt Hill
#
# Bulk Modulus (GPa) = 41.17679 46.39691 43.78685
# Shear Modulus (GPa) = 26.17514 29.67796 27.92655
#
# Velocity S-wave (km/s) = 3.59020 3.82288 3.70837
# Velocity P-wave (km/s) = 6.12069 6.50640 6.31649
#
# Compressibility (1/GPa) = 0.02428552
#
# Stress axis : x y z
#
# Youngs Moduli (GPa) = 105.14244 74.14659 46.43810
#
# Poissons Ratio (x) = 0.20149 0.11052
# Poissons Ratio (y) = 0.28572 0.23338
# Poissons Ratio (z) = 0.25023 0.37264
#
# Static dielectric constant tensor:
#      x y z
#    x 3.551580 0.000000 0.056930 
#    y 0.000000 3.770790 0.000000 
#    z 0.056930 0.000000 3.784700 
# 
# 
# High freq. dielectric constant tensor:
#      x y z
#    x 1.795180 0.000000 0.000570 
#    y 0.000000 1.789180 0.000000 
#    z 0.000570 0.000000 1.794580 
# 
# From -- ./inp_files/66222.got.cif
#   From: 2010.06.25/outbox.cif.g09.slc.cpg/sg15_34_cif.got.tgz:66222.got - 2010.06.28 07:06:18.
