data_PCOD8138460
_publ_section_title
;
Structure prediction by ZEFSAII (Michael W. Deem and Ramdas Pophale) SiO2 
 PCOD8138460
Probable space group: C 2/C
;
_chemical_formula_sum "Si O2"
_cell_formula_units_Z 48
_cell_length_a 12.135768
_cell_length_b 13.913057
_cell_length_c 13.053402
_cell_angle_alpha 90.000000
_cell_angle_beta 56.063862
_cell_angle_gamma 90.000000
_cell_volume 1828.579600
_symmetry_space_group_name_H-M "C 2/C"
_symmetry_group_IT_number 15
_symmetry_cell_setting 'monoclinic'
loop_
_space_group_symop_operation_xyz
x,y,z
-x,y,1/2-z
-x,-y,-z
x,-y,1/2+z
1/2+x,1/2+y,z
1/2-x,1/2+y,1/2-z
1/2-x,1/2-y,-z
1/2+x,1/2-y,1/2+z
loop_
_atom_site_type_symbol
_atom_site_label
_atom_site_fract_x
_atom_site_fract_y
_atom_site_fract_z
Si Si1 0.993445 0.540088 0.372859
Si Si2 0.230940 0.137412 0.493342
Si Si3 0.566948 0.829403 0.112215
Si Si4 0.809041 0.203668 0.604047
Si Si5 0.728370 0.614134 0.252350
Si Si6 0.963451 0.044891 0.626905
O O1 0.856177 0.586752 0.483405
O O2 0.999895 0.426743 0.393430
O O3 0.000000 0.561533 0.250000
O O4 0.123276 0.582547 0.360919
O O5 0.250000 0.250000 0.500000
O O6 0.221927 0.117156 0.377741
O O7 0.095055 0.090725 0.613779
O O8 0.500000 0.789733 0.250000
O O9 0.721125 0.851707 0.063909
O O10 0.565256 0.750365 0.022164
O O11 0.712259 0.281311 0.709884
O O12 0.860850 0.132404 0.663611
O O13 0.614996 0.539365 0.269856
O O14 0.000000 0.000000 0.500000
#
# Coordination Sequence:
#
# PCOD8138460 Si02
#       6
#     8   8   8   8   8   8
#     4   9  18  39  61  86 124 169 208 267 336 393
#     4  10  20  37  65  92 133 176 216 275 341 398
#     4  10  22  39  64  89 124 169 217 271 335 397
#     4  11  23  40  63  97 129 171 221 275 343 397
#     4  10  22  40  65  92 133 174 221 272 335 402
#     4  10  21  39  65  94 133 176 220 281 335 395
#
# _framework density 26.249880999999998
#
# number of rings (size 3 to 8) (size 9 to 14) (size 15 to 20)
#    0.000    2.000    0.000    5.000    4.667    0.667 
#    3.000    0.000    7.333    0.000    0.000    0.000 
#    0.000    0.000    0.000    0.000    0.000    0.000 
#
# Total GULP energy -297457.777367 kJ/mol
# GULP energy per Si atom -12394.074057 kJ/mol
# Density = 2.619014 g / cm^3
# Si number density = 26.249881 Si / 1000 Ang^3
#
#
#
# Elastic Constant Matrix: (Units=GPa)
#
#
# Indices 1 2 3 4 5 6 
#
# 1 90.6931 46.0616 0.5016 0.0000 -38.1837 0.0000
# 2 46.0616 140.2157 25.3383 0.0000 -25.4433 0.0000
# 3 0.5016 25.3383 57.7467 0.0000 -23.5667 0.0000
# 4 0.0000 0.0000 0.0000 43.0292 0.0000 -4.1192
# 5 -38.1837 -25.4433 -23.5667 0.0000 38.4515 0.0000
# 6 0.0000 0.0000 0.0000 -4.1192 0.0000 14.0589
#
#
#
# Elastic Compliance Matrix: (Units=1/GPa)
#
#
# Indices 1 2 3 4 5 6 
#
# 1 0.028484 -0.006099 0.016436 0.000000 0.034323 0.000000
# 2 -0.006099 0.009558 -0.005376 0.000000 -0.003027 0.000000
# 3 0.016436 -0.005376 0.032995 0.000000 0.032987 0.000000
# 4 0.000000 0.000000 0.000000 0.023911 0.000000 0.007006
# 5 0.034323 -0.003027 0.032987 0.000000 0.078306 0.000000
# 6 0.000000 0.000000 0.000000 0.007006 0.000000 0.073182
#
#
# Mechanical properties :
#
#
# Convention : Reuss Voigt Hill
#
# Bulk Modulus (GPa) = 12.35192 48.05096 30.20144
# Shear Modulus (GPa) = 18.97536 33.55817 26.26677
#
# Velocity S-wave (km/s) = 2.69155 3.57937 3.16673
# Velocity P-wave (km/s) = 3.79143 5.95210 4.99011
#
# Compressibility (1/GPa) = 0.08095908
#
# Stress axis : x y z
#
# Youngs Moduli (GPa) = 35.10767 104.62844 30.30717
#
# Poissons Ratio (x) = 0.63813 -0.49814
# Poissons Ratio (y) = 0.21412 0.16294
# Poissons Ratio (z) = -0.57704 0.56251
#
# Static dielectric constant tensor:
#      x y z
#    x 4.353280 0.000000 -0.893590 
#    y 0.000000 4.752070 0.000000 
#    z -0.893590 0.000000 4.639320 
# 
# 
# High freq. dielectric constant tensor:
#      x y z
#    x 2.047350 0.000000 -0.018390 
#    y 0.000000 2.052610 0.000000 
#    z -0.018390 0.000000 2.050210 
# 
# From -- ./inp_files/144095.got.cif
#   From: 2010.06.25/outbox.cif.g09.slc.cpg/sg15_73_cif.got.tgz:144095.got - 2010.06.28 07:06:18.
