data_PCOD8138945
_publ_section_title
;
Structure prediction by ZEFSAII (Michael W. Deem and Ramdas Pophale) SiO2 
 PCOD8138945
Probable space group: C 2/C
;
_chemical_formula_sum "Si O2"
_cell_formula_units_Z 60
_cell_length_a 15.195817
_cell_length_b 9.044764
_cell_length_c 22.340057
_cell_angle_alpha 90.000000
_cell_angle_beta 108.352089
_cell_angle_gamma 90.000000
_cell_volume 2914.309534
_symmetry_space_group_name_H-M "C 2/C"
_symmetry_group_IT_number 15
_symmetry_cell_setting 'monoclinic'
loop_
_space_group_symop_operation_xyz
x,y,z
-x,y,1/2-z
-x,-y,-z
x,-y,1/2+z
1/2+x,1/2+y,z
1/2-x,1/2+y,1/2-z
1/2-x,1/2-y,-z
1/2+x,1/2-y,1/2+z
loop_
_atom_site_type_symbol
_atom_site_label
_atom_site_fract_x
_atom_site_fract_y
_atom_site_fract_z
Si Si1 0.342754 0.736203 0.590624
Si Si2 0.491154 0.818501 0.380650
Si Si3 0.625994 0.764163 0.512405
Si Si4 0.669753 0.056381 0.236978
Si Si5 0.000000 0.397117 0.250000
Si Si6 0.253813 0.501611 0.490309
Si Si7 0.214000 0.279835 0.170941
Si Si8 0.037251 0.340014 0.615309
O O1 0.324576 0.614841 0.536047
O O2 0.309876 0.901899 0.567178
O O3 0.287403 0.679146 0.635939
O O4 0.453092 0.744027 0.624900
O O5 0.568496 0.740233 0.438059
O O6 0.509009 0.797852 0.312594
O O7 0.390082 0.751580 0.376017
O O8 0.492946 0.990441 0.397540
O O9 0.689085 0.619365 0.535409
O O10 0.558766 0.776758 0.554406
O O11 0.688789 0.912279 0.523092
O O12 0.753274 0.132604 0.289032
O O13 0.625368 0.168927 0.178505
O O14 0.589602 0.003216 0.265405
O O15 0.715227 0.915629 0.216152
#
# Coordination Sequence:
#
# PCOD8138945 Si02
#       8
#     8   8   8   8   4   8   8   8
#     4  11  22  41  60  90 122 166 195 248 307 367
#     4  10  20  38  63  88 118 163 196 250 297 368
#     4  11  22  41  60  95 118 159 205 251 297 361
#     4  10  21  40  62  88 116 159 201 252 294 359
#     4   8  18  38  60  84 110 160 206 230 300 360
#     4  10  24  38  60  89 124 158 199 249 305 354
#     4  10  22  39  63  89 118 159 206 243 301 357
#     4  10  21  37  66  86 123 158 200 244 303 363
#
# _framework density 20.588066999999999
#
# number of rings (size 3 to 8) (size 9 to 14) (size 15 to 20)
#    0.000    2.133    1.333    3.600    3.733    1.600 
#   14.400    0.000    0.000    0.000    0.000    0.000 
#    0.000    0.000    0.000    0.000    0.000    0.000 
#
# Total GULP energy -371942.318934 kJ/mol
# GULP energy per Si atom -12398.077298 kJ/mol
# Density = 2.054121 g / cm^3
# Si number density = 20.588067 Si / 1000 Ang^3
#
#
#
# Elastic Constant Matrix: (Units=GPa)
#
#
# Indices 1 2 3 4 5 6 
#
# 1 117.8410 34.3438 21.5198 0.0000 -17.4826 0.0000
# 2 34.3438 64.3901 2.2335 0.0000 -2.3515 0.0000
# 3 21.5198 2.2335 45.3183 0.0000 -17.9852 0.0000
# 4 0.0000 0.0000 0.0000 21.1079 0.0000 6.7911
# 5 -17.4826 -2.3515 -17.9852 0.0000 41.9660 0.0000
# 6 0.0000 0.0000 0.0000 6.7911 0.0000 31.0629
#
#
#
# Elastic Compliance Matrix: (Units=1/GPa)
#
#
# Indices 1 2 3 4 5 6 
#
# 1 0.011304 -0.005792 -0.004027 0.000000 0.002659 0.000000
# 2 -0.005792 0.018540 0.001556 0.000000 -0.000707 0.000000
# 3 -0.004027 0.001556 0.028040 0.000000 0.010426 0.000000
# 4 0.000000 0.000000 0.000000 0.050960 0.000000 -0.011141
# 5 0.002659 -0.000707 0.010426 0.000000 0.029365 0.000000
# 6 0.000000 0.000000 0.000000 -0.011141 0.000000 0.034628
#
#
# Mechanical properties :
#
#
# Convention : Reuss Voigt Hill
#
# Bulk Modulus (GPa) = 24.17989 38.19376 31.18682
# Shear Modulus (GPa) = 24.61233 30.12417 27.36825
#
# Velocity S-wave (km/s) = 3.46130 3.82931 3.64995
# Velocity P-wave (km/s) = 5.26728 6.17602 5.73966
#
# Compressibility (1/GPa) = 0.04135669
#
# Stress axis : x y z
#
# Youngs Moduli (GPa) = 88.46389 53.93726 35.66376
#
# Poissons Ratio (x) = 0.31243 0.14363
# Poissons Ratio (y) = 0.51242 -0.05550
# Poissons Ratio (z) = 0.35627 -0.08393
#
# Static dielectric constant tensor:
#      x y z
#    x 3.887420 0.000000 0.027690 
#    y 0.000000 3.489630 0.000000 
#    z 0.027690 0.000000 3.725920 
# 
# 
# High freq. dielectric constant tensor:
#      x y z
#    x 1.816670 0.000000 -0.000930 
#    y 0.000000 1.783310 0.000000 
#    z -0.000930 0.000000 1.798630 
# 
# From -- ./inp_files/272790.got.cif
#   From: 2010.06.25/outbox.cif.g09.slc.cpg/sg15_137_cif.got.tgz:272790.got - 2010.06.28 07:06:18.
