data_PCOD8138425
_publ_section_title
;
Structure prediction by ZEFSAII (Michael W. Deem and Ramdas Pophale) SiO2 
 PCOD8138425
Probable space group: C 2/C
;
_chemical_formula_sum "Si O2"
_cell_formula_units_Z 28
_cell_length_a 4.943135
_cell_length_b 18.746241
_cell_length_c 13.898886
_cell_angle_alpha 90.000000
_cell_angle_beta 109.484273
_cell_angle_gamma 90.000000
_cell_volume 1214.186521
_symmetry_space_group_name_H-M "C 2/C"
_symmetry_group_IT_number 15
_symmetry_cell_setting 'monoclinic'
loop_
_space_group_symop_operation_xyz
x,y,z
-x,y,1/2-z
-x,-y,-z
x,-y,1/2+z
1/2+x,1/2+y,z
1/2-x,1/2+y,1/2-z
1/2-x,1/2-y,-z
1/2+x,1/2-y,1/2+z
loop_
_atom_site_type_symbol
_atom_site_label
_atom_site_fract_x
_atom_site_fract_y
_atom_site_fract_z
Si Si1 0.203860 0.330398 0.964764
Si Si2 0.254703 0.418681 0.481330
Si Si3 0.250101 0.505313 0.662024
Si Si4 0.000000 0.617178 0.250000
O O1 0.466456 0.381082 0.031515
O O2 0.916591 0.358400 0.980293
O O3 0.179477 0.333850 0.845717
O O4 0.250000 0.250000 0.000000
O O5 0.342506 0.484777 0.562905
O O6 0.046850 0.449899 0.373090
O O7 0.500000 0.547909 0.750000
O O8 0.215813 0.431824 0.715729
#
# Coordination Sequence:
#
# PCOD8138425 Si02
#       4
#     8   8   8   4
#     4  11  23  43  62  90 130 171 215 254 308 392
#     4  10  23  38  64  93 124 165 210 268 317 367
#     4  10  20  37  64  94 130 157 213 266 330 382
#     4  10  22  38  66  88 126 172 206 260 340 368
#
# _framework density 23.060708000000002
#
# number of rings (size 3 to 8) (size 9 to 14) (size 15 to 20)
#    0.000    1.714    2.857    0.857    4.000    3.429 
#    2.571    0.000    0.000    0.000    0.000    0.000 
#    0.000    0.000    0.000    0.000    0.000    0.000 
#
# Total GULP energy -173607.012067 kJ/mol
# GULP energy per Si atom -12400.500862 kJ/mol
# Density = 2.300822 g / cm^3
# Si number density = 23.060708 Si / 1000 Ang^3
#
#
#
# Elastic Constant Matrix: (Units=GPa)
#
#
# Indices 1 2 3 4 5 6 
#
# 1 50.7566 0.5708 11.5333 0.0000 19.9858 0.0000
# 2 0.5708 108.5100 49.4849 0.0000 17.6696 0.0000
# 3 11.5333 49.4849 157.3007 0.0000 41.1664 0.0000
# 4 0.0000 0.0000 0.0000 39.3585 0.0000 4.3878
# 5 19.9858 17.6696 41.1664 0.0000 43.6340 0.0000
# 6 0.0000 0.0000 0.0000 4.3878 0.0000 28.9123
#
#
#
# Elastic Compliance Matrix: (Units=1/GPa)
#
#
# Indices 1 2 3 4 5 6 
#
# 1 0.024496 0.001459 0.001110 0.000000 -0.012858 0.000000
# 2 0.001459 0.010925 -0.002936 0.000000 -0.002322 0.000000
# 3 0.001110 -0.002936 0.009323 0.000000 -0.008116 0.000000
# 4 0.000000 0.000000 0.000000 0.025845 0.000000 -0.003922
# 5 -0.012858 -0.002322 -0.008116 0.000000 0.037404 0.000000
# 6 0.000000 0.000000 0.000000 -0.003922 0.000000 0.035183
#
#
# Mechanical properties :
#
#
# Convention : Reuss Voigt Hill
#
# Bulk Modulus (GPa) = 22.72208 48.86060 35.79134
# Shear Modulus (GPa) = 31.52953 39.37950 35.45452
#
# Velocity S-wave (km/s) = 3.70163 4.13685 3.92528
# Velocity P-wave (km/s) = 5.30509 6.63716 6.00815
#
# Compressibility (1/GPa) = 0.04401005
#
# Stress axis : x y z
#
# Youngs Moduli (GPa) = 40.82268 91.53135 107.25656
#
# Poissons Ratio (x) = -0.13352 -0.11906
# Poissons Ratio (y) = -0.05955 0.31492
# Poissons Ratio (z) = -0.04532 0.26875
#
# Static dielectric constant tensor:
#      x y z
#    x 4.063070 0.000000 0.084250 
#    y 0.000000 3.805280 0.000000 
#    z 0.084250 0.000000 4.948250 
# 
# 
# High freq. dielectric constant tensor:
#      x y z
#    x 1.921280 0.000000 0.011570 
#    y 0.000000 1.871800 0.000000 
#    z 0.011570 0.000000 1.919690 
# 
# From -- ./inp_files/71630.got.cif
#   From: 2010.06.25/outbox.cif.g09.slc.cpg/sg15_36_cif.got.tgz:71630.got - 2010.06.28 07:06:18.
