data_PCOD8138424
_publ_section_title
;
Structure prediction by ZEFSAII (Michael W. Deem and Ramdas Pophale) SiO2 
 PCOD8138424
Probable space group: C 2/C
;
_chemical_formula_sum "Si O2"
_cell_formula_units_Z 56
_cell_length_a 10.382682
_cell_length_b 16.816741
_cell_length_c 14.533075
_cell_angle_alpha 90.000000
_cell_angle_beta 76.853955
_cell_angle_gamma 90.000000
_cell_volume 2471.017253
_symmetry_space_group_name_H-M "C 2/C"
_symmetry_group_IT_number 15
_symmetry_cell_setting 'monoclinic'
loop_
_space_group_symop_operation_xyz
x,y,z
-x,y,1/2-z
-x,-y,-z
x,-y,1/2+z
1/2+x,1/2+y,z
1/2-x,1/2+y,1/2-z
1/2-x,1/2-y,-z
1/2+x,1/2-y,1/2+z
loop_
_atom_site_type_symbol
_atom_site_label
_atom_site_fract_x
_atom_site_fract_y
_atom_site_fract_z
Si Si1 0.718727 0.927000 0.104846
Si Si2 0.759823 0.247206 0.651952
Si Si3 0.442273 0.220835 0.452051
Si Si4 0.763835 0.298590 0.140758
Si Si5 0.010365 0.561187 0.142384
Si Si6 0.857065 0.053106 0.765881
Si Si7 0.222591 0.082738 0.107502
O O1 0.688595 0.833266 0.128292
O O2 0.814173 0.962737 0.167636
O O3 0.581691 0.975725 0.121854
O O4 0.794426 0.937119 0.996689
O O5 0.756678 0.252548 0.763221
O O6 0.684308 0.324999 0.628080
O O7 0.907552 0.251716 0.586638
O O8 0.352743 0.282842 0.412311
O O9 0.403293 0.220534 0.567330
O O10 0.410205 0.132062 0.420187
O O11 0.754575 0.391530 0.169479
O O12 0.000000 0.585217 0.250000
O O13 0.867580 0.557754 0.119021
O O14 0.000000 0.096433 0.750000
O O15 0.876799 0.970777 0.817290
#
# Coordination Sequence:
#
# PCOD8138424 Si02
#       7
#     8   8   8   8   8   8   8
#     4  11  23  41  68  96 132 177 221 282 350 398
#     4  10  22  42  62  93 139 174 221 285 341 404
#     4  10  20  37  67  98 126 178 226 279 334 406
#     4  10  20  37  64  94 129 169 226 275 337 401
#     4  11  21  40  69  99 133 171 229 289 335 398
#     4  11  24  43  63  95 132 174 220 278 341 410
#     4  11  23  43  65  94 133 178 226 279 340 411
#
# _framework density 22.662732999999999
#
# number of rings (size 3 to 8) (size 9 to 14) (size 15 to 20)
#    0.000    1.429    1.429    5.571    0.000    1.714 
#    2.571    0.714    0.000    0.000    0.000    0.000 
#    0.000    0.000    0.000    0.000    0.000    0.000 
#
# Total GULP energy -347149.944478 kJ/mol
# GULP energy per Si atom -12398.212303 kJ/mol
# Density = 2.261115 g / cm^3
# Si number density = 22.662733 Si / 1000 Ang^3
#
#
#
# Elastic Constant Matrix: (Units=GPa)
#
#
# Indices 1 2 3 4 5 6 
#
# 1 35.4537 25.7224 28.6158 0.0000 3.3847 0.0000
# 2 25.7224 126.0509 40.3407 0.0000 -1.8849 0.0000
# 3 28.6158 40.3407 169.2840 0.0000 5.9721 0.0000
# 4 0.0000 0.0000 0.0000 30.1292 0.0000 -6.1052
# 5 3.3847 -1.8849 5.9721 0.0000 34.9711 0.0000
# 6 0.0000 0.0000 0.0000 -6.1052 0.0000 29.7399
#
#
#
# Elastic Compliance Matrix: (Units=1/GPa)
#
#
# Indices 1 2 3 4 5 6 
#
# 1 0.036626 -0.006034 -0.004645 0.000000 -0.003077 0.000000
# 2 -0.006034 0.009605 -0.001316 0.000000 0.001326 0.000000
# 3 -0.004645 -0.001316 0.007035 0.000000 -0.000823 0.000000
# 4 0.000000 0.000000 0.000000 0.034631 0.000000 0.007109
# 5 -0.003077 0.001326 -0.000823 0.000000 0.029105 0.000000
# 6 0.000000 0.000000 0.000000 0.007109 0.000000 0.035084
#
#
# Mechanical properties :
#
#
# Convention : Reuss Voigt Hill
#
# Bulk Modulus (GPa) = 34.15544 57.79403 45.97474
# Shear Modulus (GPa) = 26.90564 34.70870 30.80717
#
# Velocity S-wave (km/s) = 3.44934 3.91772 3.69097
# Velocity P-wave (km/s) = 5.56488 6.78395 6.20442
#
# Compressibility (1/GPa) = 0.02927792
#
# Stress axis : x y z
#
# Youngs Moduli (GPa) = 27.30293 104.10716 142.14603
#
# Poissons Ratio (x) = 0.62813 0.66026
# Poissons Ratio (y) = 0.16473 0.18705
# Poissons Ratio (z) = 0.12682 0.13699
#
# Static dielectric constant tensor:
#      x y z
#    x 3.756700 0.000000 0.054520 
#    y 0.000000 4.339870 0.000000 
#    z 0.054520 0.000000 4.418840 
# 
# 
# High freq. dielectric constant tensor:
#      x y z
#    x 1.865970 0.000000 0.011250 
#    y 0.000000 1.899210 0.000000 
#    z 0.011250 0.000000 1.911300 
# 
# From -- ./inp_files/145995.got.cif
#   From: 2010.06.25/outbox.cif.g09.slc.cpg/sg15_73_cif.got.tgz:145995.got - 2010.06.28 07:06:18.
