data_PCOD8138800
_publ_section_title
;
Structure prediction by ZEFSAII (Michael W. Deem and Ramdas Pophale) SiO2 
 PCOD8138800
Probable space group: C 2/C
;
_chemical_formula_sum "Si O2"
_cell_formula_units_Z 64
_cell_length_a 19.562414
_cell_length_b 8.631879
_cell_length_c 23.804785
_cell_angle_alpha 90.000000
_cell_angle_beta 47.610503
_cell_angle_gamma 90.000000
_cell_volume 2968.854886
_symmetry_space_group_name_H-M "C 2/C"
_symmetry_group_IT_number 15
_symmetry_cell_setting 'monoclinic'
loop_
_space_group_symop_operation_xyz
x,y,z
-x,y,1/2-z
-x,-y,-z
x,-y,1/2+z
1/2+x,1/2+y,z
1/2-x,1/2+y,1/2-z
1/2-x,1/2-y,-z
1/2+x,1/2-y,1/2+z
loop_
_atom_site_type_symbol
_atom_site_label
_atom_site_fract_x
_atom_site_fract_y
_atom_site_fract_z
Si Si1 0.714729 0.517412 0.881312
Si Si2 0.621769 0.222652 0.955826
Si Si3 0.796025 0.939310 0.737095
Si Si4 0.321119 0.566931 0.838776
Si Si5 0.772586 0.309611 0.548845
Si Si6 0.431641 0.014535 0.422645
Si Si7 0.380680 0.883468 0.160560
Si Si8 0.897880 0.377673 0.822262
O O1 0.640770 0.405801 0.953544
O O2 0.682281 0.523029 0.834244
O O3 0.711451 0.681636 0.912590
O O4 0.820441 0.452056 0.824481
O O5 0.574839 0.178144 0.922495
O O6 0.722557 0.147975 0.895944
O O7 0.558394 0.165219 0.042490
O O8 0.850231 0.019687 0.758949
O O9 0.822672 0.756883 0.721785
O O10 0.686540 0.967565 0.809999
O O11 0.313714 0.416006 0.882940
O O12 0.395754 0.690089 0.820303
O O13 0.750000 0.250000 0.500000
O O14 0.869538 0.397022 0.492400
O O15 0.377403 0.064798 0.396697
O O16 0.531119 0.940682 0.352243
O O17 0.000000 0.435725 0.750000
#
# Coordination Sequence:
#
# PCOD8138800 Si02
#       8
#     8   8   8   8   8   8   8   8
#     4  10  20  38  64  90 120 160 212 248 318 376
#     4   8  19  36  62  84 115 160 201 249 294 374
#     4  10  20  40  65  87 122 164 202 264 311 369
#     4   9  21  38  59  86 116 160 211 244 313 370
#     4  11  22  38  59  90 126 167 200 257 323 370
#     4  11  22  38  60  87 128 159 205 258 307 374
#     4  10  20  38  61  93 120 160 209 249 316 371
#     4  11  23  39  58  88 116 162 210 253 302 378
#
# _framework density 21.557134999999999
#
# number of rings (size 3 to 8) (size 9 to 14) (size 15 to 20)
#    0.000    2.000    1.250    2.625    1.750    1.500 
#    2.250    5.625    0.000    0.000    0.000    0.000 
#    0.000    0.000    0.000    0.000    0.000    0.000 
#
# Total GULP energy -396589.778754 kJ/mol
# GULP energy per Si atom -12393.430586 kJ/mol
# Density = 2.150807 g / cm^3
# Si number density = 21.557135 Si / 1000 Ang^3
#
#
#
# Elastic Constant Matrix: (Units=GPa)
#
#
# Indices 1 2 3 4 5 6 
#
# 1 70.4700 30.5879 32.3135 -0.0001 7.0848 -0.0004
# 2 30.5879 109.5572 51.0935 -0.0007 2.3021 -0.0009
# 3 32.3135 51.0935 91.1439 0.0001 11.2932 0.0001
# 4 -0.0001 -0.0007 0.0001 32.8261 0.0001 4.1180
# 5 7.0848 2.3021 11.2932 0.0001 34.1349 -0.0002
# 6 -0.0004 -0.0009 0.0001 4.1180 -0.0002 28.5233
#
#
#
# Elastic Compliance Matrix: (Units=1/GPa)
#
#
# Indices 1 2 3 4 5 6 
#
# 1 0.017646 -0.002820 -0.004426 0.000000 -0.002008 0.000000
# 2 -0.002820 0.012886 -0.006453 0.000000 0.001851 0.000000
# 3 -0.004426 -0.006453 0.016674 0.000000 -0.004163 0.000000
# 4 0.000000 0.000000 0.000000 0.031025 0.000000 -0.004479
# 5 -0.002008 0.001851 -0.004163 0.000000 0.030965 0.000000
# 6 0.000000 0.000000 0.000000 -0.004479 0.000000 0.035706
#
#
# Mechanical properties :
#
#
# Convention : Reuss Voigt Hill
#
# Bulk Modulus (GPa) = 50.48782 55.46231 52.97507
# Shear Modulus (GPa) = 27.94815 29.57528 28.76171
#
# Velocity S-wave (km/s) = 3.60456 3.70800 3.65664
# Velocity P-wave (km/s) = 6.38710 6.64201 6.51580
#
# Compressibility (1/GPa) = 0.01980676
#
# Stress axis : x y z
#
# Youngs Moduli (GPa) = 56.66972 77.60632 59.97330
#
# Poissons Ratio (x) = 0.21887 0.26546
# Poissons Ratio (y) = 0.15982 0.38700
# Poissons Ratio (z) = 0.25084 0.50079
#
# Static dielectric constant tensor:
#      x y z
#    x 3.709060 0.000000 0.274120 
#    y 0.000000 4.271600 0.000000 
#    z 0.274120 0.000000 3.806590 
# 
# 
# High freq. dielectric constant tensor:
#      x y z
#    x 1.827310 0.000000 0.023010 
#    y 0.000000 1.848550 0.000000 
#    z 0.023010 0.000000 1.838480 
# 
# From -- ./inp_files/279556.got.cif
#   From: 2010.06.25/outbox.cif.g09.slc.cpg/sg15_140_cif.got.tgz:279556.got - 2010.06.28 07:06:18.
