data_PCOD8138485
_publ_section_title
;
Structure prediction by ZEFSAII (Michael W. Deem and Ramdas Pophale) SiO2 
 PCOD8138485
Probable space group: C 2/C
;
_chemical_formula_sum "Si O2"
_cell_formula_units_Z 40
_cell_length_a 12.285197
_cell_length_b 13.275094
_cell_length_c 12.256598
_cell_angle_alpha 90.000000
_cell_angle_beta 115.405924
_cell_angle_gamma 90.000000
_cell_volume 1805.582454
_symmetry_space_group_name_H-M "C 2/C"
_symmetry_group_IT_number 15
_symmetry_cell_setting 'monoclinic'
loop_
_space_group_symop_operation_xyz
x,y,z
-x,y,1/2-z
-x,-y,-z
x,-y,1/2+z
1/2+x,1/2+y,z
1/2-x,1/2+y,1/2-z
1/2-x,1/2-y,-z
1/2+x,1/2-y,1/2+z
loop_
_atom_site_type_symbol
_atom_site_label
_atom_site_fract_x
_atom_site_fract_y
_atom_site_fract_z
Si Si1 0.396483 0.209340 0.935544
Si Si2 0.620402 0.502652 0.855452
Si Si3 0.773352 0.378892 0.583470
Si Si4 0.715413 0.943551 0.263038
Si Si5 0.855698 0.184344 0.994211
O O1 0.289658 0.291861 0.870185
O O2 0.387740 0.126736 0.834443
O O3 0.532011 0.247917 0.992236
O O4 0.376340 0.162262 0.047257
O O5 0.500000 0.546146 0.750000
O O6 0.721508 0.496185 0.807008
O O7 0.597315 0.392079 0.893465
O O8 0.659709 0.578875 0.966763
O O9 0.835851 0.467993 0.680770
O O10 0.809608 0.874542 0.368551
O O11 0.750000 0.250000 0.000000
#
# Coordination Sequence:
#
# PCOD8138485 Si02
#       5
#     8   8   8   8   8
#     4  10  21  41  69  89 129 168 203 267 317 363
#     4  10  20  37  66  91 123 164 213 266 310 358
#     4   9  20  40  65  98 123 159 218 260 312 379
#     4  10  22  40  65  95 127 163 214 260 316 371
#     4  11  25  39  60  97 127 164 215 251 306 388
#
# _framework density 22.153516
#
# number of rings (size 3 to 8) (size 9 to 14) (size 15 to 20)
#    0.000    2.000    0.000    2.400    5.600    3.200 
#    0.000   11.000    0.000    0.000    0.000    0.000 
#    0.000    0.000    0.000    0.000    0.000    0.000 
#
# Total GULP energy -247980.614617 kJ/mol
# GULP energy per Si atom -12399.030731 kJ/mol
# Density = 2.210309 g / cm^3
# Si number density = 22.153516 Si / 1000 Ang^3
#
#
#
# Elastic Constant Matrix: (Units=GPa)
#
#
# Indices 1 2 3 4 5 6 
#
# 1 113.1386 60.5283 26.7912 0.0000 -4.0374 0.0000
# 2 60.5283 126.6808 41.4207 0.0000 -14.7850 0.0000
# 3 26.7912 41.4207 69.7813 0.0000 -17.4369 0.0000
# 4 0.0000 0.0000 0.0000 32.2808 0.0000 -9.1972
# 5 -4.0374 -14.7850 -17.4369 0.0000 16.7309 0.0000
# 6 0.0000 0.0000 0.0000 -9.1972 0.0000 37.8338
#
#
#
# Elastic Compliance Matrix: (Units=1/GPa)
#
#
# Indices 1 2 3 4 5 6 
#
# 1 0.012253 -0.005557 -0.002561 0.000000 -0.004623 0.000000
# 2 -0.005557 0.012470 -0.003853 0.000000 0.005662 0.000000
# 3 -0.002561 -0.003853 0.022440 0.000000 0.019363 0.000000
# 4 0.000000 0.000000 0.000000 0.033283 0.000000 0.008091
# 5 -0.004623 0.005662 0.019363 0.000000 0.083838 0.000000
# 6 0.000000 0.000000 0.000000 0.008091 0.000000 0.028398
#
#
# Mechanical properties :
#
#
# Convention : Reuss Voigt Hill
#
# Bulk Modulus (GPa) = 43.06674 63.00900 53.03787
# Shear Modulus (GPa) = 22.28524 29.42647 25.85585
#
# Velocity S-wave (km/s) = 3.17511 3.64854 3.42002
# Velocity P-wave (km/s) = 5.73795 6.80094 6.29193
#
# Compressibility (1/GPa) = 0.02321978
#
# Stress axis : x y z
#
# Youngs Moduli (GPa) = 81.61294 80.19491 44.56422
#
# Poissons Ratio (x) = 0.44561 0.11413
# Poissons Ratio (y) = 0.45349 0.17173
# Poissons Ratio (z) = 0.20902 0.30903
#
# Static dielectric constant tensor:
#      x y z
#    x 3.666920 0.000000 -0.239690 
#    y 0.000000 4.295990 0.000000 
#    z -0.239690 0.000000 4.172660 
# 
# 
# High freq. dielectric constant tensor:
#      x y z
#    x 1.853020 0.000000 -0.017560 
#    y 0.000000 1.884820 0.000000 
#    z -0.017560 0.000000 1.873520 
# 
# From -- ./inp_files/85981.got.cif
#   From: 2010.06.25/outbox.cif.g09.slc.cpg/sg15_43_cif.got.tgz:85981.got - 2010.06.28 07:06:18.
