data_PCOD8138571
_publ_section_title
;
Structure prediction by ZEFSAII (Michael W. Deem and Ramdas Pophale) SiO2 
 PCOD8138571
Probable space group: C 2/C
;
_chemical_formula_sum "Si O2"
_cell_formula_units_Z 56
_cell_length_a 29.257935
_cell_length_b 12.154978
_cell_length_c 16.630413
_cell_angle_alpha 90.000000
_cell_angle_beta 150.295099
_cell_angle_gamma 90.000000
_cell_volume 2930.713981
_symmetry_space_group_name_H-M "C 2/C"
_symmetry_group_IT_number 15
_symmetry_cell_setting 'monoclinic'
loop_
_space_group_symop_operation_xyz
x,y,z
-x,y,1/2-z
-x,-y,-z
x,-y,1/2+z
1/2+x,1/2+y,z
1/2-x,1/2+y,1/2-z
1/2-x,1/2-y,-z
1/2+x,1/2-y,1/2+z
loop_
_atom_site_type_symbol
_atom_site_label
_atom_site_fract_x
_atom_site_fract_y
_atom_site_fract_z
Si Si1 0.773038 0.858083 0.853342
Si Si2 0.605975 0.490429 0.575420
Si Si3 0.737852 0.992107 0.956753
Si Si4 0.418238 0.851976 0.233221
Si Si5 0.723011 0.887841 0.102433
Si Si6 0.116783 0.590816 0.996244
Si Si7 0.582690 0.393947 0.710702
O O1 0.806202 0.737152 0.928375
O O2 0.690799 0.847172 0.663853
O O3 0.860422 0.920140 0.949143
O O4 0.735132 0.923507 0.871501
O O5 0.677470 0.587429 0.706274
O O6 0.597766 0.408413 0.638615
O O7 0.509316 0.543108 0.402466
O O8 0.832918 0.058628 0.109229
O O9 0.726266 0.907840 0.012304
O O10 0.653440 0.077699 0.824096
O O11 0.517511 0.911421 0.386939
O O12 0.427780 0.733784 0.287609
O O13 0.383802 0.842130 0.088543
O O14 0.645899 0.964696 0.025579
#
# Coordination Sequence:
#
# PCOD8138571 Si02
#       7
#     8   8   8   8   8   8   8
#     4  11  21  36  58  81 109 147 183 225 271 325
#     4   9  21  37  57  85 111 140 185 227 274 331
#     4  10  22  35  54  83 112 146 188 218 267 338
#     4  10  20  38  59  81 110 145 180 227 276 320
#     4   9  19  39  55  77 116 146 174 228 279 317
#     4   9  21  36  56  84 109 138 185 227 270 326
#     4  10  20  38  58  81 114 144 176 231 281 320
#
# _framework density 19.107972
#
# number of rings (size 3 to 8) (size 9 to 14) (size 15 to 20)
#    0.000    2.286    0.000    2.571    0.000    8.000 
#    0.000   10.000    0.000    0.000    0.000    0.000 
#    0.000    0.000    0.000    0.000    0.000    0.000 
#
# Total GULP energy -347309.747325 kJ/mol
# GULP energy per Si atom -12403.919547 kJ/mol
# Density = 1.906448 g / cm^3
# Si number density = 19.107972 Si / 1000 Ang^3
#
#
#
# Elastic Constant Matrix: (Units=GPa)
#
#
# Indices 1 2 3 4 5 6 
#
# 1 95.6228 84.6798 41.9114 0.0000 5.8743 0.0000
# 2 84.6798 131.7309 46.5554 0.0000 5.6913 0.0000
# 3 41.9114 46.5554 56.5473 0.0000 16.4508 0.0000
# 4 0.0000 0.0000 0.0000 20.0232 0.0000 -2.5833
# 5 5.8743 5.6913 16.4508 0.0000 28.1340 0.0000
# 6 0.0000 0.0000 0.0000 -2.5833 0.0000 23.8368
#
#
#
# Elastic Compliance Matrix: (Units=1/GPa)
#
#
# Indices 1 2 3 4 5 6 
#
# 1 0.026730 -0.014151 -0.008881 0.000000 0.002474 0.000000
# 2 -0.014151 0.018509 -0.005448 0.000000 0.002396 0.000000
# 3 -0.008881 -0.005448 0.033609 0.000000 -0.016696 0.000000
# 4 0.000000 0.000000 0.000000 0.050650 0.000000 0.005489
# 5 0.002474 0.002396 -0.016696 0.000000 0.044305 0.000000
# 6 0.000000 0.000000 0.000000 0.005489 0.000000 0.042547
#
#
# Mechanical properties :
#
#
# Convention : Reuss Voigt Hill
#
# Bulk Modulus (GPa) = 45.68424 70.02157 57.85291
# Shear Modulus (GPa) = 17.81864 21.78243 19.80053
#
# Velocity S-wave (km/s) = 3.05704 3.38000 3.22257
# Velocity P-wave (km/s) = 6.03498 7.20814 6.64749
#
# Compressibility (1/GPa) = 0.02188938
#
# Stress axis : x y z
#
# Youngs Moduli (GPa) = 37.41182 54.02654 29.75415
#
# Poissons Ratio (x) = 0.76451 0.26424
# Poissons Ratio (y) = 0.52940 0.16209
# Poissons Ratio (z) = 0.33225 0.29432
#
# Static dielectric constant tensor:
#      x y z
#    x 3.609920 0.000000 0.101610 
#    y 0.000000 3.283410 0.000000 
#    z 0.101610 0.000000 3.538080 
# 
# 
# High freq. dielectric constant tensor:
#      x y z
#    x 1.750840 0.000000 0.006480 
#    y 0.000000 1.735620 0.000000 
#    z 0.006480 0.000000 1.744470 
# 
# From -- ./inp_files/177595.got.cif
#   From: 2010.06.25/outbox.cif.g09.slc.cpg/sg15_89_cif.got.tgz:177595.got - 2010.06.28 07:06:18.
