data_PCOD8138986
_publ_section_title
;
Structure prediction by ZEFSAII (Michael W. Deem and Ramdas Pophale) SiO2 
 PCOD8138986
Probable space group: C 2/C
;
_chemical_formula_sum "Si O2"
_cell_formula_units_Z 48
_cell_length_a 12.737201
_cell_length_b 18.289722
_cell_length_c 11.427285
_cell_angle_alpha 90.000000
_cell_angle_beta 117.411705
_cell_angle_gamma 90.000000
_cell_volume 2363.201924
_symmetry_space_group_name_H-M "C 2/C"
_symmetry_group_IT_number 15
_symmetry_cell_setting 'monoclinic'
loop_
_space_group_symop_operation_xyz
x,y,z
-x,y,1/2-z
-x,-y,-z
x,-y,1/2+z
1/2+x,1/2+y,z
1/2-x,1/2+y,1/2-z
1/2-x,1/2-y,-z
1/2+x,1/2-y,1/2+z
loop_
_atom_site_type_symbol
_atom_site_label
_atom_site_fract_x
_atom_site_fract_y
_atom_site_fract_z
Si Si1 0.545478 0.204921 0.458497
Si Si2 0.581556 0.278182 0.893120
Si Si3 0.500000 0.093170 0.250000
Si Si4 0.751824 0.111383 0.665473
Si Si5 0.000000 0.823136 0.250000
Si Si6 0.717462 0.139885 0.908080
Si Si7 0.383485 0.994496 0.021995
O O1 0.483246 0.228742 0.544573
O O2 0.466687 0.144920 0.344879
O O3 0.674512 0.171803 0.554919
O O4 0.556809 0.275920 0.383335
O O5 0.500000 0.311391 0.750000
O O6 0.668046 0.221761 0.872656
O O7 0.647184 0.348726 0.980695
O O8 0.602856 0.039271 0.348622
O O9 0.891277 0.127311 0.736825
O O10 0.709388 0.105010 0.776862
O O11 0.727901 0.031041 0.600472
O O12 0.645502 0.089360 0.962590
O O13 0.500000 0.000000 0.000000
#
# Coordination Sequence:
#
# PCOD8138986 Si02
#       7
#     8   8   4   8   4   8   8
#     4  10  20  38  63  94 127 164 208 266 315 379
#     4  11  22  39  64  95 125 160 209 261 324 374
#     4   9  20  34  62  96 125 158 210 258 315 372
#     4  11  22  40  64  92 127 169 213 262 321 377
#     4  11  22  40  60  92 133 164 216 256 323 382
#     4  11  23  39  63  94 124 163 210 263 315 380
#     4  11  23  40  64  94 126 167 216 265 320 384
#
# _framework density 20.311426000000001
#
# number of rings (size 3 to 8) (size 9 to 14) (size 15 to 20)
#    0.000    1.333    3.333    3.500    1.167    0.000 
#    1.500    4.167    0.000    0.000    0.000    0.000 
#    0.000    0.000    0.000    0.000    0.000    0.000 
#
# Total GULP energy -297415.664282 kJ/mol
# GULP energy per Si atom -12392.319345 kJ/mol
# Density = 2.026520 g / cm^3
# Si number density = 20.311426 Si / 1000 Ang^3
#
#
#
# Elastic Constant Matrix: (Units=GPa)
#
#
# Indices 1 2 3 4 5 6 
#
# 1 80.5771 22.7603 30.6938 0.0000 6.2899 0.0000
# 2 22.7603 75.8937 33.8700 0.0000 5.4892 0.0000
# 3 30.6938 33.8700 130.2575 0.0000 -1.3483 0.0000
# 4 0.0000 0.0000 0.0000 15.4145 0.0000 -3.0575
# 5 6.2899 5.4892 -1.3483 0.0000 28.2657 0.0000
# 6 0.0000 0.0000 0.0000 -3.0575 0.0000 31.8544
#
#
#
# Elastic Compliance Matrix: (Units=1/GPa)
#
#
# Indices 1 2 3 4 5 6 
#
# 1 0.014478 -0.002948 -0.002674 0.000000 -0.002777 0.000000
# 2 -0.002948 0.015779 -0.003435 0.000000 -0.002572 0.000000
# 3 -0.002674 -0.003435 0.009218 0.000000 0.001702 0.000000
# 4 0.000000 0.000000 0.000000 0.066133 0.000000 0.006348
# 5 -0.002777 -0.002572 0.001702 0.000000 0.036577 0.000000
# 6 0.000000 0.000000 0.000000 0.006348 0.000000 0.032002
#
#
# Mechanical properties :
#
#
# Convention : Reuss Voigt Hill
#
# Bulk Modulus (GPa) = 46.81156 51.26406 49.03781
# Shear Modulus (GPa) = 25.07241 28.40055 26.73648
#
# Velocity S-wave (km/s) = 3.51721 3.74338 3.63206
# Velocity P-wave (km/s) = 6.29216 6.63157 6.46409
#
# Compressibility (1/GPa) = 0.02136225
#
# Stress axis : x y z
#
# Youngs Moduli (GPa) = 69.06802 63.37376 108.48363
#
# Poissons Ratio (x) = 0.18682 0.29008
# Poissons Ratio (y) = 0.20360 0.37264
# Poissons Ratio (z) = 0.18468 0.21769
#
# Static dielectric constant tensor:
#      x y z
#    x 3.412780 0.000000 0.003570 
#    y 0.000000 3.641020 0.000000 
#    z 0.003570 0.000000 4.075560 
# 
# 
# High freq. dielectric constant tensor:
#      x y z
#    x 1.763870 0.000000 -0.013000 
#    y 0.000000 1.782310 0.000000 
#    z -0.013000 0.000000 1.815230 
# 
# From -- ./inp_files/87820.got.cif
#   From: 2010.06.25/outbox.cif.g09.slc.cpg/sg15_44_cif.got.tgz:87820.got - 2010.06.28 07:06:18.
