data_PCOD8138415
_publ_section_title
;
Structure prediction by ZEFSAII (Michael W. Deem and Ramdas Pophale) SiO2 
 PCOD8138415
Probable space group: C 2/C
;
_chemical_formula_sum "Si O2"
_cell_formula_units_Z 36
_cell_length_a 10.303420
_cell_length_b 10.301933
_cell_length_c 18.323983
_cell_angle_alpha 90.000000
_cell_angle_beta 106.894425
_cell_angle_gamma 90.000000
_cell_volume 1861.059138
_symmetry_space_group_name_H-M "C 2/C"
_symmetry_group_IT_number 15
_symmetry_cell_setting 'monoclinic'
loop_
_space_group_symop_operation_xyz
x,y,z
-x,y,1/2-z
-x,-y,-z
x,-y,1/2+z
1/2+x,1/2+y,z
1/2-x,1/2+y,1/2-z
1/2-x,1/2-y,-z
1/2+x,1/2-y,1/2+z
loop_
_atom_site_type_symbol
_atom_site_label
_atom_site_fract_x
_atom_site_fract_y
_atom_site_fract_z
Si Si1 0.658214 0.122829 0.996183
Si Si2 0.206028 0.223842 0.877187
Si Si3 0.000000 0.621078 0.250000
Si Si4 0.910683 0.519269 0.877309
Si Si5 0.129140 0.910119 0.503796
O O1 0.528233 0.119993 0.922062
O O2 0.741243 0.996708 0.989361
O O3 0.750000 0.250000 0.000000
O O4 0.604986 0.104943 0.070656
O O5 0.118237 0.290285 0.800865
O O6 0.270152 0.096917 0.850909
O O7 0.329590 0.318507 0.922024
O O8 0.108636 0.181485 0.929236
O O9 0.938610 0.529594 0.301445
O O10 0.000000 0.000000 0.500000
#
# Coordination Sequence:
#
# PCOD8138415 Si02
#       5
#     8   8   4   8   8
#     4  10  20  37  64  92 120 156 206 261 300 366
#     4  10  23  40  58  88 123 157 206 255 301 376
#     4  12  24  40  60  88 132 172 192 260 328 360
#     4  10  23  40  58  90 121 159 210 247 312 372
#     4  10  20  37  64  92 118 157 207 255 305 363
#
# _framework density 19.343823
#
# number of rings (size 3 to 8) (size 9 to 14) (size 15 to 20)
#    0.000    1.778    2.222    1.333    6.222    3.556 
#    0.000    0.000    0.000    0.000    0.000    0.000 
#    0.000    0.000    0.000    0.000    0.000    0.000 
#
# Total GULP energy -223141.847616 kJ/mol
# GULP energy per Si atom -12396.769312 kJ/mol
# Density = 1.929980 g / cm^3
# Si number density = 19.343823 Si / 1000 Ang^3
#
#
#
# Elastic Constant Matrix: (Units=GPa)
#
#
# Indices 1 2 3 4 5 6 
#
# 1 102.3196 49.1523 63.3696 0.0000 -3.3336 0.0000
# 2 49.1523 101.5874 62.7739 0.0000 -3.2748 0.0000
# 3 63.3696 62.7739 151.0105 0.0000 -5.6626 0.0000
# 4 0.0000 0.0000 0.0000 19.7649 0.0000 2.4643
# 5 -3.3336 -3.2748 -5.6626 0.0000 28.2203 0.0000
# 6 0.0000 0.0000 0.0000 2.4643 0.0000 60.3932
#
#
#
# Elastic Compliance Matrix: (Units=1/GPa)
#
#
# Indices 1 2 3 4 5 6 
#
# 1 0.014531 -0.004386 -0.004261 0.000000 0.000352 0.000000
# 2 -0.004386 0.014576 -0.004206 0.000000 0.000329 0.000000
# 3 -0.004261 -0.004206 0.010198 0.000000 0.001055 0.000000
# 4 0.000000 0.000000 0.000000 0.050853 0.000000 -0.002075
# 5 0.000352 0.000329 0.001055 0.000000 0.035727 0.000000
# 6 0.000000 0.000000 0.000000 -0.002075 0.000000 0.016643
#
#
# Mechanical properties :
#
#
# Convention : Reuss Voigt Hill
#
# Bulk Modulus (GPa) = 73.54071 78.38988 75.96530
# Shear Modulus (GPa) = 28.94065 33.65046 31.29556
#
# Velocity S-wave (km/s) = 3.87217 4.17537 4.02662
# Velocity P-wave (km/s) = 7.62180 7.99109 7.80862
#
# Compressibility (1/GPa) = 0.01359791
#
# Stress axis : x y z
#
# Youngs Moduli (GPa) = 68.81886 68.60784 98.05688
#
# Poissons Ratio (x) = 0.30093 0.41784
# Poissons Ratio (y) = 0.30185 0.41243
# Poissons Ratio (z) = 0.29325 0.28856
#
# Static dielectric constant tensor:
#      x y z
#    x 3.748800 0.000000 -0.100020 
#    y 0.000000 3.681770 0.000000 
#    z -0.100020 0.000000 3.401120 
# 
# 
# High freq. dielectric constant tensor:
#      x y z
#    x 1.763290 0.000000 -0.000790 
#    y 0.000000 1.763050 0.000000 
#    z -0.000790 0.000000 1.734030 
# 
# From -- ./inp_files/141399.got.cif
#   From: 2010.06.25/outbox.cif.g09.slc.cpg/sg15_71_cif.got.tgz:141399.got - 2010.06.28 07:06:18.
