data_PCOD8138021
_publ_section_title
;
Structure prediction by ZEFSAII (Michael W. Deem and Ramdas Pophale) SiO2 
 PCOD8138021
Probable space group: C 2/C
;
_chemical_formula_sum "Si O2"
_cell_formula_units_Z 64
_cell_length_a 15.200632
_cell_length_b 8.962307
_cell_length_c 23.186757
_cell_angle_alpha 90.000000
_cell_angle_beta 91.495816
_cell_angle_gamma 90.000000
_cell_volume 3157.718809
_symmetry_space_group_name_H-M "C 2/C"
_symmetry_group_IT_number 15
_symmetry_cell_setting 'monoclinic'
loop_
_space_group_symop_operation_xyz
x,y,z
-x,y,1/2-z
-x,-y,-z
x,-y,1/2+z
1/2+x,1/2+y,z
1/2-x,1/2+y,1/2-z
1/2-x,1/2-y,-z
1/2+x,1/2-y,1/2+z
loop_
_atom_site_type_symbol
_atom_site_label
_atom_site_fract_x
_atom_site_fract_y
_atom_site_fract_z
Si Si1 0.676725 0.285136 0.794297
Si Si2 0.830855 0.119428 0.844163
Si Si3 0.962442 0.790605 0.608297
Si Si4 0.045317 0.347253 0.513720
Si Si5 0.982145 0.861008 0.110677
Si Si6 0.273804 0.178899 0.440666
Si Si7 0.200231 0.064134 0.858822
Si Si8 0.643270 0.725587 0.165288
O O1 0.769821 0.193770 0.793360
O O2 0.610481 0.245083 0.845476
O O3 0.697636 0.462673 0.800871
O O4 0.628473 0.253307 0.733366
O O5 0.782658 0.177514 0.900341
O O6 0.934209 0.172429 0.845357
O O7 0.825366 0.942403 0.844726
O O8 0.054867 0.723791 0.631608
O O9 0.930483 0.726815 0.546939
O O10 0.980498 0.964009 0.598032
O O11 0.131090 0.396090 0.550631
O O12 0.000000 0.500000 0.500000
O O13 0.987280 0.234142 0.551797
O O14 0.887150 0.831501 0.138844
O O15 0.250000 0.250000 0.500000
O O16 0.207273 0.054224 0.413264
O O17 0.282972 0.169886 0.860106
#
# Coordination Sequence:
#
# PCOD8138021 Si02
#       8
#     8   8   8   8   8   8   8   8
#     4  10  20  38  58  78 108 148 184 225 278 328
#     4   9  20  36  57  81 109 145 183 224 277 332
#     4  10  21  37  57  80 107 146 189 223 269 334
#     4  11  21  35  55  82 114 144 177 227 280 328
#     4   9  20  37  56  79 112 147 182 222 271 334
#     4  10  20  37  57  79 111 151 183 220 280 340
#     4  10  21  36  57  84 111 143 189 230 269 329
#     4  11  21  36  56  83 110 140 186 239 271 311
#
# _framework density 20.267797000000002
#
# number of rings (size 3 to 8) (size 9 to 14) (size 15 to 20)
#    0.000    2.000    0.000    4.500    0.000    4.000 
#    0.000    3.750    0.000    0.000    0.000    1.750 
#    0.000    0.000    0.000    0.000    0.000    0.000 
#
# Total GULP energy -396451.790763 kJ/mol
# GULP energy per Si atom -12389.118461 kJ/mol
# Density = 2.022167 g / cm^3
# Si number density = 20.267797 Si / 1000 Ang^3
#
#
#
# Elastic Constant Matrix: (Units=GPa)
#
#
# Indices 1 2 3 4 5 6 
#
# 1 121.4288 31.1834 11.6458 0.0000 4.4445 0.0000
# 2 31.1834 51.6032 12.4676 0.0000 -9.1347 0.0000
# 3 11.6458 12.4676 60.9548 0.0000 4.2113 0.0000
# 4 0.0000 0.0000 0.0000 23.4955 0.0000 4.1999
# 5 4.4445 -9.1347 4.2113 0.0000 27.4338 0.0000
# 6 0.0000 0.0000 0.0000 4.1999 0.0000 37.3148
#
#
#
# Elastic Compliance Matrix: (Units=1/GPa)
#
#
# Indices 1 2 3 4 5 6 
#
# 1 0.010133 -0.006731 -0.000294 0.000000 -0.003838 0.000000
# 2 -0.006731 0.026512 -0.004874 0.000000 0.010666 0.000000
# 3 -0.000294 -0.004874 0.017756 0.000000 -0.004301 0.000000
# 4 0.000000 0.000000 0.000000 0.043435 0.000000 -0.004889
# 5 -0.003838 0.010666 -0.004301 0.000000 0.041285 0.000000
# 6 0.000000 0.000000 0.000000 -0.004889 0.000000 0.027349
#
#
# Mechanical properties :
#
#
# Convention : Reuss Voigt Hill
#
# Bulk Modulus (GPa) = 32.67701 38.28670 35.48186
# Shear Modulus (GPa) = 24.94160 29.56149 27.25155
#
# Velocity S-wave (km/s) = 3.51180 3.82323 3.67082
# Velocity P-wave (km/s) = 5.70975 6.19846 5.95912
#
# Compressibility (1/GPa) = 0.03060256
#
# Stress axis : x y z
#
# Youngs Moduli (GPa) = 98.69155 37.71882 56.31987
#
# Poissons Ratio (x) = 0.25390 0.01655
# Poissons Ratio (y) = 0.66433 0.27448
# Poissons Ratio (z) = 0.02901 0.18382
#
# Static dielectric constant tensor:
#      x y z
#    x 4.534700 0.000000 0.935560 
#    y 0.000000 3.692540 0.000000 
#    z 0.935560 0.000000 4.530720 
# 
# 
# High freq. dielectric constant tensor:
#      x y z
#    x 1.809440 0.000000 0.020620 
#    y 0.000000 1.776540 0.000000 
#    z 0.020620 0.000000 1.788200 
# 
# From -- ./inp_files/295184.got.cif
#   From: 2010.06.25/outbox.cif.g09.slc.cpg/sg15_148_cif.got.tgz:295184.got - 2010.06.28 07:06:18.
