data_PCOD8138866
_publ_section_title
;
Structure prediction by ZEFSAII (Michael W. Deem and Ramdas Pophale) SiO2 
 PCOD8138866
Probable space group: C 2/C
;
_chemical_formula_sum "Si O2"
_cell_formula_units_Z 60
_cell_length_a 22.184204
_cell_length_b 14.625878
_cell_length_c 15.749263
_cell_angle_alpha 90.000000
_cell_angle_beta 144.954978
_cell_angle_gamma 90.000000
_cell_volume 2934.298538
_symmetry_space_group_name_H-M "C 2/C"
_symmetry_group_IT_number 15
_symmetry_cell_setting 'monoclinic'
loop_
_space_group_symop_operation_xyz
x,y,z
-x,y,1/2-z
-x,-y,-z
x,-y,1/2+z
1/2+x,1/2+y,z
1/2-x,1/2+y,1/2-z
1/2-x,1/2-y,-z
1/2+x,1/2-y,1/2+z
loop_
_atom_site_type_symbol
_atom_site_label
_atom_site_fract_x
_atom_site_fract_y
_atom_site_fract_z
Si Si1 0.970644 0.566840 0.893116
Si Si2 0.257116 0.933991 0.221825
Si Si3 0.726544 0.843782 0.518362
Si Si4 0.877035 0.970620 0.587681
Si Si5 0.231210 0.787448 0.339301
Si Si6 0.816479 0.363916 0.846278
Si Si7 0.000000 0.572844 0.750000
Si Si8 0.619418 0.678843 0.874751
O O1 0.851850 0.601739 0.769406
O O2 0.990651 0.513727 0.825689
O O3 0.000000 0.500000 0.000000
O O4 0.057237 0.647587 0.993350
O O5 0.249200 0.868951 0.293905
O O6 0.283157 0.033018 0.287800
O O7 0.152943 0.933911 0.041989
O O8 0.750000 0.750000 0.500000
O O9 0.804786 0.922080 0.574712
O O10 0.746231 0.831984 0.642257
O O11 0.604120 0.865267 0.364286
O O12 0.000000 0.952463 0.750000
O O13 0.848440 0.077952 0.555910
O O14 0.208810 0.695645 0.263539
O O15 0.327374 0.762057 0.512229
O O16 0.137848 0.815858 0.294596
O O17 0.500000 0.698019 0.750000
#
# Coordination Sequence:
#
# PCOD8138866 Si02
#       8
#     8   8   8   8   8   8   4   8
#     4   9  20  37  62  91 126 163 212 276 336 388
#     4  11  21  42  66  98 131 168 224 277 338 403
#     4  11  23  40  63  94 131 176 220 271 340 401
#     4  11  23  44  67  96 139 182 219 275 340 416
#     4  11  23  42  70  96 128 178 222 281 331 396
#     4  10  22  40  61  97 129 164 223 278 328 397
#     4  10  20  38  62  88 130 168 214 280 328 400
#     4  10  24  46  68  97 135 178 228 273 337 408
#
# _framework density 20.447817000000001
#
# number of rings (size 3 to 8) (size 9 to 14) (size 15 to 20)
#    0.000    1.600    2.667    1.600    2.800    0.000 
#    2.400    2.000    7.333    0.000    0.000    0.000 
#    0.000    0.000    0.000    0.000    0.000    0.000 
#
# Total GULP energy -371689.582987 kJ/mol
# GULP energy per Si atom -12389.652766 kJ/mol
# Density = 2.040128 g / cm^3
# Si number density = 20.447817 Si / 1000 Ang^3
#
#
#
# Elastic Constant Matrix: (Units=GPa)
#
#
# Indices 1 2 3 4 5 6 
#
# 1 190.6557 61.0804 80.7804 0.0000 -16.9005 0.0000
# 2 61.0804 91.7627 40.4493 0.0000 -2.7867 0.0000
# 3 80.7804 40.4493 111.9134 0.0000 -6.0826 0.0000
# 4 0.0000 0.0000 0.0000 95.4112 0.0000 70.7293
# 5 -16.9005 -2.7867 -6.0826 0.0000 46.0821 0.0000
# 6 0.0000 0.0000 0.0000 70.7293 0.0000 131.6765
#
#
#
# Elastic Compliance Matrix: (Units=1/GPa)
#
#
# Indices 1 2 3 4 5 6 
#
# 1 0.008630 -0.003549 -0.004820 0.000000 0.002314 0.000000
# 2 -0.003549 0.014424 -0.002694 0.000000 -0.000785 0.000000
# 3 -0.004820 -0.002694 0.013380 0.000000 -0.000165 0.000000
# 4 0.000000 0.000000 0.000000 0.017416 0.000000 -0.009355
# 5 0.002314 -0.000785 -0.000165 0.000000 0.022480 0.000000
# 6 0.000000 0.000000 0.000000 -0.009355 0.000000 0.012619
#
#
# Mechanical properties :
#
#
# Convention : Reuss Voigt Hill
#
# Bulk Modulus (GPa) = 69.90153 84.32800 77.11477
# Shear Modulus (GPa) = 43.16158 68.76874 55.96516
#
# Velocity S-wave (km/s) = 4.59935 5.80554 5.23729
# Velocity P-wave (km/s) = 7.90347 9.28812 8.62363
#
# Compressibility (1/GPa) = 0.01430584
#
# Stress axis : x y z
#
# Youngs Moduli (GPa) = 115.88060 69.32991 74.73990
#
# Poissons Ratio (x) = 0.24605 0.36028
# Poissons Ratio (y) = 0.41126 0.20136
# Poissons Ratio (z) = 0.55859 0.18679
#
# Static dielectric constant tensor:
#      x y z
#    x 4.397590 0.000000 -0.011620 
#    y 0.000000 3.149050 0.000000 
#    z -0.011620 0.000000 4.066580 
# 
# 
# High freq. dielectric constant tensor:
#      x y z
#    x 1.820960 0.000000 -0.013220 
#    y 0.000000 1.778140 0.000000 
#    z -0.013220 0.000000 1.810400 
# 
# From -- ./inp_files/168658.got.cif
#   From: 2010.06.25/outbox.cif.g09.slc.cpg/sg15_85_cif.got.tgz:168658.got - 2010.06.28 07:06:18.
