data_PCOD8138025
_publ_section_title
;
Structure prediction by ZEFSAII (Michael W. Deem and Ramdas Pophale) SiO2 
 PCOD8138025
Probable space group: C 2/C
;
_chemical_formula_sum "Si O2"
_cell_formula_units_Z 56
_cell_length_a 9.456580
_cell_length_b 16.464825
_cell_length_c 20.495678
_cell_angle_alpha 90.000000
_cell_angle_beta 66.979448
_cell_angle_gamma 90.000000
_cell_volume 2937.064160
_symmetry_space_group_name_H-M "C 2/C"
_symmetry_group_IT_number 15
_symmetry_cell_setting 'monoclinic'
loop_
_space_group_symop_operation_xyz
x,y,z
-x,y,1/2-z
-x,-y,-z
x,-y,1/2+z
1/2+x,1/2+y,z
1/2-x,1/2+y,1/2-z
1/2-x,1/2-y,-z
1/2+x,1/2-y,1/2+z
loop_
_atom_site_type_symbol
_atom_site_label
_atom_site_fract_x
_atom_site_fract_y
_atom_site_fract_z
Si Si1 0.937426 0.117989 0.333920
Si Si2 0.113675 0.399572 0.671322
Si Si3 0.366868 0.106919 0.556957
Si Si4 0.894823 0.428945 0.591219
Si Si5 0.616054 0.275224 0.894398
Si Si6 0.614169 0.502098 0.391975
Si Si7 0.416690 0.380248 0.484448
O O1 0.753404 0.125761 0.366262
O O2 0.000000 0.108455 0.250000
O O3 0.005412 0.198751 0.355201
O O4 0.984174 0.040117 0.368834
O O5 0.219527 0.319766 0.643198
O O6 0.217945 0.479996 0.669878
O O7 0.000000 0.380791 0.750000
O O8 0.020759 0.417110 0.623367
O O9 0.529601 0.099452 0.490236
O O10 0.374945 0.178023 0.609701
O O11 0.228303 0.134030 0.535342
O O12 0.337385 0.022243 0.598816
O O13 0.546652 0.300802 0.978496
O O14 0.566591 0.408250 0.414268
O O15 0.626074 0.546536 0.459570
#
# Coordination Sequence:
#
# PCOD8138025 Si02
#       7
#     8   8   8   8   8   8   8
#     4  10  20  37  57  80 113 153 192 225 278 347
#     4  10  20  37  60  81 110 150 195 226 273 340
#     4  11  21  35  57  87 118 139 187 243 291 330
#     4  11  21  34  59  85 112 146 186 241 284 326
#     4  10  22  37  59  83 114 150 183 234 290 339
#     4   9  17  32  56  87 106 147 185 229 278 333
#     4   9  16  32  57  81 112 137 183 232 281 332
#
# _framework density 19.066659999999999
#
# number of rings (size 3 to 8) (size 9 to 14) (size 15 to 20)
#    0.000    2.286    4.286    2.143    0.000    0.571 
#    0.000    1.429    0.000    0.000    0.000    0.000 
#    0.000    0.000    0.000    0.000    0.000    0.000 
#
# Total GULP energy -346991.791008 kJ/mol
# GULP energy per Si atom -12392.563965 kJ/mol
# Density = 1.902326 g / cm^3
# Si number density = 19.066660 Si / 1000 Ang^3
#
#
#
# Elastic Constant Matrix: (Units=GPa)
#
#
# Indices 1 2 3 4 5 6 
#
# 1 91.0920 22.8513 25.6946 0.0000 -15.8058 0.0000
# 2 22.8513 73.5035 36.2763 0.0000 -3.6509 0.0000
# 3 25.6946 36.2763 77.5674 0.0000 -11.2286 0.0000
# 4 0.0000 0.0000 0.0000 11.1149 0.0000 -2.2760
# 5 -15.8058 -3.6509 -11.2286 0.0000 26.7155 0.0000
# 6 0.0000 0.0000 0.0000 -2.2760 0.0000 11.9870
#
#
#
# Elastic Compliance Matrix: (Units=1/GPa)
#
#
# Indices 1 2 3 4 5 6 
#
# 1 0.013446 -0.002765 -0.002198 0.000000 0.006654 0.000000
# 2 -0.002765 0.018288 -0.007999 0.000000 -0.002498 0.000000
# 3 -0.002198 -0.007999 0.018117 0.000000 0.005221 0.000000
# 4 0.000000 0.000000 0.000000 0.093609 0.000000 0.017774
# 5 0.006654 -0.002498 0.005221 0.000000 0.043221 0.000000
# 6 0.000000 0.000000 0.000000 0.017774 0.000000 0.086798
#
#
# Mechanical properties :
#
#
# Convention : Reuss Voigt Hill
#
# Bulk Modulus (GPa) = 41.79251 45.75637 43.77444
# Shear Modulus (GPa) = 16.26664 20.45284 18.35974
#
# Velocity S-wave (km/s) = 2.92403 3.27877 3.10647
# Velocity P-wave (km/s) = 5.77639 6.19548 5.98960
#
# Compressibility (1/GPa) = 0.02392774
#
# Stress axis : x y z
#
# Youngs Moduli (GPa) = 74.37178 54.68113 55.19821
#
# Poissons Ratio (x) = 0.15120 0.12131
# Poissons Ratio (y) = 0.20564 0.44150
# Poissons Ratio (z) = 0.16345 0.43737
#
# Static dielectric constant tensor:
#      x y z
#    x 3.583480 0.000000 -0.133180 
#    y 0.000000 3.343380 0.000000 
#    z -0.133180 0.000000 3.592380 
# 
# 
# High freq. dielectric constant tensor:
#      x y z
#    x 1.753210 0.000000 -0.000100 
#    y 0.000000 1.708510 0.000000 
#    z -0.000100 0.000000 1.725470 
# 
# From -- ./inp_files/265170.got.cif
#   From: 2010.06.25/outbox.cif.g09.slc.cpg/sg15_133_cif.got.tgz:265170.got - 2010.06.28 07:06:18.
