data_PCOD8138772
_publ_section_title
;
Structure prediction by ZEFSAII (Michael W. Deem and Ramdas Pophale) SiO2 
 PCOD8138772
Probable space group: C 2/C
;
_chemical_formula_sum "Si O2"
_cell_formula_units_Z 52
_cell_length_a 16.557807
_cell_length_b 13.121034
_cell_length_c 20.198669
_cell_angle_alpha 90.000000
_cell_angle_beta 147.430210
_cell_angle_gamma 90.000000
_cell_volume 2362.323667
_symmetry_space_group_name_H-M "C 2/C"
_symmetry_group_IT_number 15
_symmetry_cell_setting 'monoclinic'
loop_
_space_group_symop_operation_xyz
x,y,z
-x,y,1/2-z
-x,-y,-z
x,-y,1/2+z
1/2+x,1/2+y,z
1/2-x,1/2+y,1/2-z
1/2-x,1/2-y,-z
1/2+x,1/2-y,1/2+z
loop_
_atom_site_type_symbol
_atom_site_label
_atom_site_fract_x
_atom_site_fract_y
_atom_site_fract_z
Si Si1 0.270044 0.815252 0.867259
Si Si2 0.535967 0.820634 0.139621
Si Si3 0.000000 0.912979 0.750000
Si Si4 0.000000 0.252715 0.750000
Si Si5 0.791961 0.497606 0.791731
Si Si6 0.494567 0.419284 0.141289
Si Si7 0.773097 0.422799 0.635728
Si Si8 0.500000 0.089858 0.750000
O O1 0.191997 0.741814 0.758302
O O2 0.336116 0.915327 0.877471
O O3 0.142173 0.843508 0.831585
O O4 0.411077 0.765685 0.005702
O O5 0.463233 0.839658 0.161421
O O6 0.568951 0.929523 0.128587
O O7 0.952014 0.982138 0.654949
O O8 0.964315 0.182677 0.662273
O O9 0.859520 0.321434 0.673206
O O10 0.662619 0.571093 0.730493
O O11 0.749433 0.432145 0.697675
O O12 0.392373 0.415092 0.006665
O O13 0.854126 0.522319 0.663024
#
# Coordination Sequence:
#
# PCOD8138772 Si02
#       8
#     8   8   4   4   8   8   8   4
#     4  11  24  42  65  94 127 168 212 262 320 384
#     4  11  24  42  65  94 127 168 212 262 320 384
#     4   9  21  39  63  90 124 162 210 256 320 378
#     4  10  22  36  58  94 122 166 220 272 332 380
#     4  10  24  42  60  90 127 172 213 262 327 382
#     4  10  20  38  61  88 124 167 215 267 320 384
#     4  10  20  38  61  88 124 167 215 267 320 384
#     4   9  21  39  63  90 124 162 210 256 320 378
#
# _framework density 22.012225000000001
#
# number of rings (size 3 to 8) (size 9 to 14) (size 15 to 20)
#    0.000    1.846    0.000    2.769    2.154    8.615 
#    0.000    3.077    0.000    0.000    0.000    0.000 
#    0.000    0.000    0.000    0.000    0.000    0.000 
#
# Total GULP energy -322313.361220 kJ/mol
# GULP energy per Si atom -12396.667739 kJ/mol
# Density = 2.196212 g / cm^3
# Si number density = 22.012225 Si / 1000 Ang^3
#
#
#
# Elastic Constant Matrix: (Units=GPa)
#
#
# Indices 1 2 3 4 5 6 
#
# 1 97.3975 21.3447 17.1693 -0.0002 -16.0916 -0.0001
# 2 21.3447 70.9820 37.0541 -0.0007 -4.2354 -0.0004
# 3 17.1693 37.0541 152.7200 -0.0024 -21.5239 -0.0014
# 4 -0.0002 -0.0007 -0.0024 17.9607 -0.0011 0.4890
# 5 -16.0916 -4.2354 -21.5239 -0.0011 8.7273 -0.0006
# 6 -0.0001 -0.0004 -0.0014 0.4890 -0.0006 31.4619
#
#
#
# Elastic Compliance Matrix: (Units=1/GPa)
#
#
# Indices 1 2 3 4 5 6 
#
# 1 0.017713 -0.005601 0.005499 0.000003 0.043502 0.000001
# 2 -0.005601 0.017947 -0.006059 -0.000001 -0.016560 0.000000
# 3 0.005499 -0.006059 0.012897 0.000004 0.039006 0.000001
# 4 0.000003 -0.000001 0.000004 0.055701 0.000022 -0.000866
# 5 0.043502 -0.016560 0.039006 0.000022 0.282954 0.000007
# 6 0.000001 0.000000 0.000001 -0.000866 0.000007 0.031798
#
#
# Mechanical properties :
#
#
# Convention : Reuss Voigt Hill
#
# Bulk Modulus (GPa) = 27.59779 52.47063 40.03421
# Shear Modulus (GPa) = 11.27625 27.99873 19.63749
#
# Velocity S-wave (km/s) = 2.26580 3.57033 2.99007
# Velocity P-wave (km/s) = 4.40566 6.39415 5.49067
#
# Compressibility (1/GPa) = 0.03623479
#
# Stress axis : x y z
#
# Youngs Moduli (GPa) = 56.45717 55.71972 77.53653
#
# Poissons Ratio (x) = 0.31209 -0.42635
# Poissons Ratio (y) = 0.31622 0.46976
# Poissons Ratio (z) = -0.31044 0.33758
#
# Static dielectric constant tensor:
#      x y z
#    x 4.068180 0.000000 -0.175220 
#    y 0.000000 4.110290 0.000000 
#    z -0.175220 0.000000 3.758270 
# 
# 
# High freq. dielectric constant tensor:
#      x y z
#    x 1.876500 0.000000 -0.009090 
#    y 0.000000 1.865290 0.000000 
#    z -0.009090 0.000000 1.855780 
# 
# From -- ./inp_files/249143.got.cif
#   From: 2010.06.25/outbox.cif.g09.slc.cpg/sg15_125_cif.got.tgz:249143.got - 2010.06.28 07:06:18.
