data_PCOD8138100
_publ_section_title
;
Structure prediction by ZEFSAII (Michael W. Deem and Ramdas Pophale) SiO2 
 PCOD8138100
Probable space group: C 2/C
;
_chemical_formula_sum "Si O2"
_cell_formula_units_Z 56
_cell_length_a 25.466991
_cell_length_b 11.805032
_cell_length_c 20.852621
_cell_angle_alpha 90.000000
_cell_angle_beta 155.206440
_cell_angle_gamma 90.000000
_cell_volume 2628.948925
_symmetry_space_group_name_H-M "C 2/C"
_symmetry_group_IT_number 15
_symmetry_cell_setting 'monoclinic'
loop_
_space_group_symop_operation_xyz
x,y,z
-x,y,1/2-z
-x,-y,-z
x,-y,1/2+z
1/2+x,1/2+y,z
1/2-x,1/2+y,1/2-z
1/2-x,1/2-y,-z
1/2+x,1/2-y,1/2+z
loop_
_atom_site_type_symbol
_atom_site_label
_atom_site_fract_x
_atom_site_fract_y
_atom_site_fract_z
Si Si1 0.541111 0.940916 0.641107
Si Si2 0.116161 0.219476 0.530691
Si Si3 0.024410 0.000232 0.853503
Si Si4 0.914461 0.411416 0.101361
Si Si5 0.770739 0.088546 0.576932
Si Si6 0.219299 0.821669 0.551779
Si Si7 0.398618 0.840652 0.368569
O O1 0.642304 0.847681 0.770738
O O2 0.437947 0.879579 0.482893
O O3 0.481348 0.984812 0.640106
O O4 0.607759 0.048189 0.682111
O O5 0.074679 0.111442 0.444046
O O6 0.138751 0.320755 0.506195
O O7 0.255854 0.207243 0.716271
O O8 0.005043 0.253619 0.457788
O O9 0.000000 0.977741 0.750000
O O10 0.899164 0.042402 0.750086
O O11 0.118614 0.102074 0.976668
O O12 0.000000 0.351084 0.250000
O O13 0.806052 0.474175 0.020353
O O14 0.803693 0.148827 0.547455
O O15 0.702780 0.185848 0.544881
#
# Coordination Sequence:
#
# PCOD8138100 Si02
#       7
#     8   8   8   8   8   8   8
#     4  10  21  41  62  86 121 170 209 252 322 371
#     4  11  22  41  64  95 128 167 216 265 314 381
#     4  10  21  37  60  91 129 166 202 261 329 376
#     4  11  22  37  64  95 128 163 208 265 320 387
#     4  10  22  35  58  94 124 158 209 255 310 389
#     4  10  20  37  59  84 125 165 201 257 316 370
#     4  10  23  41  65  88 125 171 215 260 307 382
#
# _framework density 21.301286999999999
#
# number of rings (size 3 to 8) (size 9 to 14) (size 15 to 20)
#    0.000    1.714    2.857    1.286    2.000    1.714 
#    0.000    4.286    0.000    5.143    0.000    0.000 
#    0.000    0.000    0.000    0.000    0.000    0.000 
#
# Total GULP energy -346903.496318 kJ/mol
# GULP energy per Si atom -12389.410583 kJ/mol
# Density = 2.125280 g / cm^3
# Si number density = 21.301287 Si / 1000 Ang^3
#
#
#
# Elastic Constant Matrix: (Units=GPa)
#
#
# Indices 1 2 3 4 5 6 
#
# 1 40.2043 11.0656 20.7465 0.0000 0.9369 0.0000
# 2 11.0656 63.2066 39.5105 0.0000 13.6827 0.0001
# 3 20.7465 39.5105 132.6823 0.0001 12.1120 0.0001
# 4 0.0000 0.0000 0.0001 38.4394 0.0000 5.3840
# 5 0.9369 13.6827 12.1120 0.0000 24.1182 0.0001
# 6 0.0000 0.0001 0.0001 5.3840 0.0001 25.6712
#
#
#
# Elastic Compliance Matrix: (Units=1/GPa)
#
#
# Indices 1 2 3 4 5 6 
#
# 1 0.027532 -0.003107 -0.003609 0.000000 0.002505 0.000000
# 2 -0.003107 0.021614 -0.005075 0.000000 -0.009593 0.000000
# 3 -0.003609 -0.005075 0.009785 0.000000 -0.001895 0.000000
# 4 0.000000 0.000000 0.000000 0.026802 0.000000 -0.005621
# 5 0.002505 -0.009593 -0.001895 0.000000 0.047759 0.000000
# 6 0.000000 0.000000 0.000000 -0.005621 0.000000 0.040133
#
#
# Mechanical properties :
#
#
# Convention : Reuss Voigt Hill
#
# Bulk Modulus (GPa) = 28.28780 42.08205 35.18492
# Shear Modulus (GPa) = 23.92478 28.63048 26.27763
#
# Velocity S-wave (km/s) = 3.35500 3.67014 3.51610
# Velocity P-wave (km/s) = 5.32134 6.14479 5.74783
#
# Compressibility (1/GPa) = 0.03535093
#
# Stress axis : x y z
#
# Youngs Moduli (GPa) = 36.32175 46.26664 102.19518
#
# Poissons Ratio (x) = 0.14373 0.36877
# Poissons Ratio (y) = 0.11284 0.51862
# Poissons Ratio (z) = 0.13107 0.23479
#
# Static dielectric constant tensor:
#      x y z
#    x 3.721290 0.000000 0.202820 
#    y 0.000000 4.029430 0.000000 
#    z 0.202820 0.000000 3.964010 
# 
# 
# High freq. dielectric constant tensor:
#      x y z
#    x 1.809070 0.000000 0.007720 
#    y 0.000000 1.844960 0.000000 
#    z 0.007720 0.000000 1.846980 
# 
# From -- ./inp_files/284645.got.cif
#   From: 2010.06.25/outbox.cif.g09.slc.cpg/sg15_143_cif.got.tgz:284645.got - 2010.06.28 07:06:18.
