data_PCOD8138273
_publ_section_title
;
Structure prediction by ZEFSAII (Michael W. Deem and Ramdas Pophale) SiO2 
 PCOD8138273
Probable space group: C 2/C
;
_chemical_formula_sum "Si O2"
_cell_formula_units_Z 52
_cell_length_a 20.280461
_cell_length_b 11.629705
_cell_length_c 13.096829
_cell_angle_alpha 90.000000
_cell_angle_beta 126.830022
_cell_angle_gamma 90.000000
_cell_volume 2472.459522
_symmetry_space_group_name_H-M "C 2/C"
_symmetry_group_IT_number 15
_symmetry_cell_setting 'monoclinic'
loop_
_space_group_symop_operation_xyz
x,y,z
-x,y,1/2-z
-x,-y,-z
x,-y,1/2+z
1/2+x,1/2+y,z
1/2-x,1/2+y,1/2-z
1/2-x,1/2-y,-z
1/2+x,1/2-y,1/2+z
loop_
_atom_site_type_symbol
_atom_site_label
_atom_site_fract_x
_atom_site_fract_y
_atom_site_fract_z
Si Si1 0.761979 0.349567 0.306820
Si Si2 0.609675 0.314198 0.505407
Si Si3 0.249513 0.200254 0.390137
Si Si4 0.881951 0.558832 0.425246
Si Si5 0.500000 0.563559 0.750000
Si Si6 0.374339 0.481517 0.788780
Si Si7 0.499818 0.891235 0.629029
O O1 0.800088 0.250763 0.419582
O O2 0.779976 0.299128 0.212621
O O3 0.810571 0.467163 0.351042
O O4 0.666845 0.389885 0.236551
O O5 0.577578 0.363826 0.367249
O O6 0.609525 0.416886 0.588361
O O7 0.545549 0.212233 0.473875
O O8 0.250000 0.250000 0.500000
O O9 0.342437 0.167698 0.444558
O O10 0.187050 0.093922 0.335652
O O11 0.956109 0.512600 0.563961
O O12 0.909720 0.598454 0.337071
O O13 0.460626 0.491565 0.807219
O O14 0.500000 0.869006 0.750000
#
# Coordination Sequence:
#
# PCOD8138273 Si02
#       7
#     8   8   8   8   4   8   8
#     4   9  21  42  62  84 128 160 207 264 300 371
#     4  10  22  41  61  93 124 162 212 253 312 375
#     4  10  22  38  62  89 117 164 212 249 313 368
#     4   9  21  38  58  89 122 160 204 260 307 359
#     4  12  24  38  64  92 130 168 200 256 320 386
#     4  10  24  42  60  93 126 165 207 263 312 365
#     4  10  20  37  62  88 123 162 205 254 312 373
#
# _framework density 21.031689
#
# number of rings (size 3 to 8) (size 9 to 14) (size 15 to 20)
#    0.000    2.154    0.769    0.462    6.462    1.846 
#    0.000    0.000    0.000    0.000    0.000    0.000 
#    0.000    0.000    0.000    0.000    0.000    0.000 
#
# Total GULP energy -322098.508165 kJ/mol
# GULP energy per Si atom -12388.404160 kJ/mol
# Density = 2.098382 g / cm^3
# Si number density = 21.031689 Si / 1000 Ang^3
#
#
#
# Elastic Constant Matrix: (Units=GPa)
#
#
# Indices 1 2 3 4 5 6 
#
# 1 115.9474 34.0174 36.0098 0.0000 -12.7014 0.0000
# 2 34.0174 70.3209 45.9784 0.0000 -11.0104 0.0000
# 3 36.0098 45.9784 114.7748 0.0000 -5.2456 0.0000
# 4 0.0000 0.0000 0.0000 26.6391 0.0000 -3.8612
# 5 -12.7014 -11.0104 -5.2456 0.0000 20.3761 0.0000
# 6 0.0000 0.0000 0.0000 -3.8612 0.0000 15.1268
#
#
#
# Elastic Compliance Matrix: (Units=1/GPa)
#
#
# Indices 1 2 3 4 5 6 
#
# 1 0.010630 -0.003258 -0.001829 0.000000 0.004395 0.000000
# 2 -0.003258 0.021849 -0.007370 0.000000 0.007878 0.000000
# 3 -0.001829 -0.007370 0.012148 0.000000 -0.001995 0.000000
# 4 0.000000 0.000000 0.000000 0.038981 0.000000 0.009950
# 5 0.004395 0.007878 -0.001995 0.000000 0.055560 0.000000
# 6 0.000000 0.000000 0.000000 0.009950 0.000000 0.068648
#
#
# Mechanical properties :
#
#
# Convention : Reuss Voigt Hill
#
# Bulk Modulus (GPa) = 50.73101 59.22825 54.97963
# Shear Modulus (GPa) = 20.89411 24.76422 22.82916
#
# Velocity S-wave (km/s) = 3.15534 3.43515 3.29821
# Velocity P-wave (km/s) = 6.11951 6.62995 6.37984
#
# Compressibility (1/GPa) = 0.01971181
#
# Stress axis : x y z
#
# Youngs Moduli (GPa) = 94.07371 45.76816 82.31868
#
# Poissons Ratio (x) = 0.14912 0.15056
# Poissons Ratio (y) = 0.30652 0.60672
# Poissons Ratio (z) = 0.17206 0.33733
#
# Static dielectric constant tensor:
#      x y z
#    x 3.696330 0.000000 0.177120 
#    y 0.000000 4.405670 0.000000 
#    z 0.177120 0.000000 3.723950 
# 
# 
# High freq. dielectric constant tensor:
#      x y z
#    x 1.812520 0.000000 0.011130 
#    y 0.000000 1.831770 0.000000 
#    z 0.011130 0.000000 1.816630 
# 
# From -- ./inp_files/111737.got.cif
#   From: 2010.06.25/outbox.cif.g09.slc.cpg/sg15_56_cif.got.tgz:111737.got - 2010.06.28 07:06:18.
