data_PCOD8138946
_publ_section_title
;
Structure prediction by ZEFSAII (Michael W. Deem and Ramdas Pophale) SiO2 
 PCOD8138946
Probable space group: C 2/C
;
_chemical_formula_sum "Si O2"
_cell_formula_units_Z 48
_cell_length_a 13.479612
_cell_length_b 13.344288
_cell_length_c 14.449390
_cell_angle_alpha 90.000000
_cell_angle_beta 102.896418
_cell_angle_gamma 90.000000
_cell_volume 2533.534135
_symmetry_space_group_name_H-M "C 2/C"
_symmetry_group_IT_number 15
_symmetry_cell_setting 'monoclinic'
loop_
_space_group_symop_operation_xyz
x,y,z
-x,y,1/2-z
-x,-y,-z
x,-y,1/2+z
1/2+x,1/2+y,z
1/2-x,1/2+y,1/2-z
1/2-x,1/2-y,-z
1/2+x,1/2-y,1/2+z
loop_
_atom_site_type_symbol
_atom_site_label
_atom_site_fract_x
_atom_site_fract_y
_atom_site_fract_z
Si Si1 0.000000 0.527182 0.250000
Si Si2 0.743852 0.652670 0.437573
Si Si3 0.241996 0.651125 0.441829
Si Si4 0.000000 0.860477 0.250000
Si Si5 0.410832 0.991340 0.051843
Si Si6 0.841709 0.309890 0.765493
Si Si7 0.914561 0.013642 0.559018
O O1 0.950471 0.455756 0.161476
O O2 0.916958 0.595617 0.284751
O O3 0.750000 0.750000 0.500000
O O4 0.829022 0.582531 0.496406
O O5 0.770949 0.688695 0.340600
O O6 0.635935 0.592788 0.419889
O O7 0.250000 0.750000 0.500000
O O8 0.133581 0.602547 0.444035
O O9 0.240661 0.679289 0.333567
O O10 0.332687 0.578483 0.487032
O O11 0.092657 0.792505 0.230423
O O12 0.041906 0.930094 0.341555
O O13 0.500000 0.000000 0.000000
O O14 0.000000 0.000000 0.500000
#
# Coordination Sequence:
#
# PCOD8138946 Si02
#       7
#     4   8   8   4   8   8   8
#     4   9  18  36  63  90 114 158 197 246 305 362
#     4  11  24  42  60  90 127 165 202 260 312 362
#     4  10  21  40  60  94 121 162 209 252 303 370
#     4  11  22  40  67  92 118 170 207 256 321 374
#     4  10  20  38  63  88 121 155 204 257 302 363
#     4  10  20  38  66  87 122 160 205 251 310 371
#     4  11  25  41  63  92 130 168 210 258 309 376
#
# _framework density 18.945868000000001
#
# number of rings (size 3 to 8) (size 9 to 14) (size 15 to 20)
#    0.000    1.667    3.333    1.000    2.333    1.333 
#    6.000    0.833    0.000    0.000    0.000    0.000 
#    0.000    0.000    0.000    0.000    0.000    0.000 
#
# Total GULP energy -297490.163638 kJ/mol
# GULP energy per Si atom -12395.423485 kJ/mol
# Density = 1.890275 g / cm^3
# Si number density = 18.945868 Si / 1000 Ang^3
#
#
#
# Elastic Constant Matrix: (Units=GPa)
#
#
# Indices 1 2 3 4 5 6 
#
# 1 109.2137 39.5003 70.3944 0.0000 -19.3271 0.0000
# 2 39.5003 89.3956 61.6059 0.0000 -10.9411 0.0000
# 3 70.3944 61.6059 177.3041 0.0000 -6.4823 0.0000
# 4 0.0000 0.0000 0.0000 35.5980 0.0000 1.3620
# 5 -19.3271 -10.9411 -6.4823 0.0000 42.4412 0.0000
# 6 0.0000 0.0000 0.0000 1.3620 0.0000 18.2187
#
#
#
# Elastic Compliance Matrix: (Units=1/GPa)
#
#
# Indices 1 2 3 4 5 6 
#
# 1 0.013777 -0.002412 -0.004450 0.000000 0.004972 0.000000
# 2 -0.002412 0.015528 -0.004356 0.000000 0.002239 0.000000
# 3 -0.004450 -0.004356 0.008854 0.000000 -0.001797 0.000000
# 4 0.000000 0.000000 0.000000 0.028172 0.000000 -0.002106
# 5 0.004972 0.002239 -0.001797 0.000000 0.026129 0.000000
# 6 0.000000 0.000000 0.000000 -0.002106 0.000000 0.055046
#
#
# Mechanical properties :
#
#
# Convention : Reuss Voigt Hill
#
# Bulk Modulus (GPa) = 63.59887 79.87941 71.73914
# Shear Modulus (GPa) = 28.54153 32.87910 30.71031
#
# Velocity S-wave (km/s) = 3.88555 4.17036 4.03047
# Velocity P-wave (km/s) = 7.33291 8.08966 7.72056
#
# Compressibility (1/GPa) = 0.01572355
#
# Stress axis : x y z
#
# Youngs Moduli (GPa) = 72.58496 64.40033 112.93769
#
# Poissons Ratio (x) = 0.15536 0.50255
# Poissons Ratio (y) = 0.17510 0.49192
# Poissons Ratio (z) = 0.32299 0.28051
#
# Static dielectric constant tensor:
#      x y z
#    x 3.611980 0.000000 0.054650 
#    y 0.000000 3.472990 0.000000 
#    z 0.054650 0.000000 3.714720 
# 
# 
# High freq. dielectric constant tensor:
#      x y z
#    x 1.738220 0.000000 0.007440 
#    y 0.000000 1.728370 0.000000 
#    z 0.007440 0.000000 1.758570 
# 
# From -- ./inp_files/96496.got.cif
#   From: 2010.06.25/outbox.cif.g09.slc.cpg/sg15_49_cif.got.tgz:96496.got - 2010.06.28 07:06:18.
