data_PCOD8138420
_publ_section_title
;
Structure prediction by ZEFSAII (Michael W. Deem and Ramdas Pophale) SiO2 
 PCOD8138420
Probable space group: C 2/C
;
_chemical_formula_sum "Si O2"
_cell_formula_units_Z 36
_cell_length_a 20.291039
_cell_length_b 15.171331
_cell_length_c 8.708929
_cell_angle_alpha 90.000000
_cell_angle_beta 40.753289
_cell_angle_gamma 90.000000
_cell_volume 1750.148981
_symmetry_space_group_name_H-M "C 2/C"
_symmetry_group_IT_number 15
_symmetry_cell_setting 'monoclinic'
loop_
_space_group_symop_operation_xyz
x,y,z
-x,y,1/2-z
-x,-y,-z
x,-y,1/2+z
1/2+x,1/2+y,z
1/2-x,1/2+y,1/2-z
1/2-x,1/2-y,-z
1/2+x,1/2-y,1/2+z
loop_
_atom_site_type_symbol
_atom_site_label
_atom_site_fract_x
_atom_site_fract_y
_atom_site_fract_z
Si Si1 0.901553 0.389002 0.652757
Si Si2 0.823917 0.082364 0.910964
Si Si3 0.907972 0.940678 0.591799
Si Si4 0.023520 0.198060 0.034793
Si Si5 0.000000 0.478536 0.750000
O O1 0.965476 0.302353 0.501031
O O2 0.930414 0.464058 0.482541
O O3 0.926107 0.416667 0.782725
O O4 0.781546 0.376171 0.849283
O O5 0.874422 0.153227 0.707745
O O6 0.810496 0.988962 0.841850
O O7 0.896492 0.062712 0.928724
O O8 0.926656 0.839551 0.611240
O O9 0.000000 0.000000 0.500000
O O10 0.000000 0.171761 0.250000
#
# Coordination Sequence:
#
# PCOD8138420 Si02
#       5
#     8   8   8   8   4
#     4  11  23  43  64  90 122 162 214 253 310 369
#     4  11  22  39  65  95 123 162 208 257 303 374
#     4  10  20  37  64  93 125 162 201 249 316 366
#     4  11  22  39  61  91 130 161 199 255 311 369
#     4  10  24  42  66  82 120 170 202 256 316 376
#
# _framework density 20.569676999999999
#
# number of rings (size 3 to 8) (size 9 to 14) (size 15 to 20)
#    0.000    1.333    1.111    7.333    3.111    0.000 
#    0.000    1.111    0.000    0.000    0.000    0.000 
#    0.000    0.000    0.000    0.000    0.000    0.000 
#
# Total GULP energy -223094.873774 kJ/mol
# GULP energy per Si atom -12394.159654 kJ/mol
# Density = 2.052286 g / cm^3
# Si number density = 20.569677 Si / 1000 Ang^3
#
#
#
# Elastic Constant Matrix: (Units=GPa)
#
#
# Indices 1 2 3 4 5 6 
#
# 1 110.6454 38.0492 49.6471 0.0000 24.8672 0.0000
# 2 38.0492 78.6713 17.9641 0.0000 6.5413 0.0000
# 3 49.6471 17.9641 85.1289 0.0000 21.2171 0.0000
# 4 0.0000 0.0000 0.0000 31.3432 0.0000 0.5456
# 5 24.8672 6.5413 21.2171 0.0000 32.5352 0.0000
# 6 0.0000 0.0000 0.0000 0.5456 0.0000 21.6437
#
#
#
# Elastic Compliance Matrix: (Units=1/GPa)
#
#
# Indices 1 2 3 4 5 6 
#
# 1 0.015043 -0.005360 -0.006024 0.000000 -0.006492 0.000000
# 2 -0.005360 0.015293 -0.000425 0.000000 0.001299 0.000000
# 3 -0.006024 -0.000425 0.016933 0.000000 -0.006353 0.000000
# 4 0.000000 0.000000 0.000000 0.031919 0.000000 -0.000805
# 5 -0.006492 0.001299 -0.006353 0.000000 0.039579 0.000000
# 6 0.000000 0.000000 0.000000 -0.000805 0.000000 0.046223
#
#
# Mechanical properties :
#
#
# Convention : Reuss Voigt Hill
#
# Bulk Modulus (GPa) = 42.28237 53.97404 48.12820
# Shear Modulus (GPa) = 25.44633 28.35677 26.90155
#
# Velocity S-wave (km/s) = 3.52103 3.71694 3.62031
# Velocity P-wave (km/s) = 6.09348 6.68711 6.39718
#
# Compressibility (1/GPa) = 0.02365052
#
# Stress axis : x y z
#
# Youngs Moduli (GPa) = 66.47517 65.39127 59.05574
#
# Poissons Ratio (x) = 0.35052 0.35576
# Poissons Ratio (y) = 0.35633 0.02509
# Poissons Ratio (z) = 0.40045 0.02778
#
# Static dielectric constant tensor:
#      x y z
#    x 3.721910 0.000000 0.153610 
#    y 0.000000 3.962900 0.000000 
#    z 0.153610 0.000000 3.834300 
# 
# 
# High freq. dielectric constant tensor:
#      x y z
#    x 1.798100 0.000000 0.022510 
#    y 0.000000 1.802160 0.000000 
#    z 0.022510 0.000000 1.811110 
# 
# From -- ./inp_files/37584.got.cif
#   From: 2010.06.25/outbox.cif.g09.slc.cpg/sg15_19_cif.got.tgz:37584.got - 2010.06.28 07:06:18.
