data_PCOD8138325
_publ_section_title
;
Structure prediction by ZEFSAII (Michael W. Deem and Ramdas Pophale) SiO2 
 PCOD8138325
Probable space group: C 2/C
;
_chemical_formula_sum "Si O2"
_cell_formula_units_Z 60
_cell_length_a 20.080558
_cell_length_b 10.464281
_cell_length_c 24.222572
_cell_angle_alpha 90.000000
_cell_angle_beta 33.350431
_cell_angle_gamma 90.000000
_cell_volume 2798.189989
_symmetry_space_group_name_H-M "C 2/C"
_symmetry_group_IT_number 15
_symmetry_cell_setting 'monoclinic'
loop_
_space_group_symop_operation_xyz
x,y,z
-x,y,1/2-z
-x,-y,-z
x,-y,1/2+z
1/2+x,1/2+y,z
1/2-x,1/2+y,1/2-z
1/2-x,1/2-y,-z
1/2+x,1/2-y,1/2+z
loop_
_atom_site_type_symbol
_atom_site_label
_atom_site_fract_x
_atom_site_fract_y
_atom_site_fract_z
Si Si1 0.932744 0.826240 0.981511
Si Si2 0.209136 0.162888 0.312278
Si Si3 0.263689 0.624600 0.694607
Si Si4 0.545987 0.095607 0.772552
Si Si5 0.000000 0.842746 0.250000
Si Si6 0.691415 0.139906 0.503618
Si Si7 0.299179 0.852970 0.869795
Si Si8 0.878226 0.020710 0.924110
O O1 0.071180 0.796801 0.897624
O O2 0.928320 0.911971 0.929846
O O3 0.875218 0.892798 0.074940
O O4 0.852603 0.698252 0.024554
O O5 0.289570 0.263386 0.220803
O O6 0.233147 0.187154 0.359542
O O7 0.245176 0.016342 0.270886
O O8 0.143142 0.666784 0.743968
O O9 0.500000 0.175994 0.750000
O O10 0.609958 0.969700 0.704368
O O11 0.425740 0.068290 0.890228
O O12 0.876681 0.764165 0.337518
O O13 0.993587 0.920710 0.312256
O O14 0.750000 0.250000 0.500000
O O15 0.794714 0.032018 0.431035
O O16 0.198317 0.881326 0.985649
#
# Coordination Sequence:
#
# PCOD8138325 Si02
#       8
#     8   8   8   8   4   8   8   8
#     4  11  22  43  67  94 133 174 218 283 344 394
#     4  11  25  42  71  98 132 183 228 272 335 406
#     4  11  24  43  69  98 136 181 227 278 334 408
#     4  11  17  38  69  92 125 176 226 268 339 400
#     4  12  26  40  66  98 136 172 224 282 332 420
#     4  10  20  37  62  96 127 161 222 276 336 392
#     4  11  23  42  66  91 133 185 222 267 343 410
#     4  11  23  42  64  99 130 175 222 280 345 401
#
# _framework density 21.442432
#
# number of rings (size 3 to 8) (size 9 to 14) (size 15 to 20)
#    0.000    1.067    6.000    1.600    1.867    1.067 
#    4.800    2.000    0.000    0.000    0.000    0.000 
#    0.000    0.000    0.000    0.000    0.000    0.000 
#
# Total GULP energy -371741.711137 kJ/mol
# GULP energy per Si atom -12391.390371 kJ/mol
# Density = 2.139363 g / cm^3
# Si number density = 21.442432 Si / 1000 Ang^3
#
#
#
# Elastic Constant Matrix: (Units=GPa)
#
#
# Indices 1 2 3 4 5 6 
#
# 1 113.1854 38.2899 23.2499 0.0002 0.4658 -0.0002
# 2 38.2899 67.4780 17.4592 0.0000 24.9588 -0.0005
# 3 23.2499 17.4592 77.8572 -0.0001 11.6553 0.0002
# 4 0.0002 0.0000 -0.0001 26.4241 0.0001 3.5924
# 5 0.4658 24.9588 11.6553 0.0001 33.3487 0.0001
# 6 -0.0002 -0.0005 0.0002 3.5924 0.0001 21.9049
#
#
#
# Elastic Compliance Matrix: (Units=1/GPa)
#
#
# Indices 1 2 3 4 5 6 
#
# 1 0.012500 -0.009214 -0.002820 0.000000 0.007707 0.000000
# 2 -0.009214 0.027728 -0.000400 0.000000 -0.020484 0.000001
# 3 -0.002820 -0.000400 0.014483 0.000000 -0.004723 0.000000
# 4 0.000000 0.000000 0.000000 0.038707 0.000000 -0.006348
# 5 0.007707 -0.020484 -0.004723 0.000000 0.046860 -0.000001
# 6 0.000000 0.000001 0.000000 -0.006348 -0.000001 0.046693
#
#
# Mechanical properties :
#
#
# Convention : Reuss Voigt Hill
#
# Bulk Modulus (GPa) = 33.50932 46.27985 39.89458
# Shear Modulus (GPa) = 22.54432 28.30366 25.42399
#
# Velocity S-wave (km/s) = 3.24603 3.63710 3.44711
# Velocity P-wave (km/s) = 5.45073 6.26643 5.87276
#
# Compressibility (1/GPa) = 0.02984245
#
# Stress axis : x y z
#
# Youngs Moduli (GPa) = 80.00267 36.06483 69.04670
#
# Poissons Ratio (x) = 0.33229 0.19473
# Poissons Ratio (y) = 0.73712 0.02762
# Poissons Ratio (z) = 0.22563 0.01443
#
# Static dielectric constant tensor:
#      x y z
#    x 4.302260 0.000000 -0.068890 
#    y 0.000000 3.840920 0.000000 
#    z -0.068890 0.000000 3.792860 
# 
# 
# High freq. dielectric constant tensor:
#      x y z
#    x 1.848800 0.000000 -0.009600 
#    y 0.000000 1.821880 0.000000 
#    z -0.009600 0.000000 1.837040 
# 
# From -- ./inp_files/280069.got.cif
#   From: 2010.06.25/outbox.cif.g09.slc.cpg/sg15_141_cif.got.tgz:280069.got - 2010.06.28 07:06:18.
