data_PCOD8138692
_publ_section_title
;
Structure prediction by ZEFSAII (Michael W. Deem and Ramdas Pophale) SiO2 
 PCOD8138692
Probable space group: C 2/C
;
_chemical_formula_sum "Si O2"
_cell_formula_units_Z 64
_cell_length_a 16.442254
_cell_length_b 11.918976
_cell_length_c 19.083922
_cell_angle_alpha 90.000000
_cell_angle_beta 55.997405
_cell_angle_gamma 90.000000
_cell_volume 3100.479588
_symmetry_space_group_name_H-M "C 2/C"
_symmetry_group_IT_number 15
_symmetry_cell_setting 'monoclinic'
loop_
_space_group_symop_operation_xyz
x,y,z
-x,y,1/2-z
-x,-y,-z
x,-y,1/2+z
1/2+x,1/2+y,z
1/2-x,1/2+y,1/2-z
1/2-x,1/2-y,-z
1/2+x,1/2-y,1/2+z
loop_
_atom_site_type_symbol
_atom_site_label
_atom_site_fract_x
_atom_site_fract_y
_atom_site_fract_z
Si Si1 0.835509 0.506314 0.524421
Si Si2 0.141879 0.707801 0.570772
Si Si3 0.301138 0.365034 0.496200
Si Si4 0.306748 0.816838 0.302515
Si Si5 0.942880 0.215620 0.124434
Si Si6 0.283363 0.550637 0.160273
Si Si7 0.667225 0.873380 0.842202
Si Si8 0.460706 0.218337 0.458985
O O1 0.881599 0.396371 0.467682
O O2 0.725615 0.537901 0.547886
O O3 0.838687 0.485785 0.606834
O O4 0.902994 0.606725 0.465091
O O5 0.250000 0.750000 0.500000
O O6 0.134108 0.665075 0.654177
O O7 0.054932 0.799767 0.598987
O O8 0.250000 0.250000 0.500000
O O9 0.267126 0.406971 0.589224
O O10 0.416908 0.331578 0.443217
O O11 0.383180 0.802864 0.202136
O O12 0.248874 0.701364 0.340788
O O13 0.226973 0.916159 0.329524
O O14 0.887097 0.094892 0.143258
O O15 0.947755 0.274002 0.047757
O O16 0.194419 0.599123 0.249442
O O17 0.571378 0.797030 0.882536
#
# Coordination Sequence:
#
# PCOD8138692 Si02
#       8
#     8   8   8   8   8   8   8   8
#     4  11  20  35  61  84 116 158 195 243 303 349
#     4  12  22  38  57  88 119 153 199 247 299 363
#     4   9  20  39  58  85 122 160 194 244 308 360
#     4  11  22  39  58  88 122 155 199 251 305 363
#     4  10  22  39  59  86 122 155 198 255 300 360
#     4  10  22  39  61  88 122 160 199 250 309 356
#     4  11  22  38  62  91 117 154 207 255 292 365
#     4  10  20  38  60  88 114 154 207 245 297 359
#
# _framework density 20.641967999999999
#
# number of rings (size 3 to 8) (size 9 to 14) (size 15 to 20)
#    0.000    1.500    3.750    1.500    1.750    1.000 
#    2.250    4.375    0.000    0.000    0.000    0.000 
#    0.000    0.000    0.000    0.000    0.000    0.000 
#
# Total GULP energy -396535.548248 kJ/mol
# GULP energy per Si atom -12391.735883 kJ/mol
# Density = 2.059499 g / cm^3
# Si number density = 20.641968 Si / 1000 Ang^3
#
#
#
# Elastic Constant Matrix: (Units=GPa)
#
#
# Indices 1 2 3 4 5 6 
#
# 1 101.0684 16.0148 27.3347 0.0000 -9.7923 0.0000
# 2 16.0148 45.5586 2.9587 0.0000 -0.4906 0.0000
# 3 27.3347 2.9587 57.7248 0.0000 -6.5785 0.0000
# 4 0.0000 0.0000 0.0000 18.0182 0.0000 0.5177
# 5 -9.7923 -0.4906 -6.5785 0.0000 26.9114 0.0000
# 6 0.0000 0.0000 0.0000 0.5177 0.0000 41.3934
#
#
#
# Elastic Compliance Matrix: (Units=1/GPa)
#
#
# Indices 1 2 3 4 5 6 
#
# 1 0.012234 -0.003927 -0.005239 0.000000 0.003099 0.000000
# 2 -0.003927 0.023284 0.000567 0.000000 -0.000866 0.000000
# 3 -0.005239 0.000567 0.020120 0.000000 0.003022 0.000000
# 4 0.000000 0.000000 0.000000 0.055519 0.000000 -0.000694
# 5 0.003099 -0.000866 0.003022 0.000000 0.039010 0.000000
# 6 0.000000 0.000000 0.000000 -0.000694 0.000000 0.024167
#
#
# Mechanical properties :
#
#
# Convention : Reuss Voigt Hill
#
# Bulk Modulus (GPa) = 26.01376 32.99646 29.50511
# Shear Modulus (GPa) = 24.46865 27.80082 26.13473
#
# Velocity S-wave (km/s) = 3.44667 3.67387 3.56209
# Velocity P-wave (km/s) = 5.33565 5.83235 5.58952
#
# Compressibility (1/GPa) = 0.03844119
#
# Stress axis : x y z
#
# Youngs Moduli (GPa) = 81.74213 42.94813 49.70279
#
# Poissons Ratio (x) = 0.16865 0.26037
# Poissons Ratio (y) = 0.32098 -0.02820
# Poissons Ratio (z) = 0.42821 -0.02437
#
# Static dielectric constant tensor:
#      x y z
#    x 4.113180 0.000000 0.029380 
#    y 0.000000 3.834880 0.000000 
#    z 0.029380 0.000000 3.722180 
# 
# 
# High freq. dielectric constant tensor:
#      x y z
#    x 1.813750 0.000000 0.009190 
#    y 0.000000 1.799790 0.000000 
#    z 0.009190 0.000000 1.797160 
# 
# From -- ./inp_files/248603.got.cif
#   From: 2010.06.25/outbox.cif.g09.slc.cpg/sg15_125_cif.got.tgz:248603.got - 2010.06.28 07:06:18.
