data_PCOD8138040
_publ_section_title
;
Structure prediction by ZEFSAII (Michael W. Deem and Ramdas Pophale) SiO2 
 PCOD8138040
Probable space group: C 2/C
;
_chemical_formula_sum "Si O2"
_cell_formula_units_Z 56
_cell_length_a 23.876439
_cell_length_b 9.400504
_cell_length_c 15.390743
_cell_angle_alpha 90.000000
_cell_angle_beta 59.247907
_cell_angle_gamma 90.000000
_cell_volume 2968.721315
_symmetry_space_group_name_H-M "C 2/C"
_symmetry_group_IT_number 15
_symmetry_cell_setting 'monoclinic'
loop_
_space_group_symop_operation_xyz
x,y,z
-x,y,1/2-z
-x,-y,-z
x,-y,1/2+z
1/2+x,1/2+y,z
1/2-x,1/2+y,1/2-z
1/2-x,1/2-y,-z
1/2+x,1/2-y,1/2+z
loop_
_atom_site_type_symbol
_atom_site_label
_atom_site_fract_x
_atom_site_fract_y
_atom_site_fract_z
Si Si1 0.669686 0.485289 0.760004
Si Si2 0.120162 0.711133 0.307669
Si Si3 0.985223 0.501536 0.163671
Si Si4 0.246281 0.587705 0.474155
Si Si5 0.625041 0.816873 0.317734
Si Si6 0.878139 0.523521 0.031851
Si Si7 0.771945 0.508408 0.332003
O O1 0.621111 0.619606 0.794633
O O2 0.703428 0.455202 0.640954
O O3 0.624632 0.352535 0.822464
O O4 0.721485 0.511062 0.794300
O O5 0.056969 0.646795 0.309156
O O6 0.117487 0.663798 0.410702
O O7 0.187357 0.653091 0.212622
O O8 0.946375 0.369842 0.152698
O O9 0.000000 0.462605 0.250000
O O10 0.052075 0.518853 0.060094
O O11 0.250000 0.750000 0.500000
O O12 0.172494 0.553546 0.504208
O O13 0.262640 0.491595 0.546251
O O14 0.645354 0.887361 0.393642
O O15 0.679204 0.872440 0.206458
#
# Coordination Sequence:
#
# PCOD8138040 Si02
#       7
#     8   8   8   8   8   8   8
#     4  12  22  39  58  93 133 148 196 253 309 358
#     4  10  21  37  60  86 122 160 193 254 300 350
#     4  10  21  41  63  84 111 156 219 245 286 365
#     4  12  22  35  66  94 122 159 204 248 301 363
#     4  10  20  38  61  87 117 160 197 248 297 353
#     4  10  20  40  65  85 114 164 212 240 292 370
#     4  10  20  37  57  88 122 163 197 233 298 361
#
# _framework density 18.863340000000001
#
# number of rings (size 3 to 8) (size 9 to 14) (size 15 to 20)
#    0.000    1.714    4.286    5.143    0.000    0.571 
#    2.571    3.571    0.000    0.000    0.000    0.000 
#    0.000    0.000    0.000    0.000    0.000    0.000 
#
# Total GULP energy -347159.748260 kJ/mol
# GULP energy per Si atom -12398.562438 kJ/mol
# Density = 1.882041 g / cm^3
# Si number density = 18.863340 Si / 1000 Ang^3
#
#
#
# Elastic Constant Matrix: (Units=GPa)
#
#
# Indices 1 2 3 4 5 6 
#
# 1 77.9165 36.6766 38.2881 0.0000 -0.8337 0.0000
# 2 36.6766 141.7638 31.0701 0.0000 -6.4721 0.0000
# 3 38.2881 31.0701 112.4781 0.0000 13.2231 0.0000
# 4 0.0000 0.0000 0.0000 21.8544 0.0000 -1.6790
# 5 -0.8337 -6.4721 13.2231 0.0000 32.8938 0.0000
# 6 0.0000 0.0000 0.0000 -1.6790 0.0000 7.7990
#
#
#
# Elastic Compliance Matrix: (Units=1/GPa)
#
#
# Indices 1 2 3 4 5 6 
#
# 1 0.016835 -0.003159 -0.005075 0.000000 0.001845 0.000000
# 2 -0.003159 0.008290 -0.001466 0.000000 0.002141 0.000000
# 3 -0.005075 -0.001466 0.011622 0.000000 -0.005089 0.000000
# 4 0.000000 0.000000 0.000000 0.046527 0.000000 0.010016
# 5 0.001845 0.002141 -0.005089 0.000000 0.032915 0.000000
# 6 0.000000 0.000000 0.000000 0.010016 0.000000 0.130378
#
#
# Mechanical properties :
#
#
# Convention : Reuss Voigt Hill
#
# Bulk Modulus (GPa) = 57.65004 60.46977 59.05990
# Shear Modulus (GPa) = 18.39934 27.58434 22.99184
#
# Velocity S-wave (km/s) = 3.12653 3.82818 3.49501
# Velocity P-wave (km/s) = 6.60771 7.18793 6.90392
#
# Compressibility (1/GPa) = 0.01734604
#
# Stress axis : x y z
#
# Youngs Moduli (GPa) = 59.40073 120.62195 86.04735
#
# Poissons Ratio (x) = 0.38103 0.43669
# Poissons Ratio (y) = 0.18764 0.12618
# Poissons Ratio (z) = 0.30146 0.17688
#
# Static dielectric constant tensor:
#      x y z
#    x 3.411720 0.000000 0.099590 
#    y 0.000000 3.346080 0.000000 
#    z 0.099590 0.000000 3.742070 
# 
# 
# High freq. dielectric constant tensor:
#      x y z
#    x 1.725520 0.000000 0.008640 
#    y 0.000000 1.716220 0.000000 
#    z 0.008640 0.000000 1.740810 
# 
# From -- ./inp_files/176509.got.cif
#   From: 2010.06.25/outbox.cif.g09.slc.cpg/sg15_89_cif.got.tgz:176509.got - 2010.06.28 07:06:18.
