data_PCOD8138704
_publ_section_title
;
Structure prediction by ZEFSAII (Michael W. Deem and Ramdas Pophale) SiO2 
 PCOD8138704
Probable space group: C 2/C
;
_chemical_formula_sum "Si O2"
_cell_formula_units_Z 48
_cell_length_a 20.935870
_cell_length_b 10.870095
_cell_length_c 19.511186
_cell_angle_alpha 90.000000
_cell_angle_beta 146.353219
_cell_angle_gamma 90.000000
_cell_volume 2460.219060
_symmetry_space_group_name_H-M "C 2/C"
_symmetry_group_IT_number 15
_symmetry_cell_setting 'monoclinic'
loop_
_space_group_symop_operation_xyz
x,y,z
-x,y,1/2-z
-x,-y,-z
x,-y,1/2+z
1/2+x,1/2+y,z
1/2-x,1/2+y,1/2-z
1/2-x,1/2-y,-z
1/2+x,1/2-y,1/2+z
loop_
_atom_site_type_symbol
_atom_site_label
_atom_site_fract_x
_atom_site_fract_y
_atom_site_fract_z
Si Si1 0.477845 0.493043 0.804752
Si Si2 0.686689 0.543419 0.159778
Si Si3 0.525879 0.664558 0.477686
Si Si4 0.896866 0.558962 0.449120
Si Si5 0.700553 0.627357 0.028758
Si Si6 0.269698 0.087320 0.943343
O O1 0.500000 0.433775 0.750000
O O2 0.505448 0.388493 0.883936
O O3 0.348096 0.540094 0.696255
O O4 0.564266 0.608307 0.892760
O O5 0.595226 0.655438 0.089521
O O6 0.783167 0.548133 0.302657
O O7 0.741954 0.555074 0.133504
O O8 0.619765 0.413225 0.104890
O O9 0.571288 0.801021 0.507784
O O10 0.874085 0.488096 0.500891
O O11 0.000000 0.500000 0.500000
O O12 0.721637 0.768957 0.063101
O O13 0.772305 0.571772 0.028443
#
# Coordination Sequence:
#
# PCOD8138704 Si02
#       6
#     8   8   8   8   8   8
#     4   9  18  38  64  88 114 160 202 241 309 371
#     4  10  22  40  62  87 120 163 211 247 307 374
#     4  10  22  40  63  88 120 165 202 251 312 365
#     4  12  26  38  61  93 126 158 209 258 311 361
#     4   9  20  36  63  91 116 161 204 250 311 365
#     4  10  20  38  60  89 127 156 200 260 303 370
#
# _framework density 19.510458
#
# number of rings (size 3 to 8) (size 9 to 14) (size 15 to 20)
#    0.000    2.000    1.667    1.000    4.667    1.333 
#    0.000   11.667    0.000    0.000    0.000    0.000 
#    0.000    0.000    0.000    0.000    0.000    0.000 
#
# Total GULP energy -297540.660848 kJ/mol
# GULP energy per Si atom -12397.527535 kJ/mol
# Density = 1.946605 g / cm^3
# Si number density = 19.510458 Si / 1000 Ang^3
#
#
#
# Elastic Constant Matrix: (Units=GPa)
#
#
# Indices 1 2 3 4 5 6 
#
# 1 145.2204 61.9898 50.5636 0.0000 5.2707 0.0000
# 2 61.9898 118.9294 57.8281 0.0000 4.0775 0.0000
# 3 50.5636 57.8281 82.4256 0.0000 -3.1704 0.0000
# 4 0.0000 0.0000 0.0000 15.2576 0.0000 3.8988
# 5 5.2707 4.0775 -3.1704 0.0000 30.0975 0.0000
# 6 0.0000 0.0000 0.0000 3.8988 0.0000 34.5656
#
#
#
# Elastic Compliance Matrix: (Units=1/GPa)
#
#
# Indices 1 2 3 4 5 6 
#
# 1 0.009583 -0.003110 -0.003760 0.000000 -0.001653 0.000000
# 2 -0.003110 0.013991 -0.007992 0.000000 -0.002193 0.000000
# 3 -0.003760 -0.007992 0.020195 0.000000 0.003869 0.000000
# 4 0.000000 0.000000 0.000000 0.067486 0.000000 -0.007612
# 5 -0.001653 -0.002193 0.003869 0.000000 0.034219 0.000000
# 6 0.000000 0.000000 0.000000 -0.007612 0.000000 0.029789
#
#
# Mechanical properties :
#
#
# Convention : Reuss Voigt Hill
#
# Bulk Modulus (GPa) = 71.20646 76.37091 73.78869
# Shear Modulus (GPa) = 23.84715 27.73040 25.78877
#
# Velocity S-wave (km/s) = 3.49990 3.77412 3.63959
# Velocity P-wave (km/s) = 7.27380 7.63024 7.45415
#
# Compressibility (1/GPa) = 0.01404367
#
# Stress axis : x y z
#
# Youngs Moduli (GPa) = 104.35320 71.47701 49.51756
#
# Poissons Ratio (x) = 0.22228 0.18620
# Poissons Ratio (y) = 0.32451 0.39575
# Poissons Ratio (z) = 0.39241 0.57125
#
# Static dielectric constant tensor:
#      x y z
#    x 4.100850 0.000000 0.121830 
#    y 0.000000 3.315670 0.000000 
#    z 0.121830 0.000000 3.660370 
# 
# 
# High freq. dielectric constant tensor:
#      x y z
#    x 1.784720 0.000000 -0.005680 
#    y 0.000000 1.739190 0.000000 
#    z -0.005680 0.000000 1.752350 
# 
# From -- ./inp_files/252606.got.cif
#   From: 2010.06.25/outbox.cif.g09.slc.cpg/sg15_127_cif.got.tgz:252606.got - 2010.06.28 07:06:18.
