data_PCOD8138175
_publ_section_title
;
Structure prediction by ZEFSAII (Michael W. Deem and Ramdas Pophale) SiO2 
 PCOD8138175
Probable space group: C 2/C
;
_chemical_formula_sum "Si O2"
_cell_formula_units_Z 48
_cell_length_a 12.403839
_cell_length_b 8.618247
_cell_length_c 24.829338
_cell_angle_alpha 90.000000
_cell_angle_beta 55.539440
_cell_angle_gamma 90.000000
_cell_volume 2188.463080
_symmetry_space_group_name_H-M "C 2/C"
_symmetry_group_IT_number 15
_symmetry_cell_setting 'monoclinic'
loop_
_space_group_symop_operation_xyz
x,y,z
-x,y,1/2-z
-x,-y,-z
x,-y,1/2+z
1/2+x,1/2+y,z
1/2-x,1/2+y,1/2-z
1/2-x,1/2-y,-z
1/2+x,1/2-y,1/2+z
loop_
_atom_site_type_symbol
_atom_site_label
_atom_site_fract_x
_atom_site_fract_y
_atom_site_fract_z
Si Si1 0.020890 0.126974 0.538969
Si Si2 0.636784 0.811429 0.419590
Si Si3 0.782389 0.344025 0.612944
Si Si4 0.170733 0.940305 0.754104
Si Si5 0.853205 0.719040 0.278613
Si Si6 0.949175 0.859520 0.894409
O O1 0.123217 0.251697 0.485234
O O2 0.884002 0.206392 0.592891
O O3 0.070987 0.036063 0.577659
O O4 0.000000 0.000000 0.500000
O O5 0.768029 0.737566 0.357112
O O6 0.507630 0.757634 0.422507
O O7 0.639281 0.996526 0.419136
O O8 0.692105 0.358735 0.690878
O O9 0.691462 0.302352 0.587190
O O10 0.295536 0.916810 0.757637
O O11 0.044729 0.862390 0.816221
O O12 0.148672 0.122444 0.754233
O O13 0.000000 0.668711 0.250000
#
# Coordination Sequence:
#
# PCOD8138175 Si02
#       6
#     8   8   8   8   8   8
#     4  10  22  40  59  85 119 153 196 239 282 347
#     4   9  21  38  56  86 117 147 199 243 277 349
#     4  11  21  37  62  84 115 157 189 237 296 339
#     4  10  20  37  60  89 116 146 196 242 286 347
#     4  10  20  38  59  82 118 153 188 243 295 337
#     4  10  21  39  60  84 118 153 190 242 291 339
#
# _framework density 21.933201
#
# number of rings (size 3 to 8) (size 9 to 14) (size 15 to 20)
#    0.000    2.000    0.000    4.000    0.000    3.333 
#    0.000   27.500    0.000    0.000    0.000    0.000 
#    0.000    0.000    0.000    0.000    0.000    0.000 
#
# Total GULP energy -297592.950042 kJ/mol
# GULP energy per Si atom -12399.706252 kJ/mol
# Density = 2.188328 g / cm^3
# Si number density = 21.933201 Si / 1000 Ang^3
#
#
#
# Elastic Constant Matrix: (Units=GPa)
#
#
# Indices 1 2 3 4 5 6 
#
# 1 107.3162 8.7786 6.5419 0.0000 -7.5869 0.0000
# 2 8.7786 47.7588 2.2877 0.0000 2.4433 0.0000
# 3 6.5419 2.2877 40.4993 0.0000 7.7125 0.0000
# 4 0.0000 0.0000 0.0000 23.5690 0.0000 6.9407
# 5 -7.5869 2.4433 7.7125 0.0000 16.5561 0.0000
# 6 0.0000 0.0000 0.0000 6.9407 0.0000 29.3770
#
#
#
# Elastic Compliance Matrix: (Units=1/GPa)
#
#
# Indices 1 2 3 4 5 6 
#
# 1 0.010086 -0.002041 -0.002690 0.000000 0.006176 0.000000
# 2 -0.002041 0.021527 -0.000113 0.000000 -0.004059 0.000000
# 3 -0.002690 -0.000113 0.027833 0.000000 -0.014182 0.000000
# 4 0.000000 0.000000 0.000000 0.045601 0.000000 -0.010774
# 5 0.006176 -0.004059 -0.014182 0.000000 0.070437 0.000000
# 6 0.000000 0.000000 0.000000 -0.010774 0.000000 0.036586
#
#
# Mechanical properties :
#
#
# Convention : Reuss Voigt Hill
#
# Bulk Modulus (GPa) = 20.09748 25.64341 22.87044
# Shear Modulus (GPa) = 20.97806 25.76483 23.37145
#
# Velocity S-wave (km/s) = 3.09601 3.43110 3.26785
# Velocity P-wave (km/s) = 4.68650 5.23580 4.96875
#
# Compressibility (1/GPa) = 0.04975749
#
# Stress axis : x y z
#
# Youngs Moduli (GPa) = 99.14894 46.45371 35.92802
#
# Poissons Ratio (x) = 0.09481 0.09665
# Poissons Ratio (y) = 0.20236 0.00407
# Poissons Ratio (z) = 0.26672 0.00526
#
# Static dielectric constant tensor:
#      x y z
#    x 3.817060 0.000000 0.117170 
#    y 0.000000 4.042010 0.000000 
#    z 0.117170 0.000000 4.434690 
# 
# 
# High freq. dielectric constant tensor:
#      x y z
#    x 1.845800 0.000000 0.001480 
#    y 0.000000 1.852690 0.000000 
#    z 0.001480 0.000000 1.878840 
# 
# From -- ./inp_files/267669.got.cif
#   From: 2010.06.25/outbox.cif.g09.slc.cpg/sg15_134_cif.got.tgz:267669.got - 2010.06.28 07:06:18.
