data_PCOD8138290
_publ_section_title
;
Structure prediction by ZEFSAII (Michael W. Deem and Ramdas Pophale) SiO2 
 PCOD8138290
Probable space group: C 2/C
;
_chemical_formula_sum "Si O2"
_cell_formula_units_Z 60
_cell_length_a 19.645440
_cell_length_b 20.142440
_cell_length_c 7.687740
_cell_angle_alpha 90.000000
_cell_angle_beta 73.012883
_cell_angle_gamma 90.000000
_cell_volume 2909.368180
_symmetry_space_group_name_H-M "C 2/C"
_symmetry_group_IT_number 15
_symmetry_cell_setting 'monoclinic'
loop_
_space_group_symop_operation_xyz
x,y,z
-x,y,1/2-z
-x,-y,-z
x,-y,1/2+z
1/2+x,1/2+y,z
1/2-x,1/2+y,1/2-z
1/2-x,1/2-y,-z
1/2+x,1/2-y,1/2+z
loop_
_atom_site_type_symbol
_atom_site_label
_atom_site_fract_x
_atom_site_fract_y
_atom_site_fract_z
Si Si1 0.645410 0.847249 0.061716
Si Si2 0.300068 0.162102 0.603596
Si Si3 0.668339 0.298728 0.398233
Si Si4 0.000000 0.679708 0.750000
Si Si5 0.293049 0.558016 0.008911
Si Si6 0.577658 0.633415 0.703451
Si Si7 0.440500 0.235151 0.442071
Si Si8 0.275894 0.414039 0.899499
O O1 0.670450 0.864682 0.237175
O O2 0.561569 0.864800 0.113719
O O3 0.657385 0.770309 0.003999
O O4 0.693751 0.895570 0.908942
O O5 0.230634 0.207992 0.702987
O O6 0.274544 0.099745 0.507672
O O7 0.365167 0.198451 0.454529
O O8 0.594090 0.322121 0.364624
O O9 0.689093 0.352958 0.526388
O O10 0.964637 0.722425 0.622175
O O11 0.363395 0.576304 0.847242
O O12 0.277534 0.480151 0.013623
O O13 0.314986 0.574536 0.189230
O O14 0.500000 0.598945 0.750000
O O15 0.577375 0.686709 0.546803
O O16 0.500000 0.216099 0.250000
#
# Coordination Sequence:
#
# PCOD8138290 Si02
#       8
#     8   8   8   4   8   8   8   8
#     4  10  20  37  62  90 123 154 198 253 306 359
#     4   9  20  35  58  86 124 151 205 247 297 353
#     4  10  21  38  61  92 121 153 204 252 301 361
#     4  10  22  36  60  90 134 156 198 244 318 364
#     4  11  24  39  62  84 118 159 209 249 298 361
#     4  10  22  39  59  88 127 156 199 247 305 361
#     4  10  21  36  58  92 133 162 197 247 309 361
#     4  11  23  40  62  85 116 158 206 254 299 352
#
# _framework density 20.623034000000001
#
# number of rings (size 3 to 8) (size 9 to 14) (size 15 to 20)
#    0.000    1.867    0.000    5.600    9.333    1.067 
#    0.000    2.667    1.467    2.400    0.000    0.000 
#    0.000    0.000    0.000    0.000    0.000    0.000 
#
# Total GULP energy -371694.194077 kJ/mol
# GULP energy per Si atom -12389.806469 kJ/mol
# Density = 2.057609 g / cm^3
# Si number density = 20.623034 Si / 1000 Ang^3
#
#
#
# Elastic Constant Matrix: (Units=GPa)
#
#
# Indices 1 2 3 4 5 6 
#
# 1 129.4453 46.2769 27.3997 0.0000 -9.0381 0.0000
# 2 46.2769 87.6282 27.3843 0.0000 -12.4736 0.0000
# 3 27.3997 27.3843 74.2317 0.0000 0.6318 0.0000
# 4 0.0000 0.0000 0.0000 22.5233 0.0000 -2.0035
# 5 -9.0381 -12.4736 0.6318 0.0000 31.4140 0.0000
# 6 0.0000 0.0000 0.0000 -2.0035 0.0000 10.2414
#
#
#
# Elastic Compliance Matrix: (Units=1/GPa)
#
#
# Indices 1 2 3 4 5 6 
#
# 1 0.009797 -0.004387 -0.002007 0.000000 0.001117 0.000000
# 2 -0.004387 0.015780 -0.004245 0.000000 0.005089 0.000000
# 3 -0.002007 -0.004245 0.015800 0.000000 -0.002581 0.000000
# 4 0.000000 0.000000 0.000000 0.045185 0.000000 0.008839
# 5 0.001117 0.005089 -0.002581 0.000000 0.034227 0.000000
# 6 0.000000 0.000000 0.000000 0.008839 0.000000 0.099373
#
#
# Mechanical properties :
#
#
# Convention : Reuss Voigt Hill
#
# Bulk Modulus (GPa) = 49.75739 54.82520 52.29129
# Shear Modulus (GPa) = 20.15001 25.51870 22.83436
#
# Velocity S-wave (km/s) = 3.12919 3.52147 3.33111
# Velocity P-wave (km/s) = 6.10207 6.57088 6.34081
#
# Compressibility (1/GPa) = 0.02009752
#
# Stress axis : x y z
#
# Youngs Moduli (GPa) = 102.07642 63.37186 63.29065
#
# Poissons Ratio (x) = 0.27804 0.12702
# Poissons Ratio (y) = 0.44786 0.26867
# Poissons Ratio (z) = 0.20487 0.26902
#
# Static dielectric constant tensor:
#      x y z
#    x 4.298040 0.000000 -0.256740 
#    y 0.000000 3.413710 0.000000 
#    z -0.256740 0.000000 3.855010 
# 
# 
# High freq. dielectric constant tensor:
#      x y z
#    x 1.822550 0.000000 0.002750 
#    y 0.000000 1.769020 0.000000 
#    z 0.002750 0.000000 1.809540 
# 
# From -- ./inp_files/56548.got.cif
#   From: 2010.06.25/outbox.cif.g09.slc.cpg/sg15_29_cif.got.tgz:56548.got - 2010.06.28 07:06:18.
