data_PCOD8138500
_publ_section_title
;
Structure prediction by ZEFSAII (Michael W. Deem and Ramdas Pophale) SiO2 
 PCOD8138500
Probable space group: C 2/C
;
_chemical_formula_sum "Si O2"
_cell_formula_units_Z 52
_cell_length_a 8.239467
_cell_length_b 13.318749
_cell_length_c 22.357059
_cell_angle_alpha 90.000000
_cell_angle_beta 106.942570
_cell_angle_gamma 90.000000
_cell_volume 2346.963802
_symmetry_space_group_name_H-M "C 2/C"
_symmetry_group_IT_number 15
_symmetry_cell_setting 'monoclinic'
loop_
_space_group_symop_operation_xyz
x,y,z
-x,y,1/2-z
-x,-y,-z
x,-y,1/2+z
1/2+x,1/2+y,z
1/2-x,1/2+y,1/2-z
1/2-x,1/2-y,-z
1/2+x,1/2-y,1/2+z
loop_
_atom_site_type_symbol
_atom_site_label
_atom_site_fract_x
_atom_site_fract_y
_atom_site_fract_z
Si Si1 0.787483 0.104896 0.335613
Si Si2 0.076442 0.208986 0.555443
Si Si3 0.160810 0.436794 0.077009
Si Si4 0.454243 0.739674 0.079140
Si Si5 0.889378 0.599314 0.060084
Si Si6 0.525345 0.588707 0.658530
Si Si7 0.000000 0.740620 0.250000
O O1 0.714939 0.071427 0.392224
O O2 0.651890 0.165195 0.282051
O O3 0.947107 0.177891 0.360385
O O4 0.857852 0.005700 0.308466
O O5 0.259810 0.260444 0.576914
O O6 0.025345 0.182167 0.482130
O O7 0.079658 0.110411 0.596213
O O8 0.934708 0.282920 0.568363
O O9 0.325186 0.436489 0.137264
O O10 0.028117 0.351246 0.081723
O O11 0.068208 0.541693 0.077305
O O12 0.213395 0.424432 0.012462
O O13 0.560273 0.686194 0.703063
#
# Coordination Sequence:
#
# PCOD8138500 Si02
#       7
#     8   8   8   8   8   8   4
#     4  12  25  45  70  92 129 180 225 281 336 397
#     4  10  20  38  66 104 139 167 207 270 345 413
#     4  10  20  37  67 104 140 170 211 274 345 417
#     4  10  20  38  66 104 139 167 207 270 345 413
#     4  10  20  37  67 104 140 170 211 274 345 417
#     4  12  25  45  70  92 129 180 225 281 336 397
#     4  12  28  52  64  94 136 180 250 290 316 390
#
# _framework density 22.156286000000001
#
# number of rings (size 3 to 8) (size 9 to 14) (size 15 to 20)
#    0.000    1.231    3.077    2.769    0.000    8.615 
#    5.538    0.000    0.000    0.000    0.000    0.000 
#    0.000    0.000    0.000    0.000    0.000    0.000 
#
# Total GULP energy -322403.953571 kJ/mol
# GULP energy per Si atom -12400.152060 kJ/mol
# Density = 2.210586 g / cm^3
# Si number density = 22.156286 Si / 1000 Ang^3
#
#
#
# Elastic Constant Matrix: (Units=GPa)
#
#
# Indices 1 2 3 4 5 6 
#
# 1 43.8494 14.0287 26.1330 0.0000 7.8634 0.0000
# 2 14.0287 98.4631 47.1967 0.0000 17.3367 0.0000
# 3 26.1330 47.1967 94.1876 0.0000 25.8923 0.0000
# 4 0.0000 0.0000 0.0000 29.7753 0.0000 5.7733
# 5 7.8634 17.3367 25.8923 0.0000 25.0808 0.0000
# 6 0.0000 0.0000 0.0000 5.7733 0.0000 29.7702
#
#
#
# Elastic Compliance Matrix: (Units=1/GPa)
#
#
# Indices 1 2 3 4 5 6 
#
# 1 0.027349 -0.000285 -0.007180 0.000000 -0.000965 0.000000
# 2 -0.000285 0.013562 -0.005814 0.000000 -0.003283 0.000000
# 3 -0.007180 -0.005814 0.019267 0.000000 -0.013620 0.000000
# 4 0.000000 0.000000 0.000000 0.034897 0.000000 -0.006768
# 5 -0.000965 -0.003283 -0.013620 0.000000 0.056504 0.000000
# 6 0.000000 0.000000 0.000000 -0.006768 0.000000 0.034903
#
#
# Mechanical properties :
#
#
# Convention : Reuss Voigt Hill
#
# Bulk Modulus (GPa) = 29.74508 45.69075 37.71792
# Shear Modulus (GPa) = 22.29699 26.86802 24.58251
#
# Velocity S-wave (km/s) = 3.17574 3.48610 3.33454
# Velocity P-wave (km/s) = 5.18666 6.07212 5.64677
#
# Compressibility (1/GPa) = 0.03361900
#
# Stress axis : x y z
#
# Youngs Moduli (GPa) = 36.56490 73.73769 51.90257
#
# Poissons Ratio (x) = 0.02102 0.37265
# Poissons Ratio (y) = 0.01042 0.30177
# Poissons Ratio (z) = 0.26253 0.42872
#
# Static dielectric constant tensor:
#      x y z
#    x 3.883810 0.000000 0.109510 
#    y 0.000000 3.953020 0.000000 
#    z 0.109510 0.000000 3.888590 
# 
# 
# High freq. dielectric constant tensor:
#      x y z
#    x 1.872360 0.000000 0.014340 
#    y 0.000000 1.878480 0.000000 
#    z 0.014340 0.000000 1.854230 
# 
# From -- ./inp_files/272901.got.cif
#   From: 2010.06.25/outbox.cif.g09.slc.cpg/sg15_137_cif.got.tgz:272901.got - 2010.06.28 07:06:18.
