data_PCOD8138010
_publ_section_title
;
Structure prediction by ZEFSAII (Michael W. Deem and Ramdas Pophale) SiO2 
 PCOD8138010
Probable space group: C 2/C
;
_chemical_formula_sum "Si O2"
_cell_formula_units_Z 56
_cell_length_a 27.404580
_cell_length_b 13.819334
_cell_length_c 22.597222
_cell_angle_alpha 90.000000
_cell_angle_beta 158.969566
_cell_angle_gamma 90.000000
_cell_volume 3071.107073
_symmetry_space_group_name_H-M "C 2/C"
_symmetry_group_IT_number 15
_symmetry_cell_setting 'monoclinic'
loop_
_space_group_symop_operation_xyz
x,y,z
-x,y,1/2-z
-x,-y,-z
x,-y,1/2+z
1/2+x,1/2+y,z
1/2-x,1/2+y,1/2-z
1/2-x,1/2-y,-z
1/2+x,1/2-y,1/2+z
loop_
_atom_site_type_symbol
_atom_site_label
_atom_site_fract_x
_atom_site_fract_y
_atom_site_fract_z
Si Si1 0.649121 0.754367 0.440496
Si Si2 0.514129 0.598080 0.552182
Si Si3 0.757567 0.438267 0.705975
Si Si4 0.513306 0.809654 0.006842
Si Si5 0.189085 0.427645 0.121445
Si Si6 0.674619 0.108727 0.797422
Si Si7 0.959499 0.449499 0.141938
O O1 0.500000 0.721881 0.250000
O O2 0.750000 0.750000 0.500000
O O3 0.700506 0.682174 0.550525
O O4 0.645805 0.861738 0.465215
O O5 0.500000 0.500000 0.500000
O O6 0.398835 0.599222 0.472581
O O7 0.490980 0.694683 0.487318
O O8 0.669943 0.603560 0.750861
O O9 0.787092 0.493337 0.800689
O O10 0.769247 0.506846 0.662414
O O11 0.863715 0.350348 0.822046
O O12 0.613822 0.836363 0.066210
O O13 0.565766 0.852734 0.127286
O O14 0.097489 0.470219 0.966045
O O15 0.597568 0.095472 0.771966
O O16 0.000000 0.499405 0.250000
#
# Coordination Sequence:
#
# PCOD8138010 Si02
#       7
#     8   8   8   8   8   8   8
#     4  11  23  38  55  87 122 158 200 237 293 360
#     4  10  23  34  52  92 123 141 194 246 307 351
#     4  10  20  37  56  86 117 153 197 238 289 361
#     4  11  20  37  64  83 119 162 191 242 304 354
#     4  10  20  38  57  85 116 153 198 243 289 357
#     4  11  21  37  61  86 118 163 194 237 292 362
#     4  11  21  37  60  82 117 160 207 237 293 361
#
# _framework density 18.234466000000001
#
# number of rings (size 3 to 8) (size 9 to 14) (size 15 to 20)
#    0.000    1.429    5.714    1.714    4.000    4.571 
#    0.000    0.000    0.000    0.857    0.000    0.000 
#    0.000    0.000    0.000    0.000    0.000    0.000 
#
# Total GULP energy -347059.947903 kJ/mol
# GULP energy per Si atom -12394.998139 kJ/mol
# Density = 1.819296 g / cm^3
# Si number density = 18.234466 Si / 1000 Ang^3
#
#
#
# Elastic Constant Matrix: (Units=GPa)
#
#
# Indices 1 2 3 4 5 6 
#
# 1 88.2625 26.2596 35.9307 -0.0001 5.8172 -0.0001
# 2 26.2596 87.3265 26.2817 -0.0001 7.4384 -0.0002
# 3 35.9307 26.2817 105.6276 -0.0002 20.8345 -0.0001
# 4 -0.0001 -0.0001 -0.0002 29.1903 -0.0001 1.4341
# 5 5.8172 7.4384 20.8345 -0.0001 36.7248 -0.0001
# 6 -0.0001 -0.0002 -0.0001 1.4341 -0.0001 20.3801
#
#
#
# Elastic Compliance Matrix: (Units=1/GPa)
#
#
# Indices 1 2 3 4 5 6 
#
# 1 0.013844 -0.002989 -0.004113 0.000000 0.000746 0.000000
# 2 -0.002989 0.013047 -0.002029 0.000000 -0.001018 0.000000
# 3 -0.004113 -0.002029 0.012568 0.000000 -0.006068 0.000000
# 4 0.000000 0.000000 0.000000 0.034377 0.000000 -0.002419
# 5 0.000746 -0.001018 -0.006068 0.000000 0.030760 0.000000
# 6 0.000000 0.000000 0.000000 -0.002419 0.000000 0.049238
#
#
# Mechanical properties :
#
#
# Convention : Reuss Voigt Hill
#
# Bulk Modulus (GPa) = 47.17282 50.90674 49.03978
# Shear Modulus (GPa) = 27.90791 30.10868 29.00829
#
# Velocity S-wave (km/s) = 3.91641 4.06790 3.99287
# Velocity P-wave (km/s) = 6.81009 7.07405 6.94332
#
# Compressibility (1/GPa) = 0.02119865
#
# Stress axis : x y z
#
# Youngs Moduli (GPa) = 72.23275 76.64383 79.56839
#
# Poissons Ratio (x) = 0.22907 0.32724
# Poissons Ratio (y) = 0.21589 0.16143
# Poissons Ratio (z) = 0.29707 0.15550
#
# Static dielectric constant tensor:
#      x y z
#    x 3.371370 0.000000 0.335380 
#    y 0.000000 3.380480 0.000000 
#    z 0.335380 0.000000 3.894970 
# 
# 
# High freq. dielectric constant tensor:
#      x y z
#    x 1.691750 0.000000 0.027260 
#    y 0.000000 1.697880 0.000000 
#    z 0.027260 0.000000 1.711120 
# 
# From -- ./inp_files/283631.got.cif
#   From: 2010.06.25/outbox.cif.g09.slc.cpg/sg15_142_cif.got.tgz:283631.got - 2010.06.28 07:06:18.
