data_PCOD8138132
_publ_section_title
;
Structure prediction by ZEFSAII (Michael W. Deem and Ramdas Pophale) SiO2 
 PCOD8138132
Probable space group: C 2/C
;
_chemical_formula_sum "Si O2"
_cell_formula_units_Z 48
_cell_length_a 31.067086
_cell_length_b 8.794369
_cell_length_c 18.150902
_cell_angle_alpha 90.000000
_cell_angle_beta 27.052582
_cell_angle_gamma 90.000000
_cell_volume 2255.441262
_symmetry_space_group_name_H-M "C 2/C"
_symmetry_group_IT_number 15
_symmetry_cell_setting 'monoclinic'
loop_
_space_group_symop_operation_xyz
x,y,z
-x,y,1/2-z
-x,-y,-z
x,-y,1/2+z
1/2+x,1/2+y,z
1/2-x,1/2+y,1/2-z
1/2-x,1/2-y,-z
1/2+x,1/2-y,1/2+z
loop_
_atom_site_type_symbol
_atom_site_label
_atom_site_fract_x
_atom_site_fract_y
_atom_site_fract_z
Si Si1 0.323083 0.601989 0.610117
Si Si2 0.471066 0.393111 0.634908
Si Si3 0.244042 0.792153 0.856813
Si Si4 0.566758 0.278068 0.354600
Si Si5 0.417116 0.130967 0.318484
Si Si6 0.603094 0.797861 0.126889
O O1 0.428373 0.566881 0.480036
O O2 0.254616 0.662687 0.778531
O O3 0.275194 0.451802 0.652247
O O4 0.325713 0.729692 0.542034
O O5 0.487706 0.279958 0.539754
O O6 0.417979 0.546100 0.691268
O O7 0.398532 0.311385 0.799991
O O8 0.338750 0.800807 0.759952
O O9 0.159537 0.755942 0.041618
O O10 0.536321 0.176842 0.330934
O O11 0.500000 0.133299 0.250000
O O12 0.366125 0.966258 0.394258
O O13 0.500000 0.809413 0.250000
#
# Coordination Sequence:
#
# PCOD8138132 Si02
#       6
#     8   8   8   8   8   8
#     4  10  20  37  60  83 112 154 191 228 281 338
#     4   9  19  38  60  81 113 154 190 227 281 342
#     4  11  22  37  58  85 117 148 190 236 279 335
#     4  10  21  37  57  85 115 149 191 236 281 332
#     4  11  22  37  58  84 114 150 191 236 286 336
#     4   9  19  36  58  82 109 146 192 231 272 335
#
# _framework density 21.281866000000001
#
# number of rings (size 3 to 8) (size 9 to 14) (size 15 to 20)
#    0.000    2.000    0.000    3.500    0.000    3.333 
#    0.000    8.333    0.000    0.000    0.000    0.000 
#    0.000    0.000    0.000    0.000    0.000    0.000 
#
# Total GULP energy -297617.804521 kJ/mol
# GULP energy per Si atom -12400.741855 kJ/mol
# Density = 2.123343 g / cm^3
# Si number density = 21.281866 Si / 1000 Ang^3
#
#
#
# Elastic Constant Matrix: (Units=GPa)
#
#
# Indices 1 2 3 4 5 6 
#
# 1 110.3998 44.7978 27.1493 -0.0006 21.8106 0.0019
# 2 44.7978 90.9142 9.4372 -0.0033 -2.2030 0.0050
# 3 27.1493 9.4372 47.5653 -0.0024 13.1498 0.0042
# 4 -0.0006 -0.0033 -0.0024 35.7003 0.0002 -20.1799
# 5 21.8106 -2.2030 13.1498 0.0002 27.8908 -0.0003
# 6 0.0019 0.0050 0.0042 -20.1799 -0.0003 164.8670
#
#
#
# Elastic Compliance Matrix: (Units=1/GPa)
#
#
# Indices 1 2 3 4 5 6 
#
# 1 0.015105 -0.007245 -0.004324 -0.000001 -0.010346 0.000000
# 2 -0.007245 0.014827 -0.000801 0.000001 0.007214 0.000000
# 3 -0.004324 -0.000801 0.026141 0.000001 -0.009007 0.000000
# 4 -0.000001 0.000001 0.000001 0.030093 0.000000 0.003683
# 5 -0.010346 0.007214 -0.009007 0.000000 0.048761 0.000000
# 6 0.000000 0.000000 0.000000 0.003683 0.000000 0.006516
#
#
# Mechanical properties :
#
#
# Convention : Reuss Voigt Hill
#
# Bulk Modulus (GPa) = 31.91516 45.73867 38.82691
# Shear Modulus (GPa) = 28.30817 56.85794 42.58306
#
# Velocity S-wave (km/s) = 3.65109 5.17442 4.47800
# Velocity P-wave (km/s) = 5.72738 7.56558 6.70973
#
# Compressibility (1/GPa) = 0.03133307
#
# Stress axis : x y z
#
# Youngs Moduli (GPa) = 66.20300 67.44350 38.25448
#
# Poissons Ratio (x) = 0.48862 0.16542
# Poissons Ratio (y) = 0.47963 0.03064
# Poissons Ratio (z) = 0.28627 0.05403
#
# Static dielectric constant tensor:
#      x y z
#    x 3.958460 0.000000 0.380880 
#    y 0.000000 3.908100 0.000000 
#    z 0.380880 0.000000 3.755730 
# 
# 
# High freq. dielectric constant tensor:
#      x y z
#    x 1.837700 0.000000 0.027590 
#    y 0.000000 1.835180 0.000000 
#    z 0.027590 0.000000 1.821410 
# 
# From -- ./inp_files/224532.got.cif
#   From: 2010.06.25/outbox.cif.g09.slc.cpg/sg15_113_cif.got.tgz:224532.got - 2010.06.28 07:06:18.
