data_PCOD8138512
_publ_section_title
;
Structure prediction by ZEFSAII (Michael W. Deem and Ramdas Pophale) SiO2 
 PCOD8138512
Probable space group: C 2/C
;
_chemical_formula_sum "Si O2"
_cell_formula_units_Z 56
_cell_length_a 31.023082
_cell_length_b 10.819126
_cell_length_c 15.724123
_cell_angle_alpha 90.000000
_cell_angle_beta 29.431074
_cell_angle_gamma 90.000000
_cell_volume 2593.329202
_symmetry_space_group_name_H-M "C 2/C"
_symmetry_group_IT_number 15
_symmetry_cell_setting 'monoclinic'
loop_
_space_group_symop_operation_xyz
x,y,z
-x,y,1/2-z
-x,-y,-z
x,-y,1/2+z
1/2+x,1/2+y,z
1/2-x,1/2+y,1/2-z
1/2-x,1/2-y,-z
1/2+x,1/2-y,1/2+z
loop_
_atom_site_type_symbol
_atom_site_label
_atom_site_fract_x
_atom_site_fract_y
_atom_site_fract_z
Si Si1 0.638641 0.024707 0.259105
Si Si2 0.098386 0.003700 0.594566
Si Si3 0.579070 0.227104 0.064264
Si Si4 0.216901 0.387936 0.970673
Si Si5 0.378335 0.661614 0.297502
Si Si6 0.491570 0.798436 0.990598
Si Si7 0.225602 0.471840 0.282324
O O1 0.592106 0.156908 0.322664
O O2 0.569185 0.918000 0.395388
O O3 0.698988 0.037176 0.239112
O O4 0.692318 0.993095 0.081684
O O5 0.119906 0.967148 0.655169
O O6 0.170472 0.940893 0.407082
O O7 0.000000 0.951626 0.750000
O O8 0.103751 0.150988 0.574919
O O9 0.500000 0.154087 0.250000
O O10 0.533930 0.267294 0.053590
O O11 0.667486 0.149057 0.900413
O O12 0.315414 0.344989 0.823160
O O13 0.211359 0.435149 0.884408
O O14 0.154356 0.268805 0.082269
O O15 0.473541 0.700508 0.097287
#
# Coordination Sequence:
#
# PCOD8138512 Si02
#       7
#     8   8   8   8   8   8   8
#     4   9  18  35  61 100 131 152 213 274 321 392
#     4  11  25  43  61  90 135 173 220 263 311 400
#     4  10  22  42  65  93 131 174 210 259 333 400
#     4  10  20  37  67  97 125 167 212 271 329 387
#     4  10  21  39  62  92 129 168 218 264 328 387
#     4   9  18  35  62  92 129 167 199 270 338 371
#     4  11  22  39  71  94 128 173 219 266 336 377
#
# _framework density 21.593865000000001
#
# number of rings (size 3 to 8) (size 9 to 14) (size 15 to 20)
#    0.000    2.000    1.429    1.714    4.000    2.286 
#    0.000    7.143    0.000    0.000    0.000    0.000 
#    0.000    0.000    0.000    0.000    0.000    0.000 
#
# Total GULP energy -347021.183716 kJ/mol
# GULP energy per Si atom -12393.613704 kJ/mol
# Density = 2.154472 g / cm^3
# Si number density = 21.593865 Si / 1000 Ang^3
#
#
#
# Elastic Constant Matrix: (Units=GPa)
#
#
# Indices 1 2 3 4 5 6 
#
# 1 101.5357 45.5556 39.8901 0.0000 13.5711 0.0000
# 2 45.5556 85.4890 40.5006 0.0000 1.8083 0.0000
# 3 39.8901 40.5006 134.8929 0.0000 -14.8196 0.0000
# 4 0.0000 0.0000 0.0000 30.9783 0.0000 5.1184
# 5 13.5711 1.8083 -14.8196 0.0000 26.1641 0.0000
# 6 0.0000 0.0000 0.0000 5.1184 0.0000 35.9833
#
#
#
# Elastic Compliance Matrix: (Units=1/GPa)
#
#
# Indices 1 2 3 4 5 6 
#
# 1 0.015413 -0.006231 -0.003752 0.000000 -0.009689 0.000000
# 2 -0.006231 0.016460 -0.003060 0.000000 0.000362 0.000000
# 3 -0.003752 -0.003060 0.010320 0.000000 0.008003 0.000000
# 4 0.000000 0.000000 0.000000 0.033058 0.000000 -0.004702
# 5 -0.009689 0.000362 0.008003 0.000000 0.047754 0.000000
# 6 0.000000 0.000000 0.000000 -0.004702 0.000000 0.028460
#
#
# Mechanical properties :
#
#
# Convention : Reuss Voigt Hill
#
# Bulk Modulus (GPa) = 62.07722 63.75670 62.91696
# Shear Modulus (GPa) = 27.33450 31.68989 29.51219
#
# Velocity S-wave (km/s) = 3.56173 3.83501 3.70089
# Velocity P-wave (km/s) = 6.76200 7.01421 6.88926
#
# Compressibility (1/GPa) = 0.01610897
#
# Stress axis : x y z
#
# Youngs Moduli (GPa) = 64.87858 60.75419 96.89456
#
# Poissons Ratio (x) = 0.37858 0.36351
# Poissons Ratio (y) = 0.40428 0.29645
# Poissons Ratio (z) = 0.24340 0.18588
#
# Static dielectric constant tensor:
#      x y z
#    x 3.847460 0.000000 -0.045100 
#    y 0.000000 3.630830 0.000000 
#    z -0.045100 0.000000 4.298800 
# 
# 
# High freq. dielectric constant tensor:
#      x y z
#    x 1.838680 0.000000 0.007450 
#    y 0.000000 1.816450 0.000000 
#    z 0.007450 0.000000 1.865630 
# 
# From -- ./inp_files/181896.got.cif
#   From: 2010.06.25/outbox.cif.g09.slc.cpg/sg15_91_cif.got.tgz:181896.got - 2010.06.28 07:06:18.
