data_PCOD8138840
_publ_section_title
;
Structure prediction by ZEFSAII (Michael W. Deem and Ramdas Pophale) SiO2 
 PCOD8138840
Probable space group: C 2/C
;
_chemical_formula_sum "Si O2"
_cell_formula_units_Z 48
_cell_length_a 12.374152
_cell_length_b 14.055807
_cell_length_c 27.981540
_cell_angle_alpha 90.000000
_cell_angle_beta 29.808804
_cell_angle_gamma 90.000000
_cell_volume 2419.318135
_symmetry_space_group_name_H-M "C 2/C"
_symmetry_group_IT_number 15
_symmetry_cell_setting 'monoclinic'
loop_
_space_group_symop_operation_xyz
x,y,z
-x,y,1/2-z
-x,-y,-z
x,-y,1/2+z
1/2+x,1/2+y,z
1/2-x,1/2+y,1/2-z
1/2-x,1/2-y,-z
1/2+x,1/2-y,1/2+z
loop_
_atom_site_type_symbol
_atom_site_label
_atom_site_fract_x
_atom_site_fract_y
_atom_site_fract_z
Si Si1 0.187730 0.974436 0.464844
Si Si2 0.536834 0.504988 0.627177
Si Si3 0.772421 0.905190 0.863670
Si Si4 0.599577 0.910927 0.832136
Si Si5 0.980158 0.208971 0.897077
Si Si6 0.283828 0.191468 0.863374
O O1 0.289248 0.874447 0.408239
O O2 0.378911 0.053238 0.392113
O O3 0.000000 0.000000 0.500000
O O4 0.093156 0.963221 0.553876
O O5 0.726441 0.475642 0.591735
O O6 0.304024 0.460196 0.729117
O O7 0.533605 0.619553 0.633210
O O8 0.591365 0.931827 0.892934
O O9 0.745712 0.799318 0.894919
O O10 0.000000 0.912706 0.750000
O O11 0.618920 0.795213 0.819918
O O12 0.086427 0.164074 0.903906
O O13 0.750000 0.250000 0.000000
O O14 0.500000 0.176702 0.750000
#
# Coordination Sequence:
#
# PCOD8138840 Si02
#       6
#     8   8   8   8   8   8
#     4  12  23  36  60  95 121 160 209 251 302 366
#     4  11  22  39  66  91 124 154 212 258 300 366
#     4   8  19  39  62  86 115 159 203 245 305 366
#     4  10  22  40  65  88 121 164 203 252 310 361
#     4  11  20  41  64  87 118 170 204 242 308 382
#     4  10  20  38  62  86 122 166 202 247 312 376
#
# _framework density 19.840301
#
# number of rings (size 3 to 8) (size 9 to 14) (size 15 to 20)
#    0.000    1.667    3.333    2.000    0.000    1.333 
#    0.000    0.000   22.000    0.000    0.000    0.000 
#    0.000    0.000    0.000    0.000    0.000    0.000 
#
# Total GULP energy -297489.188681 kJ/mol
# GULP energy per Si atom -12395.382862 kJ/mol
# Density = 1.979514 g / cm^3
# Si number density = 19.840301 Si / 1000 Ang^3
#
#
#
# Elastic Constant Matrix: (Units=GPa)
#
#
# Indices 1 2 3 4 5 6 
#
# 1 132.2997 64.9773 30.3334 0.0013 2.0787 -0.0038
# 2 64.9773 154.3549 46.7538 -0.0035 16.6094 0.0000
# 3 30.3334 46.7538 79.1564 -0.0115 8.1895 0.0103
# 4 0.0013 -0.0035 -0.0115 24.7195 0.0112 6.6001
# 5 2.0787 16.6094 8.1895 0.0112 30.5104 0.0009
# 6 -0.0038 0.0000 0.0103 6.6001 0.0009 41.9379
#
#
#
# Elastic Compliance Matrix: (Units=1/GPa)
#
#
# Indices 1 2 3 4 5 6 
#
# 1 0.009788 -0.003807 -0.001695 -0.000003 0.001861 0.000002
# 2 -0.003807 0.009673 -0.003843 0.000001 -0.003975 0.000000
# 3 -0.001695 -0.003843 0.015762 0.000009 -0.002023 -0.000005
# 4 -0.000003 0.000001 0.000009 0.042228 -0.000018 -0.006646
# 5 0.001861 -0.003975 -0.002023 -0.000018 0.035356 0.000003
# 6 0.000002 0.000000 -0.000005 -0.006646 0.000003 0.024891
#
#
# Mechanical properties :
#
#
# Convention : Reuss Voigt Hill
#
# Bulk Modulus (GPa) = 60.48569 72.21555 66.35062
# Shear Modulus (GPa) = 30.88356 34.34998 32.61677
#
# Velocity S-wave (km/s) = 3.94967 4.16543 4.05898
# Velocity P-wave (km/s) = 7.16605 7.72087 7.44863
#
# Compressibility (1/GPa) = 0.01653284
#
# Stress axis : x y z
#
# Youngs Moduli (GPa) = 102.16871 103.37968 63.44414
#
# Poissons Ratio (x) = 0.39359 0.10751
# Poissons Ratio (y) = 0.38898 0.24383
# Poissons Ratio (z) = 0.17313 0.39731
#
# Static dielectric constant tensor:
#      x y z
#    x 4.040050 0.000000 -0.181230 
#    y 0.000000 3.938590 0.000030 
#    z -0.181230 0.000030 3.489160 
# 
# 
# High freq. dielectric constant tensor:
#      x y z
#    x 1.777070 0.000000 -0.021490 
#    y 0.000000 1.780760 0.000000 
#    z -0.021490 0.000000 1.762940 
# 
# From -- ./inp_files/143808.got.cif
#   From: 2010.06.25/outbox.cif.g09.slc.cpg/sg15_72_cif.got.tgz:143808.got - 2010.06.28 07:06:18.
