data_PCOD8138058
_publ_section_title
;
Structure prediction by ZEFSAII (Michael W. Deem and Ramdas Pophale) SiO2 
 PCOD8138058
Probable space group: C 2/C
;
_chemical_formula_sum "Si O2"
_cell_formula_units_Z 40
_cell_length_a 6.165521
_cell_length_b 26.903471
_cell_length_c 11.393600
_cell_angle_alpha 90.000000
_cell_angle_beta 76.186258
_cell_angle_gamma 90.000000
_cell_volume 1835.239513
_symmetry_space_group_name_H-M "C 2/C"
_symmetry_group_IT_number 15
_symmetry_cell_setting 'monoclinic'
loop_
_space_group_symop_operation_xyz
x,y,z
-x,y,1/2-z
-x,-y,-z
x,-y,1/2+z
1/2+x,1/2+y,z
1/2-x,1/2+y,1/2-z
1/2-x,1/2-y,-z
1/2+x,1/2-y,1/2+z
loop_
_atom_site_type_symbol
_atom_site_label
_atom_site_fract_x
_atom_site_fract_y
_atom_site_fract_z
Si Si1 0.174586 0.485718 0.625804
Si Si2 0.763795 0.177968 0.564576
Si Si3 0.000000 0.217506 0.750000
Si Si4 0.934160 0.764140 0.626698
Si Si5 0.000000 0.060995 0.250000
Si Si6 0.354752 0.078123 0.030399
O O1 0.404917 0.472957 0.658244
O O2 0.228067 0.531651 0.534946
O O3 0.000000 0.500883 0.750000
O O4 0.090186 0.438106 0.558987
O O5 0.842475 0.182590 0.689973
O O6 0.571290 0.217250 0.559377
O O7 0.644399 0.125445 0.555270
O O8 0.988468 0.187930 0.458750
O O9 0.832751 0.252866 0.848404
O O10 0.000000 0.776596 0.750000
O O11 0.807477 0.092570 0.339013
#
# Coordination Sequence:
#
# PCOD8138058 Si02
#       6
#     8   8   4   8   4   8
#     4   9  20  38  57  83 119 155 194 251 307 357
#     4  10  21  36  59  87 120 158 207 246 300 367
#     4  10  20  37  58  86 120 166 200 252 305 354
#     4   9  20  38  58  82 122 160 200 251 301 357
#     4  10  20  37  58  82 118 152 196 248 307 362
#     4  10  21  36  59  86 117 155 201 250 301 368
#
# _framework density 21.79552
#
# number of rings (size 3 to 8) (size 9 to 14) (size 15 to 20)
#    0.000    2.400    0.000    1.200    1.400    4.800 
#    0.000    0.000    8.800    0.000    0.000    0.000 
#    0.000    0.000    0.000    0.000    0.000    0.000 
#
# Total GULP energy -247850.637752 kJ/mol
# GULP energy per Si atom -12392.531888 kJ/mol
# Density = 2.174591 g / cm^3
# Si number density = 21.795520 Si / 1000 Ang^3
#
#
#
# Elastic Constant Matrix: (Units=GPa)
#
#
# Indices 1 2 3 4 5 6 
#
# 1 99.4679 35.4467 21.8085 0.0000 10.6889 0.0000
# 2 35.4467 93.1596 25.9764 0.0000 8.7649 0.0000
# 3 21.8085 25.9764 69.6705 0.0000 1.2796 0.0000
# 4 0.0000 0.0000 0.0000 22.9942 0.0000 3.9719
# 5 10.6889 8.7649 1.2796 0.0000 48.0543 0.0000
# 6 0.0000 0.0000 0.0000 3.9719 0.0000 16.0449
#
#
#
# Elastic Compliance Matrix: (Units=1/GPa)
#
#
# Indices 1 2 3 4 5 6 
#
# 1 0.012123 -0.003774 -0.002352 0.000000 -0.001946 0.000000
# 2 -0.003774 0.013363 -0.003774 0.000000 -0.001497 0.000000
# 3 -0.002352 -0.003774 0.016482 0.000000 0.000773 0.000000
# 4 0.000000 0.000000 0.000000 0.045432 0.000000 -0.011247
# 5 -0.001946 -0.001497 0.000773 0.000000 0.021495 0.000000
# 6 0.000000 0.000000 0.000000 -0.011247 0.000000 0.065109
#
#
# Mechanical properties :
#
#
# Convention : Reuss Voigt Hill
#
# Bulk Modulus (GPa) = 45.10668 47.64013 46.37340
# Shear Modulus (GPa) = 24.85163 29.35643 27.10403
#
# Velocity S-wave (km/s) = 3.38037 3.67400 3.53024
# Velocity P-wave (km/s) = 5.99802 6.31687 6.15951
#
# Compressibility (1/GPa) = 0.02216967
#
# Stress axis : x y z
#
# Youngs Moduli (GPa) = 82.48691 74.83154 60.67112
#
# Poissons Ratio (x) = 0.28241 0.14270
# Poissons Ratio (y) = 0.31130 0.22895
# Poissons Ratio (z) = 0.19401 0.28239
#
# Static dielectric constant tensor:
#      x y z
#    x 4.020260 0.000000 -0.065120 
#    y 0.000000 3.448880 0.000000 
#    z -0.065120 0.000000 4.159640 
# 
# 
# High freq. dielectric constant tensor:
#      x y z
#    x 1.857260 0.000000 0.000950 
#    y 0.000000 1.811630 0.000000 
#    z 0.000950 0.000000 1.876710 
# 
# From -- ./inp_files/73124.got.cif
#   From: 2010.06.25/outbox.cif.g09.slc.cpg/sg15_37_cif.got.tgz:73124.got - 2010.06.28 07:06:18.
