data_PCOD8138870
_publ_section_title
;
Structure prediction by ZEFSAII (Michael W. Deem and Ramdas Pophale) SiO2 
 PCOD8138870
Probable space group: C 2/C
;
_chemical_formula_sum "Si O2"
_cell_formula_units_Z 64
_cell_length_a 13.843695
_cell_length_b 12.630895
_cell_length_c 19.096635
_cell_angle_alpha 90.000000
_cell_angle_beta 75.396926
_cell_angle_gamma 90.000000
_cell_volume 3231.333488
_symmetry_space_group_name_H-M "C 2/C"
_symmetry_group_IT_number 15
_symmetry_cell_setting 'monoclinic'
loop_
_space_group_symop_operation_xyz
x,y,z
-x,y,1/2-z
-x,-y,-z
x,-y,1/2+z
1/2+x,1/2+y,z
1/2-x,1/2+y,1/2-z
1/2-x,1/2-y,-z
1/2+x,1/2-y,1/2+z
loop_
_atom_site_type_symbol
_atom_site_label
_atom_site_fract_x
_atom_site_fract_y
_atom_site_fract_z
Si Si1 0.110695 0.544264 0.970745
Si Si2 0.885721 0.170636 0.494977
Si Si3 0.180474 0.511055 0.680409
Si Si4 0.797530 0.740570 0.878433
Si Si5 0.977691 0.337792 0.828451
Si Si6 0.410762 0.731108 0.976157
Si Si7 0.286966 0.462839 0.531858
Si Si8 0.185861 0.421909 0.829561
O O1 0.175611 0.506728 0.025446
O O2 0.172473 0.508705 0.892116
O O3 0.105864 0.670317 0.969860
O O4 0.000000 0.500000 0.000000
O O5 0.882800 0.228437 0.419698
O O6 0.804864 0.221375 0.561398
O O7 0.991468 0.173939 0.513238
O O8 0.865034 0.046545 0.486859
O O9 0.165403 0.637560 0.671590
O O10 0.275730 0.470856 0.617862
O O11 0.210224 0.485706 0.754565
O O12 0.080260 0.447321 0.677738
O O13 0.774964 0.838662 0.829945
O O14 0.081752 0.359984 0.846781
O O15 0.000000 0.279091 0.750000
O O16 0.916175 0.263849 0.893059
O O17 0.316760 0.653485 0.001015
#
# Coordination Sequence:
#
# PCOD8138870 Si02
#       8
#     8   8   8   8   8   8   8   8
#     4  12  22  37  63  92 119 153 208 257 301 364
#     4  10  21  37  63  87 121 160 210 252 300 372
#     4  10  23  37  61  86 127 155 203 256 305 370
#     4  10  20  38  62  89 115 162 206 249 309 361
#     4  10  21  38  58  88 122 157 200 253 312 371
#     4  12  23  37  64  92 124 161 207 261 315 353
#     4  11  23  41  58  92 125 159 207 258 304 365
#     4  11  21  40  61  89 120 160 204 249 310 377
#
# _framework density 19.806063999999999
#
# number of rings (size 3 to 8) (size 9 to 14) (size 15 to 20)
#    0.000    1.250    5.000    0.750    5.250    1.000 
#    2.250    0.000    0.000    0.000    0.000    0.000 
#    0.000    0.000    0.000    0.000    0.000    0.000 
#
# Total GULP energy -396726.194149 kJ/mol
# GULP energy per Si atom -12397.693567 kJ/mol
# Density = 1.976098 g / cm^3
# Si number density = 19.806064 Si / 1000 Ang^3
#
#
#
# Elastic Constant Matrix: (Units=GPa)
#
#
# Indices 1 2 3 4 5 6 
#
# 1 75.8710 31.9436 26.8579 0.0000 12.2260 0.0000
# 2 31.9436 130.9261 67.5576 0.0000 5.4599 0.0000
# 3 26.8579 67.5576 131.8976 0.0000 9.6595 0.0000
# 4 0.0000 0.0000 0.0000 36.7216 0.0000 -1.5342
# 5 12.2260 5.4599 9.6595 0.0000 21.8953 0.0000
# 6 0.0000 0.0000 0.0000 -1.5342 0.0000 25.0841
#
#
#
# Elastic Compliance Matrix: (Units=1/GPa)
#
#
# Indices 1 2 3 4 5 6 
#
# 1 0.016105 -0.003000 -0.001177 0.000000 -0.007725 0.000000
# 2 -0.003000 0.010942 -0.005081 0.000000 0.001188 0.000000
# 3 -0.001177 -0.005081 0.010626 0.000000 -0.002764 0.000000
# 4 0.000000 0.000000 0.000000 0.027302 0.000000 0.001670
# 5 -0.007725 0.001188 -0.002764 0.000000 0.050909 0.000000
# 6 0.000000 0.000000 0.000000 0.001670 0.000000 0.039968
#
#
# Mechanical properties :
#
#
# Convention : Reuss Voigt Hill
#
# Bulk Modulus (GPa) = 52.19818 65.71254 58.95536
# Shear Modulus (GPa) = 27.66228 30.89591 29.27910
#
# Velocity S-wave (km/s) = 3.74124 3.95387 3.84902
# Velocity P-wave (km/s) = 6.71375 7.35487 7.04161
#
# Compressibility (1/GPa) = 0.01915776
#
# Stress axis : x y z
#
# Youngs Moduli (GPa) = 62.09332 91.39292 94.10917
#
# Poissons Ratio (x) = 0.27415 0.11078
# Poissons Ratio (y) = 0.18626 0.47812
# Poissons Ratio (z) = 0.07309 0.46432
#
# Static dielectric constant tensor:
#      x y z
#    x 3.582980 0.000000 0.171460 
#    y 0.000000 3.632020 0.000000 
#    z 0.171460 0.000000 3.744870 
# 
# 
# High freq. dielectric constant tensor:
#      x y z
#    x 1.764390 0.000000 0.014310 
#    y 0.000000 1.770320 0.000000 
#    z 0.014310 0.000000 1.766380 
# 
# From -- ./inp_files/243727.got.cif
#   From: 2010.06.25/outbox.cif.g09.slc.cpg/sg15_122_cif.got.tgz:243727.got - 2010.06.28 07:06:18.
