data_PCOD8138323
_publ_section_title
;
Structure prediction by ZEFSAII (Michael W. Deem and Ramdas Pophale) SiO2 
 PCOD8138323
Probable space group: C 2/C
;
_chemical_formula_sum "Si O2"
_cell_formula_units_Z 40
_cell_length_a 9.813900
_cell_length_b 22.326301
_cell_length_c 8.894580
_cell_angle_alpha 90.000000
_cell_angle_beta 89.921989
_cell_angle_gamma 90.000000
_cell_volume 1948.872588
_symmetry_space_group_name_H-M "C 2/C"
_symmetry_group_IT_number 15
_symmetry_cell_setting 'monoclinic'
loop_
_space_group_symop_operation_xyz
x,y,z
-x,y,1/2-z
-x,-y,-z
x,-y,1/2+z
1/2+x,1/2+y,z
1/2-x,1/2+y,1/2-z
1/2-x,1/2-y,-z
1/2+x,1/2-y,1/2+z
loop_
_atom_site_type_symbol
_atom_site_label
_atom_site_fract_x
_atom_site_fract_y
_atom_site_fract_z
Si Si1 0.855860 0.585821 0.730152
Si Si2 0.772733 0.497518 0.489212
Si Si3 0.346320 0.579555 0.252745
Si Si4 0.147779 0.205651 0.317628
Si Si5 0.852119 0.809967 0.328476
O O1 0.868265 0.540927 0.587628
O O2 0.724605 0.628026 0.713466
O O3 0.000000 0.621455 0.750000
O O4 0.854705 0.545223 0.878849
O O5 0.674136 0.539064 0.392694
O O6 0.685290 0.455077 0.596023
O O7 0.500000 0.600048 0.250000
O O8 0.276257 0.645154 0.243756
O O9 0.126303 0.197582 0.495301
O O10 0.254135 0.257128 0.270851
O O11 0.000000 0.221482 0.250000
O O12 0.000000 0.808870 0.250000
#
# Coordination Sequence:
#
# PCOD8138323 Si02
#       5
#     8   8   8   8   8
#     4  11  23  42  64  94 128 170 206 261 307 378
#     4  10  22  38  62  93 128 166 211 248 314 374
#     4  10  20  37  62  95 128 165 200 261 310 376
#     4  10  23  45  65  92 131 163 210 262 311 376
#     4  11  25  44  67  95 124 165 212 263 316 372
#
# _framework density 20.524685999999999
#
# number of rings (size 3 to 8) (size 9 to 14) (size 15 to 20)
#    0.000    1.600    2.000    1.800    5.600    4.000 
#    7.200    1.000    0.000    0.000    0.000    0.000 
#    0.000    0.000    0.000    0.000    0.000    0.000 
#
# Total GULP energy -247821.957675 kJ/mol
# GULP energy per Si atom -12391.097884 kJ/mol
# Density = 2.047797 g / cm^3
# Si number density = 20.524686 Si / 1000 Ang^3
#
#
#
# Elastic Constant Matrix: (Units=GPa)
#
#
# Indices 1 2 3 4 5 6 
#
# 1 137.1365 62.6840 48.8161 0.0000 6.6808 0.0000
# 2 62.6840 139.0096 51.2769 0.0000 3.9384 0.0000
# 3 48.8161 51.2769 117.2959 0.0000 5.9296 0.0000
# 4 0.0000 0.0000 0.0000 72.7026 0.0000 -2.0172
# 5 6.6808 3.9384 5.9296 0.0000 11.5210 0.0000
# 6 0.0000 0.0000 0.0000 -2.0172 0.0000 31.5419
#
#
#
# Elastic Compliance Matrix: (Units=1/GPa)
#
#
# Indices 1 2 3 4 5 6 
#
# 1 0.009909 -0.003476 -0.002438 0.000000 -0.003304 0.000000
# 2 -0.003476 0.009808 -0.002848 0.000000 0.000128 0.000000
# 3 -0.002438 -0.002848 0.010949 0.000000 -0.003248 0.000000
# 4 0.000000 0.000000 0.000000 0.013779 0.000000 0.000881
# 5 -0.003304 0.000128 -0.003248 0.000000 0.090342 0.000000
# 6 0.000000 0.000000 0.000000 0.000881 0.000000 0.031760
#
#
# Mechanical properties :
#
#
# Convention : Reuss Voigt Hill
#
# Bulk Modulus (GPa) = 76.07802 79.88845 77.98323
# Shear Modulus (GPa) = 26.53219 38.53077 32.53148
#
# Velocity S-wave (km/s) = 3.59931 4.33747 3.98552
# Velocity P-wave (km/s) = 7.37702 8.00578 7.69782
#
# Compressibility (1/GPa) = 0.01314440
#
# Stress axis : x y z
#
# Youngs Moduli (GPa) = 100.91461 101.95975 91.33276
#
# Poissons Ratio (x) = 0.35438 0.22264
# Poissons Ratio (y) = 0.35075 0.26007
# Poissons Ratio (z) = 0.24599 0.29033
#
# Static dielectric constant tensor:
#      x y z
#    x 3.570960 0.000000 -0.200060 
#    y 0.000000 3.909000 0.000000 
#    z -0.200060 0.000000 6.783980 
# 
# 
# High freq. dielectric constant tensor:
#      x y z
#    x 1.793720 0.000000 0.017510 
#    y 0.000000 1.818280 0.000000 
#    z 0.017510 0.000000 1.811650 
# 
# From -- ./inp_files/23451.got.cif
#   From: 2010.06.25/outbox.cif.g09.slc.cpg/sg15_12_cif.got.tgz:23451.got - 2010.06.28 07:06:18.
