data_PCOD8138125
_publ_section_title
;
Structure prediction by ZEFSAII (Michael W. Deem and Ramdas Pophale) SiO2 
 PCOD8138125
Probable space group: C 2/C
;
_chemical_formula_sum "Si O2"
_cell_formula_units_Z 40
_cell_length_a 22.368014
_cell_length_b 8.169887
_cell_length_c 9.534664
_cell_angle_alpha 90.000000
_cell_angle_beta 97.431435
_cell_angle_gamma 90.000000
_cell_volume 1727.768454
_symmetry_space_group_name_H-M "C 2/C"
_symmetry_group_IT_number 15
_symmetry_cell_setting 'monoclinic'
loop_
_space_group_symop_operation_xyz
x,y,z
-x,y,1/2-z
-x,-y,-z
x,-y,1/2+z
1/2+x,1/2+y,z
1/2-x,1/2+y,1/2-z
1/2-x,1/2-y,-z
1/2+x,1/2-y,1/2+z
loop_
_atom_site_type_symbol
_atom_site_label
_atom_site_fract_x
_atom_site_fract_y
_atom_site_fract_z
Si Si1 0.217219 0.941588 0.271534
Si Si2 0.154248 0.507264 0.108317
Si Si3 0.667163 0.337359 0.973626
Si Si4 0.457927 0.483989 0.618112
Si Si5 0.880257 0.706952 0.150246
O O1 0.184874 0.791897 0.343784
O O2 0.289107 0.918490 0.300421
O O3 0.199584 0.114466 0.338675
O O4 0.193655 0.952001 0.105376
O O5 0.110448 0.579900 0.216990
O O6 0.179648 0.648782 0.012585
O O7 0.118043 0.379757 0.000891
O O8 0.595671 0.361917 0.937650
O O9 0.500000 0.404851 0.750000
O O10 0.500000 0.500000 0.500000
O O11 0.432670 0.658192 0.666495
#
# Coordination Sequence:
#
# PCOD8138125 Si02
#       5
#     8   8   8   8   8
#     4  10  20  37  59  91 133 169 196 237 304 379
#     4  11  21  38  60  94 133 160 197 255 301 364
#     4  10  22  37  60  93 119 162 214 247 300 374
#     4  11  23  45  67  86 119 164 213 265 311 363
#     4  10  24  39  60  94 126 165 210 246 303 372
#
# _framework density 23.151250000000001
#
# number of rings (size 3 to 8) (size 9 to 14) (size 15 to 20)
#    0.000    1.600    0.000    6.000    0.000   11.200 
#    0.000    5.000    0.000    0.000    0.000    0.000 
#    0.000    0.000    0.000    0.000    0.000    0.000 
#
# Total GULP energy -248021.230416 kJ/mol
# GULP energy per Si atom -12401.061521 kJ/mol
# Density = 2.309856 g / cm^3
# Si number density = 23.151250 Si / 1000 Ang^3
#
#
#
# Elastic Constant Matrix: (Units=GPa)
#
#
# Indices 1 2 3 4 5 6 
#
# 1 57.2639 10.1914 16.5045 0.0000 5.8575 0.0000
# 2 10.1914 58.8461 21.4490 0.0000 9.8647 0.0000
# 3 16.5045 21.4490 104.5341 0.0000 19.0487 0.0000
# 4 0.0000 0.0000 0.0000 36.8113 0.0000 0.2753
# 5 5.8575 9.8647 19.0487 0.0000 42.5663 0.0000
# 6 0.0000 0.0000 0.0000 0.2753 0.0000 23.3580
#
#
#
# Elastic Compliance Matrix: (Units=1/GPa)
#
#
# Indices 1 2 3 4 5 6 
#
# 1 0.018625 -0.002216 -0.002300 0.000000 -0.001020 0.000000
# 2 -0.002216 0.018942 -0.003040 0.000000 -0.002724 0.000000
# 3 -0.002300 -0.003040 0.011288 0.000000 -0.004030 0.000000
# 4 0.000000 0.000000 0.000000 0.027168 0.000000 -0.000320
# 5 -0.001020 -0.002724 -0.004030 0.000000 0.026068 0.000000
# 6 0.000000 0.000000 0.000000 -0.000320 0.000000 0.042816
#
#
# Mechanical properties :
#
#
# Convention : Reuss Voigt Hill
#
# Bulk Modulus (GPa) = 29.63716 35.21487 32.42602
# Shear Modulus (GPa) = 29.19428 32.04705 30.62067
#
# Velocity S-wave (km/s) = 3.55494 3.72458 3.64075
# Velocity P-wave (km/s) = 5.44789 5.80866 5.63116
#
# Compressibility (1/GPa) = 0.03374142
#
# Stress axis : x y z
#
# Youngs Moduli (GPa) = 53.69225 52.79223 88.59255
#
# Poissons Ratio (x) = 0.11700 0.20376
# Poissons Ratio (y) = 0.11899 0.26935
# Poissons Ratio (z) = 0.12349 0.16051
#
# Static dielectric constant tensor:
#      x y z
#    x 3.865430 0.000000 -0.031180 
#    y 0.000000 4.290650 0.000000 
#    z -0.031180 0.000000 4.512890 
# 
# 
# High freq. dielectric constant tensor:
#      x y z
#    x 1.893630 0.000000 -0.002660 
#    y 0.000000 1.902980 0.000000 
#    z -0.002660 0.000000 1.935240 
# 
# From -- ./inp_files/59940.got.cif
#   From: 2010.06.25/outbox.cif.g09.slc.cpg/sg15_30_cif.got.tgz:59940.got - 2010.06.28 07:06:18.
