data_PCOD8138743
_publ_section_title
;
Structure prediction by ZEFSAII (Michael W. Deem and Ramdas Pophale) SiO2 
 PCOD8138743
Probable space group: C 2/C
;
_chemical_formula_sum "Si O2"
_cell_formula_units_Z 64
_cell_length_a 13.080965
_cell_length_b 14.083327
_cell_length_c 31.723380
_cell_angle_alpha 90.000000
_cell_angle_beta 147.643084
_cell_angle_gamma 90.000000
_cell_volume 3127.763492
_symmetry_space_group_name_H-M "C 2/C"
_symmetry_group_IT_number 15
_symmetry_cell_setting 'monoclinic'
loop_
_space_group_symop_operation_xyz
x,y,z
-x,y,1/2-z
-x,-y,-z
x,-y,1/2+z
1/2+x,1/2+y,z
1/2-x,1/2+y,1/2-z
1/2-x,1/2-y,-z
1/2+x,1/2-y,1/2+z
loop_
_atom_site_type_symbol
_atom_site_label
_atom_site_fract_x
_atom_site_fract_y
_atom_site_fract_z
Si Si1 0.216609 0.678199 0.224115
Si Si2 0.699019 0.961226 0.450312
Si Si3 0.798714 0.347701 0.197016
Si Si4 0.780540 0.538095 0.771451
Si Si5 0.890891 0.310490 0.020947
Si Si6 0.585498 0.673043 0.536659
Si Si7 0.297552 0.706775 0.700003
Si Si8 0.215952 0.674512 0.451388
O O1 0.322649 0.743586 0.226482
O O2 0.288590 0.569840 0.245627
O O3 0.262705 0.714893 0.286645
O O4 0.992524 0.689087 0.139177
O O5 0.508538 0.951933 0.355842
O O6 0.663192 0.917349 0.484671
O O7 0.862473 0.910206 0.478766
O O8 0.750013 0.068033 0.480283
O O9 0.724638 0.424575 0.205320
O O10 0.655127 0.345378 0.108040
O O11 0.000000 0.382711 0.250000
O O12 0.674920 0.603318 0.769037
O O13 0.117931 0.292547 0.105933
O O14 0.750000 0.250000 0.000000
O O15 0.842562 0.275870 0.956400
O O16 0.357500 0.684395 0.461017
O O17 0.500000 0.734679 0.750000
O O18 0.250000 0.750000 0.500000
#
# Coordination Sequence:
#
# PCOD8138743 Si02
#       8
#     8   8   8   8   8   8   8   8
#     4  10  22  39  59  84 116 152 187 241 296 345
#     4   9  19  38  60  80 112 158 192 233 285 348
#     4  11  21  37  60  84 113 148 196 237 282 341
#     4   9  20  38  58  80 114 149 192 239 286 344
#     4   9  20  38  60  84 117 154 197 244 294 348
#     4  11  20  37  60  86 115 148 190 243 287 343
#     4  10  20  38  61  84 112 153 200 242 288 353
#     4  11  21  37  56  86 122 148 183 241 299 345
#
# _framework density 20.461905000000002
#
# number of rings (size 3 to 8) (size 9 to 14) (size 15 to 20)
#    0.000    2.000    2.500    1.125    1.750    1.000 
#    6.750    0.625    2.750    0.000    0.000    0.000 
#    0.000    0.000    0.000    0.000    0.000    0.000 
#
# Total GULP energy -396525.214791 kJ/mol
# GULP energy per Si atom -12391.412962 kJ/mol
# Density = 2.041533 g / cm^3
# Si number density = 20.461905 Si / 1000 Ang^3
#
#
#
# Elastic Constant Matrix: (Units=GPa)
#
#
# Indices 1 2 3 4 5 6 
#
# 1 58.8797 22.2962 19.4455 0.0000 2.8236 0.0000
# 2 22.2962 128.2720 12.4518 0.0000 -21.0876 0.0000
# 3 19.4455 12.4518 46.3282 0.0000 -11.8074 0.0000
# 4 0.0000 0.0000 0.0000 24.6174 0.0000 -0.9907
# 5 2.8236 -21.0876 -11.8074 0.0000 30.0312 0.0000
# 6 0.0000 0.0000 0.0000 -0.9907 0.0000 23.6817
#
#
#
# Elastic Compliance Matrix: (Units=1/GPa)
#
#
# Indices 1 2 3 4 5 6 
#
# 1 0.022672 -0.004458 -0.010735 0.000000 -0.009482 0.000000
# 2 -0.004458 0.009722 0.001228 0.000000 0.007729 0.000000
# 3 -0.010735 0.001228 0.029160 0.000000 0.013336 0.000000
# 4 0.000000 0.000000 0.000000 0.040690 0.000000 0.001702
# 5 -0.009482 0.007729 0.013336 0.000000 0.044861 0.000000
# 6 0.000000 0.000000 0.000000 0.001702 0.000000 0.042298
#
#
# Mechanical properties :
#
#
# Convention : Reuss Voigt Hill
#
# Bulk Modulus (GPa) = 29.74028 37.98520 33.86274
# Shear Modulus (GPa) = 21.87803 27.61848 24.74826
#
# Velocity S-wave (km/s) = 3.27342 3.67788 3.48153
# Velocity P-wave (km/s) = 5.37151 6.05309 5.72246
#
# Compressibility (1/GPa) = 0.03362444
#
# Stress axis : x y z
#
# Youngs Moduli (GPa) = 44.10781 102.85796 34.29382
#
# Poissons Ratio (x) = 0.45850 0.36813
# Poissons Ratio (y) = 0.19662 -0.04210
# Poissons Ratio (z) = 0.47348 -0.12628
#
# Static dielectric constant tensor:
#      x y z
#    x 3.613190 0.000000 0.171650 
#    y 0.000000 3.963610 0.000000 
#    z 0.171650 0.000000 3.684190 
# 
# 
# High freq. dielectric constant tensor:
#      x y z
#    x 1.799740 0.000000 0.006040 
#    y 0.000000 1.796630 0.000000 
#    z 0.006040 0.000000 1.789860 
# 
# From -- ./inp_files/311233.got.cif
#   From: 2010.06.25/outbox.cif.g09.slc.cpg/sg15_156_cif.got.tgz:311233.got - 2010.06.28 07:06:18.
