data_PCOD8138730
_publ_section_title
;
Structure prediction by ZEFSAII (Michael W. Deem and Ramdas Pophale) SiO2 
 PCOD8138730
Probable space group: C 2/C
;
_chemical_formula_sum "Si O2"
_cell_formula_units_Z 56
_cell_length_a 26.991331
_cell_length_b 11.735524
_cell_length_c 8.933752
_cell_angle_alpha 90.000000
_cell_angle_beta 116.656467
_cell_angle_gamma 90.000000
_cell_volume 2529.056441
_symmetry_space_group_name_H-M "C 2/C"
_symmetry_group_IT_number 15
_symmetry_cell_setting 'monoclinic'
loop_
_space_group_symop_operation_xyz
x,y,z
-x,y,1/2-z
-x,-y,-z
x,-y,1/2+z
1/2+x,1/2+y,z
1/2-x,1/2+y,1/2-z
1/2-x,1/2-y,-z
1/2+x,1/2-y,1/2+z
loop_
_atom_site_type_symbol
_atom_site_label
_atom_site_fract_x
_atom_site_fract_y
_atom_site_fract_z
Si Si1 0.330742 0.587375 0.758359
Si Si2 0.500000 0.999971 0.250000
Si Si3 0.650202 0.837631 0.745206
Si Si4 0.647684 0.228052 0.582400
Si Si5 0.071096 0.081720 0.084238
Si Si6 0.078394 0.452498 0.108647
Si Si7 0.500000 0.448669 0.750000
Si Si8 0.728876 0.591633 0.135714
O O1 0.351891 0.713232 0.837249
O O2 0.383606 0.509554 0.797922
O O3 0.293768 0.604903 0.561866
O O4 0.291131 0.530109 0.828508
O O5 0.538098 0.075513 0.413199
O O6 0.542717 0.925094 0.208843
O O7 0.705368 0.903675 0.767578
O O8 0.597599 0.914796 0.627667
O O9 0.649966 0.826676 0.922720
O O10 0.596682 0.314408 0.528463
O O11 0.633709 0.126377 0.680215
O O12 0.703801 0.299488 0.694942
O O13 0.041196 0.124461 0.198599
O O14 0.030661 0.027997 0.909476
#
# Coordination Sequence:
#
# PCOD8138730 Si02
#       8
#     8   4   8   8   8   8   4   8
#     4  10  21  43  60  92 125 164 199 255 314 372
#     4  10  24  46  62  90 126 172 216 274 298 376
#     4  11  23  40  68  91 125 169 204 256 314 389
#     4  10  21  41  63  92 123 167 201 262 311 379
#     4  10  21  39  62  89 130 157 211 256 315 362
#     4  11  23  44  65  92 129 165 224 253 323 367
#     4  10  20  38  60  98 116 166 212 256 308 378
#     4  10  23  39  70  91 128 160 206 253 317 385
#
# _framework density 22.142645999999999
#
# number of rings (size 3 to 8) (size 9 to 14) (size 15 to 20)
#    0.000    1.714    1.429    4.286    4.000    1.143 
#   18.000    0.714    0.000    0.000    0.000    0.000 
#    0.000    0.000    0.000    0.000    0.000    0.000 
#
# Total GULP energy -346970.463815 kJ/mol
# GULP energy per Si atom -12391.802279 kJ/mol
# Density = 2.209225 g / cm^3
# Si number density = 22.142646 Si / 1000 Ang^3
#
#
#
# Elastic Constant Matrix: (Units=GPa)
#
#
# Indices 1 2 3 4 5 6 
#
# 1 147.4360 44.7772 32.1047 0.0000 -19.1188 0.0000
# 2 44.7772 109.3161 5.2804 0.0000 -8.4920 0.0000
# 3 32.1047 5.2804 57.9137 0.0000 -8.6289 0.0000
# 4 0.0000 0.0000 0.0000 24.4068 0.0000 -14.1306
# 5 -19.1188 -8.4920 -8.6289 0.0000 32.2910 0.0000
# 6 0.0000 0.0000 0.0000 -14.1306 0.0000 35.5090
#
#
#
# Elastic Compliance Matrix: (Units=1/GPa)
#
#
# Indices 1 2 3 4 5 6 
#
# 1 0.009149 -0.003276 -0.004264 0.000000 0.003416 0.000000
# 2 -0.003276 0.010526 0.001021 0.000000 0.001101 0.000000
# 3 -0.004264 0.001021 0.019998 0.000000 0.003088 0.000000
# 4 0.000000 0.000000 0.000000 0.053238 0.000000 0.021186
# 5 0.003416 0.001101 0.003088 0.000000 0.034106 0.000000
# 6 0.000000 0.000000 0.000000 0.021186 0.000000 0.036593
#
#
# Mechanical properties :
#
#
# Convention : Reuss Voigt Hill
#
# Bulk Modulus (GPa) = 37.54705 53.22118 45.38411
# Shear Modulus (GPa) = 26.95028 33.94157 30.44593
#
# Velocity S-wave (km/s) = 3.49251 3.91942 3.71211
# Velocity P-wave (km/s) = 5.76691 6.67610 6.23809
#
# Compressibility (1/GPa) = 0.02663325
#
# Stress axis : x y z
#
# Youngs Moduli (GPa) = 109.30005 95.00265 50.00520
#
# Poissons Ratio (x) = 0.31125 0.21323
# Poissons Ratio (y) = 0.35810 -0.05103
# Poissons Ratio (z) = 0.46608 -0.09695
#
# Static dielectric constant tensor:
#      x y z
#    x 4.569730 0.000000 -0.249740 
#    y 0.000000 4.023560 0.000000 
#    z -0.249740 0.000000 3.729350 
# 
# 
# High freq. dielectric constant tensor:
#      x y z
#    x 1.899470 0.000000 -0.011330 
#    y 0.000000 1.856870 0.000000 
#    z -0.011330 0.000000 1.843690 
# 
# From -- ./inp_files/65567.got.cif
#   From: 2010.06.25/outbox.cif.g09.slc.cpg/sg15_33_cif.got.tgz:65567.got - 2010.06.28 07:06:18.
