data_PCOD8138607
_publ_section_title
;
Structure prediction by ZEFSAII (Michael W. Deem and Ramdas Pophale) SiO2 
 PCOD8138607
Probable space group: C 2/C
;
_chemical_formula_sum "Si O2"
_cell_formula_units_Z 36
_cell_length_a 21.492739
_cell_length_b 10.233969
_cell_length_c 9.258771
_cell_angle_alpha 90.000000
_cell_angle_beta 62.179763
_cell_angle_gamma 90.000000
_cell_volume 1801.133439
_symmetry_space_group_name_H-M "C 2/C"
_symmetry_group_IT_number 15
_symmetry_cell_setting 'monoclinic'
loop_
_space_group_symop_operation_xyz
x,y,z
-x,y,1/2-z
-x,-y,-z
x,-y,1/2+z
1/2+x,1/2+y,z
1/2-x,1/2+y,1/2-z
1/2-x,1/2-y,-z
1/2+x,1/2-y,1/2+z
loop_
_atom_site_type_symbol
_atom_site_label
_atom_site_fract_x
_atom_site_fract_y
_atom_site_fract_z
Si Si1 0.000000 0.050452 0.250000
Si Si2 0.208455 0.567023 0.156155
Si Si3 0.768298 0.851664 0.288789
Si Si4 0.542163 0.914730 0.845545
Si Si5 0.431109 0.365387 0.093892
O O1 0.942489 0.130157 0.406534
O O2 0.036696 0.976599 0.341171
O O3 0.240164 0.692612 0.211168
O O4 0.240208 0.429915 0.179314
O O5 0.124633 0.551639 0.254201
O O6 0.227733 0.587304 0.968571
O O7 0.850008 0.875684 0.218255
O O8 0.500000 0.948845 0.750000
O O9 0.531422 0.764495 0.893889
O O10 0.500000 0.000000 0.000000
#
# Coordination Sequence:
#
# PCOD8138607 Si02
#       5
#     4   8   8   8   8
#     4  10  20  38  58  92 114 160 200 242 310 346
#     4  10  22  40  63  88 121 159 200 250 297 360
#     4  10  21  40  60  90 119 158 201 246 303 351
#     4  11  23  40  60  88 123 161 200 245 302 358
#     4  10  21  38  62  86 125 154 199 252 295 363
#
# _framework density 19.987414000000001
#
# number of rings (size 3 to 8) (size 9 to 14) (size 15 to 20)
#    0.000    1.778    1.111    2.667    1.556    0.889 
#    8.000    0.000    0.000    0.000    0.000    0.000 
#    0.000    0.000    0.000    0.000    0.000    0.000 
#
# Total GULP energy -222995.398849 kJ/mol
# GULP energy per Si atom -12388.633269 kJ/mol
# Density = 1.994192 g / cm^3
# Si number density = 19.987414 Si / 1000 Ang^3
#
#
#
# Elastic Constant Matrix: (Units=GPa)
#
#
# Indices 1 2 3 4 5 6 
#
# 1 69.0811 38.8419 31.3914 0.0000 1.8512 0.0000
# 2 38.8419 55.4477 17.3427 0.0000 -0.0211 0.0000
# 3 31.3914 17.3427 124.6229 0.0000 -10.1198 0.0000
# 4 0.0000 0.0000 0.0000 28.8783 0.0000 -2.6029
# 5 1.8512 -0.0211 -10.1198 0.0000 37.6419 0.0000
# 6 0.0000 0.0000 0.0000 -2.6029 0.0000 35.3856
#
#
#
# Elastic Compliance Matrix: (Units=1/GPa)
#
#
# Indices 1 2 3 4 5 6 
#
# 1 0.026020 -0.016849 -0.004410 0.000000 -0.002475 0.000000
# 2 -0.016849 0.029784 0.000172 0.000000 0.000891 0.000000
# 3 -0.004410 0.000172 0.009333 0.000000 0.002726 0.000000
# 4 0.000000 0.000000 0.000000 0.034859 0.000000 0.002564
# 5 -0.002475 0.000891 0.002726 0.000000 0.027421 0.000000
# 6 0.000000 0.000000 0.000000 0.002564 0.000000 0.028449
#
#
# Mechanical properties :
#
#
# Convention : Reuss Voigt Hill
#
# Bulk Modulus (GPa) = 43.55066 47.14487 45.34777
# Shear Modulus (GPa) = 24.30787 31.15285 27.73036
#
# Velocity S-wave (km/s) = 3.49113 3.95222 3.72881
# Velocity P-wave (km/s) = 6.17147 6.66823 6.42465
#
# Compressibility (1/GPa) = 0.02296176
#
# Stress axis : x y z
#
# Youngs Moduli (GPa) = 38.43254 33.57460 107.15086
#
# Poissons Ratio (x) = 0.56569 0.47258
# Poissons Ratio (y) = 0.64754 -0.01838
# Poissons Ratio (z) = 0.16950 -0.00576
#
# Static dielectric constant tensor:
#      x y z
#    x 3.474390 0.000000 -0.203160 
#    y 0.000000 3.666370 0.000000 
#    z -0.203160 0.000000 3.936090 
# 
# 
# High freq. dielectric constant tensor:
#      x y z
#    x 1.776810 0.000000 -0.011780 
#    y 0.000000 1.780800 0.000000 
#    z -0.011780 0.000000 1.798950 
# 
# From -- ./inp_files/45943.got.cif
#   From: 2010.06.25/outbox.cif.g09.slc.cpg/sg15_23_cif.got.tgz:45943.got - 2010.06.28 07:06:18.
