data_PCOD8138719
_publ_section_title
;
Structure prediction by ZEFSAII (Michael W. Deem and Ramdas Pophale) SiO2 
 PCOD8138719
Probable space group: C 2/C
;
_chemical_formula_sum "Si O2"
_cell_formula_units_Z 60
_cell_length_a 27.843054
_cell_length_b 18.674345
_cell_length_c 10.125991
_cell_angle_alpha 90.000000
_cell_angle_beta 147.499465
_cell_angle_gamma 90.000000
_cell_volume 2828.933080
_symmetry_space_group_name_H-M "C 2/C"
_symmetry_group_IT_number 15
_symmetry_cell_setting 'monoclinic'
loop_
_space_group_symop_operation_xyz
x,y,z
-x,y,1/2-z
-x,-y,-z
x,-y,1/2+z
1/2+x,1/2+y,z
1/2-x,1/2+y,1/2-z
1/2-x,1/2-y,-z
1/2+x,1/2-y,1/2+z
loop_
_atom_site_type_symbol
_atom_site_label
_atom_site_fract_x
_atom_site_fract_y
_atom_site_fract_z
Si Si1 0.000000 0.770213 0.750000
Si Si2 0.026171 0.649874 0.624929
Si Si3 0.637936 0.197401 0.661984
Si Si4 0.353244 0.627827 0.886658
Si Si5 0.335755 0.651427 0.154984
Si Si6 0.557921 0.001786 0.765417
Si Si7 0.439057 0.516573 0.486896
Si Si8 0.151582 0.367059 0.919963
O O1 0.050923 0.721431 0.760895
O O2 0.926170 0.816533 0.498624
O O3 0.062202 0.651050 0.559256
O O4 0.076064 0.586783 0.824758
O O5 0.917946 0.642343 0.361857
O O6 0.623748 0.279014 0.677599
O O7 0.628291 0.189981 0.481850
O O8 0.729898 0.160822 0.921405
O O9 0.380054 0.550805 0.894710
O O10 0.252821 0.645404 0.605171
O O11 0.364195 0.639231 0.069208
O O12 0.369023 0.580566 0.305388
O O13 0.500000 0.970649 0.750000
O O14 0.500000 0.000000 0.500000
O O15 0.644398 0.949983 0.955401
O O16 0.500000 0.500000 0.500000
O O17 0.500000 0.540037 0.750000
#
# Coordination Sequence:
#
# PCOD8138719 Si02
#       8
#     4   8   8   8   8   8   8   8
#     4  12  22  42  66  82 132 174 212 270 340 390
#     4  11  22  38  65  94 125 174 217 264 340 404
#     4  10  21  41  68  94 134 170 216 274 338 393
#     4  11  23  45  65  90 135 173 215 278 341 389
#     4  10  22  42  67  99 127 173 224 275 332 403
#     4  10  20  38  60  93 129 166 211 263 326 395
#     4  12  24  44  69  98 131 181 231 280 342 394
#     4  10  23  40  64  96 129 168 220 278 325 399
#
# _framework density 21.209409000000001
#
# number of rings (size 3 to 8) (size 9 to 14) (size 15 to 20)
#    0.000    1.333    4.000    2.000    1.867    1.600 
#    2.400    1.333    0.000    0.000    0.000    0.000 
#    0.000    0.000    0.000    0.000    0.000    0.000 
#
# Total GULP energy -371748.564566 kJ/mol
# GULP energy per Si atom -12391.618819 kJ/mol
# Density = 2.116114 g / cm^3
# Si number density = 21.209409 Si / 1000 Ang^3
#
#
#
# Elastic Constant Matrix: (Units=GPa)
#
#
# Indices 1 2 3 4 5 6 
#
# 1 79.5493 33.2237 13.1762 0.0000 1.8333 0.0000
# 2 33.2237 140.3455 34.0182 0.0000 4.9474 0.0000
# 3 13.1762 34.0182 63.8048 0.0000 5.8450 0.0000
# 4 0.0000 0.0000 0.0000 37.5455 0.0000 -1.9352
# 5 1.8333 4.9474 5.8450 0.0000 33.4693 0.0000
# 6 0.0000 0.0000 0.0000 -1.9352 0.0000 34.0196
#
#
#
# Elastic Compliance Matrix: (Units=1/GPa)
#
#
# Indices 1 2 3 4 5 6 
#
# 1 0.014043 -0.003009 -0.001287 0.000000 -0.000100 0.000000
# 2 -0.003009 0.008834 -0.004049 0.000000 -0.000434 0.000000
# 3 -0.001287 -0.004049 0.018329 0.000000 -0.002532 0.000000
# 4 0.000000 0.000000 0.000000 0.026713 0.000000 0.001520
# 5 -0.000100 -0.000434 -0.002532 0.000000 0.030390 0.000000
# 6 0.000000 0.000000 0.000000 0.001520 0.000000 0.029481
#
#
# Mechanical properties :
#
#
# Convention : Reuss Voigt Hill
#
# Bulk Modulus (GPa) = 40.78739 49.39285 45.09012
# Shear Modulus (GPa) = 32.75428 34.55897 33.65663
#
# Velocity S-wave (km/s) = 3.93406 4.04098 3.98788
# Velocity P-wave (km/s) = 6.31730 6.71651 6.51996
#
# Compressibility (1/GPa) = 0.02451738
#
# Stress axis : x y z
#
# Youngs Moduli (GPa) = 71.21025 113.19507 54.55777
#
# Poissons Ratio (x) = 0.34060 0.07019
# Poissons Ratio (y) = 0.21427 0.22090
# Poissons Ratio (z) = 0.09162 0.45832
#
# Static dielectric constant tensor:
#      x y z
#    x 3.807110 0.000000 0.060300 
#    y 0.000000 4.539930 0.000000 
#    z 0.060300 0.000000 3.695720 
# 
# 
# High freq. dielectric constant tensor:
#      x y z
#    x 1.829770 0.000000 0.004330 
#    y 0.000000 1.845380 0.000000 
#    z 0.004330 0.000000 1.816520 
# 
# From -- ./inp_files/127252.got.cif
#   From: 2010.06.25/outbox.cif.g09.slc.cpg/sg15_64_cif.got.tgz:127252.got - 2010.06.28 07:06:18.
