data_PCOD8138298
_publ_section_title
;
Structure prediction by ZEFSAII (Michael W. Deem and Ramdas Pophale) SiO2 
 PCOD8138298
Probable space group: C 2/C
;
_chemical_formula_sum "Si O2"
_cell_formula_units_Z 64
_cell_length_a 11.431378
_cell_length_b 13.223779
_cell_length_c 22.111364
_cell_angle_alpha 90.000000
_cell_angle_beta 104.002377
_cell_angle_gamma 90.000000
_cell_volume 3243.167119
_symmetry_space_group_name_H-M "C 2/C"
_symmetry_group_IT_number 15
_symmetry_cell_setting 'monoclinic'
loop_
_space_group_symop_operation_xyz
x,y,z
-x,y,1/2-z
-x,-y,-z
x,-y,1/2+z
1/2+x,1/2+y,z
1/2-x,1/2+y,1/2-z
1/2-x,1/2-y,-z
1/2+x,1/2-y,1/2+z
loop_
_atom_site_type_symbol
_atom_site_label
_atom_site_fract_x
_atom_site_fract_y
_atom_site_fract_z
Si Si1 0.357539 0.406339 0.237774
Si Si2 0.579321 0.042926 0.956407
Si Si3 0.359531 0.361696 0.741639
Si Si4 0.693885 0.652805 0.522252
Si Si5 0.190917 0.776838 0.153902
Si Si6 0.758122 0.762889 0.849119
Si Si7 0.036596 0.742822 0.530890
Si Si8 0.546884 0.158904 0.398790
O O1 0.500000 0.390625 0.250000
O O2 0.319474 0.522679 0.228364
O O3 0.323843 0.362443 0.298245
O O4 0.278545 0.350047 0.176369
O O5 0.725431 0.055104 0.988558
O O6 0.530874 0.155924 0.937999
O O7 0.556509 0.963680 0.899765
O O8 0.500000 0.000000 0.000000
O O9 0.500000 0.349462 0.750000
O O10 0.305371 0.293098 0.681807
O O11 0.315564 0.325689 0.801755
O O12 0.750000 0.750000 0.500000
O O13 0.708223 0.659482 0.595770
O O14 0.551283 0.657255 0.486019
O O15 0.083238 0.696469 0.137286
O O16 0.845248 0.769906 0.917518
O O17 0.634884 0.810652 0.856343
O O18 0.076367 0.704508 0.469141
#
# Coordination Sequence:
#
# PCOD8138298 Si02
#       8
#     8   8   8   8   8   8   8   8
#     4  10  21  43  60  83 117 160 199 246 307 345
#     4   9  19  35  56  89 119 155 198 236 287 359
#     4  10  25  40  58  86 116 156 209 251 296 357
#     4   9  19  36  61  84 126 155 188 241 306 363
#     4  10  21  39  66  84 117 161 199 245 305 355
#     4  11  22  39  64  87 122 155 199 256 291 358
#     4   9  20  37  59  92 123 153 188 240 315 359
#     4  10  20  37  62  91 120 152 199 244 296 370
#
# _framework density 19.733796000000002
#
# number of rings (size 3 to 8) (size 9 to 14) (size 15 to 20)
#    0.000    2.250    1.250    1.125    7.000    0.000 
#    0.000    0.625    0.000    0.000    0.000    0.000 
#    0.000    0.000    0.000    0.000    0.000    0.000 
#
# Total GULP energy -396466.727347 kJ/mol
# GULP energy per Si atom -12389.585230 kJ/mol
# Density = 1.968888 g / cm^3
# Si number density = 19.733796 Si / 1000 Ang^3
#
#
#
# Elastic Constant Matrix: (Units=GPa)
#
#
# Indices 1 2 3 4 5 6 
#
# 1 101.0199 52.3527 35.7031 0.0000 -5.0246 0.0000
# 2 52.3527 85.8356 19.7128 0.0000 2.4213 0.0000
# 3 35.7031 19.7128 81.3223 0.0000 6.2190 0.0000
# 4 0.0000 0.0000 0.0000 68.7401 0.0000 38.8172
# 5 -5.0246 2.4213 6.2190 0.0000 28.6784 0.0000
# 6 0.0000 0.0000 0.0000 38.8172 0.0000 57.3610
#
#
#
# Elastic Compliance Matrix: (Units=1/GPa)
#
#
# Indices 1 2 3 4 5 6 
#
# 1 0.016842 -0.009135 -0.005557 0.000000 0.004927 0.000000
# 2 -0.009135 0.017296 0.000053 0.000000 -0.003072 0.000000
# 3 -0.005557 0.000053 0.015048 0.000000 -0.004241 0.000000
# 4 0.000000 0.000000 0.000000 0.023545 0.000000 -0.015933
# 5 0.004927 -0.003072 -0.004241 0.000000 0.036912 0.000000
# 6 0.000000 0.000000 0.000000 -0.015933 0.000000 0.028216
#
#
# Mechanical properties :
#
#
# Convention : Reuss Voigt Hill
#
# Bulk Modulus (GPa) = 50.22981 53.74611 51.98796
# Shear Modulus (GPa) = 28.77311 41.64983 35.21147
#
# Velocity S-wave (km/s) = 3.82260 4.59909 4.22871
# Velocity P-wave (km/s) = 6.70761 7.44962 7.08833
#
# Compressibility (1/GPa) = 0.01990850
#
# Stress axis : x y z
#
# Youngs Moduli (GPa) = 59.37448 57.81528 66.45477
#
# Poissons Ratio (x) = 0.52816 0.36927
# Poissons Ratio (y) = 0.54240 -0.00352
# Poissons Ratio (z) = 0.32992 -0.00306
#
# Static dielectric constant tensor:
#      x y z
#    x 3.943520 0.000000 -0.014270 
#    y 0.000000 3.797090 0.000000 
#    z -0.014270 0.000000 3.693240 
# 
# 
# High freq. dielectric constant tensor:
#      x y z
#    x 1.785110 0.000000 -0.006280 
#    y 0.000000 1.758550 0.000000 
#    z -0.006280 0.000000 1.759690 
# 
# From -- ./inp_files/238754.got.cif
#   From: 2010.06.25/outbox.cif.g09.slc.cpg/sg15_120_cif.got.tgz:238754.got - 2010.06.28 07:06:18.
