data_PCOD8138899
_publ_section_title
;
Structure prediction by ZEFSAII (Michael W. Deem and Ramdas Pophale) SiO2 
 PCOD8138899
Probable space group: C 2/C
;
_chemical_formula_sum "Si O2"
_cell_formula_units_Z 36
_cell_length_a 13.495262
_cell_length_b 12.235337
_cell_length_c 16.948167
_cell_angle_alpha 90.000000
_cell_angle_beta 150.354051
_cell_angle_gamma 90.000000
_cell_volume 1384.230309
_symmetry_space_group_name_H-M "C 2/C"
_symmetry_group_IT_number 15
_symmetry_cell_setting 'monoclinic'
loop_
_space_group_symop_operation_xyz
x,y,z
-x,y,1/2-z
-x,-y,-z
x,-y,1/2+z
1/2+x,1/2+y,z
1/2-x,1/2+y,1/2-z
1/2-x,1/2-y,-z
1/2+x,1/2-y,1/2+z
loop_
_atom_site_type_symbol
_atom_site_label
_atom_site_fract_x
_atom_site_fract_y
_atom_site_fract_z
Si Si1 0.000000 0.735675 0.750000
Si Si2 0.424279 0.205045 0.533797
Si Si3 0.989874 0.650984 0.333243
Si Si4 0.731545 0.627492 0.836358
Si Si5 0.893892 0.059965 0.355094
O O1 0.810329 0.808623 0.649797
O O2 0.943746 0.658983 0.636789
O O3 0.560681 0.140033 0.568029
O O4 0.475824 0.333556 0.573180
O O5 0.926750 0.778069 0.292912
O O6 0.829478 0.583195 0.270775
O O7 0.000000 0.609935 0.250000
O O8 0.204667 0.633842 0.526822
O O9 0.624733 0.515493 0.736437
O O10 0.000000 0.000000 0.500000
#
# Coordination Sequence:
#
# PCOD8138899 Si02
#       5
#     4   8   8   8   8
#     4  10  20  38  62  92 134 164 230 262 330 394
#     4  10  21  40  64  95 130 180 208 278 333 398
#     4  11  24  44  69 101 130 181 227 284 335 408
#     4  11  22  43  73  93 141 176 224 276 353 401
#     4  11  23  43  65  98 136 178 226 273 347 405
#
# _framework density 26.007231999999998
#
# number of rings (size 3 to 8) (size 9 to 14) (size 15 to 20)
#    0.000    1.333    0.000    8.000    0.000    0.000 
#   18.000    0.000    0.000    0.000    0.000    0.000 
#    0.000    0.000    0.000    0.000    0.000    0.000 
#
# Total GULP energy -223124.409728 kJ/mol
# GULP energy per Si atom -12395.800540 kJ/mol
# Density = 2.594804 g / cm^3
# Si number density = 26.007232 Si / 1000 Ang^3
#
#
#
# Elastic Constant Matrix: (Units=GPa)
#
#
# Indices 1 2 3 4 5 6 
#
# 1 99.9442 10.8120 23.8851 0.0008 -7.5486 -0.0014
# 2 10.8120 111.2696 56.6155 0.0031 -17.5640 -0.0021
# 3 23.8851 56.6155 140.3243 0.0031 -20.4654 -0.0024
# 4 0.0008 0.0031 0.0031 26.0303 0.0029 -16.4396
# 5 -7.5486 -17.5640 -20.4654 0.0029 53.5608 -0.0002
# 6 -0.0014 -0.0021 -0.0024 -16.4396 -0.0002 7.4723
#
#
#
# Elastic Compliance Matrix: (Units=1/GPa)
#
#
# Indices 1 2 3 4 5 6 
#
# 1 0.010466 -0.000052 -0.001639 -0.000002 0.000832 -0.000003
# 2 -0.000052 0.011532 -0.004335 0.000000 0.002118 0.000001
# 3 -0.001639 -0.004335 0.009439 -0.000001 0.001954 0.000000
# 4 -0.000002 0.000000 -0.000001 -0.098639 0.000004 -0.217013
# 5 0.000832 0.002118 0.001954 0.000004 0.020229 0.000011
# 6 -0.000003 0.000001 0.000000 -0.217013 0.000011 -0.343618
#
#
# Mechanical properties :
#
#
# Convention : Reuss Voigt Hill
#
# Bulk Modulus (GPa) = 51.58514 59.35149 55.46832
# Shear Modulus (GPa) = -13.43809 34.76105 10.66148
#
# Velocity S-wave (km/s) = -2.27558 3.65991 2.02690
# Velocity P-wave (km/s) = 3.60189 6.38205 5.18190
#
# Compressibility (1/GPa) = 0.01938543
#
# Stress axis : x y z
#
# Youngs Moduli (GPa) = 95.54978 86.71282 105.93833
#
# Poissons Ratio (x) = 0.00447 0.17367
# Poissons Ratio (y) = 0.00493 0.45926
# Poissons Ratio (z) = 0.15664 0.37592
#
# Static dielectric constant tensor:
#      x y z
#    x 5.459500 0.000050 0.000590 
#    y 0.000050 4.468750 0.000020 
#    z 0.000590 0.000020 5.238320 
# 
# 
# High freq. dielectric constant tensor:
#      x y z
#    x 2.048680 0.000000 -0.009930 
#    y 0.000000 2.009630 0.000000 
#    z -0.009930 0.000000 2.068970 
# 
# From -- ./inp_files/205571.got.cif
#   From: 2010.06.25/outbox.cif.g09.slc.cpg/sg15_103_cif.got.tgz:205571.got - 2010.06.28 07:06:18.
