data_PCOD8138752
_publ_section_title
;
Structure prediction by ZEFSAII (Michael W. Deem and Ramdas Pophale) SiO2 
 PCOD8138752
Probable space group: C 2/C
;
_chemical_formula_sum "Si O2"
_cell_formula_units_Z 48
_cell_length_a 9.945602
_cell_length_b 14.393074
_cell_length_c 16.376691
_cell_angle_alpha 90.000000
_cell_angle_beta 81.090935
_cell_angle_gamma 90.000000
_cell_volume 2316.004110
_symmetry_space_group_name_H-M "C 2/C"
_symmetry_group_IT_number 15
_symmetry_cell_setting 'monoclinic'
loop_
_space_group_symop_operation_xyz
x,y,z
-x,y,1/2-z
-x,-y,-z
x,-y,1/2+z
1/2+x,1/2+y,z
1/2-x,1/2+y,1/2-z
1/2-x,1/2-y,-z
1/2+x,1/2-y,1/2+z
loop_
_atom_site_type_symbol
_atom_site_label
_atom_site_fract_x
_atom_site_fract_y
_atom_site_fract_z
Si Si1 0.611956 0.067663 0.456967
Si Si2 0.461082 0.767983 0.439071
Si Si3 0.222291 0.627251 0.674421
Si Si4 0.641696 0.715368 0.287474
Si Si5 0.617446 0.424679 0.481674
Si Si6 0.855560 0.562218 0.236804
O O1 0.548875 0.171687 0.476987
O O2 0.742706 0.035143 0.496543
O O3 0.650353 0.054980 0.359656
O O4 0.500000 0.000000 0.500000
O O5 0.373403 0.828850 0.385266
O O6 0.607958 0.750083 0.382985
O O7 0.404302 0.666309 0.461681
O O8 0.241943 0.707086 0.739972
O O9 0.364210 0.599960 0.616539
O O10 0.151915 0.539217 0.722565
O O11 0.500000 0.702180 0.250000
O O12 0.726962 0.620543 0.282048
O O13 0.500000 0.500000 0.500000
O O14 0.000000 0.606936 0.250000
#
# Coordination Sequence:
#
# PCOD8138752 Si02
#       6
#     8   8   8   8   8   8
#     4  11  22  39  61  88 121 163 203 246 299 364
#     4  10  20  39  64  87 116 162 205 239 296 372
#     4  10  20  38  61  85 119 165 202 235 297 377
#     4  10  20  38  61  86 115 158 206 252 298 359
#     4  11  22  40  65  93 119 154 202 255 300 351
#     4  12  23  38  59  89 122 158 201 249 299 357
#
# _framework density 20.725352000000001
#
# number of rings (size 3 to 8) (size 9 to 14) (size 15 to 20)
#    0.000    1.333    0.000   10.500    0.000    0.000 
#    0.000    9.167    0.000    0.000    0.000    0.000 
#    0.000    0.000    0.000    0.000    0.000    0.000 
#
# Total GULP energy -297410.982633 kJ/mol
# GULP energy per Si atom -12392.124276 kJ/mol
# Density = 2.067818 g / cm^3
# Si number density = 20.725352 Si / 1000 Ang^3
#
#
#
# Elastic Constant Matrix: (Units=GPa)
#
#
# Indices 1 2 3 4 5 6 
#
# 1 89.3837 55.7266 26.0427 0.0000 -11.4373 0.0000
# 2 55.7266 142.4260 50.4744 0.0000 -11.2127 0.0000
# 3 26.0427 50.4744 125.0612 0.0000 -21.4109 0.0000
# 4 0.0000 0.0000 0.0000 50.2548 0.0000 -16.9748
# 5 -11.4373 -11.2127 -21.4109 0.0000 23.5826 0.0000
# 6 0.0000 0.0000 0.0000 -16.9748 0.0000 30.4490
#
#
#
# Elastic Compliance Matrix: (Units=1/GPa)
#
#
# Indices 1 2 3 4 5 6 
#
# 1 0.015295 -0.005568 -0.000143 0.000000 0.004640 0.000000
# 2 -0.005568 0.010243 -0.003082 0.000000 -0.000629 0.000000
# 3 -0.000143 -0.003082 0.010665 0.000000 0.008148 0.000000
# 4 0.000000 0.000000 0.000000 0.024515 0.000000 0.013667
# 5 0.004640 -0.000629 0.008148 0.000000 0.051753 0.000000
# 6 0.000000 0.000000 0.000000 0.013667 0.000000 0.040461
#
#
# Mechanical properties :
#
#
# Convention : Reuss Voigt Hill
#
# Bulk Modulus (GPa) = 53.71973 69.03982 61.37978
# Shear Modulus (GPa) = 28.29289 35.83241 32.06265
#
# Velocity S-wave (km/s) = 3.69878 4.16254 3.93749
# Velocity P-wave (km/s) = 6.64962 7.51574 7.09591
#
# Compressibility (1/GPa) = 0.01861513
#
# Stress axis : x y z
#
# Youngs Moduli (GPa) = 65.38178 97.63136 93.76717
#
# Poissons Ratio (x) = 0.54364 0.01343
# Poissons Ratio (y) = 0.36406 0.28899
# Poissons Ratio (z) = 0.00936 0.30090
#
# Static dielectric constant tensor:
#      x y z
#    x 3.524160 0.000000 -0.385550 
#    y 0.000000 4.026930 0.000000 
#    z -0.385550 0.000000 4.446220 
# 
# 
# High freq. dielectric constant tensor:
#      x y z
#    x 1.774060 0.000000 -0.032360 
#    y 0.000000 1.820580 0.000000 
#    z -0.032360 0.000000 1.835840 
# 
# From -- ./inp_files/196530.got.cif
#   From: 2010.06.25/outbox.cif.g09.slc.cpg/sg15_99_cif.got.tgz:196530.got - 2010.06.28 07:06:18.
