data_PCOD8138917
_publ_section_title
;
Structure prediction by ZEFSAII (Michael W. Deem and Ramdas Pophale) SiO2 
 PCOD8138917
Probable space group: C 2/C
;
_chemical_formula_sum "Si O2"
_cell_formula_units_Z 56
_cell_length_a 15.303379
_cell_length_b 9.661474
_cell_length_c 22.223807
_cell_angle_alpha 90.000000
_cell_angle_beta 127.225867
_cell_angle_gamma 90.000000
_cell_volume 2616.389390
_symmetry_space_group_name_H-M "C 2/C"
_symmetry_group_IT_number 15
_symmetry_cell_setting 'monoclinic'
loop_
_space_group_symop_operation_xyz
x,y,z
-x,y,1/2-z
-x,-y,-z
x,-y,1/2+z
1/2+x,1/2+y,z
1/2-x,1/2+y,1/2-z
1/2-x,1/2-y,-z
1/2+x,1/2-y,1/2+z
loop_
_atom_site_type_symbol
_atom_site_label
_atom_site_fract_x
_atom_site_fract_y
_atom_site_fract_z
Si Si1 0.733104 0.648168 0.187010
Si Si2 0.289431 0.918958 0.463042
Si Si3 0.930682 0.365981 0.415763
Si Si4 0.325661 0.220869 0.476126
Si Si5 0.409699 0.418810 0.422025
Si Si6 0.428641 0.156275 0.353204
Si Si7 0.642091 0.823725 0.881587
O O1 0.665202 0.791242 0.162089
O O2 0.646455 0.522881 0.148489
O O3 0.804727 0.649163 0.277211
O O4 0.811029 0.624283 0.161776
O O5 0.392293 0.851250 0.469649
O O6 0.310663 0.915469 0.543332
O O7 0.176994 0.837124 0.403590
O O8 0.280342 0.074258 0.432445
O O9 0.946594 0.524368 0.403256
O O10 0.045484 0.288692 0.453351
O O11 0.250000 0.250000 0.500000
O O12 0.316115 0.346876 0.425053
O O13 0.500000 0.500000 0.500000
O O14 0.459438 0.293268 0.403909
O O15 0.510640 0.159381 0.329873
#
# Coordination Sequence:
#
# PCOD8138917 Si02
#       7
#     8   8   8   8   8   8   8
#     4  11  25  44  64  97 135 178 221 274 340 406
#     4  10  20  38  62  96 126 164 214 272 332 386
#     4  11  22  42  64  91 131 176 216 266 339 404
#     4  12  23  37  63  97 128 162 209 279 333 374
#     4  12  26  42  68 101 134 170 228 281 330 392
#     4  12  24  43  68  95 134 182 220 274 339 407
#     4  10  22  36  68  95 126 166 224 276 322 396
#
# _framework density 21.403542999999999
#
# number of rings (size 3 to 8) (size 9 to 14) (size 15 to 20)
#    0.000    0.857    4.286    3.429    6.000    0.000 
#    0.000    0.000    0.000    0.000    0.000    0.000 
#    0.000    0.000    0.000    0.000    0.000    0.000 
#
# Total GULP energy -347010.091174 kJ/mol
# GULP energy per Si atom -12393.217542 kJ/mol
# Density = 2.135483 g / cm^3
# Si number density = 21.403543 Si / 1000 Ang^3
#
#
#
# Elastic Constant Matrix: (Units=GPa)
#
#
# Indices 1 2 3 4 5 6 
#
# 1 106.2695 20.0785 3.4073 0.0000 -4.1034 0.0000
# 2 20.0785 118.4061 24.4226 0.0000 10.0901 0.0000
# 3 3.4073 24.4226 68.1576 0.0000 9.7517 0.0000
# 4 0.0000 0.0000 0.0000 25.2570 0.0000 0.6646
# 5 -4.1034 10.0901 9.7517 0.0000 28.3347 0.0000
# 6 0.0000 0.0000 0.0000 0.6646 0.0000 37.9854
#
#
#
# Elastic Compliance Matrix: (Units=1/GPa)
#
#
# Indices 1 2 3 4 5 6 
#
# 1 0.009840 -0.001820 -0.000143 0.000000 0.002123 0.000000
# 2 -0.001820 0.009592 -0.002966 0.000000 -0.002659 0.000000
# 3 -0.000143 -0.002966 0.016401 0.000000 -0.004609 0.000000
# 4 0.000000 0.000000 0.000000 0.039611 0.000000 -0.000693
# 5 0.002123 -0.002659 -0.004609 0.000000 0.038133 0.000000
# 6 0.000000 0.000000 0.000000 -0.000693 0.000000 0.026338
#
#
# Mechanical properties :
#
#
# Convention : Reuss Voigt Hill
#
# Bulk Modulus (GPa) = 38.49766 43.18334 40.84050
# Shear Modulus (GPa) = 31.55899 34.64373 33.10136
#
# Velocity S-wave (km/s) = 3.84406 4.02755 3.93687
# Velocity P-wave (km/s) = 6.14231 6.46898 6.30776
#
# Compressibility (1/GPa) = 0.02597560
#
# Stress axis : x y z
#
# Youngs Moduli (GPa) = 101.62132 104.24885 60.97095
#
# Poissons Ratio (x) = 0.18973 0.00875
# Poissons Ratio (y) = 0.18495 0.18083
# Poissons Ratio (z) = 0.01458 0.30918
#
# Static dielectric constant tensor:
#      x y z
#    x 4.086520 0.000000 -0.014330 
#    y 0.000000 4.950830 0.000000 
#    z -0.014330 0.000000 3.606390 
# 
# 
# High freq. dielectric constant tensor:
#      x y z
#    x 1.847250 0.000000 0.001660 
#    y 0.000000 1.851730 0.000000 
#    z 0.001660 0.000000 1.810320 
# 
# From -- ./inp_files/273266.got.cif
#   From: 2010.06.25/outbox.cif.g09.slc.cpg/sg15_137_cif.got.tgz:273266.got - 2010.06.28 07:06:18.
