data_PCOD8138251
_publ_section_title
;
Structure prediction by ZEFSAII (Michael W. Deem and Ramdas Pophale) SiO2 
 PCOD8138251
Probable space group: C 2/C
;
_chemical_formula_sum "Si O2"
_cell_formula_units_Z 56
_cell_length_a 18.175105
_cell_length_b 19.003495
_cell_length_c 22.966252
_cell_angle_alpha 90.000000
_cell_angle_beta 159.831923
_cell_angle_gamma 90.000000
_cell_volume 2734.869586
_symmetry_space_group_name_H-M "C 2/C"
_symmetry_group_IT_number 15
_symmetry_cell_setting 'monoclinic'
loop_
_space_group_symop_operation_xyz
x,y,z
-x,y,1/2-z
-x,-y,-z
x,-y,1/2+z
1/2+x,1/2+y,z
1/2-x,1/2+y,1/2-z
1/2-x,1/2-y,-z
1/2+x,1/2-y,1/2+z
loop_
_atom_site_type_symbol
_atom_site_label
_atom_site_fract_x
_atom_site_fract_y
_atom_site_fract_z
Si Si1 0.450723 0.553995 0.647792
Si Si2 0.121328 0.321716 0.899811
Si Si3 0.282255 0.917323 0.053653
Si Si4 0.078322 0.715055 0.136067
Si Si5 0.613556 0.843666 0.483164
Si Si6 0.236711 0.649775 0.685992
Si Si7 0.052402 0.196630 0.174006
O O1 0.500000 0.530370 0.750000
O O2 0.279867 0.614707 0.524659
O O3 0.358520 0.487555 0.544585
O O4 0.658001 0.582071 0.766419
O O5 0.000000 0.327231 0.750000
O O6 0.950130 0.326128 0.824622
O O7 0.250000 0.250000 0.000000
O O8 0.500000 0.927957 0.250000
O O9 0.329043 0.903796 0.020265
O O10 0.150372 0.853718 0.984406
O O11 0.087830 0.799814 0.152913
O O12 0.295831 0.686250 0.269087
O O13 0.876231 0.700528 0.944951
O O14 0.436432 0.875995 0.395208
O O15 0.824885 0.821005 0.675229
O O16 0.526415 0.776928 0.382454
#
# Coordination Sequence:
#
# PCOD8138251 Si02
#       7
#     8   8   8   8   8   8   8
#     4  12  24  42  62  88 128 170 210 255 311 368
#     4  12  22  36  60  90 127 170 211 256 302 363
#     4  12  26  46  62  90 124 166 214 259 317 382
#     4  10  20  37  61  97 126 157 208 253 309 364
#     4  10  21  41  69  98 124 159 205 258 312 375
#     4  10  21  38  63  98 125 161 204 259 311 364
#     4  10  21  40  69  96 125 158 202 265 315 366
#
# _framework density 20.476298
#
# number of rings (size 3 to 8) (size 9 to 14) (size 15 to 20)
#    0.000    1.143    2.857    4.286    0.000    1.143 
#    2.571    2.857    0.000    0.000    0.000    0.000 
#    0.000    0.000    0.000    0.000    0.000    0.000 
#
# Total GULP energy -347289.493608 kJ/mol
# GULP energy per Si atom -12403.196200 kJ/mol
# Density = 2.042969 g / cm^3
# Si number density = 20.476298 Si / 1000 Ang^3
#
#
#
# Elastic Constant Matrix: (Units=GPa)
#
#
# Indices 1 2 3 4 5 6 
#
# 1 118.7423 36.7423 31.5266 0.0210 4.3573 0.0294
# 2 36.7423 85.7274 33.3436 0.0905 10.9841 0.0778
# 3 31.5266 33.3436 107.1052 0.1743 -2.7432 0.1221
# 4 0.0210 0.0905 0.1743 36.7426 0.0986 2.6335
# 5 4.3573 10.9841 -2.7432 0.0986 31.4628 0.0206
# 6 0.0294 0.0778 0.1221 2.6335 0.0206 24.4713
#
#
#
# Elastic Compliance Matrix: (Units=1/GPa)
#
#
# Indices 1 2 3 4 5 6 
#
# 1 0.010019 -0.003531 -0.001858 0.000012 -0.000317 0.000007
# 2 -0.003531 0.015352 -0.003873 -0.000002 -0.005208 -0.000021
# 3 -0.001858 -0.003873 0.011156 -0.000046 0.002582 -0.000038
# 4 0.000012 -0.000002 -0.000046 0.027428 -0.000089 -0.002951
# 5 -0.000317 -0.005208 0.002582 -0.000089 0.033871 -0.000015
# 6 0.000007 -0.000021 -0.000038 -0.002951 -0.000015 0.041182
#
#
# Mechanical properties :
#
#
# Convention : Reuss Voigt Hill
#
# Bulk Modulus (GPa) = 55.54883 57.19999 56.37441
# Shear Modulus (GPa) = 30.57471 32.53284 31.55377
#
# Velocity S-wave (km/s) = 3.86836 3.99031 3.92980
# Velocity P-wave (km/s) = 6.86582 7.01608 6.94136
#
# Compressibility (1/GPa) = 0.01800218
#
# Stress axis : x y z
#
# Youngs Moduli (GPa) = 99.80943 65.13772 89.64057
#
# Poissons Ratio (x) = 0.22999 0.16656
# Poissons Ratio (y) = 0.35241 0.34722
# Poissons Ratio (z) = 0.18545 0.25231
#
# Static dielectric constant tensor:
#      x y z
#    x 3.937590 -0.001310 0.161860 
#    y -0.001310 3.635730 0.000570 
#    z 0.161860 0.000570 3.663110 
# 
# 
# High freq. dielectric constant tensor:
#      x y z
#    x 1.816080 -0.000030 0.005240 
#    y -0.000030 1.778700 -0.000070 
#    z 0.005240 -0.000070 1.810570 
# 
# From -- ./inp_files/250043.got.cif
#   From: 2010.06.25/outbox.cif.g09.slc.cpg/sg15_126_cif.got.tgz:250043.got - 2010.06.28 07:06:18.
