data_PCOD8138801
_publ_section_title
;
Structure prediction by ZEFSAII (Michael W. Deem and Ramdas Pophale) SiO2 
 PCOD8138801
Probable space group: C 2/C
;
_chemical_formula_sum "Si O2"
_cell_formula_units_Z 60
_cell_length_a 10.604832
_cell_length_b 29.192121
_cell_length_c 16.731960
_cell_angle_alpha 90.000000
_cell_angle_beta 31.657085
_cell_angle_gamma 90.000000
_cell_volume 2718.556861
_symmetry_space_group_name_H-M "C 2/C"
_symmetry_group_IT_number 15
_symmetry_cell_setting 'monoclinic'
loop_
_space_group_symop_operation_xyz
x,y,z
-x,y,1/2-z
-x,-y,-z
x,-y,1/2+z
1/2+x,1/2+y,z
1/2-x,1/2+y,1/2-z
1/2-x,1/2-y,-z
1/2+x,1/2-y,1/2+z
loop_
_atom_site_type_symbol
_atom_site_label
_atom_site_fract_x
_atom_site_fract_y
_atom_site_fract_z
Si Si1 0.002677 0.381164 0.057873
Si Si2 0.050705 0.288729 0.344557
Si Si3 0.000000 0.907734 0.750000
Si Si4 0.793664 0.547807 0.232095
Si Si5 0.085362 0.889506 0.971066
Si Si6 0.602089 0.292280 0.480736
Si Si7 0.327546 0.047121 0.774669
Si Si8 0.775974 0.081409 0.928079
O O1 0.866536 0.338175 0.169304
O O2 0.954879 0.427553 0.132456
O O3 0.887574 0.382688 0.031949
O O4 0.291797 0.374932 0.897775
O O5 0.238890 0.273389 0.177103
O O6 0.781048 0.299258 0.458766
O O7 0.070445 0.249803 0.401970
O O8 0.124216 0.939333 0.749640
O O9 0.784199 0.586373 0.307534
O O10 0.694447 0.498163 0.313234
O O11 0.079133 0.541696 0.055372
O O12 0.134139 0.893765 0.039818
O O13 0.051105 0.837166 0.960248
O O14 0.843328 0.917784 0.086235
O O15 0.500000 0.028499 0.750000
O O16 0.000000 0.064976 0.750000
#
# Coordination Sequence:
#
# PCOD8138801 Si02
#       8
#     8   8   4   8   8   8   8   8
#     4  11  23  42  64  94 129 172 213 269 325 384
#     4  10  20  38  61  93 126 160 214 264 326 380
#     4  10  24  42  66  96 134 168 218 274 326 374
#     4  11  26  41  65  98 130 172 224 266 317 385
#     4  12  23  43  66  92 132 170 218 266 323 385
#     4  10  21  36  64  92 123 165 207 267 323 386
#     4  12  23  40  66  95 131 172 219 265 324 379
#     4  11  23  44  64  90 131 179 215 263 320 383
#
# _framework density 22.070533000000001
#
# number of rings (size 3 to 8) (size 9 to 14) (size 15 to 20)
#    0.000    1.067    2.667    4.000    0.000    8.533 
#    1.200    0.667    0.000    1.600    0.000    0.000 
#    0.000    0.000    0.000    0.000    0.000    0.000 
#
# Total GULP energy -371794.979109 kJ/mol
# GULP energy per Si atom -12393.165970 kJ/mol
# Density = 2.202030 g / cm^3
# Si number density = 22.070533 Si / 1000 Ang^3
#
#
#
# Elastic Constant Matrix: (Units=GPa)
#
#
# Indices 1 2 3 4 5 6 
#
# 1 115.9634 43.4536 30.3394 0.0000 15.3036 0.0000
# 2 43.4536 136.2265 36.3108 0.0000 19.5743 0.0000
# 3 30.3394 36.3108 113.6238 -0.0002 3.7377 0.0003
# 4 0.0000 0.0000 -0.0002 32.4172 0.0001 5.1733
# 5 15.3036 19.5743 3.7377 0.0001 35.2926 -0.0001
# 6 0.0000 0.0000 0.0003 5.1733 -0.0001 24.5515
#
#
#
# Elastic Compliance Matrix: (Units=1/GPa)
#
#
# Indices 1 2 3 4 5 6 
#
# 1 0.010413 -0.002379 -0.001922 0.000000 -0.002992 0.000000
# 2 -0.002379 0.009238 -0.002190 0.000000 -0.003860 0.000000
# 3 -0.001922 -0.002190 0.009981 0.000000 0.000991 0.000000
# 4 0.000000 0.000000 0.000000 0.031921 0.000000 -0.006726
# 5 -0.002992 -0.003860 0.000991 0.000000 0.031668 0.000000
# 6 0.000000 0.000000 0.000000 -0.006726 0.000000 0.042148
#
#
# Mechanical properties :
#
#
# Convention : Reuss Voigt Hill
#
# Bulk Modulus (GPa) = 60.05877 65.11348 62.58613
# Shear Modulus (GPa) = 32.48848 35.49958 33.99403
#
# Velocity S-wave (km/s) = 3.84087 4.01491 3.92885
# Velocity P-wave (km/s) = 6.85135 7.14557 7.00000
#
# Compressibility (1/GPa) = 0.01665036
#
# Stress axis : x y z
#
# Youngs Moduli (GPa) = 96.03790 108.24816 100.18741
#
# Poissons Ratio (x) = 0.25756 0.19251
# Poissons Ratio (y) = 0.22850 0.21940
# Poissons Ratio (z) = 0.18454 0.23705
#
# Static dielectric constant tensor:
#      x y z
#    x 4.011600 0.000000 0.129760 
#    y 0.000000 3.722160 0.000000 
#    z 0.129760 0.000000 4.260440 
# 
# 
# High freq. dielectric constant tensor:
#      x y z
#    x 1.868350 0.000000 0.017070 
#    y 0.000000 1.847380 0.000000 
#    z 0.017070 0.000000 1.879280 
# 
# From -- ./inp_files/201385.got.cif
#   From: 2010.06.25/outbox.cif.g09.slc.cpg/sg15_101_cif.got.tgz:201385.got - 2010.06.28 07:06:18.
