data_PCOD8138698
_publ_section_title
;
Structure prediction by ZEFSAII (Michael W. Deem and Ramdas Pophale) SiO2 
 PCOD8138698
Probable space group: C 2/C
;
_chemical_formula_sum "Si O2"
_cell_formula_units_Z 48
_cell_length_a 13.522576
_cell_length_b 20.705720
_cell_length_c 21.831986
_cell_angle_alpha 90.000000
_cell_angle_beta 155.569125
_cell_angle_gamma 90.000000
_cell_volume 2528.240637
_symmetry_space_group_name_H-M "C 2/C"
_symmetry_group_IT_number 15
_symmetry_cell_setting 'monoclinic'
loop_
_space_group_symop_operation_xyz
x,y,z
-x,y,1/2-z
-x,-y,-z
x,-y,1/2+z
1/2+x,1/2+y,z
1/2-x,1/2+y,1/2-z
1/2-x,1/2-y,-z
1/2+x,1/2-y,1/2+z
loop_
_atom_site_type_symbol
_atom_site_label
_atom_site_fract_x
_atom_site_fract_y
_atom_site_fract_z
Si Si1 0.386266 0.230184 0.816917
Si Si2 0.039013 0.715753 0.344585
Si Si3 0.712695 0.613965 0.642121
Si Si4 0.189912 0.559083 0.935684
Si Si5 0.205046 0.579453 0.410207
Si Si6 0.157200 0.836237 0.897468
O O1 0.272891 0.187862 0.696981
O O2 0.531712 0.290204 0.874708
O O3 0.198698 0.260232 0.757586
O O4 0.569895 0.186819 0.960314
O O5 0.250000 0.750000 0.500000
O O6 0.092857 0.639393 0.384406
O O7 0.000000 0.730903 0.250000
O O8 0.735459 0.600463 0.582690
O O9 0.441800 0.600865 0.508434
O O10 0.902460 0.566401 0.782493
O O11 0.266782 0.484194 0.984019
O O12 0.334421 0.591182 0.072276
O O13 0.000000 0.552886 0.250000
O O14 0.000000 0.837834 0.750000
#
# Coordination Sequence:
#
# PCOD8138698 Si02
#       6
#     8   8   8   8   8   8
#     4  10  23  40  62  90 127 157 205 259 314 369
#     4  11  25  41  63  93 126 168 206 259 313 382
#     4  10  20  38  60  88 125 151 204 254 309 357
#     4  10  22  37  61  89 119 163 199 266 304 358
#     4  11  22  36  62  93 122 159 207 253 316 370
#     4  10  24  37  62  89 120 163 205 257 311 376
#
# _framework density 18.985534000000001
#
# number of rings (size 3 to 8) (size 9 to 14) (size 15 to 20)
#    0.000    1.667    3.333    0.500   14.000    0.000 
#    0.000    0.833    0.000    3.000    0.000    0.000 
#    0.000    0.000    0.000    0.000    0.000    0.000 
#
# Total GULP energy -297328.730772 kJ/mol
# GULP energy per Si atom -12388.697115 kJ/mol
# Density = 1.894232 g / cm^3
# Si number density = 18.985534 Si / 1000 Ang^3
#
#
#
# Elastic Constant Matrix: (Units=GPa)
#
#
# Indices 1 2 3 4 5 6 
#
# 1 79.1665 50.8188 47.9602 0.0927 12.2152 0.0213
# 2 50.8188 138.9538 46.7491 0.2679 1.9715 0.0480
# 3 47.9602 46.7491 119.3066 1.2566 7.7406 0.2149
# 4 0.0927 0.2679 1.2566 25.6740 0.0510 -3.9459
# 5 12.2152 1.9715 7.7406 0.0510 40.2701 -0.0058
# 6 0.0213 0.0480 0.2149 -3.9459 -0.0058 22.0430
#
#
#
# Elastic Compliance Matrix: (Units=1/GPa)
#
#
# Indices 1 2 3 4 5 6 
#
# 1 0.020340 -0.005442 -0.005736 0.000289 -0.004801 0.000099
# 2 -0.005442 0.009747 -0.001730 0.000000 0.001506 0.000001
# 3 -0.005736 -0.001730 0.011395 -0.000549 -0.000365 -0.000200
# 4 0.000289 0.000000 -0.000549 0.040079 -0.000032 0.007180
# 5 -0.004801 0.001506 -0.000365 -0.000032 0.026285 0.000006
# 6 0.000099 0.000001 -0.000200 0.007180 0.000006 0.046653
#
#
# Mechanical properties :
#
#
# Convention : Reuss Voigt Hill
#
# Bulk Modulus (GPa) = 63.82386 69.83148 66.82767
# Shear Modulus (GPa) = 26.94881 30.39067 28.66974
#
# Velocity S-wave (km/s) = 3.77163 4.00525 3.89020
# Velocity P-wave (km/s) = 7.25652 7.63221 7.44673
#
# Compressibility (1/GPa) = 0.01566812
#
# Stress axis : x y z
#
# Youngs Moduli (GPa) = 49.16409 102.59276 87.75641
#
# Poissons Ratio (x) = 0.55826 0.50337
# Poissons Ratio (y) = 0.26753 0.15179
# Poissons Ratio (z) = 0.28201 0.17745
#
# Static dielectric constant tensor:
#      x y z
#    x 0.000000 0.000000 0.000000 
#    y 0.000000 0.000000 0.000000 
#    z 0.000000 0.000000 0.000000 
# 
# 
# High freq. dielectric constant tensor:
#      x y z
#    x 1.706830 0.000000 0.017960 
#    y 0.000000 1.745750 -0.000010 
#    z 0.017960 -0.000010 1.754330 
# 
# From -- ./inp_files/275078.got.cif
#   From: 2010.06.25/outbox.cif.g09.slc.cpg/sg15_138_cif.got.tgz:275078.got - 2010.06.28 07:06:18.
