data_PCOD8138432
_publ_section_title
;
Structure prediction by ZEFSAII (Michael W. Deem and Ramdas Pophale) SiO2 
 PCOD8138432
Probable space group: C 2/C
;
_chemical_formula_sum "Si O2"
_cell_formula_units_Z 64
_cell_length_a 18.655621
_cell_length_b 14.638989
_cell_length_c 27.400180
_cell_angle_alpha 90.000000
_cell_angle_beta 155.838979
_cell_angle_gamma 90.000000
_cell_volume 3062.799132
_symmetry_space_group_name_H-M "C 2/C"
_symmetry_group_IT_number 15
_symmetry_cell_setting 'monoclinic'
loop_
_space_group_symop_operation_xyz
x,y,z
-x,y,1/2-z
-x,-y,-z
x,-y,1/2+z
1/2+x,1/2+y,z
1/2-x,1/2+y,1/2-z
1/2-x,1/2-y,-z
1/2+x,1/2-y,1/2+z
loop_
_atom_site_type_symbol
_atom_site_label
_atom_site_fract_x
_atom_site_fract_y
_atom_site_fract_z
Si Si1 0.117600 0.646374 0.456687
Si Si2 0.155345 0.686699 0.980301
Si Si3 0.223179 0.326106 0.911473
Si Si4 0.630312 0.489196 0.874358
Si Si5 0.182298 0.380992 0.786119
Si Si6 0.307155 0.917003 0.228829
Si Si7 0.066484 0.842001 0.998729
Si Si8 0.992931 0.022912 0.595646
O O1 0.139507 0.656685 0.411790
O O2 0.190230 0.726145 0.534968
O O3 0.198579 0.552437 0.525744
O O4 0.905840 0.645115 0.321650
O O5 0.101892 0.746440 0.993792
O O6 0.984444 0.634561 0.853916
O O7 0.250000 0.750000 0.000000
O O8 0.303444 0.614053 0.087201
O O9 0.104529 0.333923 0.788076
O O10 0.372320 0.401457 0.996002
O O11 0.500000 0.510010 0.750000
O O12 0.524015 0.517981 0.856669
O O13 0.154857 0.489501 0.776677
O O14 0.377104 0.342378 0.905403
O O15 0.190563 0.948391 0.203307
O O16 0.207175 0.850505 0.129390
O O17 0.072596 0.925666 0.964835
#
# Coordination Sequence:
#
# PCOD8138432 Si02
#       8
#     8   8   8   8   8   8   8   8
#     4  10  23  38  61  97 132 175 221 277 345 412
#     4  12  27  45  67 104 139 184 233 284 344 421
#     4  10  20  37  64  95 131 167 223 282 341 396
#     4  11  25  47  66  93 142 185 225 280 347 420
#     4  11  20  40  67  98 133 170 231 284 341 403
#     4  11  23  44  70 101 131 178 234 281 348 406
#     4  11  23  39  70 102 133 176 225 291 345 403
#     4  10  20  43  69  97 133 175 222 290 335 406
#
# _framework density 20.895917000000001
#
# number of rings (size 3 to 8) (size 9 to 14) (size 15 to 20)
#    0.000    1.250    5.000    1.125    3.500    3.000 
#    2.250    1.875    0.000    0.000    0.000    0.000 
#    0.000    0.000    0.000    0.000    0.000    0.000 
#
# Total GULP energy -396569.231176 kJ/mol
# GULP energy per Si atom -12392.788474 kJ/mol
# Density = 2.084836 g / cm^3
# Si number density = 20.895917 Si / 1000 Ang^3
#
#
#
# Elastic Constant Matrix: (Units=GPa)
#
#
# Indices 1 2 3 4 5 6 
#
# 1 77.8605 38.2387 36.0515 0.0087 -15.1249 0.0039
# 2 38.2387 122.7421 35.4537 -0.0012 -12.1153 0.0001
# 3 36.0515 35.4537 116.4063 0.0014 -20.5504 0.0007
# 4 0.0087 -0.0012 0.0014 29.4859 0.0047 3.9134
# 5 -15.1249 -12.1153 -20.5504 0.0047 27.7588 0.0018
# 6 0.0039 0.0001 0.0007 3.9134 0.0018 29.5761
#
#
#
# Elastic Compliance Matrix: (Units=1/GPa)
#
#
# Indices 1 2 3 4 5 6 
#
# 1 0.017301 -0.003934 -0.003220 -0.000006 0.005326 -0.000002
# 2 -0.003934 0.009943 -0.001636 0.000001 0.000985 0.000000
# 3 -0.003220 -0.001636 0.011101 -0.000001 0.005750 0.000000
# 4 -0.000006 0.000001 -0.000001 0.034521 -0.000008 -0.004568
# 5 0.005326 0.000985 0.005750 -0.000008 0.043613 -0.000002
# 6 -0.000002 0.000000 0.000000 -0.004568 -0.000002 0.034415
#
#
# Mechanical properties :
#
#
# Convention : Reuss Voigt Hill
#
# Bulk Modulus (GPa) = 48.15777 59.61074 53.88426
# Shear Modulus (GPa) = 28.50700 31.18183 29.84441
#
# Velocity S-wave (km/s) = 3.69757 3.86715 3.78331
# Velocity P-wave (km/s) = 6.42852 6.96629 6.70280
#
# Compressibility (1/GPa) = 0.02076508
#
# Stress axis : x y z
#
# Youngs Moduli (GPa) = 57.79987 100.57800 90.08103
#
# Poissons Ratio (x) = 0.39570 0.29003
# Poissons Ratio (y) = 0.22740 0.14736
# Poissons Ratio (z) = 0.18610 0.16454
#
# Static dielectric constant tensor:
#      x y z
#    x 3.724490 0.000000 0.059810 
#    y 0.000000 3.923420 -0.000030 
#    z 0.059810 -0.000030 3.973280 
# 
# 
# High freq. dielectric constant tensor:
#      x y z
#    x 1.811320 0.000000 0.001140 
#    y 0.000000 1.819910 0.000000 
#    z 0.001140 0.000000 1.833230 
# 
# From -- ./inp_files/318032.got.cif
#   From: 2010.06.25/outbox.cif.g09.slc.cpg/sg15_160_cif.got.tgz:318032.got - 2010.06.28 07:06:18.
