data_PCOD8138740
_publ_section_title
;
Structure prediction by ZEFSAII (Michael W. Deem and Ramdas Pophale) SiO2 
 PCOD8138740
Probable space group: C 2/C
;
_chemical_formula_sum "Si O2"
_cell_formula_units_Z 48
_cell_length_a 9.021431
_cell_length_b 15.909101
_cell_length_c 18.045094
_cell_angle_alpha 90.000000
_cell_angle_beta 88.908575
_cell_angle_gamma 90.000000
_cell_volume 2589.413573
_symmetry_space_group_name_H-M "C 2/C"
_symmetry_group_IT_number 15
_symmetry_cell_setting 'monoclinic'
loop_
_space_group_symop_operation_xyz
x,y,z
-x,y,1/2-z
-x,-y,-z
x,-y,1/2+z
1/2+x,1/2+y,z
1/2-x,1/2+y,1/2-z
1/2-x,1/2-y,-z
1/2+x,1/2-y,1/2+z
loop_
_atom_site_type_symbol
_atom_site_label
_atom_site_fract_x
_atom_site_fract_y
_atom_site_fract_z
Si Si1 0.153343 0.238534 0.428109
Si Si2 0.610011 0.075036 0.921721
Si Si3 0.345335 0.087604 0.162277
Si Si4 0.187352 0.606923 0.169992
Si Si5 0.665991 0.330236 0.531974
Si Si6 0.716642 0.021464 0.551294
O O1 0.250000 0.250000 0.500000
O O2 0.129260 0.330493 0.393240
O O3 0.234003 0.188496 0.362614
O O4 0.002059 0.191742 0.449409
O O5 0.441194 0.067279 0.949876
O O6 0.652418 0.011841 0.855074
O O7 0.715107 0.054570 0.991355
O O8 0.513405 0.120250 0.156622
O O9 0.275457 0.099562 0.243857
O O10 0.247730 0.139496 0.105573
O O11 0.249273 0.521620 0.130165
O O12 0.750000 0.250000 0.500000
O O13 0.664820 0.406548 0.471679
#
# Coordination Sequence:
#
# PCOD8138740 Si02
#       6
#     8   8   8   8   8   8
#     4  12  22  35  60  90 116 145 195 251 286 332
#     4   9  17  35  59  81 109 149 193 227 277 348
#     4   9  21  41  60  77 115 162 188 232 290 355
#     4  10  20  38  61  83 116 149 195 234 298 342
#     4  11  21  36  59  87 117 149 195 238 287 342
#     4   9  17  35  59  80 110 153 187 227 278 353
#
# _framework density 18.537016000000001
#
# number of rings (size 3 to 8) (size 9 to 14) (size 15 to 20)
#    0.000    2.000    3.333    2.000    0.000    1.333 
#    3.000    1.667    0.000    0.000    0.000    0.000 
#    0.000    0.000    0.000    0.000    0.000    0.000 
#
# Total GULP energy -297577.833026 kJ/mol
# GULP energy per Si atom -12399.076376 kJ/mol
# Density = 1.849482 g / cm^3
# Si number density = 18.537016 Si / 1000 Ang^3
#
#
#
# Elastic Constant Matrix: (Units=GPa)
#
#
# Indices 1 2 3 4 5 6 
#
# 1 83.2111 59.2625 53.5297 0.0000 -6.0266 0.0000
# 2 59.2625 154.2414 70.4969 0.0000 -18.1141 0.0000
# 3 53.5297 70.4969 135.5985 0.0000 -14.5321 0.0000
# 4 0.0000 0.0000 0.0000 29.5319 0.0000 -8.6461
# 5 -6.0266 -18.1141 -14.5321 0.0000 26.0056 0.0000
# 6 0.0000 0.0000 0.0000 -8.6461 0.0000 29.8542
#
#
#
# Elastic Compliance Matrix: (Units=1/GPa)
#
#
# Indices 1 2 3 4 5 6 
#
# 1 0.018725 -0.005187 -0.004912 0.000000 -0.002018 0.000000
# 2 -0.005187 0.010284 -0.002830 0.000000 0.004380 0.000000
# 3 -0.004912 -0.002830 0.011117 0.000000 0.003103 0.000000
# 4 0.000000 0.000000 0.000000 0.036999 0.000000 0.010715
# 5 -0.002018 0.004380 0.003103 0.000000 0.042770 0.000000
# 6 0.000000 0.000000 0.000000 0.010715 0.000000 0.036599
#
#
# Mechanical properties :
#
#
# Convention : Reuss Voigt Hill
#
# Bulk Modulus (GPa) = 70.07567 82.18101 76.12834
# Shear Modulus (GPa) = 26.72258 29.72915 28.22587
#
# Velocity S-wave (km/s) = 3.80093 4.00906 3.90638
# Velocity P-wave (km/s) = 7.55963 8.11540 7.84244
#
# Compressibility (1/GPa) = 0.01427029
#
# Stress axis : x y z
#
# Youngs Moduli (GPa) = 53.40427 97.24041 89.94902
#
# Poissons Ratio (x) = 0.50434 0.44182
# Poissons Ratio (y) = 0.27698 0.25452
# Poissons Ratio (z) = 0.26231 0.27515
#
# Static dielectric constant tensor:
#      x y z
#    x 3.394560 0.000000 -0.048400 
#    y 0.000000 3.642820 0.000000 
#    z -0.048400 0.000000 3.374620 
# 
# 
# High freq. dielectric constant tensor:
#      x y z
#    x 1.706380 0.000000 -0.008750 
#    y 0.000000 1.730180 0.000000 
#    z -0.008750 0.000000 1.708530 
# 
# From -- ./inp_files/189236.got.cif
#   From: 2010.06.25/outbox.cif.g09.slc.cpg/sg15_95_cif.got.tgz:189236.got - 2010.06.28 07:06:18.
