data_PCOD8138990
_publ_section_title
;
Structure prediction by ZEFSAII (Michael W. Deem and Ramdas Pophale) SiO2 
 PCOD8138990
Probable space group: C 2/C
;
_chemical_formula_sum "Si O2"
_cell_formula_units_Z 56
_cell_length_a 20.043192
_cell_length_b 11.625781
_cell_length_c 21.120052
_cell_angle_alpha 90.000000
_cell_angle_beta 149.261168
_cell_angle_gamma 90.000000
_cell_volume 2515.426367
_symmetry_space_group_name_H-M "C 2/C"
_symmetry_group_IT_number 15
_symmetry_cell_setting 'monoclinic'
loop_
_space_group_symop_operation_xyz
x,y,z
-x,y,1/2-z
-x,-y,-z
x,-y,1/2+z
1/2+x,1/2+y,z
1/2-x,1/2+y,1/2-z
1/2-x,1/2-y,-z
1/2+x,1/2-y,1/2+z
loop_
_atom_site_type_symbol
_atom_site_label
_atom_site_fract_x
_atom_site_fract_y
_atom_site_fract_z
Si Si1 0.487262 0.345186 0.050357
Si Si2 0.888084 0.180057 0.610061
Si Si3 0.848654 0.305542 0.902320
Si Si4 0.924573 0.311130 0.097151
Si Si5 0.311743 0.539489 0.310395
Si Si6 0.688503 0.096468 0.813950
Si Si7 0.677081 0.426451 0.953562
O O1 0.438918 0.308232 0.079861
O O2 0.577628 0.242448 0.098910
O O3 0.571117 0.462315 0.121614
O O4 0.370507 0.362102 0.904406
O O5 0.750000 0.250000 0.500000
O O6 0.000000 0.229669 0.750000
O O7 0.873715 0.045067 0.618395
O O8 0.764446 0.414485 0.812495
O O9 0.745162 0.222117 0.850211
O O10 0.949397 0.328436 0.041732
O O11 0.790253 0.372906 0.003619
O O12 0.044018 0.382800 0.224237
O O13 0.929164 0.176590 0.123299
O O14 0.201184 0.472335 0.259423
O O15 0.771373 0.032211 0.935591
#
# Coordination Sequence:
#
# PCOD8138990 Si02
#       7
#     8   8   8   8   8   8   8
#     4  10  23  43  65  93 130 179 226 278 343 414
#     4  12  30  49  74 100 137 192 238 286 345 422
#     4  10  22  36  65  98 131 173 232 289 346 417
#     4  10  22  38  65 105 135 174 228 295 354 411
#     4  10  21  39  66  91 131 176 220 282 346 408
#     4  10  20  38  63  95 130 185 229 283 356 414
#     4  10  23  43  65  96 138 181 228 284 355 415
#
# _framework density 22.262626999999998
#
# number of rings (size 3 to 8) (size 9 to 14) (size 15 to 20)
#    0.000    1.714    1.429    1.286    8.000    5.143 
#    0.000    0.000    0.000    0.000    0.000    0.000 
#    0.000    0.000    0.000    0.000    0.000    0.000 
#
# Total GULP energy -347032.449148 kJ/mol
# GULP energy per Si atom -12394.016041 kJ/mol
# Density = 2.221196 g / cm^3
# Si number density = 22.262627 Si / 1000 Ang^3
#
#
#
# Elastic Constant Matrix: (Units=GPa)
#
#
# Indices 1 2 3 4 5 6 
#
# 1 115.1913 13.8510 20.3552 0.0000 6.6712 0.0001
# 2 13.8510 60.8036 26.9103 -0.0003 2.3305 0.0000
# 3 20.3552 26.9103 85.4072 -0.0004 17.9026 0.0000
# 4 0.0000 -0.0003 -0.0004 30.2985 -0.0003 -5.0796
# 5 6.6712 2.3305 17.9026 -0.0003 24.1836 0.0000
# 6 0.0001 0.0000 0.0000 -5.0796 0.0000 21.7712
#
#
#
# Elastic Compliance Matrix: (Units=1/GPa)
#
#
# Indices 1 2 3 4 5 6 
#
# 1 0.009185 -0.001388 -0.001478 0.000000 -0.001306 0.000000
# 2 -0.001388 0.019519 -0.006516 0.000000 0.003326 0.000000
# 3 -0.001478 -0.006516 0.016450 0.000000 -0.011142 0.000000
# 4 0.000000 0.000000 0.000000 0.034349 0.000000 0.008014
# 5 -0.001306 0.003326 -0.011142 0.000000 0.049638 0.000000
# 6 0.000000 0.000000 0.000000 0.008014 0.000000 0.047802
#
#
# Mechanical properties :
#
#
# Convention : Reuss Voigt Hill
#
# Bulk Modulus (GPa) = 37.89534 42.62613 40.26073
# Shear Modulus (GPa) = 24.44947 28.60304 26.52625
#
# Velocity S-wave (km/s) = 3.31755 3.58830 3.45558
# Velocity P-wave (km/s) = 5.63327 6.02962 5.83481
#
# Compressibility (1/GPa) = 0.02638847
#
# Stress axis : x y z
#
# Youngs Moduli (GPa) = 108.87411 51.23166 60.79205
#
# Poissons Ratio (x) = 0.07112 0.08985
# Poissons Ratio (y) = 0.15113 0.39615
# Poissons Ratio (z) = 0.16091 0.33385
#
# Static dielectric constant tensor:
#      x y z
#    x 4.475690 0.000000 -0.436750 
#    y 0.000000 3.818000 0.000000 
#    z -0.436750 0.000000 4.282000 
# 
# 
# High freq. dielectric constant tensor:
#      x y z
#    x 1.888990 0.000000 -0.001020 
#    y 0.000000 1.853650 0.000000 
#    z -0.001020 0.000000 1.875050 
# 
# From -- ./inp_files/280021.got.cif
#   From: 2010.06.25/outbox.cif.g09.slc.cpg/sg15_141_cif.got.tgz:280021.got - 2010.06.28 07:06:18.
