data_PCOD8138002
_publ_section_title
;
Structure prediction by ZEFSAII (Michael W. Deem and Ramdas Pophale) SiO2 
 PCOD8138002
Probable space group: C 2/C
;
_chemical_formula_sum "Si O2"
_cell_formula_units_Z 60
_cell_length_a 20.352060
_cell_length_b 15.203246
_cell_length_c 12.360975
_cell_angle_alpha 90.000000
_cell_angle_beta 121.885567
_cell_angle_gamma 90.000000
_cell_volume 3247.571406
_symmetry_space_group_name_H-M "C 2/C"
_symmetry_group_IT_number 15
_symmetry_cell_setting 'monoclinic'
loop_
_space_group_symop_operation_xyz
x,y,z
-x,y,1/2-z
-x,-y,-z
x,-y,1/2+z
1/2+x,1/2+y,z
1/2-x,1/2+y,1/2-z
1/2-x,1/2-y,-z
1/2+x,1/2-y,1/2+z
loop_
_atom_site_type_symbol
_atom_site_label
_atom_site_fract_x
_atom_site_fract_y
_atom_site_fract_z
Si Si1 0.817016 0.244455 0.646117
Si Si2 0.887344 0.411548 0.623948
Si Si3 0.124993 0.938455 0.231859
Si Si4 0.634226 0.377780 0.997931
Si Si5 0.244718 0.545008 0.053141
Si Si6 0.152603 0.308612 0.603206
Si Si7 0.975885 0.422855 0.902905
Si Si8 0.000000 0.035355 0.250000
O O1 0.750000 0.250000 0.500000
O O2 0.879323 0.313177 0.660152
O O3 0.853881 0.147996 0.680593
O O4 0.794352 0.274391 0.749573
O O5 0.809387 0.462860 0.526204
O O6 0.927145 0.462814 0.759189
O O7 0.941229 0.391253 0.568571
O O8 0.041933 0.973052 0.199061
O O9 0.190638 0.011070 0.308301
O O10 0.120919 0.921789 0.101786
O O11 0.714691 0.413695 0.017548
O O12 0.562031 0.401990 0.860635
O O13 0.636638 0.272451 0.009160
O O14 0.196038 0.617552 0.073510
O O15 0.070322 0.346838 0.573035
O O16 0.000000 0.500000 0.000000
#
# Coordination Sequence:
#
# PCOD8138002 Si02
#       8
#     8   8   8   8   8   8   8   4
#     4  10  20  37  58  90 118 148 195 252 294 345
#     4  10  21  35  59  87 116 151 197 243 293 357
#     4  10  22  37  65  86 115 155 197 245 301 346
#     4  10  23  40  58  89 119 159 197 245 295 352
#     4  11  21  37  62  86 119 158 195 245 299 362
#     4  10  22  38  59  82 126 153 200 243 296 358
#     4  10  20  37  56  84 114 155 193 241 295 347
#     4  10  22  42  62  86 120 154 202 240 290 362
#
# _framework density 18.475344
#
# number of rings (size 3 to 8) (size 9 to 14) (size 15 to 20)
#    0.000    1.867    2.667    0.800    3.733    3.200 
#    2.400    2.667    0.000    0.000    0.000    0.000 
#    0.000    0.000    0.000    0.000    0.000    0.000 
#
# Total GULP energy -371822.142643 kJ/mol
# GULP energy per Si atom -12394.071421 kJ/mol
# Density = 1.843329 g / cm^3
# Si number density = 18.475344 Si / 1000 Ang^3
#
#
#
# Elastic Constant Matrix: (Units=GPa)
#
#
# Indices 1 2 3 4 5 6 
#
# 1 134.5545 55.7323 36.8943 0.0000 -9.1695 0.0000
# 2 55.7323 108.6690 33.7939 0.0000 -10.0223 0.0000
# 3 36.8943 33.7939 78.5292 0.0000 -3.2765 0.0000
# 4 0.0000 0.0000 0.0000 32.4340 0.0000 -6.8813
# 5 -9.1695 -10.0223 -3.2765 0.0000 26.2014 0.0000
# 6 0.0000 0.0000 0.0000 -6.8813 0.0000 22.1883
#
#
#
# Elastic Compliance Matrix: (Units=1/GPa)
#
#
# Indices 1 2 3 4 5 6 
#
# 1 0.010028 -0.004102 -0.002880 0.000000 0.001580 0.000000
# 2 -0.004102 0.012633 -0.003385 0.000000 0.002973 0.000000
# 3 -0.002880 -0.003385 0.015529 0.000000 -0.000361 0.000000
# 4 0.000000 0.000000 0.000000 0.033003 0.000000 0.010235
# 5 0.001580 0.002973 -0.000361 0.000000 0.039811 0.000000
# 6 0.000000 0.000000 0.000000 0.010235 0.000000 0.048243
#
#
# Mechanical properties :
#
#
# Convention : Reuss Voigt Hill
#
# Bulk Modulus (GPa) = 57.28833 63.84376 60.56604
# Shear Modulus (GPa) = 26.91047 29.18688 28.04868
#
# Velocity S-wave (km/s) = 3.82063 3.97895 3.90059
# Velocity P-wave (km/s) = 7.10903 7.46596 7.28968
#
# Compressibility (1/GPa) = 0.01745556
#
# Stress axis : x y z
#
# Youngs Moduli (GPa) = 99.71745 79.15880 64.39505
#
# Poissons Ratio (x) = 0.32468 0.18549
# Poissons Ratio (y) = 0.40901 0.21800
# Poissons Ratio (z) = 0.28723 0.26798
#
# Static dielectric constant tensor:
#      x y z
#    x 3.455130 0.000000 -0.053040 
#    y 0.000000 3.675170 0.000000 
#    z -0.053040 0.000000 3.707780 
# 
# 
# High freq. dielectric constant tensor:
#      x y z
#    x 1.721750 0.000000 -0.007340 
#    y 0.000000 1.719750 0.000000 
#    z -0.007340 0.000000 1.722330 
# 
# From -- ./inp_files/105757.got.cif
#   From: 2010.06.25/outbox.cif.g09.slc.cpg/sg15_53_cif.got.tgz:105757.got - 2010.06.28 07:06:18.
