data_PCOD8138860
_publ_section_title
;
Structure prediction by ZEFSAII (Michael W. Deem and Ramdas Pophale) SiO2 
 PCOD8138860
Probable space group: C 2/C
;
_chemical_formula_sum "Si O2"
_cell_formula_units_Z 52
_cell_length_a 16.810924
_cell_length_b 11.661608
_cell_length_c 18.056583
_cell_angle_alpha 90.000000
_cell_angle_beta 130.354030
_cell_angle_gamma 90.000000
_cell_volume 2697.575800
_symmetry_space_group_name_H-M "C 2/C"
_symmetry_group_IT_number 15
_symmetry_cell_setting 'monoclinic'
loop_
_space_group_symop_operation_xyz
x,y,z
-x,y,1/2-z
-x,-y,-z
x,-y,1/2+z
1/2+x,1/2+y,z
1/2-x,1/2+y,1/2-z
1/2-x,1/2-y,-z
1/2+x,1/2-y,1/2+z
loop_
_atom_site_type_symbol
_atom_site_label
_atom_site_fract_x
_atom_site_fract_y
_atom_site_fract_z
Si Si1 0.168448 0.404828 0.801303
Si Si2 0.350208 0.173534 0.544290
Si Si3 0.567724 0.378250 0.978950
Si Si4 0.115822 0.150180 0.790383
Si Si5 0.000000 0.570897 0.750000
Si Si6 0.276477 0.532505 0.516265
Si Si7 0.140359 0.999565 0.163144
O O1 0.134047 0.274586 0.765657
O O2 0.247013 0.444864 0.784283
O O3 0.068132 0.488483 0.737480
O O4 0.223039 0.407290 0.914247
O O5 0.250000 0.250000 0.500000
O O6 0.417114 0.241837 0.523794
O O7 0.422684 0.155267 0.659747
O O8 0.308290 0.049321 0.493453
O O9 0.625350 0.457043 0.952498
O O10 0.444822 0.400312 0.898052
O O11 0.613061 0.400877 0.087625
O O12 0.190602 0.129118 0.905788
O O13 0.139330 0.053278 0.743949
O O14 0.000000 0.138314 0.750000
#
# Coordination Sequence:
#
# PCOD8138860 Si02
#       7
#     8   8   8   8   4   8   8
#     4  10  22  40  60  85 123 160 195 251 313 355
#     4   9  19  34  59  89 119 157 199 248 307 358
#     4   9  18  37  55  83 120 161 191 248 310 350
#     4  12  22  37  63  91 115 158 206 246 292 366
#     4  10  20  38  62  88 122 160 206 252 304 370
#     4   9  19  37  60  87 116 155 203 247 295 370
#     4  10  22  36  58  85 122 156 204 248 299 367
#
# _framework density 19.276567
#
# number of rings (size 3 to 8) (size 9 to 14) (size 15 to 20)
#    0.000    2.154    2.308    1.385    0.000    4.923 
#    0.000    0.000    0.000    3.692    0.000    0.000 
#    0.000    0.000    0.000    0.000    0.000    0.000 
#
# Total GULP energy -322327.528540 kJ/mol
# GULP energy per Si atom -12397.212636 kJ/mol
# Density = 1.923269 g / cm^3
# Si number density = 19.276567 Si / 1000 Ang^3
#
#
#
# Elastic Constant Matrix: (Units=GPa)
#
#
# Indices 1 2 3 4 5 6 
#
# 1 113.1132 42.8174 29.5570 0.0000 12.6283 0.0000
# 2 42.8174 74.5431 28.8883 0.0000 3.8290 0.0000
# 3 29.5570 28.8883 83.5310 0.0000 9.7715 0.0000
# 4 0.0000 0.0000 0.0000 6.3252 0.0000 -2.5652
# 5 12.6283 3.8290 9.7715 0.0000 27.3997 0.0000
# 6 0.0000 0.0000 0.0000 -2.5652 0.0000 33.9397
#
#
#
# Elastic Compliance Matrix: (Units=1/GPa)
#
#
# Indices 1 2 3 4 5 6 
#
# 1 0.012027 -0.006044 -0.001686 0.000000 -0.004097 0.000000
# 2 -0.006044 0.018531 -0.004480 0.000000 0.001794 0.000000
# 3 -0.001686 -0.004480 0.014561 0.000000 -0.003790 0.000000
# 4 0.000000 0.000000 0.000000 0.163097 0.000000 0.012327
# 5 -0.004097 0.001794 -0.003790 0.000000 0.039486 0.000000
# 6 0.000000 0.000000 0.000000 0.012327 0.000000 0.030396
#
#
# Mechanical properties :
#
#
# Convention : Reuss Voigt Hill
#
# Bulk Modulus (GPa) = 48.31331 52.63475 50.47403
# Shear Modulus (GPa) = 16.15948 24.86125 20.51037
#
# Velocity S-wave (km/s) = 2.89848 3.59515 3.26545
# Velocity P-wave (km/s) = 6.02654 6.67816 6.36070
#
# Compressibility (1/GPa) = 0.02069823
#
# Stress axis : x y z
#
# Youngs Moduli (GPa) = 83.14890 53.96420 68.67770
#
# Poissons Ratio (x) = 0.32617 0.11579
# Poissons Ratio (y) = 0.50257 0.30766
# Poissons Ratio (z) = 0.14018 0.24175
#
# Static dielectric constant tensor:
#      x y z
#    x 3.605940 0.000000 0.230640 
#    y 0.000000 3.592460 0.000000 
#    z 0.230640 0.000000 3.433540 
# 
# 
# High freq. dielectric constant tensor:
#      x y z
#    x 1.741120 0.000000 0.018590 
#    y 0.000000 1.746780 0.000000 
#    z 0.018590 0.000000 1.745520 
# 
# From -- ./inp_files/248663.got.cif
#   From: 2010.06.25/outbox.cif.g09.slc.cpg/sg15_125_cif.got.tgz:248663.got - 2010.06.28 07:06:18.
