data_PCOD8138921
_publ_section_title
;
Structure prediction by ZEFSAII (Michael W. Deem and Ramdas Pophale) SiO2 
 PCOD8138921
Probable space group: C 2/C
;
_chemical_formula_sum "Si O2"
_cell_formula_units_Z 56
_cell_length_a 14.453946
_cell_length_b 11.750358
_cell_length_c 15.730888
_cell_angle_alpha 90.000000
_cell_angle_beta 113.618038
_cell_angle_gamma 90.000000
_cell_volume 2447.926777
_symmetry_space_group_name_H-M "C 2/C"
_symmetry_group_IT_number 15
_symmetry_cell_setting 'monoclinic'
loop_
_space_group_symop_operation_xyz
x,y,z
-x,y,1/2-z
-x,-y,-z
x,-y,1/2+z
1/2+x,1/2+y,z
1/2-x,1/2+y,1/2-z
1/2-x,1/2-y,-z
1/2+x,1/2-y,1/2+z
loop_
_atom_site_type_symbol
_atom_site_label
_atom_site_fract_x
_atom_site_fract_y
_atom_site_fract_z
Si Si1 0.636543 0.883819 0.126616
Si Si2 0.424040 0.849001 0.075967
Si Si3 0.752728 0.408689 0.899646
Si Si4 0.385101 0.573450 0.878709
Si Si5 0.338543 0.002287 0.688622
Si Si6 0.708214 0.221274 0.253952
Si Si7 0.050318 0.898622 0.911172
O O1 0.521211 0.872878 0.051612
O O2 0.702628 0.768248 0.152096
O O3 0.687587 0.973968 0.084680
O O4 0.627271 0.922304 0.220340
O O5 0.453353 0.728446 0.131279
O O6 0.404007 0.952634 0.133845
O O7 0.322208 0.827315 0.984013
O O8 0.738236 0.346085 0.804320
O O9 0.649680 0.450793 0.904592
O O10 0.280904 0.517028 0.870552
O O11 0.364318 0.677490 0.806048
O O12 0.454037 0.478877 0.854968
O O13 0.442692 0.615826 0.983939
O O14 0.357982 0.868125 0.714866
#
# Coordination Sequence:
#
# PCOD8138921 Si02
#       7
#     8   8   8   8   8   8   8
#     4  10  23  39  59  88 130 164 207 257 330 385
#     4  12  21  39  65  95 120 167 222 263 314 384
#     4  11  22  40  63  94 124 165 217 270 313 377
#     4  10  20  38  62  97 125 160 215 265 324 376
#     4  10  21  38  63  91 127 166 215 264 322 382
#     4  10  21  43  63  88 133 175 202 273 329 379
#     4  11  21  36  68  93 121 161 215 271 311 372
#
# _framework density 22.8765
#
# number of rings (size 3 to 8) (size 9 to 14) (size 15 to 20)
#    0.000    1.429    2.857    3.857    0.000    0.000 
#    0.000   17.143    0.000    0.000    0.000    0.000 
#    0.000    0.000    0.000    0.000    0.000    0.000 
#
# Total GULP energy -347032.393858 kJ/mol
# GULP energy per Si atom -12394.014066 kJ/mol
# Density = 2.282443 g / cm^3
# Si number density = 22.876500 Si / 1000 Ang^3
#
#
#
# Elastic Constant Matrix: (Units=GPa)
#
#
# Indices 1 2 3 4 5 6 
#
# 1 138.2221 62.3524 10.9594 0.0000 11.5441 0.0000
# 2 62.3524 144.4032 18.5561 0.0000 -3.1184 0.0000
# 3 10.9594 18.5561 33.2403 0.0000 2.0225 0.0000
# 4 0.0000 0.0000 0.0000 30.8783 0.0000 3.7104
# 5 11.5441 -3.1184 2.0225 0.0000 26.2012 0.0000
# 6 0.0000 0.0000 0.0000 3.7104 0.0000 34.6896
#
#
#
# Elastic Compliance Matrix: (Units=1/GPa)
#
#
# Indices 1 2 3 4 5 6 
#
# 1 0.009538 -0.004149 -0.000546 0.000000 -0.004654 0.000000
# 2 -0.004149 0.009304 -0.004023 0.000000 0.003246 0.000000
# 3 -0.000546 -0.004023 0.032678 0.000000 -0.002761 0.000000
# 4 0.000000 0.000000 0.000000 0.032807 0.000000 -0.003509
# 5 -0.004654 0.003246 -0.002761 0.000000 0.040816 0.000000
# 6 0.000000 0.000000 0.000000 -0.003509 0.000000 0.029202
#
#
# Mechanical properties :
#
#
# Convention : Reuss Voigt Hill
#
# Bulk Modulus (GPa) = 29.33905 55.51128 42.42516
# Shear Modulus (GPa) = 27.30119 33.28699 30.29409
#
# Velocity S-wave (km/s) = 3.45833 3.81868 3.64297
# Velocity P-wave (km/s) = 5.36652 6.61524 6.02333
#
# Compressibility (1/GPa) = 0.03408427
#
# Stress axis : x y z
#
# Youngs Moduli (GPa) = 104.84010 107.48461 30.60187
#
# Poissons Ratio (x) = 0.44595 0.01669
# Poissons Ratio (y) = 0.43498 0.12312
# Poissons Ratio (z) = 0.05719 0.43243
#
# Static dielectric constant tensor:
#      x y z
#    x 4.110400 0.000000 0.314320 
#    y 0.000000 4.293300 0.000000 
#    z 0.314320 0.000000 4.031540 
# 
# 
# High freq. dielectric constant tensor:
#      x y z
#    x 1.894480 0.000000 0.019620 
#    y 0.000000 1.909060 0.000000 
#    z 0.019620 0.000000 1.884820 
# 
# From -- ./inp_files/204113.got.cif
#   From: 2010.06.25/outbox.cif.g09.slc.cpg/sg15_103_cif.got.tgz:204113.got - 2010.06.28 07:06:18.
