data_PCOD8138066
_publ_section_title
;
Structure prediction by ZEFSAII (Michael W. Deem and Ramdas Pophale) SiO2 
 PCOD8138066
Probable space group: C 2/C
;
_chemical_formula_sum "Si O2"
_cell_formula_units_Z 56
_cell_length_a 14.837074
_cell_length_b 11.550954
_cell_length_c 25.296077
_cell_angle_alpha 90.000000
_cell_angle_beta 135.584649
_cell_angle_gamma 90.000000
_cell_volume 3034.081207
_symmetry_space_group_name_H-M "C 2/C"
_symmetry_group_IT_number 15
_symmetry_cell_setting 'monoclinic'
loop_
_space_group_symop_operation_xyz
x,y,z
-x,y,1/2-z
-x,-y,-z
x,-y,1/2+z
1/2+x,1/2+y,z
1/2-x,1/2+y,1/2-z
1/2-x,1/2-y,-z
1/2+x,1/2-y,1/2+z
loop_
_atom_site_type_symbol
_atom_site_label
_atom_site_fract_x
_atom_site_fract_y
_atom_site_fract_z
Si Si1 0.049136 0.295502 0.963614
Si Si2 0.580874 0.639189 0.163178
Si Si3 0.943153 0.027704 0.532614
Si Si4 0.962546 0.370146 0.420233
Si Si5 0.199253 0.403658 0.669852
Si Si6 0.102969 0.058154 0.332005
Si Si7 0.715723 0.006686 0.503516
O O1 0.083624 0.162958 0.974510
O O2 0.909665 0.307051 0.878874
O O3 0.048614 0.350663 0.021943
O O4 0.148572 0.368692 0.969705
O O5 0.546580 0.522802 0.116726
O O6 0.573283 0.752260 0.124070
O O7 0.725883 0.616099 0.243834
O O8 0.479490 0.652356 0.169082
O O9 0.800868 0.974505 0.486840
O O10 0.000000 0.000000 0.500000
O O11 0.861382 0.467578 0.359492
O O12 0.109403 0.406910 0.468327
O O13 0.294745 0.376359 0.661563
O O14 0.000000 0.990166 0.250000
O O15 0.182732 0.977167 0.405387
#
# Coordination Sequence:
#
# PCOD8138066 Si02
#       7
#     8   8   8   8   8   8   8
#     4  11  20  37  61  85 111 154 189 238 281 334
#     4  10  23  35  55  86 118 148 187 235 295 332
#     4  11  23  37  54  86 121 149 187 233 294 340
#     4  11  20  37  63  84 110 154 191 236 279 339
#     4  10  20  37  60  82 113 146 199 234 285 334
#     4   9  17  33  54  83 113 141 185 244 277 328
#     4  10  20  37  58  84 111 149 200 232 276 341
#
# _framework density 18.456987999999999
#
# number of rings (size 3 to 8) (size 9 to 14) (size 15 to 20)
#    0.000    1.714    4.286    1.286    2.000    3.429 
#    0.000    0.000    0.000    2.571    0.000    0.000 
#    0.000    0.000    0.000    0.000    0.000    0.000 
#
# Total GULP energy -346924.351288 kJ/mol
# GULP energy per Si atom -12390.155403 kJ/mol
# Density = 1.841498 g / cm^3
# Si number density = 18.456988 Si / 1000 Ang^3
#
#
#
# Elastic Constant Matrix: (Units=GPa)
#
#
# Indices 1 2 3 4 5 6 
#
# 1 109.1257 7.7047 44.9242 0.0000 4.5066 0.0000
# 2 7.7047 64.1270 27.2186 0.0000 -0.4926 0.0000
# 3 44.9242 27.2186 122.4739 0.0000 13.7381 0.0000
# 4 0.0000 0.0000 0.0000 23.2665 0.0000 -4.2130
# 5 4.5066 -0.4926 13.7381 0.0000 21.8645 0.0000
# 6 0.0000 0.0000 0.0000 -4.2130 0.0000 21.4750
#
#
#
# Elastic Compliance Matrix: (Units=1/GPa)
#
#
# Indices 1 2 3 4 5 6 
#
# 1 0.010807 0.000446 -0.004104 0.000000 0.000361 0.000000
# 2 0.000446 0.017422 -0.004378 0.000000 0.003051 0.000000
# 3 -0.004104 -0.004378 0.011360 0.000000 -0.006391 0.000000
# 4 0.000000 0.000000 0.000000 0.044563 0.000000 0.008742
# 5 0.000361 0.003051 -0.006391 0.000000 0.049746 0.000000
# 6 0.000000 0.000000 0.000000 0.008742 0.000000 0.048281
#
#
# Mechanical properties :
#
#
# Convention : Reuss Voigt Hill
#
# Bulk Modulus (GPa) = 42.52022 50.60240 46.56131
# Shear Modulus (GPa) = 24.26139 27.71314 25.98727
#
# Velocity S-wave (km/s) = 3.62951 3.87912 3.75639
# Velocity P-wave (km/s) = 6.37589 6.89488 6.64046
#
# Compressibility (1/GPa) = 0.02351822
#
# Stress axis : x y z
#
# Youngs Moduli (GPa) = 92.53534 57.39862 88.02818
#
# Poissons Ratio (x) = -0.02561 0.36123
# Poissons Ratio (y) = -0.04128 0.38537
# Poissons Ratio (z) = 0.37973 0.25128
#
# Static dielectric constant tensor:
#      x y z
#    x 3.673410 0.000000 0.074260 
#    y 0.000000 3.180920 0.000000 
#    z 0.074260 0.000000 3.649160 
# 
# 
# High freq. dielectric constant tensor:
#      x y z
#    x 1.726770 0.000000 0.011950 
#    y 0.000000 1.690840 0.000000 
#    z 0.011950 0.000000 1.721400 
# 
# From -- ./inp_files/295919.got.cif
#   From: 2010.06.25/outbox.cif.g09.slc.cpg/sg15_148_cif.got.tgz:295919.got - 2010.06.28 07:06:18.
