data_PCOD8138642
_publ_section_title
;
Structure prediction by ZEFSAII (Michael W. Deem and Ramdas Pophale) SiO2 
 PCOD8138642
Probable space group: C 2/C
;
_chemical_formula_sum "Si O2"
_cell_formula_units_Z 56
_cell_length_a 7.162388
_cell_length_b 14.905888
_cell_length_c 30.779338
_cell_angle_alpha 90.000000
_cell_angle_beta 124.332456
_cell_angle_gamma 90.000000
_cell_volume 2713.555932
_symmetry_space_group_name_H-M "C 2/C"
_symmetry_group_IT_number 15
_symmetry_cell_setting 'monoclinic'
loop_
_space_group_symop_operation_xyz
x,y,z
-x,y,1/2-z
-x,-y,-z
x,-y,1/2+z
1/2+x,1/2+y,z
1/2-x,1/2+y,1/2-z
1/2-x,1/2-y,-z
1/2+x,1/2-y,1/2+z
loop_
_atom_site_type_symbol
_atom_site_label
_atom_site_fract_x
_atom_site_fract_y
_atom_site_fract_z
Si Si1 0.228326 0.059695 0.646272
Si Si2 0.217192 0.380453 0.806021
Si Si3 0.792297 0.438670 0.058112
Si Si4 0.406233 0.740030 0.189533
Si Si5 0.913770 0.689288 0.122183
Si Si6 0.752625 0.130577 0.580068
Si Si7 0.682639 0.378248 0.506509
O O1 0.322716 0.025774 0.611717
O O2 0.351898 0.156520 0.669574
O O3 0.956145 0.059244 0.605946
O O4 0.261949 0.989934 0.691272
O O5 0.420183 0.315834 0.817762
O O6 0.188952 0.369346 0.853498
O O7 0.000000 0.350730 0.750000
O O8 0.729299 0.515987 0.015974
O O9 0.027398 0.400480 0.073215
O O10 0.591244 0.363808 0.029772
O O11 0.500000 0.739875 0.250000
O O12 0.183438 0.679145 0.156873
O O13 0.846966 0.791263 0.123172
O O14 0.806128 0.669621 0.061776
O O15 0.707540 0.158888 0.523798
#
# Coordination Sequence:
#
# PCOD8138642 Si02
#       7
#     8   8   8   8   8   8   8
#     4  10  23  41  65  95 126 166 214 264 324 388
#     4  12  24  42  68  91 124 172 216 269 335 387
#     4  10  20  38  59  91 130 162 210 260 311 389
#     4  11  24  44  65  90 129 164 211 283 322 378
#     4  11  23  41  62  93 127 164 218 264 320 392
#     4  10  22  38  63  94 126 171 208 256 328 384
#     4  10  21  36  60  92 131 163 209 264 309 391
#
# _framework density 20.637127
#
# number of rings (size 3 to 8) (size 9 to 14) (size 15 to 20)
#    0.000    1.429    2.857    2.143    2.000    1.714 
#    0.000    0.000    0.000    0.000    0.000    0.000 
#    0.000    0.000    0.000    0.000    0.000    0.000 
#
# Total GULP energy -346896.829628 kJ/mol
# GULP energy per Si atom -12389.172487 kJ/mol
# Density = 2.059016 g / cm^3
# Si number density = 20.637127 Si / 1000 Ang^3
#
#
#
# Elastic Constant Matrix: (Units=GPa)
#
#
# Indices 1 2 3 4 5 6 
#
# 1 158.2295 48.9306 47.6902 -0.0001 21.8137 0.0001
# 2 48.9306 70.2605 33.1102 0.0000 -2.3487 0.0000
# 3 47.6902 33.1102 97.5369 -0.0002 7.7929 0.0002
# 4 -0.0001 0.0000 -0.0002 -121.5528 -0.0001 152.0537
# 5 21.8137 -2.3487 7.7929 -0.0001 23.9761 0.0001
# 6 0.0001 0.0000 0.0002 152.0537 0.0001 -130.8607
#
#
#
# Elastic Compliance Matrix: (Units=1/GPa)
#
#
# Indices 1 2 3 4 5 6 
#
# 1 0.010212 -0.006448 -0.002065 0.000000 -0.009251 0.000000
# 2 -0.006448 0.021326 -0.004849 0.000000 0.009531 0.000000
# 3 -0.002065 -0.004849 0.013137 0.000000 -0.002866 0.000000
# 4 0.000000 0.000000 0.000000 0.018140 0.000000 0.021078
# 5 -0.009251 0.009531 -0.002866 0.000000 0.051990 0.000000
# 6 0.000000 0.000000 0.000000 0.021078 0.000000 0.016850
#
#
# Mechanical properties :
#
#
# Convention : Reuss Voigt Hill
#
# Bulk Modulus (GPa) = 55.70174 65.05434 60.37804
# Shear Modulus (GPa) = 30.42067 -32.60111 -1.09022
#
# Velocity S-wave (km/s) = 3.84353 -3.97889 -0.72762
# Velocity P-wave (km/s) = 6.83715 3.23768 5.34926
#
# Compressibility (1/GPa) = 0.01795276
#
# Stress axis : x y z
#
# Youngs Moduli (GPa) = 97.92853 46.89017 76.12022
#
# Poissons Ratio (x) = 0.30233 0.15719
# Poissons Ratio (y) = 0.63140 0.36907
# Poissons Ratio (z) = 0.20223 0.22735
#
# Static dielectric constant tensor:
#      x y z
#    x 3.779430 0.000000 0.071650 
#    y 0.000000 3.839800 0.000000 
#    z 0.071650 0.000000 3.847800 
# 
# 
# High freq. dielectric constant tensor:
#      x y z
#    x 1.805460 0.000000 0.004810 
#    y 0.000000 1.806300 0.000000 
#    z 0.004810 0.000000 1.816940 
# 
# From -- ./inp_files/286124.got.cif
#   From: 2010.06.25/outbox.cif.g09.slc.cpg/sg15_144_cif.got.tgz:286124.got - 2010.06.28 07:06:18.
