data_PCOD8138820
_publ_section_title
;
Structure prediction by ZEFSAII (Michael W. Deem and Ramdas Pophale) SiO2 
 PCOD8138820
Probable space group: C 2/C
;
_chemical_formula_sum "Si O2"
_cell_formula_units_Z 60
_cell_length_a 26.546215
_cell_length_b 8.362453
_cell_length_c 25.959160
_cell_angle_alpha 90.000000
_cell_angle_beta 149.434310
_cell_angle_gamma 90.000000
_cell_volume 2930.488379
_symmetry_space_group_name_H-M "C 2/C"
_symmetry_group_IT_number 15
_symmetry_cell_setting 'monoclinic'
loop_
_space_group_symop_operation_xyz
x,y,z
-x,y,1/2-z
-x,-y,-z
x,-y,1/2+z
1/2+x,1/2+y,z
1/2-x,1/2+y,1/2-z
1/2-x,1/2-y,-z
1/2+x,1/2-y,1/2+z
loop_
_atom_site_type_symbol
_atom_site_label
_atom_site_fract_x
_atom_site_fract_y
_atom_site_fract_z
Si Si1 0.638802 0.069316 0.437588
Si Si2 0.028998 0.062072 0.209313
Si Si3 0.000000 0.344045 0.250000
Si Si4 0.655319 0.526485 0.637679
Si Si5 0.141370 0.917429 0.392446
Si Si6 0.497887 0.622067 0.425153
Si Si7 0.860476 0.387701 0.845867
Si Si8 0.056397 0.480485 0.474846
O O1 0.750418 0.018293 0.524591
O O2 0.629883 0.250359 0.411132
O O3 0.572814 0.955725 0.345378
O O4 0.614111 0.052888 0.476698
O O5 0.047176 0.040926 0.165189
O O6 0.060177 0.233674 0.261516
O O7 0.910873 0.047576 0.116468
O O8 0.084875 0.915862 0.287236
O O9 0.602565 0.543511 0.535265
O O10 0.588053 0.396919 0.608336
O O11 0.767616 0.463310 0.733183
O O12 0.655107 0.698559 0.664484
O O13 0.514503 0.805763 0.425953
O O14 0.961767 0.408658 0.903362
O O15 0.870316 0.470868 0.910998
#
# Coordination Sequence:
#
# PCOD8138820 Si02
#       8
#     8   8   4   8   8   8   8   8
#     4  11  21  42  60  93 117 173 196 263 303 375
#     4  10  21  41  60  90 119 164 196 268 296 369
#     4  10  20  38  62  84 122 150 212 244 308 348
#     4  10  22  40  66  90 128 157 205 256 308 378
#     4   9  23  39  61  86 131 152 213 249 311 360
#     4  10  21  41  63  92 121 166 205 254 311 367
#     4  10  22  42  60  97 122 161 203 260 305 381
#     4  10  22  40  65  87 128 159 212 250 312 368
#
# _framework density 20.474402999999999
#
# number of rings (size 3 to 8) (size 9 to 14) (size 15 to 20)
#    0.000    2.133    1.333    1.600    3.733    3.200 
#    2.400    0.000    0.000    0.000    0.000    0.000 
#    0.000    0.000    0.000    0.000    0.000    0.000 
#
# Total GULP energy -371785.484671 kJ/mol
# GULP energy per Si atom -12392.849489 kJ/mol
# Density = 2.042780 g / cm^3
# Si number density = 20.474403 Si / 1000 Ang^3
#
#
#
# Elastic Constant Matrix: (Units=GPa)
#
#
# Indices 1 2 3 4 5 6 
#
# 1 70.7925 19.3340 13.7742 -0.0001 -12.4891 -0.0002
# 2 19.3340 49.3318 8.8781 -0.0001 0.1265 -0.0008
# 3 13.7742 8.8781 70.6160 -0.0001 -1.2410 -0.0001
# 4 -0.0001 -0.0001 -0.0001 32.5077 0.0000 0.2077
# 5 -12.4891 0.1265 -1.2410 0.0000 35.3047 -0.0001
# 6 -0.0002 -0.0008 -0.0001 0.2077 -0.0001 28.1377
#
#
#
# Elastic Compliance Matrix: (Units=1/GPa)
#
#
# Indices 1 2 3 4 5 6 
#
# 1 0.017435 -0.006401 -0.002489 0.000000 0.006103 0.000000
# 2 -0.006401 0.023091 -0.001697 0.000000 -0.002407 0.000001
# 3 -0.002489 -0.001697 0.014854 0.000000 -0.000352 0.000000
# 4 0.000000 0.000000 0.000000 0.030763 0.000000 -0.000227
# 5 0.006103 -0.002407 -0.000352 0.000000 0.030480 0.000000
# 6 0.000000 0.000001 0.000000 -0.000227 0.000000 0.035541
#
#
# Mechanical properties :
#
#
# Convention : Reuss Voigt Hill
#
# Bulk Modulus (GPa) = 29.23407 30.52367 29.87887
# Shear Modulus (GPa) = 27.06516 29.10695 28.08605
#
# Velocity S-wave (km/s) = 3.63974 3.77454 3.70775
# Velocity P-wave (km/s) = 5.65446 5.82552 5.74063
#
# Compressibility (1/GPa) = 0.03420666
#
# Stress axis : x y z
#
# Youngs Moduli (GPa) = 57.35641 43.30684 67.32327
#
# Poissons Ratio (x) = 0.27720 0.16756
# Poissons Ratio (y) = 0.36713 0.11424
# Poissons Ratio (z) = 0.14275 0.07349
#
# Static dielectric constant tensor:
#      x y z
#    x 3.644470 0.000000 -0.051150 
#    y 0.000000 3.706770 0.000000 
#    z -0.051150 0.000000 3.917880 
# 
# 
# High freq. dielectric constant tensor:
#      x y z
#    x 1.785390 0.000000 -0.006570 
#    y 0.000000 1.803970 0.000000 
#    z -0.006570 0.000000 1.807170 
# 
# From -- ./inp_files/303122.got.cif
#   From: 2010.06.25/outbox.cif.g09.slc.cpg/sg15_152_cif.got.tgz:303122.got - 2010.06.28 07:06:18.
