data_PCOD8138048
_publ_section_title
;
Structure prediction by ZEFSAII (Michael W. Deem and Ramdas Pophale) SiO2 
 PCOD8138048
Probable space group: C 2/C
;
_chemical_formula_sum "Si O2"
_cell_formula_units_Z 60
_cell_length_a 15.246417
_cell_length_b 11.731516
_cell_length_c 18.307418
_cell_angle_alpha 90.000000
_cell_angle_beta 75.939639
_cell_angle_gamma 90.000000
_cell_volume 3176.426544
_symmetry_space_group_name_H-M "C 2/C"
_symmetry_group_IT_number 15
_symmetry_cell_setting 'monoclinic'
loop_
_space_group_symop_operation_xyz
x,y,z
-x,y,1/2-z
-x,-y,-z
x,-y,1/2+z
1/2+x,1/2+y,z
1/2-x,1/2+y,1/2-z
1/2-x,1/2-y,-z
1/2+x,1/2-y,1/2+z
loop_
_atom_site_type_symbol
_atom_site_label
_atom_site_fract_x
_atom_site_fract_y
_atom_site_fract_z
Si Si1 0.765357 0.161871 0.103625
Si Si2 0.917224 0.267819 0.546539
Si Si3 0.591455 0.015251 0.909178
Si Si4 0.270056 0.408999 0.123237
Si Si5 0.117262 0.300693 0.524583
Si Si6 0.500000 0.799348 0.250000
Si Si7 0.672838 0.815990 0.282975
Si Si8 0.087004 0.389375 0.092657
O O1 0.662964 0.164998 0.092637
O O2 0.768485 0.247444 0.171104
O O3 0.796380 0.040178 0.129793
O O4 0.831554 0.195195 0.024142
O O5 0.873546 0.386512 0.585726
O O6 0.856599 0.160066 0.577821
O O7 0.925361 0.277672 0.456387
O O8 0.016557 0.254477 0.560972
O O9 0.632489 0.067583 0.826407
O O10 0.479767 0.013939 0.929073
O O11 0.625045 0.091634 0.969381
O O12 0.238025 0.349126 0.203801
O O13 0.193479 0.415063 0.075246
O O14 0.584455 0.737915 0.274766
O O15 0.554015 0.875175 0.181458
#
# Coordination Sequence:
#
# PCOD8138048 Si02
#       8
#     8   8   8   8   8   4   8   8
#     4  10  20  37  58  74 109 148 188 221 273 341
#     4  11  20  31  55  86 113 134 180 238 281 319
#     4   9  17  33  58  80 106 137 183 234 278 319
#     4  11  22  32  52  82 114 145 180 226 282 329
#     4   9  19  36  57  81 104 145 182 229 280 332
#     4   8  16  34  56  76  96 136 178 224 276 308
#     4   9  20  35  55  76 104 143 184 222 273 331
#     4   9  17  33  53  82 107 135 181 231 274 325
#
# _framework density 18.889150999999998
#
# number of rings (size 3 to 8) (size 9 to 14) (size 15 to 20)
#    0.000    2.400    0.000    4.400    1.867    0.533 
#    0.000    0.667    2.933    0.000    0.000    0.000 
#    0.000    0.000    0.000    0.000    0.000    0.000 
#
# Total GULP energy -371659.142570 kJ/mol
# GULP energy per Si atom -12388.638086 kJ/mol
# Density = 1.884616 g / cm^3
# Si number density = 18.889151 Si / 1000 Ang^3
#
#
#
# Elastic Constant Matrix: (Units=GPa)
#
#
# Indices 1 2 3 4 5 6 
#
# 1 104.9305 38.6277 33.7865 0.0000 10.4595 0.0000
# 2 38.6277 83.2919 26.1666 0.0000 -4.0675 0.0000
# 3 33.7865 26.1666 82.0809 0.0000 4.9213 0.0000
# 4 0.0000 0.0000 0.0000 18.3417 0.0000 -3.6831
# 5 10.4595 -4.0675 4.9213 0.0000 30.8524 0.0000
# 6 0.0000 0.0000 0.0000 -3.6831 0.0000 18.7565
#
#
#
# Elastic Compliance Matrix: (Units=1/GPa)
#
#
# Indices 1 2 3 4 5 6 
#
# 1 0.012989 -0.005169 -0.003427 0.000000 -0.004538 0.000000
# 2 -0.005169 0.015587 -0.003099 0.000000 0.004302 0.000000
# 3 -0.003427 -0.003099 0.014677 0.000000 -0.001588 0.000000
# 4 0.000000 0.000000 0.000000 0.056759 0.000000 0.011145
# 5 -0.004538 0.004302 -0.001588 0.000000 0.034771 0.000000
# 6 0.000000 0.000000 0.000000 0.011145 0.000000 0.055503
#
#
# Mechanical properties :
#
#
# Convention : Reuss Voigt Hill
#
# Bulk Modulus (GPa) = 50.34489 51.94055 51.14272
# Shear Modulus (GPa) = 22.69677 25.03828 23.86752
#
# Velocity S-wave (km/s) = 3.47014 3.64474 3.55851
# Velocity P-wave (km/s) = 6.53961 6.72826 6.63460
#
# Compressibility (1/GPa) = 0.01986299
#
# Stress axis : x y z
#
# Youngs Moduli (GPa) = 76.99076 64.15699 68.13492
#
# Poissons Ratio (x) = 0.33161 0.23347
# Poissons Ratio (y) = 0.39795 0.21117
# Poissons Ratio (z) = 0.26381 0.19884
#
# Static dielectric constant tensor:
#      x y z
#    x 3.736120 0.000000 0.176950 
#    y 0.000000 3.165550 0.000000 
#    z 0.176950 0.000000 3.520530 
# 
# 
# High freq. dielectric constant tensor:
#      x y z
#    x 1.745040 0.000000 0.013660 
#    y 0.000000 1.696770 0.000000 
#    z 0.013660 0.000000 1.735300 
# 
# From -- ./inp_files/204421.got.cif
#   From: 2010.06.25/outbox.cif.g09.slc.cpg/sg15_103_cif.got.tgz:204421.got - 2010.06.28 07:06:18.
