data_PCOD8138414
_publ_section_title
;
Structure prediction by ZEFSAII (Michael W. Deem and Ramdas Pophale) SiO2 
 PCOD8138414
Probable space group: C 2/C
;
_chemical_formula_sum "Si O2"
_cell_formula_units_Z 60
_cell_length_a 12.248376
_cell_length_b 20.277609
_cell_length_c 24.329322
_cell_angle_alpha 90.000000
_cell_angle_beta 150.619502
_cell_angle_gamma 90.000000
_cell_volume 2964.552641
_symmetry_space_group_name_H-M "C 2/C"
_symmetry_group_IT_number 15
_symmetry_cell_setting 'monoclinic'
loop_
_space_group_symop_operation_xyz
x,y,z
-x,y,1/2-z
-x,-y,-z
x,-y,1/2+z
1/2+x,1/2+y,z
1/2-x,1/2+y,1/2-z
1/2-x,1/2-y,-z
1/2+x,1/2-y,1/2+z
loop_
_atom_site_type_symbol
_atom_site_label
_atom_site_fract_x
_atom_site_fract_y
_atom_site_fract_z
Si Si1 0.662076 0.638756 0.370720
Si Si2 0.629642 0.191255 0.585051
Si Si3 0.828186 0.569614 0.094181
Si Si4 0.375811 0.701075 0.335081
Si Si5 0.368367 0.498445 0.588520
Si Si6 0.000000 0.913893 0.250000
Si Si7 0.316215 0.563792 0.354549
Si Si8 0.144963 0.716271 0.402548
O O1 0.500000 0.619345 0.250000
O O2 0.528013 0.692006 0.348028
O O3 0.718620 0.571826 0.428565
O O4 0.900729 0.667296 0.455026
O O5 0.547343 0.231031 0.602588
O O6 0.785191 0.240773 0.619201
O O7 0.781455 0.128928 0.667657
O O8 0.683175 0.539928 0.081432
O O9 0.745584 0.644522 0.052425
O O10 0.077330 0.568120 0.223021
O O11 0.819928 0.533971 0.031108
O O12 0.416222 0.637793 0.392420
O O13 0.118808 0.710595 0.206141
O O14 0.450773 0.542441 0.674989
O O15 0.561004 0.490485 0.627946
O O16 0.250000 0.750000 0.500000
#
# Coordination Sequence:
#
# PCOD8138414 Si02
#       8
#     8   8   8   8   8   4   8   8
#     4  11  25  44  64  90 131 178 213 261 321 395
#     4  12  23  41  67  94 128 165 216 271 323 377
#     4  10  20  37  64  92 116 166 208 270 315 376
#     4  10  20  41  64  92 124 165 212 260 327 379
#     4  11  24  41  59  92 130 169 217 254 321 382
#     4  12  26  40  64  96 132 170 212 272 310 388
#     4   9  20  39  66  86 124 162 212 263 318 378
#     4  11  20  36  63  96 126 159 213 265 322 381
#
# _framework density 20.239142000000001
#
# number of rings (size 3 to 8) (size 9 to 14) (size 15 to 20)
#    0.000    1.333    3.333    2.400    1.867    2.667 
#    0.000    0.000    0.000    0.000    0.000    0.000 
#    0.000    0.000    0.000    0.000    0.000    0.000 
#
# Total GULP energy -371826.562029 kJ/mol
# GULP energy per Si atom -12394.218734 kJ/mol
# Density = 2.019308 g / cm^3
# Si number density = 20.239142 Si / 1000 Ang^3
#
#
#
# Elastic Constant Matrix: (Units=GPa)
#
#
# Indices 1 2 3 4 5 6 
#
# 1 73.9411 32.1852 32.6447 0.0009 -4.7808 0.0047
# 2 32.1852 95.1674 37.6243 0.0007 -4.1281 0.0031
# 3 32.6447 37.6243 88.2699 0.0125 -9.2789 0.0026
# 4 0.0009 0.0007 0.0125 28.2180 0.0010 -14.8037
# 5 -4.7808 -4.1281 -9.2789 0.0010 40.3507 0.0013
# 6 0.0047 0.0031 0.0026 -14.8037 0.0013 38.8573
#
#
#
# Elastic Compliance Matrix: (Units=1/GPa)
#
#
# Indices 1 2 3 4 5 6 
#
# 1 0.017359 -0.004007 -0.004651 0.000001 0.000577 -0.000001
# 2 -0.004007 0.013562 -0.004307 0.000002 -0.000078 0.000000
# 3 -0.004651 -0.004307 0.015147 -0.000008 0.002491 -0.000003
# 4 0.000001 0.000002 -0.000008 0.044291 -0.000003 0.016874
# 5 0.000577 -0.000078 0.002491 -0.000003 0.025416 -0.000002
# 6 -0.000001 0.000000 -0.000003 0.016874 -0.000002 0.032164
#
#
# Mechanical properties :
#
#
# Convention : Reuss Voigt Hill
#
# Bulk Modulus (GPa) = 49.65809 51.36520 50.51165
# Shear Modulus (GPa) = 27.68820 31.81348 29.75084
#
# Velocity S-wave (km/s) = 3.70273 3.96899 3.83817
# Velocity P-wave (km/s) = 6.54746 6.81455 6.68234
#
# Compressibility (1/GPa) = 0.02013771
#
# Stress axis : x y z
#
# Youngs Moduli (GPa) = 57.60610 73.73343 66.02023
#
# Poissons Ratio (x) = 0.29544 0.30708
# Poissons Ratio (y) = 0.23082 0.28436
# Poissons Ratio (z) = 0.26795 0.31758
#
# Static dielectric constant tensor:
#      x y z
#    x 4.092550 -0.000020 -0.068080 
#    y -0.000020 3.838490 0.000000 
#    z -0.068080 0.000000 3.570440 
# 
# 
# High freq. dielectric constant tensor:
#      x y z
#    x 1.794190 0.000000 -0.004240 
#    y 0.000000 1.793690 0.000000 
#    z -0.004240 0.000000 1.785570 
# 
# From -- ./inp_files/271054.got.cif
#   From: 2010.06.25/outbox.cif.g09.slc.cpg/sg15_136_cif.got.tgz:271054.got - 2010.06.28 07:06:18.
