data_PCOD8138159
_publ_section_title
;
Structure prediction by ZEFSAII (Michael W. Deem and Ramdas Pophale) SiO2 
 PCOD8138159
Probable space group: C 2/C
;
_chemical_formula_sum "Si O2"
_cell_formula_units_Z 32
_cell_length_a 13.392791
_cell_length_b 8.608026
_cell_length_c 13.532782
_cell_angle_alpha 90.000000
_cell_angle_beta 105.470497
_cell_angle_gamma 90.000000
_cell_volume 1503.606587
_symmetry_space_group_name_H-M "C 2/C"
_symmetry_group_IT_number 15
_symmetry_cell_setting 'monoclinic'
loop_
_space_group_symop_operation_xyz
x,y,z
-x,y,1/2-z
-x,-y,-z
x,-y,1/2+z
1/2+x,1/2+y,z
1/2-x,1/2+y,1/2-z
1/2-x,1/2-y,-z
1/2+x,1/2-y,1/2+z
loop_
_atom_site_type_symbol
_atom_site_label
_atom_site_fract_x
_atom_site_fract_y
_atom_site_fract_z
Si Si1 0.721809 0.815898 0.098206
Si Si2 0.098216 0.695403 0.218816
Si Si3 0.835617 0.348218 0.968378
Si Si4 0.527497 0.855180 0.156120
O O1 0.800527 0.748514 0.197703
O O2 0.607445 0.762336 0.106624
O O3 0.723043 0.002153 0.090961
O O4 0.750000 0.750000 0.000000
O O5 0.112299 0.749629 0.108166
O O6 0.084669 0.509481 0.212136
O O7 0.000000 0.771797 0.250000
O O8 0.750000 0.250000 0.000000
O O9 0.925296 0.399963 0.067610
O O10 0.500000 0.759466 0.250000
#
# Coordination Sequence:
#
# PCOD8138159 Si02
#       4
#     8   8   8   8
#     4  11  21  37  63  91 119 159 204 250 301 362
#     4  10  20  37  60  87 118 159 203 246 297 358
#     4  11  23  41  63  92 124 161 203 253 307 363
#     4  10  20  39  63  88 120 161 202 249 303 359
#
# _framework density 21.282162
#
# number of rings (size 3 to 8) (size 9 to 14) (size 15 to 20)
#    0.000    1.500    0.000    9.000    0.000    2.000 
#    0.000   11.250    0.000    0.000    0.000    0.000 
#    0.000    0.000    0.000    0.000    0.000    0.000 
#
# Total GULP energy -198252.048197 kJ/mol
# GULP energy per Si atom -12390.753012 kJ/mol
# Density = 2.123372 g / cm^3
# Si number density = 21.282162 Si / 1000 Ang^3
#
#
#
# Elastic Constant Matrix: (Units=GPa)
#
#
# Indices 1 2 3 4 5 6 
#
# 1 192.6976 49.8931 83.3139 0.0000 -35.7977 0.0000
# 2 49.8931 49.5325 43.9197 0.0000 4.8206 0.0000
# 3 83.3139 43.9197 170.5605 0.0000 -12.5549 0.0000
# 4 0.0000 0.0000 0.0000 35.4994 0.0000 2.7485
# 5 -35.7977 4.8206 -12.5549 0.0000 70.8048 0.0000
# 6 0.0000 0.0000 0.0000 2.7485 0.0000 30.6465
#
#
#
# Elastic Compliance Matrix: (Units=1/GPa)
#
#
# Indices 1 2 3 4 5 6 
#
# 1 0.008913 -0.007614 -0.002050 0.000000 0.004661 0.000000
# 2 -0.007614 0.033317 -0.005381 0.000000 -0.007072 0.000000
# 3 -0.002050 -0.005381 0.008309 0.000000 0.000803 0.000000
# 4 0.000000 0.000000 0.000000 0.028366 0.000000 -0.002544
# 5 0.004661 -0.007072 0.000803 0.000000 0.017104 0.000000
# 6 0.000000 0.000000 0.000000 -0.002544 0.000000 0.032858
#
#
# Mechanical properties :
#
#
# Convention : Reuss Voigt Hill
#
# Bulk Modulus (GPa) = 48.89925 85.22712 67.06319
# Shear Modulus (GPa) = 30.16151 43.10106 36.63129
#
# Velocity S-wave (km/s) = 3.76868 4.50513 4.15326
# Velocity P-wave (km/s) = 6.47795 8.19724 7.38778
#
# Compressibility (1/GPa) = 0.02045021
#
# Stress axis : x y z
#
# Youngs Moduli (GPa) = 112.19378 30.01446 120.34990
#
# Poissons Ratio (x) = 0.22853 0.24673
# Poissons Ratio (y) = 0.85423 0.64756
# Poissons Ratio (z) = 0.23001 0.16150
#
# Static dielectric constant tensor:
#      x y z
#    x 4.973420 0.000000 -0.684430 
#    y 0.000000 3.351570 0.000000 
#    z -0.684430 0.000000 4.467980 
# 
# 
# High freq. dielectric constant tensor:
#      x y z
#    x 1.867150 0.000000 -0.025930 
#    y 0.000000 1.772790 0.000000 
#    z -0.025930 0.000000 1.858390 
# 
# From -- ./inp_files/84164.got.cif
#   From: 2010.06.25/outbox.cif.g09.slc.cpg/sg15_43_cif.got.tgz:84164.got - 2010.06.28 07:06:18.
