data_PCOD8138369
_publ_section_title
;
Structure prediction by ZEFSAII (Michael W. Deem and Ramdas Pophale) SiO2 
 PCOD8138369
Probable space group: C 2/C
;
_chemical_formula_sum "Si O2"
_cell_formula_units_Z 64
_cell_length_a 12.876611
_cell_length_b 22.606592
_cell_length_c 11.232688
_cell_angle_alpha 90.000000
_cell_angle_beta 105.052165
_cell_angle_gamma 90.000000
_cell_volume 3157.606485
_symmetry_space_group_name_H-M "C 2/C"
_symmetry_group_IT_number 15
_symmetry_cell_setting 'monoclinic'
loop_
_space_group_symop_operation_xyz
x,y,z
-x,y,1/2-z
-x,-y,-z
x,-y,1/2+z
1/2+x,1/2+y,z
1/2-x,1/2+y,1/2-z
1/2-x,1/2-y,-z
1/2+x,1/2-y,1/2+z
loop_
_atom_site_type_symbol
_atom_site_label
_atom_site_fract_x
_atom_site_fract_y
_atom_site_fract_z
Si Si1 0.790229 0.553624 0.239002
Si Si2 0.709016 0.615661 0.587180
Si Si3 0.139724 0.255947 0.892812
Si Si4 0.907584 0.228568 0.883229
Si Si5 0.623417 0.506821 0.009566
Si Si6 0.908771 0.387358 0.576364
Si Si7 0.638941 0.141181 0.062767
Si Si8 0.248377 0.437963 0.152095
O O1 0.885799 0.563342 0.170502
O O2 0.776407 0.611696 0.318598
O O3 0.818359 0.495853 0.326039
O O4 0.678899 0.540652 0.136839
O O5 0.633363 0.673218 0.551395
O O6 0.664860 0.559599 0.502438
O O7 0.824978 0.628827 0.562376
O O8 0.713033 0.600919 0.726955
O O9 0.144825 0.226001 0.764582
O O10 0.111071 0.324633 0.865813
O O11 0.037769 0.225708 0.928048
O O12 0.250000 0.250000 0.000000
O O13 0.866582 0.288667 0.930263
O O14 0.647843 0.542813 0.895578
O O15 0.500000 0.500000 0.000000
O O16 0.827824 0.394705 0.443701
O O17 0.027929 0.392379 0.559585
#
# Coordination Sequence:
#
# PCOD8138369 Si02
#       8
#     8   8   8   8   8   8   8   8
#     4  10  20  38  61  87 120 156 203 249 304 359
#     4  11  23  40  60  88 127 162 202 256 305 374
#     4  10  20  37  63  92 120 160 209 257 307 368
#     4  10  22  38  63  91 123 166 203 254 315 369
#     4  10  23  41  63  86 121 160 206 260 306 361
#     4  10  21  38  62  88 124 159 200 259 301 361
#     4  11  21  41  60  89 126 162 203 248 312 371
#     4  10  22  41  59  94 119 160 208 250 308 364
#
# _framework density 20.268518
#
# number of rings (size 3 to 8) (size 9 to 14) (size 15 to 20)
#    0.000    1.750    2.500    1.500    0.000    7.000 
#    4.500    0.000    0.000    1.500    0.000    0.000 
#    0.000    0.000    0.000    0.000    0.000    0.000 
#
# Total GULP energy -396664.451215 kJ/mol
# GULP energy per Si atom -12395.764100 kJ/mol
# Density = 2.022239 g / cm^3
# Si number density = 20.268518 Si / 1000 Ang^3
#
#
#
# Elastic Constant Matrix: (Units=GPa)
#
#
# Indices 1 2 3 4 5 6 
#
# 1 139.1358 47.7133 55.2516 0.0000 -6.5687 0.0000
# 2 47.7133 82.0904 22.1596 0.0000 -7.8056 0.0000
# 3 55.2516 22.1596 79.6523 0.0000 -9.5934 0.0000
# 4 0.0000 0.0000 0.0000 29.8675 0.0000 -5.9576
# 5 -6.5687 -7.8056 -9.5934 0.0000 28.6301 0.0000
# 6 0.0000 0.0000 0.0000 -5.9576 0.0000 31.4326
#
#
#
# Elastic Compliance Matrix: (Units=1/GPa)
#
#
# Indices 1 2 3 4 5 6 
#
# 1 0.011515 -0.004970 -0.006721 0.000000 -0.000965 0.000000
# 2 -0.004970 0.015485 -0.000510 0.000000 0.002911 0.000000
# 3 -0.006721 -0.000510 0.017877 0.000000 0.004309 0.000000
# 4 0.000000 0.000000 0.000000 0.034797 0.000000 0.006595
# 5 -0.000965 0.002911 0.004309 0.000000 0.036944 0.000000
# 6 0.000000 0.000000 0.000000 0.006595 0.000000 0.033064
#
#
# Mechanical properties :
#
#
# Convention : Reuss Voigt Hill
#
# Bulk Modulus (GPa) = 48.83915 61.23641 55.03778
# Shear Modulus (GPa) = 27.63802 29.70296 28.67049
#
# Velocity S-wave (km/s) = 3.69669 3.83230 3.76511
# Velocity P-wave (km/s) = 6.50915 7.06118 6.79078
#
# Compressibility (1/GPa) = 0.02047538
#
# Stress axis : x y z
#
# Youngs Moduli (GPa) = 86.84265 64.57871 55.93631
#
# Poissons Ratio (x) = 0.32098 0.37595
# Poissons Ratio (y) = 0.43164 0.02851
# Poissons Ratio (z) = 0.58367 0.03291
#
# Static dielectric constant tensor:
#      x y z
#    x 3.654500 0.000000 -0.133700 
#    y 0.000000 3.861610 0.000000 
#    z -0.133700 0.000000 3.668910 
# 
# 
# High freq. dielectric constant tensor:
#      x y z
#    x 1.780250 0.000000 -0.015350 
#    y 0.000000 1.801410 0.000000 
#    z -0.015350 0.000000 1.786370 
# 
# From -- ./inp_files/90859.got.cif
#   From: 2010.06.25/outbox.cif.g09.slc.cpg/sg15_46_cif.got.tgz:90859.got - 2010.06.28 07:06:18.
