data_PCOD8138734
_publ_section_title
;
Structure prediction by ZEFSAII (Michael W. Deem and Ramdas Pophale) SiO2 
 PCOD8138734
Probable space group: C 2/C
;
_chemical_formula_sum "Si O2"
_cell_formula_units_Z 64
_cell_length_a 9.529990
_cell_length_b 15.061075
_cell_length_c 27.945364
_cell_angle_alpha 90.000000
_cell_angle_beta 45.052842
_cell_angle_gamma 90.000000
_cell_volume 2838.855946
_symmetry_space_group_name_H-M "C 2/C"
_symmetry_group_IT_number 15
_symmetry_cell_setting 'monoclinic'
loop_
_space_group_symop_operation_xyz
x,y,z
-x,y,1/2-z
-x,-y,-z
x,-y,1/2+z
1/2+x,1/2+y,z
1/2-x,1/2+y,1/2-z
1/2-x,1/2-y,-z
1/2+x,1/2-y,1/2+z
loop_
_atom_site_type_symbol
_atom_site_label
_atom_site_fract_x
_atom_site_fract_y
_atom_site_fract_z
Si Si1 0.629795 0.411719 0.325783
Si Si2 0.127479 0.704362 0.798655
Si Si3 0.906579 0.189317 0.063425
Si Si4 0.967164 0.892022 0.651293
Si Si5 0.590783 0.196067 0.068774
Si Si6 0.762292 0.361514 0.132216
Si Si7 0.105499 0.458997 0.929625
Si Si8 0.679469 0.331034 0.407086
O O1 0.812390 0.351052 0.262890
O O2 0.639536 0.515418 0.307878
O O3 0.431192 0.363405 0.354889
O O4 0.639306 0.414675 0.381581
O O5 0.127753 0.812391 0.793472
O O6 0.279806 0.674471 0.804011
O O7 0.906410 0.677091 0.867526
O O8 0.938246 0.129606 0.102272
O O9 0.676379 0.180615 0.101526
O O10 0.928155 0.295003 0.069354
O O11 0.056765 0.160278 0.985573
O O12 0.202011 0.900823 0.603271
O O13 0.562086 0.098624 0.054910
O O14 0.384243 0.249090 0.112868
O O15 0.750000 0.250000 0.000000
O O16 0.841777 0.461051 0.118813
O O17 0.000000 0.500000 0.000000
#
# Coordination Sequence:
#
# PCOD8138734 Si02
#       8
#     8   8   8   8   8   8   8   8
#     4  11  24  46  65  93 140 180 229 279 332 405
#     4  11  24  46  67  96 131 184 233 278 324 408
#     4  10  22  41  68 102 136 172 219 274 352 411
#     4  10  25  43  68 102 132 177 228 284 339 404
#     4  10  20  38  60  98 134 177 208 262 340 410
#     4  10  23  41  67  96 130 174 222 283 334 395
#     4  11  22  37  65 101 137 167 214 276 341 409
#     4  11  22  39  66  98 137 175 217 274 349 398
#
# _framework density 22.544291999999999
#
# number of rings (size 3 to 8) (size 9 to 14) (size 15 to 20)
#    0.000    1.500    2.500    2.250    7.000    2.500 
#    2.250    6.250    0.000    0.000    0.000    0.000 
#    0.000    0.000    0.000    0.000    0.000    0.000 
#
# Total GULP energy -396551.677056 kJ/mol
# GULP energy per Si atom -12392.239908 kJ/mol
# Density = 2.249298 g / cm^3
# Si number density = 22.544292 Si / 1000 Ang^3
#
#
#
# Elastic Constant Matrix: (Units=GPa)
#
#
# Indices 1 2 3 4 5 6 
#
# 1 94.8423 46.4482 19.4309 0.0005 4.4493 -0.0003
# 2 46.4482 151.2458 47.1077 0.0005 -3.7112 -0.0002
# 3 19.4309 47.1077 80.5015 0.0015 0.8347 -0.0005
# 4 0.0005 0.0005 0.0015 30.8839 -0.0005 -0.7249
# 5 4.4493 -3.7112 0.8347 -0.0005 26.3227 0.0004
# 6 -0.0003 -0.0002 -0.0005 -0.7249 0.0004 40.8512
#
#
#
# Elastic Compliance Matrix: (Units=1/GPa)
#
#
# Indices 1 2 3 4 5 6 
#
# 1 0.012646 -0.003676 -0.000874 0.000000 -0.002628 0.000000
# 2 -0.003676 0.009198 -0.004517 0.000000 0.002061 0.000000
# 3 -0.000874 -0.004517 0.015286 -0.000001 -0.000974 0.000000
# 4 0.000000 0.000000 -0.000001 0.032393 0.000001 0.000575
# 5 -0.002628 0.002061 -0.000974 0.000001 0.038756 0.000000
# 6 0.000000 0.000000 0.000000 0.000575 0.000000 0.024489
#
#
# Mechanical properties :
#
#
# Convention : Reuss Voigt Hill
#
# Bulk Modulus (GPa) = 52.63911 61.39591 57.01751
# Shear Modulus (GPa) = 31.79966 33.85175 32.82570
#
# Velocity S-wave (km/s) = 3.75979 3.87921 3.81997
# Velocity P-wave (km/s) = 6.49984 6.88164 6.69346
#
# Compressibility (1/GPa) = 0.01899728
#
# Stress axis : x y z
#
# Youngs Moduli (GPa) = 79.07326 108.71931 65.41850
#
# Poissons Ratio (x) = 0.39965 0.05719
# Poissons Ratio (y) = 0.29067 0.29547
# Poissons Ratio (z) = 0.06912 0.49104
#
# Static dielectric constant tensor:
#      x y z
#    x 7.096170 0.000970 -0.519120 
#    y 0.000970 12.375540 -0.000270 
#    z -0.519120 -0.000270 3.827630 
# 
# 
# High freq. dielectric constant tensor:
#      x y z
#    x 1.905210 0.000000 0.000710 
#    y 0.000000 1.893810 0.000000 
#    z 0.000710 0.000000 1.855250 
# 
# From -- ./inp_files/308261.got.cif
#   From: 2010.06.25/outbox.cif.g09.slc.cpg/sg15_155_cif.got.tgz:308261.got - 2010.06.28 07:06:18.
