data_PCOD8138497
_publ_section_title
;
Structure prediction by ZEFSAII (Michael W. Deem and Ramdas Pophale) SiO2 
 PCOD8138497
Probable space group: C 2/C
;
_chemical_formula_sum "Si O2"
_cell_formula_units_Z 36
_cell_length_a 30.494437
_cell_length_b 5.846509
_cell_length_c 14.695885
_cell_angle_alpha 90.000000
_cell_angle_beta 37.323520
_cell_angle_gamma 90.000000
_cell_volume 1588.587798
_symmetry_space_group_name_H-M "C 2/C"
_symmetry_group_IT_number 15
_symmetry_cell_setting 'monoclinic'
loop_
_space_group_symop_operation_xyz
x,y,z
-x,y,1/2-z
-x,-y,-z
x,-y,1/2+z
1/2+x,1/2+y,z
1/2-x,1/2+y,1/2-z
1/2-x,1/2-y,-z
1/2+x,1/2-y,1/2+z
loop_
_atom_site_type_symbol
_atom_site_label
_atom_site_fract_x
_atom_site_fract_y
_atom_site_fract_z
Si Si1 0.293260 0.933565 0.485102
Si Si2 0.587679 0.598053 0.205167
Si Si3 0.965239 0.412528 0.464084
Si Si4 0.500000 0.251633 0.250000
Si Si5 0.840097 0.808250 0.266468
O O1 0.250000 0.750000 0.500000
O O2 0.357371 0.789606 0.429541
O O3 0.236407 0.078802 0.642188
O O4 0.329330 0.111768 0.358048
O O5 0.509995 0.705534 0.349582
O O6 0.571361 0.393145 0.162608
O O7 0.615910 0.509728 0.255996
O O8 0.965385 0.612560 0.390238
O O9 0.884702 0.307939 0.611120
O O10 0.000000 0.500000 0.500000
#
# Coordination Sequence:
#
# PCOD8138497 Si02
#       5
#     8   8   8   4   8
#     4   9  19  35  62 102 123 172 217 271 337 425
#     4  11  21  39  63 102 133 167 230 289 344 410
#     4  12  23  41  65 103 135 175 232 289 345 414
#     4  12  26  36  62 106 136 182 222 304 354 404
#     4  10  20  37  66  99 129 173 224 276 343 415
#
# _framework density 22.661638
#
# number of rings (size 3 to 8) (size 9 to 14) (size 15 to 20)
#    0.000    1.333    4.444    1.333    0.000    0.000 
#    0.000    0.000    0.000    0.000  260.000    0.000 
#    0.000    0.000    0.000    0.000    0.000    0.000 
#
# Total GULP energy -223023.901754 kJ/mol
# GULP energy per Si atom -12390.216764 kJ/mol
# Density = 2.261006 g / cm^3
# Si number density = 22.661638 Si / 1000 Ang^3
#
#
#
# Elastic Constant Matrix: (Units=GPa)
#
#
# Indices 1 2 3 4 5 6 
#
# 1 59.8169 41.8237 63.4587 -0.0404 2.6452 -0.0180
# 2 41.8237 133.8544 84.5656 -0.0403 -10.7518 0.0157
# 3 63.4587 84.5656 177.4289 0.1235 -28.5196 0.0310
# 4 -0.0404 -0.0403 0.1235 40.2828 -0.0179 -21.9899
# 5 2.6452 -10.7518 -28.5196 -0.0179 32.2147 -0.0074
# 6 -0.0180 0.0157 0.0310 -21.9899 -0.0074 52.0869
#
#
#
# Elastic Compliance Matrix: (Units=1/GPa)
#
#
# Indices 1 2 3 4 5 6 
#
# 1 0.033311 -0.003664 -0.012596 0.000093 -0.015110 0.000057
# 2 -0.003664 0.011126 -0.003903 0.000024 0.000559 0.000008
# 3 -0.012596 -0.003903 0.013942 -0.000077 0.012075 -0.000042
# 4 0.000093 0.000024 -0.000077 0.032259 -0.000047 0.013619
# 5 -0.015110 0.000559 0.012075 -0.000047 0.043159 -0.000026
# 6 0.000057 0.000008 -0.000042 0.013619 -0.000026 0.024948
#
#
# Mechanical properties :
#
#
# Convention : Reuss Voigt Hill
#
# Bulk Modulus (GPa) = 55.39061 83.42182 69.40621
# Shear Modulus (GPa) = 24.37961 37.00036 30.68998
#
# Velocity S-wave (km/s) = 3.28351 4.04509 3.68403
# Velocity P-wave (km/s) = 6.23464 7.66217 6.98497
#
# Compressibility (1/GPa) = 0.01805360
#
# Stress axis : x y z
#
# Youngs Moduli (GPa) = 30.02016 89.87892 71.72446
#
# Poissons Ratio (x) = 0.32930 0.90347
# Poissons Ratio (y) = 0.10999 0.27991
# Poissons Ratio (z) = 0.37815 0.35076
#
# Static dielectric constant tensor:
#      x y z
#    x 3.946100 0.000260 -0.493580 
#    y 0.000260 4.402540 0.000290 
#    z -0.493580 0.000290 4.367670 
# 
# 
# High freq. dielectric constant tensor:
#      x y z
#    x 1.857030 0.000000 -0.033610 
#    y 0.000000 1.927090 0.000010 
#    z -0.033610 0.000010 1.885850 
# 
# From -- ./inp_files/165061.got.cif
#   From: 2010.06.25/outbox.cif.g09.slc.cpg/sg15_83_cif.got.tgz:165061.got - 2010.06.28 07:06:18.
