data_PCOD8138664
_publ_section_title
;
Structure prediction by ZEFSAII (Michael W. Deem and Ramdas Pophale) SiO2 
 PCOD8138664
Probable space group: C 2/C
;
_chemical_formula_sum "Si O2"
_cell_formula_units_Z 64
_cell_length_a 16.682423
_cell_length_b 11.136269
_cell_length_c 19.719642
_cell_angle_alpha 90.000000
_cell_angle_beta 62.600092
_cell_angle_gamma 90.000000
_cell_volume 3252.526895
_symmetry_space_group_name_H-M "C 2/C"
_symmetry_group_IT_number 15
_symmetry_cell_setting 'monoclinic'
loop_
_space_group_symop_operation_xyz
x,y,z
-x,y,1/2-z
-x,-y,-z
x,-y,1/2+z
1/2+x,1/2+y,z
1/2-x,1/2+y,1/2-z
1/2-x,1/2-y,-z
1/2+x,1/2-y,1/2+z
loop_
_atom_site_type_symbol
_atom_site_label
_atom_site_fract_x
_atom_site_fract_y
_atom_site_fract_z
Si Si1 0.580040 0.283471 0.531620
Si Si2 0.021727 0.395342 0.818921
Si Si3 0.945980 0.180858 0.202571
Si Si4 0.152282 0.003013 0.836130
Si Si5 0.502988 0.319257 0.073738
Si Si6 0.840484 0.584521 0.767814
Si Si7 0.641693 0.052555 0.581628
Si Si8 0.672958 0.466202 0.975451
O O1 0.516982 0.329491 0.615399
O O2 0.518452 0.255051 0.489588
O O3 0.635623 0.164634 0.532041
O O4 0.646466 0.393096 0.489364
O O5 0.118362 0.461988 0.779697
O O6 0.000000 0.368442 0.750000
O O7 0.022537 0.268875 0.855755
O O8 0.949620 0.476652 0.886931
O O9 0.899478 0.309096 0.215049
O O10 0.000000 0.155793 0.250000
O O11 0.867878 0.082047 0.220494
O O12 0.236081 0.090422 0.784444
O O13 0.180801 0.928800 0.892854
O O14 0.060535 0.067563 0.891853
O O15 0.605622 0.371431 0.037780
O O16 0.847071 0.599570 0.846143
O O17 0.726821 0.965406 0.529689
#
# Coordination Sequence:
#
# PCOD8138664 Si02
#       8
#     8   8   8   8   8   8   8   8
#     4  11  19  38  61  88 114 148 200 257 294 343
#     4  10  22  40  59  82 119 158 195 239 296 362
#     4  12  20  37  67  89 116 155 208 252 291 350
#     4  10  22  38  59  86 119 155 196 243 300 357
#     4  11  22  38  59  84 121 159 192 242 304 356
#     4  10  21  38  61  86 116 158 197 243 303 349
#     4  10  20  38  61  85 115 153 200 247 295 352
#     4  10  20  38  60  84 116 156 192 243 306 353
#
# _framework density 19.677009000000002
#
# number of rings (size 3 to 8) (size 9 to 14) (size 15 to 20)
#    0.000    1.500    5.000    1.500    1.750    1.500 
#    0.000    0.000    0.000    0.000    0.000    0.000 
#    0.000    0.000    0.000    0.000    0.000    0.000 
#
# Total GULP energy -396636.764746 kJ/mol
# GULP energy per Si atom -12394.898898 kJ/mol
# Density = 1.963222 g / cm^3
# Si number density = 19.677009 Si / 1000 Ang^3
#
#
#
# Elastic Constant Matrix: (Units=GPa)
#
#
# Indices 1 2 3 4 5 6 
#
# 1 92.0235 30.9758 33.0651 0.0000 -9.8219 0.0000
# 2 30.9758 61.8210 28.3996 0.0000 14.3644 0.0000
# 3 33.0651 28.3996 72.0201 0.0000 -2.5003 0.0000
# 4 0.0000 0.0000 0.0000 30.7275 0.0000 -4.8878
# 5 -9.8219 14.3644 -2.5003 0.0000 26.0147 0.0000
# 6 0.0000 0.0000 0.0000 -4.8878 0.0000 21.5269
#
#
#
# Elastic Compliance Matrix: (Units=1/GPa)
#
#
# Indices 1 2 3 4 5 6 
#
# 1 0.016360 -0.009088 -0.003551 0.000000 0.010854 0.000000
# 2 -0.009088 0.029125 -0.008017 0.000000 -0.020284 0.000000
# 3 -0.003551 -0.008017 0.018846 0.000000 0.004897 0.000000
# 4 0.000000 0.000000 0.000000 0.033764 0.000000 0.007666
# 5 0.010854 -0.020284 0.004897 0.000000 0.054208 0.000000
# 6 0.000000 0.000000 0.000000 0.007666 0.000000 0.048194
#
#
# Mechanical properties :
#
#
# Convention : Reuss Voigt Hill
#
# Bulk Modulus (GPa) = 43.43877 45.63839 44.53858
# Shear Modulus (GPa) = 20.04157 24.54877 22.29517
#
# Velocity S-wave (km/s) = 3.19490 3.53595 3.36974
# Velocity P-wave (km/s) = 5.97776 6.31781 6.15014
#
# Compressibility (1/GPa) = 0.02302091
#
# Stress axis : x y z
#
# Youngs Moduli (GPa) = 61.12425 34.33469 53.06086
#
# Poissons Ratio (x) = 0.31204 0.18840
# Poissons Ratio (y) = 0.55551 0.42536
# Poissons Ratio (z) = 0.21703 0.27525
#
# Static dielectric constant tensor:
#      x y z
#    x 4.077290 0.000000 0.003900 
#    y 0.000000 3.419960 0.000000 
#    z 0.003900 0.000000 3.610200 
# 
# 
# High freq. dielectric constant tensor:
#      x y z
#    x 1.769300 0.000000 -0.015850 
#    y 0.000000 1.748640 0.000000 
#    z -0.015850 0.000000 1.762090 
# 
# From -- ./inp_files/243696.got.cif
#   From: 2010.06.25/outbox.cif.g09.slc.cpg/sg15_122_cif.got.tgz:243696.got - 2010.06.28 07:06:18.
