data_PCOD8138063
_publ_section_title
;
Structure prediction by ZEFSAII (Michael W. Deem and Ramdas Pophale) SiO2 
 PCOD8138063
Probable space group: C 2/C
;
_chemical_formula_sum "Si O2"
_cell_formula_units_Z 56
_cell_length_a 30.844081
_cell_length_b 12.843916
_cell_length_c 16.375972
_cell_angle_alpha 90.000000
_cell_angle_beta 154.646381
_cell_angle_gamma 90.000000
_cell_volume 2777.965429
_symmetry_space_group_name_H-M "C 2/C"
_symmetry_group_IT_number 15
_symmetry_cell_setting 'monoclinic'
loop_
_space_group_symop_operation_xyz
x,y,z
-x,y,1/2-z
-x,-y,-z
x,-y,1/2+z
1/2+x,1/2+y,z
1/2-x,1/2+y,1/2-z
1/2-x,1/2-y,-z
1/2+x,1/2-y,1/2+z
loop_
_atom_site_type_symbol
_atom_site_label
_atom_site_fract_x
_atom_site_fract_y
_atom_site_fract_z
Si Si1 0.743813 0.393503 0.035534
Si Si2 0.398816 0.799942 0.988314
Si Si3 0.266267 0.977441 0.725450
Si Si4 0.759054 0.862190 0.180304
Si Si5 0.604730 0.676763 0.885783
Si Si6 0.903598 0.949963 0.289679
Si Si7 0.123378 0.692730 0.864400
O O1 0.789224 0.440469 0.194605
O O2 0.833592 0.398584 0.120524
O O3 0.645286 0.451920 0.837114
O O4 0.708278 0.279578 0.999702
O O5 0.354779 0.894003 0.860761
O O6 0.333659 0.695805 0.869928
O O7 0.388995 0.842121 0.063728
O O8 0.510704 0.773090 0.145570
O O9 0.159958 0.915674 0.531247
O O10 0.275909 0.034851 0.829624
O O11 0.823031 0.897379 0.211864
O O12 0.670001 0.784393 0.997991
O O13 0.500000 0.704872 0.750000
O O14 0.575998 0.637850 0.745092
O O15 0.000000 0.000000 0.500000
#
# Coordination Sequence:
#
# PCOD8138063 Si02
#       7
#     8   8   8   8   8   8   8
#     4  10  21  38  59  87 117 157 198 254 291 360
#     4  10  21  37  60  87 115 160 197 247 299 365
#     4  10  21  39  61  85 122 157 204 244 303 353
#     4  11  21  40  60  88 123 159 198 255 306 358
#     4  10  23  41  60  90 122 161 202 252 302 366
#     4  11  22  38  63  90 118 161 207 248 305 360
#     4  10  20  37  58  83 121 150 202 244 299 348
#
# _framework density 20.158639000000001
#
# number of rings (size 3 to 8) (size 9 to 14) (size 15 to 20)
#    0.000    1.714    1.429    3.000    0.000    2.857 
#    7.714    0.000    0.000    0.000    0.000    0.000 
#    0.000    0.000    0.000    0.000    0.000    0.000 
#
# Total GULP energy -346974.444329 kJ/mol
# GULP energy per Si atom -12391.944440 kJ/mol
# Density = 2.011276 g / cm^3
# Si number density = 20.158639 Si / 1000 Ang^3
#
#
#
# Elastic Constant Matrix: (Units=GPa)
#
#
# Indices 1 2 3 4 5 6 
#
# 1 104.3078 19.7771 19.9040 0.0000 2.3276 0.0000
# 2 19.7771 68.5496 16.4834 0.0000 -0.9822 0.0000
# 3 19.9040 16.4834 71.0355 0.0000 0.1850 0.0000
# 4 0.0000 0.0000 0.0000 25.6243 0.0000 -3.5629
# 5 2.3276 -0.9822 0.1850 0.0000 28.8577 0.0000
# 6 0.0000 0.0000 0.0000 -3.5629 0.0000 34.3491
#
#
#
# Elastic Compliance Matrix: (Units=1/GPa)
#
#
# Indices 1 2 3 4 5 6 
#
# 1 0.010531 -0.002481 -0.002373 0.000000 -0.000919 0.000000
# 2 -0.002481 0.016043 -0.003030 0.000000 0.000766 0.000000
# 3 -0.002373 -0.003030 0.015445 0.000000 -0.000011 0.000000
# 4 0.000000 0.000000 0.000000 0.039597 0.000000 0.004107
# 5 -0.000919 0.000766 -0.000011 0.000000 0.034753 0.000000
# 6 0.000000 0.000000 0.000000 0.004107 0.000000 0.029539
#
#
# Mechanical properties :
#
#
# Convention : Reuss Voigt Hill
#
# Bulk Modulus (GPa) = 38.09081 39.58020 38.83551
# Shear Modulus (GPa) = 29.33848 30.28144 29.80996
#
# Velocity S-wave (km/s) = 3.81908 3.87997 3.84965
# Velocity P-wave (km/s) = 6.19546 6.30470 6.25032
#
# Compressibility (1/GPa) = 0.02625305
#
# Stress axis : x y z
#
# Youngs Moduli (GPa) = 94.96120 62.33174 64.74458
#
# Poissons Ratio (x) = 0.15463 0.15361
# Poissons Ratio (y) = 0.23558 0.19615
# Poissons Ratio (z) = 0.22531 0.18884
#
# Static dielectric constant tensor:
#      x y z
#    x 3.746770 0.000000 -0.090960 
#    y 0.000000 3.690150 0.000000 
#    z -0.090960 0.000000 3.762250 
# 
# 
# High freq. dielectric constant tensor:
#      x y z
#    x 1.792590 0.000000 -0.003580 
#    y 0.000000 1.788790 0.000000 
#    z -0.003580 0.000000 1.782930 
# 
# From -- ./inp_files/178413.got.cif
#   From: 2010.06.25/outbox.cif.g09.slc.cpg/sg15_90_cif.got.tgz:178413.got - 2010.06.28 07:06:18.
