data_PCOD8138442
_publ_section_title
;
Structure prediction by ZEFSAII (Michael W. Deem and Ramdas Pophale) SiO2 
 PCOD8138442
Probable space group: C 2/C
;
_chemical_formula_sum "Si O2"
_cell_formula_units_Z 64
_cell_length_a 17.509859
_cell_length_b 9.563924
_cell_length_c 28.033262
_cell_angle_alpha 90.000000
_cell_angle_beta 42.568469
_cell_angle_gamma 90.000000
_cell_volume 3175.714429
_symmetry_space_group_name_H-M "C 2/C"
_symmetry_group_IT_number 15
_symmetry_cell_setting 'monoclinic'
loop_
_space_group_symop_operation_xyz
x,y,z
-x,y,1/2-z
-x,-y,-z
x,-y,1/2+z
1/2+x,1/2+y,z
1/2-x,1/2+y,1/2-z
1/2-x,1/2-y,-z
1/2+x,1/2-y,1/2+z
loop_
_atom_site_type_symbol
_atom_site_label
_atom_site_fract_x
_atom_site_fract_y
_atom_site_fract_z
Si Si1 0.757146 0.159761 0.169338
Si Si2 0.028820 0.514438 0.063811
Si Si3 0.061093 0.058557 0.343104
Si Si4 0.291954 0.664721 0.306657
Si Si5 0.870772 0.721280 0.921757
Si Si6 0.324975 0.936768 0.089572
Si Si7 0.622021 0.921007 0.183285
Si Si8 0.098059 0.742939 0.329436
O O1 0.877029 0.118529 0.138057
O O2 0.772765 0.288110 0.126343
O O3 0.663778 0.203689 0.251033
O O4 0.716478 0.032170 0.154934
O O5 0.059124 0.370949 0.074266
O O6 0.921228 0.478835 0.082057
O O7 0.000556 0.629443 0.117037
O O8 0.131526 0.571163 0.984421
O O9 0.150155 0.070615 0.259674
O O10 0.943600 0.135794 0.384463
O O11 0.037447 0.893362 0.357273
O O12 0.265585 0.562953 0.363696
O O13 0.375981 0.786355 0.283402
O O14 0.181295 0.739828 0.336395
O O15 0.855655 0.633878 0.880187
O O16 0.750000 0.750000 0.000000
O O17 0.500000 0.989502 0.250000
#
# Coordination Sequence:
#
# PCOD8138442 Si02
#       8
#     8   8   8   8   8   8   8   8
#     4  11  22  39  66 101 127 166 222 276 321 389
#     4  10  22  41  64  93 131 173 203 273 336 385
#     4  11  21  40  66  96 126 167 228 274 317 391
#     4  10  20  37  64  98 128 165 215 271 325 387
#     4  12  26  44  64  91 132 177 215 267 342 407
#     4  10  20  40  67  95 126 163 225 270 317 387
#     4  12  24  41  63  97 136 169 207 271 341 397
#     4  10  21  37  68 100 126 161 224 274 321 379
#
# _framework density 20.152947000000001
#
# number of rings (size 3 to 8) (size 9 to 14) (size 15 to 20)
#    0.000    1.250    5.000    1.500    0.000    1.000 
#    0.000    8.125    0.000    0.000    0.000    0.000 
#    0.000    0.000    0.000    0.000    0.000    0.000 
#
# Total GULP energy -396797.266754 kJ/mol
# GULP energy per Si atom -12399.914586 kJ/mol
# Density = 2.010708 g / cm^3
# Si number density = 20.152947 Si / 1000 Ang^3
#
#
#
# Elastic Constant Matrix: (Units=GPa)
#
#
# Indices 1 2 3 4 5 6 
#
# 1 47.7116 18.0030 15.7009 0.0000 -1.5795 0.0001
# 2 18.0030 119.9958 39.2481 0.0000 -4.9784 0.0005
# 3 15.7009 39.2481 97.0195 0.0000 0.4468 0.0000
# 4 0.0000 0.0000 0.0000 35.6927 0.0000 -3.1187
# 5 -1.5795 -4.9784 0.4468 0.0000 26.3383 -0.0001
# 6 0.0001 0.0005 0.0000 -3.1187 -0.0001 31.8374
#
#
#
# Elastic Compliance Matrix: (Units=1/GPa)
#
#
# Indices 1 2 3 4 5 6 
#
# 1 0.022819 -0.002507 -0.002683 0.000000 0.000940 0.000000
# 2 -0.002507 0.009974 -0.003637 0.000000 0.001797 0.000000
# 3 -0.002683 -0.003637 0.012218 0.000000 -0.001056 0.000000
# 4 0.000000 0.000000 0.000000 0.028259 0.000000 0.002768
# 5 0.000940 0.001797 -0.001056 0.000000 0.038381 0.000000
# 6 0.000000 0.000000 0.000000 0.002768 0.000000 0.031681
#
#
# Mechanical properties :
#
#
# Convention : Reuss Voigt Hill
#
# Bulk Modulus (GPa) = 36.55493 45.62564 41.09028
# Shear Modulus (GPa) = 29.39349 31.55868 30.47608
#
# Velocity S-wave (km/s) = 3.82320 3.96151 3.89297
# Velocity P-wave (km/s) = 6.13737 6.60406 6.37499
#
# Compressibility (1/GPa) = 0.02735609
#
# Stress axis : x y z
#
# Youngs Moduli (GPa) = 43.82259 100.26058 81.84819
#
# Poissons Ratio (x) = 0.25135 0.21960
# Poissons Ratio (y) = 0.10986 0.29772
# Poissons Ratio (z) = 0.11758 0.36469
#
# Static dielectric constant tensor:
#      x y z
#    x 3.562580 0.000000 -0.002060 
#    y 0.000000 3.719150 0.000000 
#    z -0.002060 0.000000 3.781580 
# 
# 
# High freq. dielectric constant tensor:
#      x y z
#    x 1.772600 0.000000 0.004440 
#    y 0.000000 1.797590 0.000000 
#    z 0.004440 0.000000 1.784460 
# 
# From -- ./inp_files/315679.got.cif
#   From: 2010.06.25/outbox.cif.g09.slc.cpg/sg15_158_cif.got.tgz:315679.got - 2010.06.28 07:06:18.
