data_PCOD8138961
_publ_section_title
;
Structure prediction by ZEFSAII (Michael W. Deem and Ramdas Pophale) SiO2 
 PCOD8138961
Probable space group: C 2/C
;
_chemical_formula_sum "Si O2"
_cell_formula_units_Z 40
_cell_length_a 9.100031
_cell_length_b 10.218314
_cell_length_c 26.268827
_cell_angle_alpha 90.000000
_cell_angle_beta 121.295648
_cell_angle_gamma 90.000000
_cell_volume 2087.247711
_symmetry_space_group_name_H-M "C 2/C"
_symmetry_group_IT_number 15
_symmetry_cell_setting 'monoclinic'
loop_
_space_group_symop_operation_xyz
x,y,z
-x,y,1/2-z
-x,-y,-z
x,-y,1/2+z
1/2+x,1/2+y,z
1/2-x,1/2+y,1/2-z
1/2-x,1/2-y,-z
1/2+x,1/2-y,1/2+z
loop_
_atom_site_type_symbol
_atom_site_label
_atom_site_fract_x
_atom_site_fract_y
_atom_site_fract_z
Si Si1 0.160373 0.741396 0.133168
Si Si2 0.152337 0.551410 0.639899
Si Si3 0.320000 0.084998 0.738277
Si Si4 0.484363 0.479779 0.131665
Si Si5 0.126164 0.757557 0.930169
O O1 0.080172 0.597196 0.125542
O O2 0.283883 0.774545 0.204040
O O3 0.270799 0.765661 0.102854
O O4 0.003578 0.845375 0.102874
O O5 0.175973 0.605424 0.700839
O O6 0.333794 0.545237 0.644574
O O7 0.019417 0.647177 0.587751
O O8 0.500000 0.025877 0.750000
O O9 0.162070 0.988925 0.694299
O O10 0.454158 0.597503 0.086975
O O11 0.250000 0.750000 0.000000
#
# Coordination Sequence:
#
# PCOD8138961 Si02
#       5
#     8   8   8   8   8
#     4   9  23  40  58  93 124 162 202 257 307 365
#     4  11  21  39  65  89 125 164 204 254 317 368
#     4  10  20  38  63  90 128 156 197 258 319 369
#     4   9  23  39  61  95 122 159 206 253 311 369
#     4  11  24  43  64  88 127 172 211 255 306 365
#
# _framework density 19.163993000000001
#
# number of rings (size 3 to 8) (size 9 to 14) (size 15 to 20)
#    1.200    0.800    2.000    0.600    2.800    7.200 
#    0.000    2.000    0.000    0.000    0.000    0.000 
#    0.000    0.000    0.000    0.000    0.000    0.000 
#
# Total GULP energy -247845.720694 kJ/mol
# GULP energy per Si atom -12392.286035 kJ/mol
# Density = 1.912037 g / cm^3
# Si number density = 19.163993 Si / 1000 Ang^3
#
#
#
# Elastic Constant Matrix: (Units=GPa)
#
#
# Indices 1 2 3 4 5 6 
#
# 1 101.7375 72.0060 50.9594 0.0000 13.2435 0.0000
# 2 72.0060 147.4756 55.3888 0.0000 9.2718 0.0000
# 3 50.9594 55.3888 109.7239 0.0000 26.8980 0.0000
# 4 0.0000 0.0000 0.0000 27.5394 0.0000 4.1487
# 5 13.2435 9.2718 26.8980 0.0000 22.1067 0.0000
# 6 0.0000 0.0000 0.0000 4.1487 0.0000 31.9105
#
#
#
# Elastic Compliance Matrix: (Units=1/GPa)
#
#
# Indices 1 2 3 4 5 6 
#
# 1 0.016732 -0.006574 -0.003806 0.000000 -0.002635 0.000000
# 2 -0.006574 0.011035 -0.003346 0.000000 0.003382 0.000000
# 3 -0.003806 -0.003346 0.016627 0.000000 -0.016547 0.000000
# 4 0.000000 0.000000 0.000000 0.037037 0.000000 -0.004815
# 5 -0.002635 0.003382 -0.016547 0.000000 0.065529 0.000000
# 6 0.000000 0.000000 0.000000 -0.004815 0.000000 0.031964
#
#
# Mechanical properties :
#
#
# Convention : Reuss Voigt Hill
#
# Bulk Modulus (GPa) = 59.02935 79.51615 69.27275
# Shear Modulus (GPa) = 23.58237 28.35017 25.96627
#
# Velocity S-wave (km/s) = 3.51173 3.85040 3.68496
# Velocity P-wave (km/s) = 6.87838 7.83262 7.37096
#
# Compressibility (1/GPa) = 0.01694073
#
# Stress axis : x y z
#
# Youngs Moduli (GPa) = 59.76706 90.62253 60.14317
#
# Poissons Ratio (x) = 0.59577 0.22891
# Poissons Ratio (y) = 0.39292 0.20124
# Poissons Ratio (z) = 0.22748 0.30323
#
# Static dielectric constant tensor:
#      x y z
#    x 3.492450 0.000000 0.176960 
#    y 0.000000 3.608570 0.000000 
#    z 0.176960 0.000000 2.214260 
# 
# 
# High freq. dielectric constant tensor:
#      x y z
#    x 1.752280 0.000000 -0.003180 
#    y 0.000000 1.743370 0.000000 
#    z -0.003180 0.000000 1.727960 
# 
# From -- ./inp_files/287418.got.cif
#   From: 2010.06.25/outbox.cif.g09.slc.cpg/sg15_144_cif.got.tgz:287418.got - 2010.06.28 07:06:18.
