data_PCOD8138580
_publ_section_title
;
Structure prediction by ZEFSAII (Michael W. Deem and Ramdas Pophale) SiO2 
 PCOD8138580
Probable space group: C 2/C
;
_chemical_formula_sum "Si O2"
_cell_formula_units_Z 36
_cell_length_a 14.673576
_cell_length_b 8.331562
_cell_length_c 14.389367
_cell_angle_alpha 90.000000
_cell_angle_beta 93.938620
_cell_angle_gamma 90.000000
_cell_volume 1755.000153
_symmetry_space_group_name_H-M "C 2/C"
_symmetry_group_IT_number 15
_symmetry_cell_setting 'monoclinic'
loop_
_space_group_symop_operation_xyz
x,y,z
-x,y,1/2-z
-x,-y,-z
x,-y,1/2+z
1/2+x,1/2+y,z
1/2-x,1/2+y,1/2-z
1/2-x,1/2-y,-z
1/2+x,1/2-y,1/2+z
loop_
_atom_site_type_symbol
_atom_site_label
_atom_site_fract_x
_atom_site_fract_y
_atom_site_fract_z
Si Si1 0.915369 0.590603 0.125696
Si Si2 0.100916 0.450836 0.181251
Si Si3 0.000000 0.837848 0.750000
Si Si4 0.428752 0.462124 0.074817
Si Si5 0.268343 0.932001 0.475513
O O1 0.885184 0.572706 0.231350
O O2 0.924439 0.774525 0.097321
O O3 0.012508 0.504921 0.115357
O O4 0.839360 0.499650 0.056952
O O5 0.190203 0.449398 0.124629
O O6 0.082203 0.271102 0.216284
O O7 0.043405 0.947765 0.830962
O O8 0.328996 0.523302 0.032424
O O9 0.500000 0.500000 0.000000
O O10 0.250000 0.750000 0.500000
#
# Coordination Sequence:
#
# PCOD8138580 Si02
#       5
#     8   8   4   8   8
#     4   9  20  40  60  84 117 155 193 235 290 354
#     4  10  21  39  62  85 114 156 193 235 289 352
#     4  10  20  38  58  84 116 148 194 246 290 336
#     4  11  23  38  58  86 118 153 191 245 293 335
#     4  10  21  37  60  86 116 151 191 237 287 342
#
# _framework density 20.512817999999999
#
# number of rings (size 3 to 8) (size 9 to 14) (size 15 to 20)
#    0.000    2.222    0.000    4.667    0.000    7.111 
#    0.000   10.000    0.000    0.000    0.000    0.000 
#    0.000    0.000    0.000    0.000    0.000    0.000 
#
# Total GULP energy -223144.718163 kJ/mol
# GULP energy per Si atom -12396.928787 kJ/mol
# Density = 2.046613 g / cm^3
# Si number density = 20.512818 Si / 1000 Ang^3
#
#
#
# Elastic Constant Matrix: (Units=GPa)
#
#
# Indices 1 2 3 4 5 6 
#
# 1 174.3002 41.6899 101.0923 0.0000 -7.7870 0.0000
# 2 41.6899 75.7193 47.4515 0.0000 6.7834 0.0000
# 3 101.0923 47.4515 138.3758 0.0000 7.6167 0.0000
# 4 0.0000 0.0000 0.0000 23.0850 0.0000 -2.1227
# 5 -7.7870 6.7834 7.6167 0.0000 46.1764 0.0000
# 6 0.0000 0.0000 0.0000 -2.1227 0.0000 24.8220
#
#
#
# Elastic Compliance Matrix: (Units=1/GPa)
#
#
# Indices 1 2 3 4 5 6 
#
# 1 0.010482 -0.001462 -0.007332 0.000000 0.003192 0.000000
# 2 -0.001462 0.017134 -0.004698 0.000000 -0.001989 0.000000
# 3 -0.007332 -0.004698 0.014355 0.000000 -0.002914 0.000000
# 4 0.000000 0.000000 0.000000 0.043662 0.000000 0.003734
# 5 0.003192 -0.001989 -0.002914 0.000000 0.022967 0.000000
# 6 0.000000 0.000000 0.000000 0.003734 0.000000 0.040606
#
#
# Mechanical properties :
#
#
# Convention : Reuss Voigt Hill
#
# Bulk Modulus (GPa) = 66.72754 85.42917 76.07836
# Shear Modulus (GPa) = 27.59605 32.02744 29.81175
#
# Velocity S-wave (km/s) = 3.67182 3.95566 3.81638
# Velocity P-wave (km/s) = 7.11173 7.91203 7.52253
#
# Compressibility (1/GPa) = 0.01498632
#
# Stress axis : x y z
#
# Youngs Moduli (GPa) = 95.40027 58.36369 69.66425
#
# Poissons Ratio (x) = 0.08535 0.51078
# Poissons Ratio (y) = 0.13952 0.32726
# Poissons Ratio (z) = 0.69948 0.27417
#
# Static dielectric constant tensor:
#      x y z
#    x 4.277070 0.000000 0.399830 
#    y 0.000000 3.545160 0.000000 
#    z 0.399830 0.000000 3.984610 
# 
# 
# High freq. dielectric constant tensor:
#      x y z
#    x 1.809550 0.000000 0.008900 
#    y 0.000000 1.784260 0.000000 
#    z 0.008900 0.000000 1.815830 
# 
# From -- ./inp_files/150262.got.cif
#   From: 2010.06.25/outbox.cif.g09.slc.cpg/sg15_76_cif.got.tgz:150262.got - 2010.06.28 07:06:18.
