data_PCOD8138244
_publ_section_title
;
Structure prediction by ZEFSAII (Michael W. Deem and Ramdas Pophale) SiO2 
 PCOD8138244
Probable space group: C 2/C
;
_chemical_formula_sum "Si O2"
_cell_formula_units_Z 48
_cell_length_a 6.426151
_cell_length_b 26.822821
_cell_length_c 16.295419
_cell_angle_alpha 90.000000
_cell_angle_beta 55.173692
_cell_angle_gamma 90.000000
_cell_volume 2305.708105
_symmetry_space_group_name_H-M "C 2/C"
_symmetry_group_IT_number 15
_symmetry_cell_setting 'monoclinic'
loop_
_space_group_symop_operation_xyz
x,y,z
-x,y,1/2-z
-x,-y,-z
x,-y,1/2+z
1/2+x,1/2+y,z
1/2-x,1/2+y,1/2-z
1/2-x,1/2-y,-z
1/2+x,1/2-y,1/2+z
loop_
_atom_site_type_symbol
_atom_site_label
_atom_site_fract_x
_atom_site_fract_y
_atom_site_fract_z
Si Si1 0.138162 0.790907 0.132345
Si Si2 0.501936 0.701971 0.013399
Si Si3 0.223803 0.464389 0.982038
Si Si4 0.406532 0.871762 0.860286
Si Si5 0.775144 0.518380 0.357113
Si Si6 0.415492 0.148174 0.011627
O O1 0.319763 0.743117 0.093609
O O2 0.298451 0.841404 0.082785
O O3 0.000000 0.794453 0.250000
O O4 0.950618 0.787066 0.094710
O O5 0.371147 0.648626 0.058124
O O6 0.759924 0.694818 0.007044
O O7 0.272717 0.476221 0.065541
O O8 0.153837 0.406823 0.999798
O O9 0.499882 0.472047 0.874404
O O10 0.000000 0.500000 0.000000
O O11 0.500000 0.854438 0.750000
O O12 0.389043 0.931284 0.871696
O O13 0.600968 0.850043 0.885095
O O14 0.000000 0.497112 0.250000
#
# Coordination Sequence:
#
# PCOD8138244 Si02
#       6
#     8   8   8   8   8   8
#     4  10  23  42  64  93 128 168 207 260 323 397
#     4  10  21  41  65  90 127 161 207 263 323 377
#     4  11  22  41  63  89 132 173 211 275 329 387
#     4  10  20  37  61  92 124 159 209 268 323 377
#     4  10  22  40  61  90 126 170 218 270 329 389
#     4  11  22  40  63  93 125 169 214 266 325 388
#
# _framework density 20.817899000000001
#
# number of rings (size 3 to 8) (size 9 to 14) (size 15 to 20)
#    0.000    1.667    3.333    1.000    0.000    2.000 
#    6.000    1.667    0.000    0.000    0.000    0.000 
#    0.000    0.000    0.000    0.000    0.000    0.000 
#
# Total GULP energy -297359.419525 kJ/mol
# GULP energy per Si atom -12389.975814 kJ/mol
# Density = 2.077052 g / cm^3
# Si number density = 20.817899 Si / 1000 Ang^3
#
#
#
# Elastic Constant Matrix: (Units=GPa)
#
#
# Indices 1 2 3 4 5 6 
#
# 1 134.1427 32.5741 58.6020 0.0000 6.5240 0.0000
# 2 32.5741 61.0286 38.6214 0.0000 6.8658 0.0000
# 3 58.6020 38.6214 156.4993 0.0000 12.7733 0.0000
# 4 0.0000 0.0000 0.0000 26.3445 0.0000 0.6080
# 5 6.5240 6.8658 12.7733 0.0000 33.1601 0.0000
# 6 0.0000 0.0000 0.0000 0.6080 0.0000 36.9164
#
#
#
# Elastic Compliance Matrix: (Units=1/GPa)
#
#
# Indices 1 2 3 4 5 6 
#
# 1 0.009450 -0.003314 -0.002710 0.000000 -0.000129 0.000000
# 2 -0.003314 0.020744 -0.003697 0.000000 -0.002219 0.000000
# 3 -0.002710 -0.003697 0.008478 0.000000 -0.001967 0.000000
# 4 0.000000 0.000000 0.000000 0.037973 0.000000 -0.000625
# 5 -0.000129 -0.002219 -0.001967 0.000000 0.031399 0.000000
# 6 0.000000 0.000000 0.000000 -0.000625 0.000000 0.027099
#
#
# Mechanical properties :
#
#
# Convention : Reuss Voigt Hill
#
# Bulk Modulus (GPa) = 52.00636 67.91841 59.96238
# Shear Modulus (GPa) = 31.05694 34.07573 32.56633
#
# Velocity S-wave (km/s) = 3.86662 4.05019 3.95947
# Velocity P-wave (km/s) = 6.70598 7.38701 7.05471
#
# Compressibility (1/GPa) = 0.01922842
#
# Stress axis : x y z
#
# Youngs Moduli (GPa) = 105.82276 48.20647 117.95870
#
# Poissons Ratio (x) = 0.15977 0.31968
# Poissons Ratio (y) = 0.35072 0.43611
# Poissons Ratio (z) = 0.28679 0.17823
#
# Static dielectric constant tensor:
#      x y z
#    x 4.147390 0.000000 -0.019960 
#    y 0.000000 3.778070 0.000000 
#    z -0.019960 0.000000 3.657130 
# 
# 
# High freq. dielectric constant tensor:
#      x y z
#    x 1.822880 0.000000 0.003070 
#    y 0.000000 1.824070 0.000000 
#    z 0.003070 0.000000 1.793550 
# 
# From -- ./inp_files/130578.got.cif
#   From: 2010.06.25/outbox.cif.g09.slc.cpg/sg15_66_cif.got.tgz:130578.got - 2010.06.28 07:06:18.
