data_PCOD8138856
_publ_section_title
;
Structure prediction by ZEFSAII (Michael W. Deem and Ramdas Pophale) SiO2 
 PCOD8138856
Probable space group: C 2/C
;
_chemical_formula_sum "Si O2"
_cell_formula_units_Z 52
_cell_length_a 21.789297
_cell_length_b 12.202984
_cell_length_c 12.706213
_cell_angle_alpha 90.000000
_cell_angle_beta 50.665619
_cell_angle_gamma 90.000000
_cell_volume 2613.143456
_symmetry_space_group_name_H-M "C 2/C"
_symmetry_group_IT_number 15
_symmetry_cell_setting 'monoclinic'
loop_
_space_group_symop_operation_xyz
x,y,z
-x,y,1/2-z
-x,-y,-z
x,-y,1/2+z
1/2+x,1/2+y,z
1/2-x,1/2+y,1/2-z
1/2-x,1/2-y,-z
1/2+x,1/2-y,1/2+z
loop_
_atom_site_type_symbol
_atom_site_label
_atom_site_fract_x
_atom_site_fract_y
_atom_site_fract_z
Si Si1 0.808847 0.777955 0.786608
Si Si2 0.166971 0.626380 0.095074
Si Si3 0.392053 0.430840 0.055916
Si Si4 0.777750 0.196543 0.808483
Si Si5 0.000000 0.306440 0.750000
Si Si6 0.960865 0.829839 0.503755
Si Si7 0.766463 0.086186 0.516885
O O1 0.742594 0.774669 0.767415
O O2 0.896423 0.765052 0.642795
O O3 0.797295 0.676189 0.877618
O O4 0.793634 0.890622 0.867298
O O5 0.175162 0.734571 0.156718
O O6 0.072463 0.609020 0.192058
O O7 0.219800 0.527738 0.082908
O O8 0.196045 0.651618 0.945582
O O9 0.329209 0.409099 0.218086
O O10 0.422307 0.553869 0.017628
O O11 0.348191 0.408658 0.993503
O O12 0.463773 0.346189 0.001050
O O13 0.016895 0.230626 0.629312
#
# Coordination Sequence:
#
# PCOD8138856 Si02
#       7
#     8   8   8   8   4   8   8
#     4  10  21  41  62  88 122 162 209 268 311 375
#     4  11  22  38  62  89 126 164 208 256 311 377
#     4  10  22  37  63  94 121 164 209 262 319 367
#     4  10  20  38  62  88 119 165 207 260 309 371
#     4  12  24  40  60  96 132 168 206 264 318 386
#     4  11  22  39  61  93 131 157 208 267 322 369
#     4  10  23  40  63  92 122 167 218 252 313 379
#
# _framework density 19.899405999999999
#
# number of rings (size 3 to 8) (size 9 to 14) (size 15 to 20)
#    0.000    1.538    3.077    1.846    2.154    4.308 
#    0.000    5.385    0.000    0.000    0.000    0.000 
#    0.000    0.000    0.000    0.000    0.000    0.000 
#
# Total GULP energy -322249.287850 kJ/mol
# GULP energy per Si atom -12394.203379 kJ/mol
# Density = 1.985411 g / cm^3
# Si number density = 19.899406 Si / 1000 Ang^3
#
#
#
# Elastic Constant Matrix: (Units=GPa)
#
#
# Indices 1 2 3 4 5 6 
#
# 1 121.2803 28.5458 52.4769 0.0000 -16.9812 0.0000
# 2 28.5458 53.3334 29.7149 0.0000 -0.6087 0.0000
# 3 52.4769 29.7149 122.4458 0.0000 -8.0388 0.0000
# 4 0.0000 0.0000 0.0000 32.3384 0.0000 -6.4120
# 5 -16.9812 -0.6087 -8.0388 0.0000 30.9151 0.0000
# 6 0.0000 0.0000 0.0000 -6.4120 0.0000 23.4848
#
#
#
# Elastic Compliance Matrix: (Units=1/GPa)
#
#
# Indices 1 2 3 4 5 6 
#
# 1 0.011505 -0.004098 -0.003588 0.000000 0.005306 0.000000
# 2 -0.004098 0.023169 -0.004053 0.000000 -0.002849 0.000000
# 3 -0.003588 -0.004053 0.010737 0.000000 0.000741 0.000000
# 4 0.000000 0.000000 0.000000 0.032693 0.000000 0.008926
# 5 0.005306 -0.002849 0.000741 0.000000 0.035398 0.000000
# 6 0.000000 0.000000 0.000000 0.008926 0.000000 0.045018
#
#
# Mechanical properties :
#
#
# Convention : Reuss Voigt Hill
#
# Bulk Modulus (GPa) = 45.59475 57.61497 51.60486
# Shear Modulus (GPa) = 26.41166 29.76912 28.09039
#
# Velocity S-wave (km/s) = 3.64711 3.87199 3.76123
# Velocity P-wave (km/s) = 6.37946 7.00041 6.69713
#
# Compressibility (1/GPa) = 0.02193235
#
# Stress axis : x y z
#
# Youngs Moduli (GPa) = 86.91540 43.16037 93.13696
#
# Poissons Ratio (x) = 0.17689 0.33417
# Poissons Ratio (y) = 0.35622 0.37751
# Poissons Ratio (z) = 0.31185 0.17494
#
# Static dielectric constant tensor:
#      x y z
#    x 3.662900 0.000000 -0.104730 
#    y 0.000000 3.435020 0.000000 
#    z -0.104730 0.000000 3.921890 
# 
# 
# High freq. dielectric constant tensor:
#      x y z
#    x 1.779320 0.000000 -0.000820 
#    y 0.000000 1.757390 0.000000 
#    z -0.000820 0.000000 1.790070 
# 
# From -- ./inp_files/112781.got.cif
#   From: 2010.06.25/outbox.cif.g09.slc.cpg/sg15_57_cif.got.tgz:112781.got - 2010.06.28 07:06:18.
