data_PCOD8138650
_publ_section_title
;
Structure prediction by ZEFSAII (Michael W. Deem and Ramdas Pophale) SiO2 
 PCOD8138650
Probable space group: C 2/C
;
_chemical_formula_sum "Si O2"
_cell_formula_units_Z 48
_cell_length_a 16.132153
_cell_length_b 6.145417
_cell_length_c 22.313658
_cell_angle_alpha 90.000000
_cell_angle_beta 85.259673
_cell_angle_gamma 90.000000
_cell_volume 2204.582714
_symmetry_space_group_name_H-M "C 2/C"
_symmetry_group_IT_number 15
_symmetry_cell_setting 'monoclinic'
loop_
_space_group_symop_operation_xyz
x,y,z
-x,y,1/2-z
-x,-y,-z
x,-y,1/2+z
1/2+x,1/2+y,z
1/2-x,1/2+y,1/2-z
1/2-x,1/2-y,-z
1/2+x,1/2-y,1/2+z
loop_
_atom_site_type_symbol
_atom_site_label
_atom_site_fract_x
_atom_site_fract_y
_atom_site_fract_z
Si Si1 0.047425 0.111481 0.910341
Si Si2 0.706310 0.436137 0.115883
Si Si3 0.822290 0.144943 0.169551
Si Si4 0.671833 0.181146 0.703897
Si Si5 0.393706 0.326397 0.965882
Si Si6 0.924326 0.442203 0.882338
O O1 0.016668 0.341652 0.884139
O O2 0.098528 0.989678 0.856283
O O3 0.108673 0.165453 0.962227
O O4 0.971615 0.961934 0.935917
O O5 0.794460 0.311169 0.117643
O O6 0.697506 0.589780 0.173950
O O7 0.693515 0.574073 0.055054
O O8 0.635048 0.259904 0.121760
O O9 0.849705 0.284895 0.225459
O O10 0.746702 0.988290 0.191712
O O11 0.588070 0.094900 0.675347
O O12 0.402398 0.077779 0.943701
#
# Coordination Sequence:
#
# PCOD8138650 Si02
#       6
#     8   8   8   8   8   8
#     4  10  21  36  60  91 117 155 201 243 303 367
#     4   9  19  37  58  85 117 156 195 248 303 349
#     4  11  21  36  61  84 114 157 204 248 302 363
#     4  10  20  38  60  79 117 156 198 253 300 353
#     4   9  19  39  60  84 124 154 191 253 301 360
#     4   9  19  38  60  81 120 156 191 243 305 356
#
# _framework density 21.772825999999998
#
# number of rings (size 3 to 8) (size 9 to 14) (size 15 to 20)
#    0.000    2.333    1.667    0.500    0.000    2.000 
#    0.000   16.667    0.000    0.000    0.000    0.000 
#    0.000    0.000    0.000    0.000    0.000    0.000 
#
# Total GULP energy -297462.516201 kJ/mol
# GULP energy per Si atom -12394.271508 kJ/mol
# Density = 2.172327 g / cm^3
# Si number density = 21.772826 Si / 1000 Ang^3
#
#
#
# Elastic Constant Matrix: (Units=GPa)
#
#
# Indices 1 2 3 4 5 6 
#
# 1 37.8850 28.8553 33.2090 0.0000 9.4790 0.0000
# 2 28.8553 105.2774 34.3800 0.0000 14.0751 0.0000
# 3 33.2090 34.3800 93.1125 0.0000 18.4395 0.0000
# 4 0.0000 0.0000 0.0000 31.0449 0.0000 14.6307
# 5 9.4790 14.0751 18.4395 0.0000 27.5714 0.0000
# 6 0.0000 0.0000 0.0000 14.6307 0.0000 43.0067
#
#
#
# Elastic Compliance Matrix: (Units=1/GPa)
#
#
# Indices 1 2 3 4 5 6 
#
# 1 0.043559 -0.007573 -0.012148 0.000000 -0.002985 0.000000
# 2 -0.007573 0.012381 -0.001308 0.000000 -0.002842 0.000000
# 3 -0.012148 -0.001308 0.016824 0.000000 -0.006408 0.000000
# 4 0.000000 0.000000 0.000000 0.038362 0.000000 -0.013051
# 5 -0.002985 -0.002842 -0.006408 0.000000 0.043032 0.000000
# 6 0.000000 0.000000 0.000000 -0.013051 0.000000 0.027692
#
#
# Mechanical properties :
#
#
# Convention : Reuss Voigt Hill
#
# Bulk Modulus (GPa) = 32.56574 47.68482 40.12528
# Shear Modulus (GPa) = 21.35431 29.64664 25.50048
#
# Velocity S-wave (km/s) = 3.13514 3.69404 3.42600
# Velocity P-wave (km/s) = 5.30047 6.33586 5.84115
#
# Compressibility (1/GPa) = 0.03070712
#
# Stress axis : x y z
#
# Youngs Moduli (GPa) = 22.95719 80.76607 59.43776
#
# Poissons Ratio (x) = 0.61162 0.72207
# Poissons Ratio (y) = 0.17385 0.07773
# Poissons Ratio (z) = 0.27889 0.10563
#
# Static dielectric constant tensor:
#      x y z
#    x 3.930630 0.000000 0.760500 
#    y 0.000000 4.357870 0.000000 
#    z 0.760500 0.000000 3.994820 
# 
# 
# High freq. dielectric constant tensor:
#      x y z
#    x 1.833160 0.000000 0.046280 
#    y 0.000000 1.877620 0.000000 
#    z 0.046280 0.000000 1.842570 
# 
# From -- ./inp_files/275652.got.cif
#   From: 2010.06.25/outbox.cif.g09.slc.cpg/sg15_138_cif.got.tgz:275652.got - 2010.06.28 07:06:18.
