data_PCOD8138498
_publ_section_title
;
Structure prediction by ZEFSAII (Michael W. Deem and Ramdas Pophale) SiO2 
 PCOD8138498
Probable space group: C 2/C
;
_chemical_formula_sum "Si O2"
_cell_formula_units_Z 52
_cell_length_a 10.375995
_cell_length_b 17.394336
_cell_length_c 26.623848
_cell_angle_alpha 90.000000
_cell_angle_beta 148.617310
_cell_angle_gamma 90.000000
_cell_volume 2502.298759
_symmetry_space_group_name_H-M "C 2/C"
_symmetry_group_IT_number 15
_symmetry_cell_setting 'monoclinic'
loop_
_space_group_symop_operation_xyz
x,y,z
-x,y,1/2-z
-x,-y,-z
x,-y,1/2+z
1/2+x,1/2+y,z
1/2-x,1/2+y,1/2-z
1/2-x,1/2-y,-z
1/2+x,1/2-y,1/2+z
loop_
_atom_site_type_symbol
_atom_site_label
_atom_site_fract_x
_atom_site_fract_y
_atom_site_fract_z
Si Si1 0.400992 0.916929 0.340695
Si Si2 0.013052 0.958772 0.135237
Si Si3 0.036615 0.067572 0.472893
Si Si4 0.234858 0.959883 0.857068
Si Si5 0.289400 0.202565 0.094204
Si Si6 0.613174 0.841698 0.977682
Si Si7 0.500000 0.697145 0.750000
O O1 0.689042 0.895146 0.431437
O O2 0.282507 0.933624 0.246138
O O3 0.241603 0.853892 0.318349
O O4 0.405443 0.994678 0.374413
O O5 0.031423 0.030910 0.103716
O O6 0.843276 0.982911 0.125304
O O7 0.882060 0.883511 0.068490
O O8 0.852637 0.137657 0.421858
O O9 0.000000 0.000000 0.500000
O O10 0.399916 0.891126 0.933646
O O11 0.000000 0.925184 0.750000
O O12 0.454831 0.166823 0.104239
O O13 0.460585 0.249820 0.188729
O O14 0.104892 0.260959 0.003921
#
# Coordination Sequence:
#
# PCOD8138498 Si02
#       7
#     8   8   8   8   8   8   4
#     4  11  22  42  71 100 133 173 236 278 336 408
#     4  11  21  40  74  93 127 179 223 286 328 401
#     4  12  26  44  65 103 139 174 229 286 346 415
#     4  10  20  37  67 101 121 167 233 281 323 402
#     4  11  26  43  64  94 140 183 214 283 355 404
#     4  11  21  44  66  90 134 179 223 278 343 409
#     4  12  24  44  66  98 138 178 232 274 344 416
#
# _framework density 20.780891
#
# number of rings (size 3 to 8) (size 9 to 14) (size 15 to 20)
#    0.000    0.923    6.923    0.462    2.154    4.923 
#    2.769    0.000    0.000    0.000    0.000    0.000 
#    0.000    0.000    0.000    0.000    0.000    0.000 
#
# Total GULP energy -322357.985148 kJ/mol
# GULP energy per Si atom -12398.384044 kJ/mol
# Density = 2.073359 g / cm^3
# Si number density = 20.780891 Si / 1000 Ang^3
#
#
#
# Elastic Constant Matrix: (Units=GPa)
#
#
# Indices 1 2 3 4 5 6 
#
# 1 45.4508 16.0749 26.8688 0.0002 -8.3473 0.0003
# 2 16.0749 93.0003 19.7433 0.0004 -1.7829 0.0004
# 3 26.8688 19.7433 65.1388 0.0019 -21.2731 0.0014
# 4 0.0002 0.0004 0.0019 38.0458 0.0010 -9.0036
# 5 -8.3473 -1.7829 -21.2731 0.0010 35.7612 0.0005
# 6 0.0003 0.0004 0.0014 -9.0036 0.0005 34.6160
#
#
#
# Elastic Compliance Matrix: (Units=1/GPa)
#
#
# Indices 1 2 3 4 5 6 
#
# 1 0.029722 -0.002709 -0.011440 0.000001 -0.000002 0.000000
# 2 -0.002709 0.011840 -0.003084 0.000000 -0.001877 0.000000
# 3 -0.011440 -0.003084 0.024925 -0.000002 0.012003 -0.000002
# 4 0.000001 0.000000 -0.000002 0.028008 -0.000002 0.007285
# 5 -0.000002 -0.001877 0.012003 -0.000002 0.035009 -0.000001
# 6 0.000000 0.000000 -0.000002 0.007285 -0.000001 0.030783
#
#
# Mechanical properties :
#
#
# Convention : Reuss Voigt Hill
#
# Bulk Modulus (GPa) = 31.22865 36.55155 33.89010
# Shear Modulus (GPa) = 24.33957 31.07813 27.70885
#
# Velocity S-wave (km/s) = 3.42606 3.87138 3.65551
# Velocity P-wave (km/s) = 5.54173 6.13276 5.84472
#
# Compressibility (1/GPa) = 0.03202187
#
# Stress axis : x y z
#
# Youngs Moduli (GPa) = 33.64496 84.46216 40.11989
#
# Poissons Ratio (x) = 0.22880 0.45896
# Poissons Ratio (y) = 0.09114 0.12373
# Poissons Ratio (z) = 0.38489 0.26048
#
# Static dielectric constant tensor:
#      x y z
#    x 3.801960 0.000000 -0.337430 
#    y 0.000000 3.865080 0.000000 
#    z -0.337430 0.000000 4.023950 
# 
# 
# High freq. dielectric constant tensor:
#      x y z
#    x 1.804100 0.000000 -0.019220 
#    y 0.000000 1.815860 0.000000 
#    z -0.019220 0.000000 1.816020 
# 
# From -- ./inp_files/293490.got.cif
#   From: 2010.06.25/outbox.cif.g09.slc.cpg/sg15_147_cif.got.tgz:293490.got - 2010.06.28 07:06:18.
