data_PCOD8138171
_publ_section_title
;
Structure prediction by ZEFSAII (Michael W. Deem and Ramdas Pophale) SiO2 
 PCOD8138171
Probable space group: C 2/C
;
_chemical_formula_sum "Si O2"
_cell_formula_units_Z 48
_cell_length_a 16.446383
_cell_length_b 10.896726
_cell_length_c 14.503156
_cell_angle_alpha 90.000000
_cell_angle_beta 113.894905
_cell_angle_gamma 90.000000
_cell_volume 2376.363693
_symmetry_space_group_name_H-M "C 2/C"
_symmetry_group_IT_number 15
_symmetry_cell_setting 'monoclinic'
loop_
_space_group_symop_operation_xyz
x,y,z
-x,y,1/2-z
-x,-y,-z
x,-y,1/2+z
1/2+x,1/2+y,z
1/2-x,1/2+y,1/2-z
1/2-x,1/2-y,-z
1/2+x,1/2-y,1/2+z
loop_
_atom_site_type_symbol
_atom_site_label
_atom_site_fract_x
_atom_site_fract_y
_atom_site_fract_z
Si Si1 0.684758 0.506632 0.809329
Si Si2 0.388711 0.373824 0.890062
Si Si3 0.942493 0.199680 0.811093
Si Si4 0.436728 0.483563 0.574122
Si Si5 0.625201 0.100259 0.564437
Si Si6 0.488673 0.044791 0.353174
O O1 0.676105 0.404599 0.725462
O O2 0.651444 0.639461 0.758409
O O3 0.620993 0.459886 0.862230
O O4 0.784412 0.522525 0.888911
O O5 0.493658 0.371125 0.906940
O O6 0.358363 0.245889 0.920992
O O7 0.374231 0.485395 0.957800
O O8 0.929787 0.333018 0.851730
O O9 0.000000 0.238083 0.750000
O O10 0.000283 0.104311 0.895707
O O11 0.584234 0.064868 0.446295
O O12 0.561882 0.067261 0.621459
O O13 0.500000 0.014034 0.250000
#
# Coordination Sequence:
#
# PCOD8138171 Si02
#       6
#     8   8   8   8   8   8
#     4  10  22  35  59  91 121 147 202 256 294 348
#     4  10  20  37  60  88 118 157 201 246 305 357
#     4   8  15  34  58  80 106 151 186 237 292 345
#     4   9  18  37  60  84 114 154 200 246 300 356
#     4  11  24  38  60  92 118 161 202 248 298 364
#     4  10  22  41  61  81 124 161 196 237 308 364
#
# _framework density 20.198929
#
# number of rings (size 3 to 8) (size 9 to 14) (size 15 to 20)
#    0.000    2.333    1.667    1.500    2.333    3.333 
#    0.000    0.000    0.000    4.000    0.000    0.000 
#    0.000    0.000    0.000    0.000    0.000    0.000 
#
# Total GULP energy -297396.797985 kJ/mol
# GULP energy per Si atom -12391.533249 kJ/mol
# Density = 2.015296 g / cm^3
# Si number density = 20.198929 Si / 1000 Ang^3
#
#
#
# Elastic Constant Matrix: (Units=GPa)
#
#
# Indices 1 2 3 4 5 6 
#
# 1 52.0242 10.1229 46.0495 0.0000 14.2080 0.0000
# 2 10.1229 37.8233 12.5886 0.0000 4.0202 0.0000
# 3 46.0495 12.5886 139.7669 0.0000 1.4683 0.0000
# 4 0.0000 0.0000 0.0000 22.6491 0.0000 1.3523
# 5 14.2080 4.0202 1.4683 0.0000 28.9763 0.0000
# 6 0.0000 0.0000 0.0000 1.3523 0.0000 16.1647
#
#
#
# Elastic Compliance Matrix: (Units=1/GPa)
#
#
# Indices 1 2 3 4 5 6 
#
# 1 0.033472 -0.003825 -0.010522 0.000000 -0.015348 0.000000
# 2 -0.003825 0.028086 -0.001249 0.000000 -0.001958 0.000000
# 3 -0.010522 -0.001249 0.010684 0.000000 0.004791 0.000000
# 4 0.000000 0.000000 0.000000 0.044373 0.000000 -0.003712
# 5 -0.015348 -0.001958 0.004791 0.000000 0.042066 0.000000
# 6 0.000000 0.000000 0.000000 -0.003712 0.000000 0.062174
#
#
# Mechanical properties :
#
#
# Convention : Reuss Voigt Hill
#
# Bulk Modulus (GPa) = 24.36082 40.79293 32.57687
# Shear Modulus (GPa) = 18.81612 24.28159 21.54886
#
# Velocity S-wave (km/s) = 3.05543 3.47093 3.26978
# Velocity P-wave (km/s) = 4.95320 6.02516 5.51528
#
# Compressibility (1/GPa) = 0.04104952
#
# Stress axis : x y z
#
# Youngs Moduli (GPa) = 29.87610 35.60472 93.60027
#
# Poissons Ratio (x) = 0.13618 0.98489
# Poissons Ratio (y) = 0.11427 0.11690
# Poissons Ratio (z) = 0.31436 0.04447
#
# Static dielectric constant tensor:
#      x y z
#    x 3.640390 0.000000 0.010210 
#    y 0.000000 3.567380 0.000000 
#    z 0.010210 0.000000 3.878640 
# 
# 
# High freq. dielectric constant tensor:
#      x y z
#    x 1.753540 0.000000 -0.003830 
#    y 0.000000 1.771620 0.000000 
#    z -0.003830 0.000000 1.806640 
# 
# From -- ./inp_files/152165.got.cif
#   From: 2010.06.25/outbox.cif.g09.slc.cpg/sg15_77_cif.got.tgz:152165.got - 2010.06.28 07:06:18.
