data_PCOD8138587
_publ_section_title
;
Structure prediction by ZEFSAII (Michael W. Deem and Ramdas Pophale) SiO2 
 PCOD8138587
Probable space group: C 2/C
;
_chemical_formula_sum "Si O2"
_cell_formula_units_Z 64
_cell_length_a 27.437821
_cell_length_b 20.059370
_cell_length_c 11.542548
_cell_angle_alpha 90.000000
_cell_angle_beta 33.166966
_cell_angle_gamma 90.000000
_cell_volume 3475.521555
_symmetry_space_group_name_H-M "C 2/C"
_symmetry_group_IT_number 15
_symmetry_cell_setting 'monoclinic'
loop_
_space_group_symop_operation_xyz
x,y,z
-x,y,1/2-z
-x,-y,-z
x,-y,1/2+z
1/2+x,1/2+y,z
1/2-x,1/2+y,1/2-z
1/2-x,1/2-y,-z
1/2+x,1/2-y,1/2+z
loop_
_atom_site_type_symbol
_atom_site_label
_atom_site_fract_x
_atom_site_fract_y
_atom_site_fract_z
Si Si1 0.759199 0.049099 0.592519
Si Si2 0.031432 0.636116 0.309997
Si Si3 0.627802 0.118736 0.691534
Si Si4 0.599775 0.622290 0.031115
Si Si5 0.356329 0.010761 0.476548
Si Si6 0.296331 0.433572 0.372593
Si Si7 0.186325 0.311262 0.652159
Si Si8 0.898990 0.721103 0.940912
O O1 0.718222 0.099954 0.579423
O O2 0.826192 0.089408 0.537565
O O3 0.821657 0.990625 0.414633
O O4 0.673016 0.016324 0.829899
O O5 0.067179 0.562921 0.207679
O O6 0.108335 0.683558 0.210574
O O7 0.000000 0.669105 0.250000
O O8 0.952285 0.628217 0.558801
O O9 0.642011 0.188513 0.594444
O O10 0.607125 0.061465 0.636146
O O11 0.500000 0.596436 0.250000
O O12 0.609059 0.699625 0.041961
O O13 0.620390 0.601899 0.857003
O O14 0.265222 0.027696 0.594409
O O15 0.243109 0.377500 0.545106
O O16 0.250000 0.250000 0.500000
O O17 0.149971 0.307680 0.852092
O O18 0.000000 0.697604 0.750000
#
# Coordination Sequence:
#
# PCOD8138587 Si02
#       8
#     8   8   8   8   8   8   8   8
#     4  10  20  38  58  85 118 151 194 252 301 355
#     4  11  21  35  56  87 124 160 199 238 291 352
#     4  11  21  34  57  88 122 155 196 245 292 358
#     4  10  22  39  59  81 111 153 203 253 301 353
#     4   9  19  33  52  83 121 156 185 230 299 356
#     4   9  19  35  58  83 108 149 199 237 298 354
#     4  11  21  38  62  83 119 167 195 238 296 357
#     4  11  22  37  56  87 118 153 204 239 290 359
#
# _framework density 18.414501999999999
#
# number of rings (size 3 to 8) (size 9 to 14) (size 15 to 20)
#    0.000    1.750    3.750    1.125    0.000    1.500 
#    0.000    0.000    0.000    0.750    0.000    0.000 
#    0.000    0.000    0.000    0.000    0.000    0.000 
#
# Total GULP energy -396592.943531 kJ/mol
# GULP energy per Si atom -12393.529485 kJ/mol
# Density = 1.837259 g / cm^3
# Si number density = 18.414502 Si / 1000 Ang^3
#
#
#
# Elastic Constant Matrix: (Units=GPa)
#
#
# Indices 1 2 3 4 5 6 
#
# 1 79.7973 33.2643 49.9209 0.0000 8.3961 0.0000
# 2 33.2643 80.7233 55.6405 0.0000 6.8670 0.0000
# 3 49.9209 55.6405 146.5041 0.0000 16.2084 0.0000
# 4 0.0000 0.0000 0.0000 172.2080 0.0000 32.1087
# 5 8.3961 6.8670 16.2084 0.0000 29.2389 0.0000
# 6 0.0000 0.0000 0.0000 32.1087 0.0000 32.0668
#
#
#
# Elastic Compliance Matrix: (Units=1/GPa)
#
#
# Indices 1 2 3 4 5 6 
#
# 1 0.016924 -0.004043 -0.004047 0.000000 -0.001667 0.000000
# 2 -0.004043 0.017752 -0.005360 0.000000 -0.000037 0.000000
# 3 -0.004047 -0.005360 0.010624 0.000000 -0.003468 0.000000
# 4 0.000000 0.000000 0.000000 0.007140 0.000000 -0.007149
# 5 -0.001667 -0.000037 -0.003468 0.000000 0.036611 0.000000
# 6 0.000000 0.000000 0.000000 -0.007149 0.000000 0.038343
#
#
# Mechanical properties :
#
#
# Convention : Reuss Voigt Hill
#
# Bulk Modulus (GPa) = 54.34764 64.96400 59.65582
# Shear Modulus (GPa) = 31.16657 57.91600 44.54129
#
# Velocity S-wave (km/s) = 4.11847 5.61423 4.92348
# Velocity P-wave (km/s) = 7.22449 8.79667 8.04906
#
# Compressibility (1/GPa) = 0.01840006
#
# Stress axis : x y z
#
# Youngs Moduli (GPa) = 59.08686 56.33241 94.12405
#
# Poissons Ratio (x) = 0.22774 0.38093
# Poissons Ratio (y) = 0.23887 0.50453
# Poissons Ratio (z) = 0.23913 0.30196
#
# Static dielectric constant tensor:
#      x y z
#    x 3.484970 0.000000 0.261740 
#    y 0.000000 3.486270 0.000000 
#    z 0.261740 0.000000 3.715420 
# 
# 
# High freq. dielectric constant tensor:
#      x y z
#    x 1.702870 0.000000 0.016970 
#    y 0.000000 1.709850 0.000000 
#    z 0.016970 0.000000 1.724110 
# 
# From -- ./inp_files/124251.got.cif
#   From: 2010.06.25/outbox.cif.g09.slc.cpg/sg15_63_cif.got.tgz:124251.got - 2010.06.28 07:06:18.
