data_PCOD8138826
_publ_section_title
;
Structure prediction by ZEFSAII (Michael W. Deem and Ramdas Pophale) SiO2 
 PCOD8138826
Probable space group: C 2/C
;
_chemical_formula_sum "Si O2"
_cell_formula_units_Z 48
_cell_length_a 19.147685
_cell_length_b 14.611118
_cell_length_c 14.187149
_cell_angle_alpha 90.000000
_cell_angle_beta 30.930399
_cell_angle_gamma 90.000000
_cell_volume 2040.116464
_symmetry_space_group_name_H-M "C 2/C"
_symmetry_group_IT_number 15
_symmetry_cell_setting 'monoclinic'
loop_
_space_group_symop_operation_xyz
x,y,z
-x,y,1/2-z
-x,-y,-z
x,-y,1/2+z
1/2+x,1/2+y,z
1/2-x,1/2+y,1/2-z
1/2-x,1/2-y,-z
1/2+x,1/2-y,1/2+z
loop_
_atom_site_type_symbol
_atom_site_label
_atom_site_fract_x
_atom_site_fract_y
_atom_site_fract_z
Si Si1 0.866692 0.019990 0.444317
Si Si2 0.849934 0.495118 0.453769
Si Si3 0.144107 0.287009 0.548989
Si Si4 0.840926 0.487936 0.169831
Si Si5 0.542422 0.284537 0.599245
Si Si6 0.321704 0.772251 0.203661
O O1 0.766544 0.964096 0.632518
O O2 0.935530 0.106991 0.414821
O O3 0.000000 0.963373 0.250000
O O4 0.764970 0.050235 0.478323
O O5 0.845601 0.604273 0.458505
O O6 0.809484 0.466178 0.606128
O O7 0.000000 0.460121 0.250000
O O8 0.250000 0.250000 0.500000
O O9 0.163476 0.243798 0.422606
O O10 0.000000 0.251715 0.750000
O O11 0.814580 0.381399 0.213781
O O12 0.000000 0.500000 0.000000
O O13 0.500000 0.241859 0.750000
O O14 0.437766 0.267501 0.636105
O O15 0.680251 0.233779 0.408439
#
# Coordination Sequence:
#
# PCOD8138826 Si02
#       6
#     8   8   8   8   8   8
#     4  10  22  40  60  92 129 158 203 258 312 365
#     4  10  20  38  62  85 119 160 209 254 297 370
#     4  10  21  37  61  89 117 156 206 258 310 361
#     4  10  20  39  63  88 113 158 211 247 301 363
#     4  10  21  41  60  90 126 162 204 247 308 370
#     4  10  21  39  62  87 124 157 201 256 300 366
#
# _framework density 23.528068000000001
#
# number of rings (size 3 to 8) (size 9 to 14) (size 15 to 20)
#    0.000    2.000    1.667    1.500    0.000    1.333 
#   12.000    0.000    0.000    0.000    0.000    0.000 
#    0.000    0.000    0.000    0.000    0.000    0.000 
#
# Total GULP energy -297349.613987 kJ/mol
# GULP energy per Si atom -12389.567249 kJ/mol
# Density = 2.347452 g / cm^3
# Si number density = 23.528068 Si / 1000 Ang^3
#
#
#
# Elastic Constant Matrix: (Units=GPa)
#
#
# Indices 1 2 3 4 5 6 
#
# 1 215.0611 10.3086 102.3044 0.0000 7.2391 0.0000
# 2 10.3086 18.6354 2.0430 0.0000 -0.0849 0.0000
# 3 102.3044 2.0430 267.1527 0.0000 12.7008 0.0000
# 4 0.0000 0.0000 0.0000 3.1109 0.0000 -13.6181
# 5 7.2391 -0.0849 12.7008 0.0000 58.0123 0.0000
# 6 0.0000 0.0000 0.0000 -13.6181 0.0000 29.4870
#
#
#
# Elastic Compliance Matrix: (Units=1/GPa)
#
#
# Indices 1 2 3 4 5 6 
#
# 1 0.005851 -0.002996 -0.002206 0.000000 -0.000252 0.000000
# 2 -0.002996 0.055242 0.000711 0.000000 0.000299 0.000000
# 3 -0.002206 0.000711 0.004617 0.000000 -0.000735 0.000000
# 4 0.000000 0.000000 0.000000 -0.314625 0.000000 -0.145304
# 5 -0.000252 0.000299 -0.000735 0.000000 0.017430 0.000000
# 6 0.000000 0.000000 0.000000 -0.145304 0.000000 -0.033193
#
#
# Mechanical properties :
#
#
# Convention : Reuss Voigt Hill
#
# Bulk Modulus (GPa) = 17.62790 81.12901 49.37845
# Shear Modulus (GPa) = -21.11616 43.86826 11.37605
#
# Velocity S-wave (km/s) = -2.99906 4.32268 2.20127
# Velocity P-wave (km/s) = 2.11753 7.71173 5.24341
#
# Compressibility (1/GPa) = 0.05672825
#
# Stress axis : x y z
#
# Youngs Moduli (GPa) = 170.90427 18.10214 216.57350
#
# Poissons Ratio (x) = 0.05424 0.47772
# Poissons Ratio (y) = 0.51204 -0.15391
# Poissons Ratio (z) = 0.37698 -0.01286
#
# Static dielectric constant tensor:
#      x y z
#    x 4.210100 0.000000 0.160430 
#    y 0.000000 3.393880 0.000000 
#    z 0.160430 0.000000 5.162570 
# 
# 
# High freq. dielectric constant tensor:
#      x y z
#    x 1.942280 0.000000 0.008180 
#    y 0.000000 1.893140 0.000000 
#    z 0.008180 0.000000 1.962400 
# 
# From -- ./inp_files/100049.got.cif
#   From: 2010.06.25/outbox.cif.g09.slc.cpg/sg15_51_cif.got.tgz:100049.got - 2010.06.28 07:06:18.
