data_PCOD8138361
_publ_section_title
;
Structure prediction by ZEFSAII (Michael W. Deem and Ramdas Pophale) SiO2 
 PCOD8138361
Probable space group: C 2/C
;
_chemical_formula_sum "Si O2"
_cell_formula_units_Z 44
_cell_length_a 27.250672
_cell_length_b 14.112132
_cell_length_c 12.449805
_cell_angle_alpha 90.000000
_cell_angle_beta 28.368020
_cell_angle_gamma 90.000000
_cell_volume 2274.823631
_symmetry_space_group_name_H-M "C 2/C"
_symmetry_group_IT_number 15
_symmetry_cell_setting 'monoclinic'
loop_
_space_group_symop_operation_xyz
x,y,z
-x,y,1/2-z
-x,-y,-z
x,-y,1/2+z
1/2+x,1/2+y,z
1/2-x,1/2+y,1/2-z
1/2-x,1/2-y,-z
1/2+x,1/2-y,1/2+z
loop_
_atom_site_type_symbol
_atom_site_label
_atom_site_fract_x
_atom_site_fract_y
_atom_site_fract_z
Si Si1 0.699673 0.348607 0.562177
Si Si2 0.500000 0.743723 0.750000
Si Si3 0.679956 0.801997 0.722471
Si Si4 0.029326 0.168143 0.926040
Si Si5 0.271478 0.451353 0.422110
Si Si6 0.281657 0.831603 0.175563
O O1 0.750000 0.250000 0.500000
O O2 0.741122 0.435529 0.554666
O O3 0.728146 0.370429 0.385127
O O4 0.577507 0.351884 0.810364
O O5 0.519177 0.678371 0.817068
O O6 0.598329 0.809548 0.536136
O O7 0.750000 0.750000 0.500000
O O8 0.564879 0.766941 0.915078
O O9 0.700908 0.912882 0.659033
O O10 0.720017 0.765175 0.760795
O O11 0.109211 0.082465 0.795202
O O12 0.226679 0.414192 0.396140
#
# Coordination Sequence:
#
# PCOD8138361 Si02
#       6
#     8   4   8   8   8   8
#     4  12  25  36  57  99 130 144 202 274 294 338
#     4  12  16  36  68  88 114 162 206 230 320 354
#     4   8  16  37  60  81 111 161 204 230 293 370
#     4  10  20  37  63  91 116 158 204 252 295 368
#     4  10  21  41  61  88 123 165 204 236 308 376
#     4  10  21  38  63  86 126 162 196 253 310 357
#
# _framework density 19.342158999999999
#
# number of rings (size 3 to 8) (size 9 to 14) (size 15 to 20)
#    0.000    2.182    7.273    0.545    0.000    5.818 
#    0.000    3.636    0.000    0.000    0.000    0.000 
#    0.000    0.000    0.000    0.000    0.000    0.000 
#
# Total GULP energy -272615.015982 kJ/mol
# GULP energy per Si atom -12391.591636 kJ/mol
# Density = 1.929814 g / cm^3
# Si number density = 19.342159 Si / 1000 Ang^3
#
#
#
# Elastic Constant Matrix: (Units=GPa)
#
#
# Indices 1 2 3 4 5 6 
#
# 1 83.0707 26.4017 23.3461 0.0000 -1.8981 0.0000
# 2 26.4017 127.5115 26.2193 0.0000 -5.2161 0.0000
# 3 23.3461 26.2193 72.2529 0.0000 13.9541 0.0000
# 4 0.0000 0.0000 0.0000 19.3011 0.0000 -1.3337
# 5 -1.8981 -5.2161 13.9541 0.0000 22.3795 0.0000
# 6 0.0000 0.0000 0.0000 -1.3337 0.0000 24.3682
#
#
#
# Elastic Compliance Matrix: (Units=1/GPa)
#
#
# Indices 1 2 3 4 5 6 
#
# 1 0.013976 -0.001810 -0.004555 0.000000 0.003604 0.000000
# 2 -0.001810 0.009113 -0.003528 0.000000 0.004170 0.000000
# 3 -0.004555 -0.003528 0.019129 0.000000 -0.013136 0.000000
# 4 0.000000 0.000000 0.000000 0.052007 0.000000 0.002846
# 5 0.003604 0.004170 -0.013136 0.000000 0.054152 0.000000
# 6 0.000000 0.000000 0.000000 0.002846 0.000000 0.041193
#
#
# Mechanical properties :
#
#
# Convention : Reuss Voigt Hill
#
# Bulk Modulus (GPa) = 44.57682 48.30770 46.44226
# Shear Modulus (GPa) = 23.05933 27.00096 25.03014
#
# Velocity S-wave (km/s) = 3.45654 3.74031 3.60122
# Velocity P-wave (km/s) = 6.24714 6.60930 6.43077
#
# Compressibility (1/GPa) = 0.02243319
#
# Stress axis : x y z
#
# Youngs Moduli (GPa) = 71.55345 109.73258 52.27637
#
# Poissons Ratio (x) = 0.19858 0.23812
# Poissons Ratio (y) = 0.12949 0.18441
# Poissons Ratio (z) = 0.32593 0.38709
#
# Static dielectric constant tensor:
#      x y z
#    x 3.933220 0.000000 -0.180310 
#    y 0.000000 4.230850 0.000000 
#    z -0.180310 0.000000 3.844290 
# 
# 
# High freq. dielectric constant tensor:
#      x y z
#    x 1.755600 0.000000 -0.004420 
#    y 0.000000 1.732230 0.000000 
#    z -0.004420 0.000000 1.745700 
# 
# From -- ./inp_files/123250.got.cif
#   From: 2010.06.25/outbox.cif.g09.slc.cpg/sg15_62_cif.got.tgz:123250.got - 2010.06.28 07:06:18.
