data_PCOD8138194
_publ_section_title
;
Structure prediction by ZEFSAII (Michael W. Deem and Ramdas Pophale) SiO2 
 PCOD8138194
Probable space group: C 2/C
;
_chemical_formula_sum "Si O2"
_cell_formula_units_Z 60
_cell_length_a 17.750192
_cell_length_b 8.800888
_cell_length_c 24.451763
_cell_angle_alpha 90.000000
_cell_angle_beta 52.027744
_cell_angle_gamma 90.000000
_cell_volume 3011.175653
_symmetry_space_group_name_H-M "C 2/C"
_symmetry_group_IT_number 15
_symmetry_cell_setting 'monoclinic'
loop_
_space_group_symop_operation_xyz
x,y,z
-x,y,1/2-z
-x,-y,-z
x,-y,1/2+z
1/2+x,1/2+y,z
1/2-x,1/2+y,1/2-z
1/2-x,1/2-y,-z
1/2+x,1/2-y,1/2+z
loop_
_atom_site_type_symbol
_atom_site_label
_atom_site_fract_x
_atom_site_fract_y
_atom_site_fract_z
Si Si1 0.634940 0.578592 0.621431
Si Si2 0.500000 0.620759 0.250000
Si Si3 0.390268 0.582013 0.992093
Si Si4 0.161406 0.331826 0.339666
Si Si5 0.300170 0.899658 0.597859
Si Si6 0.832702 0.668192 0.789432
Si Si7 0.019489 0.764258 0.520998
Si Si8 0.286940 0.862001 0.857214
O O1 0.545557 0.483107 0.682937
O O2 0.614042 0.628510 0.569112
O O3 0.731314 0.476257 0.583003
O O4 0.642125 0.730859 0.654230
O O5 0.576589 0.724901 0.245487
O O6 0.459555 0.699730 0.992672
O O7 0.427901 0.411872 0.980157
O O8 0.283331 0.591843 0.062361
O O9 0.191158 0.486018 0.355892
O O10 0.186192 0.355654 0.265765
O O11 0.224022 0.191582 0.333719
O O12 0.049782 0.297104 0.400463
O O13 0.258807 0.743060 0.640361
O O14 0.403071 0.866808 0.525402
O O15 0.849983 0.505699 0.810367
#
# Coordination Sequence:
#
# PCOD8138194 Si02
#       8
#     8   4   8   8   8   8   8   8
#     4  10  22  41  62  84 121 165 196 246 313 349
#     4  10  24  42  56  84 124 154 200 252 288 372
#     4  10  20  38  61  91 120 156 196 253 304 350
#     4  10  21  37  61  87 120 156 194 246 306 352
#     4  10  21  39  59  88 120 154 205 251 290 371
#     4  11  21  41  59  86 119 156 200 246 303 349
#     4  10  20  37  60  92 122 150 204 250 292 369
#     4  10  21  39  62  88 119 151 207 245 288 372
#
# _framework density 19.925771999999998
#
# number of rings (size 3 to 8) (size 9 to 14) (size 15 to 20)
#    0.000    1.867    1.333    2.400    0.000    1.067 
#   14.400    0.000    0.000    0.000    0.000    0.000 
#    0.000    0.000    0.000    0.000    0.000    0.000 
#
# Total GULP energy -372130.340478 kJ/mol
# GULP energy per Si atom -12404.344683 kJ/mol
# Density = 1.988042 g / cm^3
# Si number density = 19.925772 Si / 1000 Ang^3
#
#
#
# Elastic Constant Matrix: (Units=GPa)
#
#
# Indices 1 2 3 4 5 6 
#
# 1 65.0288 28.4645 43.1931 0.0000 0.3904 0.0001
# 2 28.4645 107.2007 42.8045 0.0001 -3.5831 0.0002
# 3 43.1931 42.8045 83.1108 0.0000 3.8838 0.0000
# 4 0.0000 0.0001 0.0000 16.5625 0.0000 2.4143
# 5 0.3904 -3.5831 3.8838 0.0000 32.4026 0.0000
# 6 0.0001 0.0002 0.0000 2.4143 0.0000 18.8143
#
#
#
# Elastic Compliance Matrix: (Units=1/GPa)
#
#
# Indices 1 2 3 4 5 6 
#
# 1 0.023764 -0.001676 -0.011530 0.000000 0.000910 0.000000
# 2 -0.001676 0.011996 -0.005401 0.000000 0.001994 0.000000
# 3 -0.011530 -0.005401 0.020944 0.000000 -0.002969 0.000000
# 4 0.000000 0.000000 0.000000 0.061528 0.000000 -0.007895
# 5 0.000910 0.001994 -0.002969 0.000000 0.031427 0.000000
# 6 0.000000 0.000000 0.000000 -0.007895 0.000000 0.054164
#
#
# Mechanical properties :
#
#
# Convention : Reuss Voigt Hill
#
# Bulk Modulus (GPa) = 51.30222 53.80717 52.55469
# Shear Modulus (GPa) = 20.19918 22.94776 21.57347
#
# Velocity S-wave (km/s) = 3.18735 3.39730 3.29400
# Velocity P-wave (km/s) = 6.27281 6.51546 6.39529
#
# Compressibility (1/GPa) = 0.01949233
#
# Stress axis : x y z
#
# Youngs Moduli (GPa) = 42.08026 83.35836 47.74525
#
# Poissons Ratio (x) = 0.13969 0.55049
# Poissons Ratio (y) = 0.07052 0.25786
# Poissons Ratio (z) = 0.48518 0.45020
#
# Static dielectric constant tensor:
#      x y z
#    x 3.570100 0.000000 -0.153580 
#    y 0.000000 3.676340 0.000000 
#    z -0.153580 0.000000 3.576760 
# 
# 
# High freq. dielectric constant tensor:
#      x y z
#    x 1.770470 0.000000 -0.003860 
#    y 0.000000 1.788080 0.000000 
#    z -0.003860 0.000000 1.775320 
# 
# From -- ./inp_files/213885.got.cif
#   From: 2010.06.25/outbox.cif.g09.slc.cpg/sg15_107_cif.got.tgz:213885.got - 2010.06.28 07:06:18.
