data_PCOD8138762
_publ_section_title
;
Structure prediction by ZEFSAII (Michael W. Deem and Ramdas Pophale) SiO2 
 PCOD8138762
Probable space group: C 2/C
;
_chemical_formula_sum "Si O2"
_cell_formula_units_Z 48
_cell_length_a 14.874130
_cell_length_b 12.800151
_cell_length_c 22.903879
_cell_angle_alpha 90.000000
_cell_angle_beta 143.695097
_cell_angle_gamma 90.000000
_cell_volume 2581.889607
_symmetry_space_group_name_H-M "C 2/C"
_symmetry_group_IT_number 15
_symmetry_cell_setting 'monoclinic'
loop_
_space_group_symop_operation_xyz
x,y,z
-x,y,1/2-z
-x,-y,-z
x,-y,1/2+z
1/2+x,1/2+y,z
1/2-x,1/2+y,1/2-z
1/2-x,1/2-y,-z
1/2+x,1/2-y,1/2+z
loop_
_atom_site_type_symbol
_atom_site_label
_atom_site_fract_x
_atom_site_fract_y
_atom_site_fract_z
Si Si1 0.089238 0.031989 0.629118
Si Si2 0.901108 0.493764 0.642420
Si Si3 0.510554 0.828840 0.502466
Si Si4 0.116079 0.502568 0.145413
Si Si5 0.674440 0.685129 0.011157
Si Si6 0.642981 0.374296 0.035457
O O1 0.212015 0.010530 0.743317
O O2 0.170433 0.077152 0.614168
O O3 0.965826 0.116603 0.587307
O O4 0.009949 0.921899 0.572621
O O5 0.800400 0.391754 0.603850
O O6 0.789825 0.593664 0.574042
O O7 0.000000 0.518611 0.750000
O O8 0.000851 0.475734 0.637582
O O9 0.428249 0.897530 0.410994
O O10 0.381121 0.762270 0.467256
O O11 0.627121 0.750637 0.530945
O O12 0.607814 0.898657 0.598025
O O13 0.750000 0.750000 0.000000
#
# Coordination Sequence:
#
# PCOD8138762 Si02
#       6
#     8   8   8   8   8   8
#     4   9  19  35  59  85 116 150 191 239 292 342
#     4  11  21  36  60  87 112 148 200 244 283 341
#     4  10  23  38  59  84 123 154 190 236 301 346
#     4  11  22  38  59  86 119 153 189 243 295 343
#     4  10  20  38  61  87 114 152 199 245 286 344
#     4   9  19  37  57  82 116 151 191 235 286 350
#
# _framework density 18.591035000000002
#
# number of rings (size 3 to 8) (size 9 to 14) (size 15 to 20)
#    0.000    2.000    3.333    1.000    0.000    4.667 
#    0.000    0.000    0.000    0.000    0.000    0.000 
#    0.000    0.000    0.000    0.000    0.000    0.000 
#
# Total GULP energy -297608.252564 kJ/mol
# GULP energy per Si atom -12400.343857 kJ/mol
# Density = 1.854872 g / cm^3
# Si number density = 18.591035 Si / 1000 Ang^3
#
#
#
# Elastic Constant Matrix: (Units=GPa)
#
#
# Indices 1 2 3 4 5 6 
#
# 1 39.5028 22.8843 20.3708 0.0000 8.4517 0.0000
# 2 22.8843 123.6759 51.4829 0.0000 2.7122 0.0000
# 3 20.3708 51.4829 129.9933 0.0002 1.0348 0.0001
# 4 0.0000 0.0000 0.0002 14.7673 0.0001 -2.2258
# 5 8.4517 2.7122 1.0348 0.0001 23.2418 0.0000
# 6 0.0000 0.0000 0.0001 -2.2258 0.0000 32.7202
#
#
#
# Elastic Compliance Matrix: (Units=1/GPa)
#
#
# Indices 1 2 3 4 5 6 
#
# 1 0.031794 -0.004318 -0.003186 0.000000 -0.010916 0.000000
# 2 -0.004318 0.010290 -0.003403 0.000000 0.000521 0.000000
# 3 -0.003186 -0.003403 0.009530 0.000000 0.001131 0.000000
# 4 0.000000 0.000000 0.000000 0.068419 0.000000 0.004654
# 5 -0.010916 0.000521 0.001131 0.000000 0.046884 0.000000
# 6 0.000000 0.000000 0.000000 0.004654 0.000000 0.030879
#
#
# Mechanical properties :
#
#
# Convention : Reuss Voigt Hill
#
# Bulk Modulus (GPa) = 33.55403 53.62756 43.59080
# Shear Modulus (GPa) = 21.78256 27.37480 24.57868
#
# Velocity S-wave (km/s) = 3.42668 3.84144 3.63998
# Velocity P-wave (km/s) = 5.80895 6.97023 6.41592
#
# Compressibility (1/GPa) = 0.02980268
#
# Stress axis : x y z
#
# Youngs Moduli (GPa) = 31.45238 97.18590 104.92636
#
# Poissons Ratio (x) = 0.41961 0.33424
# Poissons Ratio (y) = 0.13580 0.35703
# Poissons Ratio (z) = 0.10019 0.33069
#
# Static dielectric constant tensor:
#      x y z
#    x 3.506470 0.000000 0.090220 
#    y 0.000000 3.570630 0.000000 
#    z 0.090220 0.000000 3.272640 
# 
# 
# High freq. dielectric constant tensor:
#      x y z
#    x 1.717410 0.000000 0.008000 
#    y 0.000000 1.728300 0.000000 
#    z 0.008000 0.000000 1.712080 
# 
# From -- ./inp_files/152203.got.cif
#   From: 2010.06.25/outbox.cif.g09.slc.cpg/sg15_77_cif.got.tgz:152203.got - 2010.06.28 07:06:18.
