data_PCOD8138510
_publ_section_title
;
Structure prediction by ZEFSAII (Michael W. Deem and Ramdas Pophale) SiO2 
 PCOD8138510
Probable space group: C 2/C
;
_chemical_formula_sum "Si O2"
_cell_formula_units_Z 52
_cell_length_a 14.776604
_cell_length_b 9.713688
_cell_length_c 16.356179
_cell_angle_alpha 90.000000
_cell_angle_beta 115.588310
_cell_angle_gamma 90.000000
_cell_volume 2117.429589
_symmetry_space_group_name_H-M "C 2/C"
_symmetry_group_IT_number 15
_symmetry_cell_setting 'monoclinic'
loop_
_space_group_symop_operation_xyz
x,y,z
-x,y,1/2-z
-x,-y,-z
x,-y,1/2+z
1/2+x,1/2+y,z
1/2-x,1/2+y,1/2-z
1/2-x,1/2-y,-z
1/2+x,1/2-y,1/2+z
loop_
_atom_site_type_symbol
_atom_site_label
_atom_site_fract_x
_atom_site_fract_y
_atom_site_fract_z
Si Si1 0.058110 0.308256 0.467198
Si Si2 0.680424 0.398731 0.913156
Si Si3 0.839333 0.286943 0.348611
Si Si4 0.500000 0.540129 0.750000
Si Si5 0.784270 0.577696 0.290400
Si Si6 0.520897 0.771035 0.635040
Si Si7 0.159756 0.586505 0.483906
O O1 0.149615 0.232628 0.455160
O O2 0.032722 0.236952 0.543680
O O3 0.083706 0.469019 0.488116
O O4 0.957479 0.292803 0.373530
O O5 0.587349 0.449569 0.823093
O O6 0.765346 0.366748 0.876896
O O7 0.732296 0.514335 0.994674
O O8 0.779357 0.412339 0.281284
O O9 0.798023 0.141141 0.302194
O O10 0.818743 0.301450 0.437244
O O11 0.542219 0.633381 0.693426
O O12 0.895096 0.620320 0.305254
O O13 0.407500 0.832941 0.610534
#
# Coordination Sequence:
#
# PCOD8138510 Si02
#       7
#     8   8   8   4   8   8   8
#     4  11  20  42  71  98 120 178 223 275 318 394
#     4  11  24  41  69  98 136 165 225 277 326 382
#     4  10  20  37  67  94 136 172 219 266 335 386
#     4  12  28  46  56 102 144 168 206 286 336 396
#     4  11  21  41  66  98 131 179 212 282 329 392
#     4  11  22  43  68  88 134 172 219 264 336 392
#     4  10  20  42  69  95 125 175 224 273 316 396
#
# _framework density 24.558077999999998
#
# number of rings (size 3 to 8) (size 9 to 14) (size 15 to 20)
#    0.000    1.231    4.615    4.154    0.000    1.231 
#    2.769    3.077    0.000    0.000    0.000    0.000 
#    0.000    0.000    0.000    0.000    0.000    0.000 
#
# Total GULP energy -322149.318653 kJ/mol
# GULP energy per Si atom -12390.358410 kJ/mol
# Density = 2.450218 g / cm^3
# Si number density = 24.558078 Si / 1000 Ang^3
#
#
#
# Elastic Constant Matrix: (Units=GPa)
#
#
# Indices 1 2 3 4 5 6 
#
# 1 35.4888 -6.0447 11.6364 0.0000 9.5432 0.0000
# 2 -6.0447 30.8281 -1.5867 0.0000 -12.6446 0.0000
# 3 11.6364 -1.5867 57.8559 0.0000 11.6859 0.0000
# 4 0.0000 0.0000 0.0000 40.6688 0.0000 8.5826
# 5 9.5432 -12.6446 11.6859 0.0000 43.0198 0.0000
# 6 0.0000 0.0000 0.0000 8.5826 0.0000 37.5023
#
#
#
# Elastic Compliance Matrix: (Units=1/GPa)
#
#
# Indices 1 2 3 4 5 6 
#
# 1 0.031836 0.004173 -0.005406 0.000000 -0.004367 0.000000
# 2 0.004173 0.037517 -0.001958 0.000000 0.010633 0.000000
# 3 -0.005406 -0.001958 0.019248 0.000000 -0.004605 0.000000
# 4 0.000000 0.000000 0.000000 0.025837 0.000000 -0.005913
# 5 -0.004367 0.010633 -0.004605 0.000000 0.028590 0.000000
# 6 0.000000 0.000000 0.000000 -0.005913 0.000000 0.028018
#
#
# Mechanical properties :
#
#
# Convention : Reuss Voigt Hill
#
# Bulk Modulus (GPa) = 12.16294 14.68696 13.42495
# Shear Modulus (GPa) = 24.40990 32.24936 28.32963
#
# Velocity S-wave (km/s) = 3.15614 3.62772 3.40012
# Velocity P-wave (km/s) = 4.27143 4.85187 4.57087
#
# Compressibility (1/GPa) = 0.08221698
#
# Stress axis : x y z
#
# Youngs Moduli (GPa) = 31.41127 26.65474 51.95318
#
# Poissons Ratio (x) = -0.11123 0.28088
# Poissons Ratio (y) = -0.13107 0.10173
# Poissons Ratio (z) = 0.16982 0.05219
#
# Static dielectric constant tensor:
#      x y z
#    x 4.593050 0.000000 0.503270 
#    y 0.000000 4.131790 0.000000 
#    z 0.503270 0.000000 4.483850 
# 
# 
# High freq. dielectric constant tensor:
#      x y z
#    x 1.972880 0.000000 0.043600 
#    y 0.000000 1.959400 0.000000 
#    z 0.043600 0.000000 1.978140 
# 
# From -- ./inp_files/204199.got.cif
#   From: 2010.06.25/outbox.cif.g09.slc.cpg/sg15_103_cif.got.tgz:204199.got - 2010.06.28 07:06:18.
