data_PCOD8138481
_publ_section_title
;
Structure prediction by ZEFSAII (Michael W. Deem and Ramdas Pophale) SiO2 
 PCOD8138481
Probable space group: C 2/C
;
_chemical_formula_sum "Si O2"
_cell_formula_units_Z 56
_cell_length_a 27.966469
_cell_length_b 17.530598
_cell_length_c 9.349451
_cell_angle_alpha 90.000000
_cell_angle_beta 143.921942
_cell_angle_gamma 90.000000
_cell_volume 2699.307495
_symmetry_space_group_name_H-M "C 2/C"
_symmetry_group_IT_number 15
_symmetry_cell_setting 'monoclinic'
loop_
_space_group_symop_operation_xyz
x,y,z
-x,y,1/2-z
-x,-y,-z
x,-y,1/2+z
1/2+x,1/2+y,z
1/2-x,1/2+y,1/2-z
1/2-x,1/2-y,-z
1/2+x,1/2-y,1/2+z
loop_
_atom_site_type_symbol
_atom_site_label
_atom_site_fract_x
_atom_site_fract_y
_atom_site_fract_z
Si Si1 0.906238 0.585428 0.723888
Si Si2 0.339572 0.005531 0.818074
Si Si3 0.784641 0.888915 0.042504
Si Si4 0.560986 0.687238 0.511459
Si Si5 0.703489 0.848407 0.127743
Si Si6 0.683647 0.779309 0.615512
Si Si7 0.027968 0.695031 0.153100
O O1 0.873504 0.514963 0.740065
O O2 0.906260 0.545285 0.566867
O O3 0.848612 0.660323 0.578772
O O4 0.991185 0.617398 0.992239
O O5 0.329645 0.092999 0.836572
O O6 0.250406 0.965915 0.615000
O O7 0.882562 0.879992 0.284267
O O8 0.750343 0.893888 0.118963
O O9 0.750954 0.815183 0.881684
O O10 0.612539 0.749184 0.546313
O O11 0.507939 0.730526 0.506720
O O12 0.500000 0.648205 0.250000
O O13 0.767897 0.787983 0.350459
O O14 0.624644 0.806846 0.875169
O O15 0.000000 0.705497 0.250000
#
# Coordination Sequence:
#
# PCOD8138481 Si02
#       7
#     8   8   8   8   8   8   8
#     4  11  24  40  58  94 125 169 202 249 313 371
#     4  11  23  41  59  89 129 166 204 245 314 374
#     4  10  20  39  63  88 120 167 214 250 299 364
#     4  11  20  38  67  93 117 160 214 264 297 362
#     4  11  20  38  61  87 121 165 206 255 299 365
#     4  10  20  37  66  89 116 163 221 256 294 356
#     4  12  23  38  57  93 133 159 196 254 317 367
#
# _framework density 20.746061000000001
#
# number of rings (size 3 to 8) (size 9 to 14) (size 15 to 20)
#    0.000    1.143    7.143    0.857    0.000    1.143 
#    2.571    0.000    0.000    3.429    3.714    0.000 
#    0.000    0.000    0.000    0.000    0.000    0.000 
#
# Total GULP energy -346934.169807 kJ/mol
# GULP energy per Si atom -12390.506065 kJ/mol
# Density = 2.069884 g / cm^3
# Si number density = 20.746061 Si / 1000 Ang^3
#
#
#
# Elastic Constant Matrix: (Units=GPa)
#
#
# Indices 1 2 3 4 5 6 
#
# 1 49.9808 19.4317 34.4136 0.0000 -0.1994 0.0000
# 2 19.4317 46.1279 17.7796 0.0000 2.7106 0.0000
# 3 34.4136 17.7796 93.0256 0.0000 -0.4174 0.0000
# 4 0.0000 0.0000 0.0000 25.0122 0.0000 9.9960
# 5 -0.1994 2.7106 -0.4174 0.0000 24.2416 0.0000
# 6 0.0000 0.0000 0.0000 9.9960 0.0000 23.5570
#
#
#
# Elastic Compliance Matrix: (Units=1/GPa)
#
#
# Indices 1 2 3 4 5 6 
#
# 1 0.029985 -0.009092 -0.009350 0.000000 0.001102 0.000000
# 2 -0.009092 0.026337 -0.001684 0.000000 -0.003049 0.000000
# 3 -0.009350 -0.001684 0.014532 0.000000 0.000362 0.000000
# 4 0.000000 0.000000 0.000000 0.048145 0.000000 -0.020429
# 5 0.001102 -0.003049 0.000362 0.000000 0.041608 0.000000
# 6 0.000000 0.000000 0.000000 -0.020429 0.000000 0.051119
#
#
# Mechanical properties :
#
#
# Convention : Reuss Voigt Hill
#
# Bulk Modulus (GPa) = 32.67738 36.93157 34.80447
# Shear Modulus (GPa) = 19.07104 22.39613 20.73358
#
# Velocity S-wave (km/s) = 3.03522 3.28919 3.16476
# Velocity P-wave (km/s) = 5.29799 5.68027 5.49246
#
# Compressibility (1/GPa) = 0.03060221
#
# Stress axis : x y z
#
# Youngs Moduli (GPa) = 33.35042 37.96912 68.81367
#
# Poissons Ratio (x) = 0.34522 0.64339
# Poissons Ratio (y) = 0.30323 0.11587
# Poissons Ratio (z) = 0.31182 0.06393
#
# Static dielectric constant tensor:
#      x y z
#    x 3.475470 0.000000 -0.014380 
#    y 0.000000 3.589320 0.000000 
#    z -0.014380 0.000000 3.994120 
# 
# 
# High freq. dielectric constant tensor:
#      x y z
#    x 1.786750 0.000000 -0.009090 
#    y 0.000000 1.791700 0.000000 
#    z -0.009090 0.000000 1.821250 
# 
# From -- ./inp_files/67193.got.cif
#   From: 2010.06.25/outbox.cif.g09.slc.cpg/sg15_34_cif.got.tgz:67193.got - 2010.06.28 07:06:18.
