data_PCOD8138380
_publ_section_title
;
Structure prediction by ZEFSAII (Michael W. Deem and Ramdas Pophale) SiO2 
 PCOD8138380
Probable space group: C 2/C
;
_chemical_formula_sum "Si O2"
_cell_formula_units_Z 64
_cell_length_a 21.967063
_cell_length_b 15.354144
_cell_length_c 14.549255
_cell_angle_alpha 90.000000
_cell_angle_beta 38.534359
_cell_angle_gamma 90.000000
_cell_volume 3057.138681
_symmetry_space_group_name_H-M "C 2/C"
_symmetry_group_IT_number 15
_symmetry_cell_setting 'monoclinic'
loop_
_space_group_symop_operation_xyz
x,y,z
-x,y,1/2-z
-x,-y,-z
x,-y,1/2+z
1/2+x,1/2+y,z
1/2-x,1/2+y,1/2-z
1/2-x,1/2-y,-z
1/2+x,1/2-y,1/2+z
loop_
_atom_site_type_symbol
_atom_site_label
_atom_site_fract_x
_atom_site_fract_y
_atom_site_fract_z
Si Si1 0.561939 0.136813 0.592247
Si Si2 0.655540 0.199430 0.080419
Si Si3 0.998144 0.049562 0.643912
Si Si4 0.254911 0.729710 0.385920
Si Si5 0.092826 0.654259 0.875568
Si Si6 0.002625 0.761382 0.121097
Si Si7 0.142138 0.059471 0.312568
Si Si8 0.667124 0.037725 0.947241
O O1 0.500000 0.172887 0.750000
O O2 0.646393 0.209372 0.473643
O O3 0.484459 0.117349 0.604584
O O4 0.611511 0.044502 0.556317
O O5 0.598465 0.257109 0.072494
O O6 0.579541 0.189358 0.254934
O O7 0.750000 0.250000 0.000000
O O8 0.684840 0.104467 0.009579
O O9 0.949423 0.145059 0.692926
O O10 0.101175 0.064245 0.466146
O O11 0.000000 0.023260 0.750000
O O12 0.938845 0.975450 0.662222
O O13 0.250000 0.750000 0.500000
O O14 0.300999 0.818093 0.289020
O O15 0.324253 0.650053 0.273209
O O16 0.104815 0.582644 0.940429
O O17 0.039735 0.741747 0.975433
O O18 0.230355 0.991586 0.215691
#
# Coordination Sequence:
#
# PCOD8138380 Si02
#       8
#     8   8   8   8   8   8   8   8
#     4  11  24  43  67  93 130 174 215 271 329 391
#     4  10  20  37  63  94 125 166 205 254 325 381
#     4  11  21  41  67  90 135 170 218 278 345 387
#     4  11  23  45  66  93 130 171 226 271 321 399
#     4  11  23  43  66  95 128 171 219 269 327 391
#     4  10  21  37  62  95 127 156 213 268 316 392
#     4  10  24  43  61  98 133 174 221 277 327 402
#     4  10  24  41  64  96 135 165 215 266 333 394
#
# _framework density 20.934608999999998
#
# number of rings (size 3 to 8) (size 9 to 14) (size 15 to 20)
#    0.000    1.500    3.750    1.125    3.500    4.000 
#    2.250    0.000    0.000    0.000    0.000    0.000 
#    0.000    0.000    0.000    0.000    0.000    0.000 
#
# Total GULP energy -396510.365658 kJ/mol
# GULP energy per Si atom -12390.948927 kJ/mol
# Density = 2.088696 g / cm^3
# Si number density = 20.934609 Si / 1000 Ang^3
#
#
#
# Elastic Constant Matrix: (Units=GPa)
#
#
# Indices 1 2 3 4 5 6 
#
# 1 80.0700 22.0434 45.0365 0.0000 -8.9414 0.0000
# 2 22.0434 65.1448 34.1471 0.0000 -8.5645 0.0000
# 3 45.0365 34.1471 142.2817 0.0000 5.3525 0.0000
# 4 0.0000 0.0000 0.0000 29.2357 0.0000 1.8478
# 5 -8.9414 -8.5645 5.3525 0.0000 35.4125 0.0000
# 6 0.0000 0.0000 0.0000 1.8478 0.0000 27.9550
#
#
#
# Elastic Compliance Matrix: (Units=1/GPa)
#
#
# Indices 1 2 3 4 5 6 
#
# 1 0.016302 -0.002485 -0.004723 0.000000 0.004229 0.000000
# 2 -0.002485 0.018831 -0.003903 0.000000 0.004517 0.000000
# 3 -0.004723 -0.003903 0.009595 0.000000 -0.003587 0.000000
# 4 0.000000 0.000000 0.000000 0.034348 0.000000 -0.002270
# 5 0.004229 0.004517 -0.003587 0.000000 0.030941 0.000000
# 6 0.000000 0.000000 0.000000 -0.002270 0.000000 0.035922
#
#
# Mechanical properties :
#
#
# Convention : Reuss Voigt Hill
#
# Bulk Modulus (GPa) = 44.43072 54.43893 49.43482
# Shear Modulus (GPa) = 28.46395 30.93861 29.70128
#
# Velocity S-wave (km/s) = 3.69136 3.84848 3.77074
# Velocity P-wave (km/s) = 6.27995 6.76819 6.52864
#
# Compressibility (1/GPa) = 0.02250695
#
# Stress axis : x y z
#
# Youngs Moduli (GPa) = 61.34316 53.10485 104.22320
#
# Poissons Ratio (x) = 0.13194 0.49223
# Poissons Ratio (y) = 0.15241 0.40676
# Poissons Ratio (z) = 0.28971 0.20726
#
# Static dielectric constant tensor:
#      x y z
#    x 3.940720 0.000000 0.132410 
#    y 0.000000 3.636930 0.000000 
#    z 0.132410 0.000000 4.266630 
# 
# 
# High freq. dielectric constant tensor:
#      x y z
#    x 1.801170 0.000000 -0.001630 
#    y 0.000000 1.815130 0.000000 
#    z -0.001630 0.000000 1.843270 
# 
# From -- ./inp_files/173663.got.cif
#   From: 2010.06.25/outbox.cif.g09.slc.cpg/sg15_87_cif.got.tgz:173663.got - 2010.06.28 07:06:18.
