data_PCOD8138084
_publ_section_title
;
Structure prediction by ZEFSAII (Michael W. Deem and Ramdas Pophale) SiO2 
 PCOD8138084
Probable space group: C 2/C
;
_chemical_formula_sum "Si O2"
_cell_formula_units_Z 40
_cell_length_a 29.271591
_cell_length_b 4.966833
_cell_length_c 13.639436
_cell_angle_alpha 90.000000
_cell_angle_beta 74.914961
_cell_angle_gamma 90.000000
_cell_volume 1914.665218
_symmetry_space_group_name_H-M "C 2/C"
_symmetry_group_IT_number 15
_symmetry_cell_setting 'monoclinic'
loop_
_space_group_symop_operation_xyz
x,y,z
-x,y,1/2-z
-x,-y,-z
x,-y,1/2+z
1/2+x,1/2+y,z
1/2-x,1/2+y,1/2-z
1/2-x,1/2-y,-z
1/2+x,1/2-y,1/2+z
loop_
_atom_site_type_symbol
_atom_site_label
_atom_site_fract_x
_atom_site_fract_y
_atom_site_fract_z
Si Si1 0.197978 0.303107 0.067464
Si Si2 0.490170 0.738928 0.371361
Si Si3 0.660951 0.323519 0.993914
Si Si4 0.055504 0.730107 0.012485
Si Si5 0.747073 0.426064 0.808779
O O1 0.206263 0.434210 0.169347
O O2 0.250000 0.250000 0.000000
O O3 0.171797 0.519030 0.014465
O O4 0.166219 0.030001 0.083918
O O5 0.500000 0.766199 0.250000
O O6 0.474437 0.437994 0.405489
O O7 0.536943 0.800258 0.410899
O O8 0.449185 0.947110 0.427369
O O9 0.698998 0.440540 0.896683
O O10 0.609221 0.330518 0.976008
O O11 0.738961 0.615100 0.718171
#
# Coordination Sequence:
#
# PCOD8138084 Si02
#       5
#     8   8   8   8   8
#     4  10  20  37  59  76 115 166 195 235 297 355
#     4  10  21  42  67  92 124 161 198 247 324 374
#     4  11  21  39  59  86 119 160 207 241 296 364
#     4  10  22  40  65  92 127 160 198 260 304 365
#     4  11  21  36  56  84 120 160 201 250 296 341
#
# _framework density 20.891379000000001
#
# number of rings (size 3 to 8) (size 9 to 14) (size 15 to 20)
#    0.000    1.600    0.000    7.800    0.000    0.000 
#   10.800    0.000    0.000    0.000    0.000    0.000 
#    0.000    0.000    0.000    0.000    0.000    0.000 
#
# Total GULP energy -247875.930671 kJ/mol
# GULP energy per Si atom -12393.796534 kJ/mol
# Density = 2.084383 g / cm^3
# Si number density = 20.891379 Si / 1000 Ang^3
#
#
#
# Elastic Constant Matrix: (Units=GPa)
#
#
# Indices 1 2 3 4 5 6 
#
# 1 116.4574 18.9467 34.0276 0.0000 13.5578 0.0000
# 2 18.9467 97.9008 12.5917 0.0000 2.2811 0.0000
# 3 34.0276 12.5917 102.3024 0.0000 9.6697 0.0000
# 4 0.0000 0.0000 0.0000 32.2272 0.0000 7.1912
# 5 13.5578 2.2811 9.6697 0.0000 17.1439 0.0000
# 6 0.0000 0.0000 0.0000 7.1912 0.0000 35.3088
#
#
#
# Elastic Compliance Matrix: (Units=1/GPa)
#
#
# Indices 1 2 3 4 5 6 
#
# 1 0.010363 -0.001514 -0.002646 0.000000 -0.006502 0.000000
# 2 -0.001514 0.010608 -0.000826 0.000000 0.000252 0.000000
# 3 -0.002646 -0.000826 0.011143 0.000000 -0.004082 0.000000
# 4 0.000000 0.000000 0.000000 0.032507 0.000000 -0.006621
# 5 -0.006502 0.000252 -0.004082 0.000000 0.065741 0.000000
# 6 0.000000 0.000000 0.000000 -0.006621 0.000000 0.029670
#
#
# Mechanical properties :
#
#
# Convention : Reuss Voigt Hill
#
# Bulk Modulus (GPa) = 45.16316 49.75474 47.45895
# Shear Modulus (GPa) = 28.18753 33.67560 30.93157
#
# Velocity S-wave (km/s) = 3.67719 4.01925 3.85202
# Velocity P-wave (km/s) = 6.30032 6.73846 6.52306
#
# Compressibility (1/GPa) = 0.02214194
#
# Stress axis : x y z
#
# Youngs Moduli (GPa) = 96.49548 94.27077 89.74568
#
# Poissons Ratio (x) = 0.14270 0.23748
# Poissons Ratio (y) = 0.14607 0.07412
# Poissons Ratio (z) = 0.25534 0.07786
#
# Static dielectric constant tensor:
#      x y z
#    x 4.010690 0.000000 0.452910 
#    y 0.000000 4.246190 0.000000 
#    z 0.452910 0.000000 3.820100 
# 
# 
# High freq. dielectric constant tensor:
#      x y z
#    x 1.799680 0.000000 0.025600 
#    y 0.000000 1.848800 0.000000 
#    z 0.025600 0.000000 1.797080 
# 
# From -- ./inp_files/120837.got.cif
#   From: 2010.06.25/outbox.cif.g09.slc.cpg/sg15_61_cif.got.tgz:120837.got - 2010.06.28 07:06:18.
