data_PCOD8138017
_publ_section_title
;
Structure prediction by ZEFSAII (Michael W. Deem and Ramdas Pophale) SiO2 
 PCOD8138017
Probable space group: C 2/C
;
_chemical_formula_sum "Si O2"
_cell_formula_units_Z 64
_cell_length_a 24.238649
_cell_length_b 23.142628
_cell_length_c 9.530705
_cell_angle_alpha 90.000000
_cell_angle_beta 41.343928
_cell_angle_gamma 90.000000
_cell_volume 3531.586611
_symmetry_space_group_name_H-M "C 2/C"
_symmetry_group_IT_number 15
_symmetry_cell_setting 'monoclinic'
loop_
_space_group_symop_operation_xyz
x,y,z
-x,y,1/2-z
-x,-y,-z
x,-y,1/2+z
1/2+x,1/2+y,z
1/2-x,1/2+y,1/2-z
1/2-x,1/2-y,-z
1/2+x,1/2-y,1/2+z
loop_
_atom_site_type_symbol
_atom_site_label
_atom_site_fract_x
_atom_site_fract_y
_atom_site_fract_z
Si Si1 0.220680 0.346276 0.537119
Si Si2 0.347858 0.432752 0.325271
Si Si3 0.906215 0.980874 0.487527
Si Si4 0.660713 0.685296 0.941822
Si Si5 0.731719 0.715436 0.269177
Si Si6 0.415444 0.784082 0.835715
Si Si7 0.454865 0.676959 0.573067
Si Si8 0.135123 0.132474 0.265278
O O1 0.250627 0.412860 0.500030
O O2 0.277722 0.321628 0.305404
O O3 0.237626 0.307505 0.639947
O O4 0.124713 0.339727 0.669056
O O5 0.350150 0.474256 0.455918
O O6 0.406389 0.376624 0.240898
O O7 0.380770 0.461353 0.118396
O O8 0.891178 0.930171 0.629137
O O9 0.000000 0.984200 0.250000
O O10 0.690473 0.747899 0.948201
O O11 0.568317 0.682570 0.048250
O O12 0.669829 0.633758 0.039006
O O13 0.650598 0.757053 0.429147
O O14 0.706969 0.659829 0.224503
O O15 0.500000 0.804691 0.750000
O O16 0.431243 0.735884 0.690926
O O17 0.552992 0.671682 0.410642
#
# Coordination Sequence:
#
# PCOD8138017 Si02
#       8
#     8   8   8   8   8   8   8   8
#     4  10  20  37  57  76 110 148 184 231 279 330
#     4  11  24  37  56  74 109 149 191 234 274 319
#     4  12  25  39  53  80 111 153 198 237 269 325
#     4  10  21  33  50  78 109 148 184 225 269 333
#     4  11  18  35  54  76 111 149 184 222 275 340
#     4  11  18  32  60  83 102 139 189 226 269 348
#     4  11  20  34  52  75 112 150 183 220 276 325
#     4  12  23  33  53  78 114 150 187 223 280 327
#
# _framework density 18.122166
#
# number of rings (size 3 to 8) (size 9 to 14) (size 15 to 20)
#    0.000    1.000    7.500    1.875    3.500    0.000 
#    0.000    0.000    0.000    0.000    0.000    0.875 
#    0.000    0.000    0.000    0.000    0.000    0.000 
#
# Total GULP energy -396431.862275 kJ/mol
# GULP energy per Si atom -12388.495696 kJ/mol
# Density = 1.808092 g / cm^3
# Si number density = 18.122166 Si / 1000 Ang^3
#
#
#
# Elastic Constant Matrix: (Units=GPa)
#
#
# Indices 1 2 3 4 5 6 
#
# 1 127.3055 37.8434 30.8167 0.0000 3.0388 0.0000
# 2 37.8434 60.8441 28.5495 0.0000 -2.4102 0.0000
# 3 30.8167 28.5495 54.1331 0.0000 12.2730 0.0000
# 4 0.0000 0.0000 0.0000 31.4433 0.0000 3.1184
# 5 3.0388 -2.4102 12.2730 0.0000 21.4898 0.0000
# 6 0.0000 0.0000 0.0000 3.1184 0.0000 15.7599
#
#
#
# Elastic Compliance Matrix: (Units=1/GPa)
#
#
# Indices 1 2 3 4 5 6 
#
# 1 0.010042 -0.004763 -0.003173 0.000000 -0.000142 0.000000
# 2 -0.004763 0.026315 -0.013772 0.000000 0.011490 0.000000
# 3 -0.003173 -0.013772 0.031924 0.000000 -0.019328 0.000000
# 4 0.000000 0.000000 0.000000 0.032440 0.000000 -0.006419
# 5 -0.000142 0.011490 -0.019328 0.000000 0.058881 0.000000
# 6 0.000000 0.000000 0.000000 -0.006419 0.000000 0.064722
#
#
# Mechanical properties :
#
#
# Convention : Reuss Voigt Hill
#
# Bulk Modulus (GPa) = 40.21452 48.52241 44.36846
# Shear Modulus (GPa) = 18.11400 23.41015 20.76208
#
# Velocity S-wave (km/s) = 3.16500 3.59806 3.38845
# Velocity P-wave (km/s) = 5.96617 6.64038 6.31228
#
# Compressibility (1/GPa) = 0.02486664
#
# Stress axis : x y z
#
# Youngs Moduli (GPa) = 99.57778 38.00076 31.32396
#
# Poissons Ratio (x) = 0.18100 0.09938
# Poissons Ratio (y) = 0.47430 0.43140
# Poissons Ratio (z) = 0.31592 0.52335
#
# Static dielectric constant tensor:
#      x y z
#    x 3.950530 0.000000 -0.073070 
#    y 0.000000 3.450810 0.000000 
#    z -0.073070 0.000000 3.389170 
# 
# 
# High freq. dielectric constant tensor:
#      x y z
#    x 1.712790 0.000000 0.021140 
#    y 0.000000 1.673670 0.000000 
#    z 0.021140 0.000000 1.683000 
# 
# From -- ./inp_files/63838.got.cif
#   From: 2010.06.25/outbox.cif.g09.slc.cpg/sg15_32_cif.got.tgz:63838.got - 2010.06.28 07:06:18.
