data_PCOD8138230
_publ_section_title
;
Structure prediction by ZEFSAII (Michael W. Deem and Ramdas Pophale) SiO2 
 PCOD8138230
Probable space group: C 2/C
;
_chemical_formula_sum "Si O2"
_cell_formula_units_Z 64
_cell_length_a 22.544412
_cell_length_b 9.427319
_cell_length_c 19.289931
_cell_angle_alpha 90.000000
_cell_angle_beta 50.130607
_cell_angle_gamma 90.000000
_cell_volume 3146.592702
_symmetry_space_group_name_H-M "C 2/C"
_symmetry_group_IT_number 15
_symmetry_cell_setting 'monoclinic'
loop_
_space_group_symop_operation_xyz
x,y,z
-x,y,1/2-z
-x,-y,-z
x,-y,1/2+z
1/2+x,1/2+y,z
1/2-x,1/2+y,1/2-z
1/2-x,1/2-y,-z
1/2+x,1/2-y,1/2+z
loop_
_atom_site_type_symbol
_atom_site_label
_atom_site_fract_x
_atom_site_fract_y
_atom_site_fract_z
Si Si1 0.587942 0.425220 0.192086
Si Si2 0.843239 0.474434 0.660258
Si Si3 0.065590 0.766822 0.340907
Si Si4 0.918212 0.294796 0.019911
Si Si5 0.254051 0.428582 0.140219
Si Si6 0.704547 0.377052 0.683940
Si Si7 0.194370 0.837991 0.993968
Si Si8 0.891138 0.960424 0.622042
O O1 0.500000 0.483681 0.250000
O O2 0.587475 0.285337 0.243082
O O3 0.647565 0.545150 0.173339
O O4 0.618146 0.384100 0.093519
O O5 0.870951 0.317335 0.661738
O O6 0.911572 0.571020 0.576433
O O7 0.812223 0.539773 0.754458
O O8 0.780339 0.468947 0.645844
O O9 0.985022 0.682127 0.412315
O O10 0.058364 0.930422 0.371312
O O11 0.944789 0.152438 0.041874
O O12 0.835318 0.260165 0.047098
O O13 0.234547 0.270230 0.128732
O O14 0.338622 0.444536 0.110364
O O15 0.254052 0.531699 0.073542
O O16 0.661369 0.359061 0.789799
O O17 0.250000 0.750000 0.000000
#
# Coordination Sequence:
#
# PCOD8138230 Si02
#       8
#     8   8   8   8   8   8   8   8
#     4  11  23  42  62  89 128 176 221 253 309 390
#     4  11  21  36  61  97 123 151 203 266 340 364
#     4  11  21  37  62  88 124 160 197 263 316 380
#     4  11  21  36  59  90 125 154 200 262 317 389
#     4  10  20  37  61  89 119 156 207 265 309 371
#     4  10  20  37  63  87 123 161 201 267 314 373
#     4  11  23  40  63  89 122 173 221 253 304 390
#     4   9  19  34  59  89 118 153 200 250 322 374
#
# _framework density 20.339461
#
# number of rings (size 3 to 8) (size 9 to 14) (size 15 to 20)
#    0.000    1.500    3.750    2.250    0.000    0.500 
#    0.000    0.000    2.750    0.000    0.000    0.000 
#    0.000    0.000    0.000    0.000    0.000    0.000 
#
# Total GULP energy -396580.318007 kJ/mol
# GULP energy per Si atom -12393.134938 kJ/mol
# Density = 2.029317 g / cm^3
# Si number density = 20.339461 Si / 1000 Ang^3
#
#
#
# Elastic Constant Matrix: (Units=GPa)
#
#
# Indices 1 2 3 4 5 6 
#
# 1 75.7775 27.4632 13.3909 0.0001 1.4553 -0.0001
# 2 27.4632 94.5249 45.5115 0.0004 6.6928 -0.0009
# 3 13.3909 45.5115 101.2394 0.0000 2.6317 -0.0001
# 4 0.0001 0.0004 0.0000 32.7306 0.0000 8.0652
# 5 1.4553 6.6928 2.6317 0.0000 28.2747 0.0001
# 6 -0.0001 -0.0009 -0.0001 8.0652 0.0001 27.4615
#
#
#
# Elastic Compliance Matrix: (Units=1/GPa)
#
#
# Indices 1 2 3 4 5 6 
#
# 1 0.014752 -0.004290 -0.000029 0.000000 0.000259 0.000000
# 2 -0.004290 0.014948 -0.006081 0.000000 -0.002752 0.000001
# 3 -0.000029 -0.006081 0.012608 0.000000 0.000267 0.000000
# 4 0.000000 0.000000 0.000000 0.032936 0.000000 -0.009673
# 5 0.000259 -0.002752 0.000267 0.000000 0.035980 0.000000
# 6 0.000000 0.000001 0.000000 -0.009673 0.000000 0.039256
#
#
# Mechanical properties :
#
#
# Convention : Reuss Voigt Hill
#
# Bulk Modulus (GPa) = 46.49592 49.36367 47.92979
# Shear Modulus (GPa) = 28.01907 30.03843 29.02875
#
# Velocity S-wave (km/s) = 3.71559 3.84716 3.78195
# Velocity P-wave (km/s) = 6.42784 6.63752 6.53352
#
# Compressibility (1/GPa) = 0.02150726
#
# Stress axis : x y z
#
# Youngs Moduli (GPa) = 67.78943 66.89713 79.31384
#
# Poissons Ratio (x) = 0.28700 0.00233
# Poissons Ratio (y) = 0.29083 0.48230
# Poissons Ratio (z) = 0.00199 0.40680
#
# Static dielectric constant tensor:
#      x y z
#    x 3.449550 0.000000 0.115360 
#    y 0.000000 3.529110 0.000000 
#    z 0.115360 0.000000 3.975130 
# 
# 
# High freq. dielectric constant tensor:
#      x y z
#    x 1.778220 0.000000 -0.002950 
#    y 0.000000 1.780950 0.000000 
#    z -0.002950 0.000000 1.800990 
# 
# From -- ./inp_files/255036.got.cif
#   From: 2010.06.25/outbox.cif.g09.slc.cpg/sg15_128_cif.got.tgz:255036.got - 2010.06.28 07:06:18.
