data_PCOD8138574
_publ_section_title
;
Structure prediction by ZEFSAII (Michael W. Deem and Ramdas Pophale) SiO2 
 PCOD8138574
Probable space group: C 2/C
;
_chemical_formula_sum "Si O2"
_cell_formula_units_Z 56
_cell_length_a 9.288773
_cell_length_b 13.890134
_cell_length_c 22.463420
_cell_angle_alpha 90.000000
_cell_angle_beta 81.033058
_cell_angle_gamma 90.000000
_cell_volume 2862.860606
_symmetry_space_group_name_H-M "C 2/C"
_symmetry_group_IT_number 15
_symmetry_cell_setting 'monoclinic'
loop_
_space_group_symop_operation_xyz
x,y,z
-x,y,1/2-z
-x,-y,-z
x,-y,1/2+z
1/2+x,1/2+y,z
1/2-x,1/2+y,1/2-z
1/2-x,1/2-y,-z
1/2+x,1/2-y,1/2+z
loop_
_atom_site_type_symbol
_atom_site_label
_atom_site_fract_x
_atom_site_fract_y
_atom_site_fract_z
Si Si1 0.835102 0.268772 0.245056
Si Si2 0.288969 0.604649 0.163492
Si Si3 0.707408 0.857469 0.858388
Si Si4 0.401446 0.816356 0.921587
Si Si5 0.841577 0.481923 0.230546
Si Si6 0.148438 0.122204 0.519747
Si Si7 0.447616 0.578960 0.429534
O O1 0.843560 0.205146 0.185845
O O2 0.737470 0.221673 0.304379
O O3 0.777775 0.374010 0.229118
O O4 0.000000 0.286067 0.250000
O O5 0.144367 0.633407 0.137031
O O6 0.267802 0.531761 0.217684
O O7 0.407439 0.550966 0.115601
O O8 0.575248 0.829315 0.911022
O O9 0.845451 0.857398 0.893701
O O10 0.672007 0.961894 0.831486
O O11 0.367533 0.702145 0.927686
O O12 0.309746 0.867597 0.980318
O O13 0.000000 0.488486 0.250000
O O14 0.011898 0.137284 0.482478
O O15 0.141322 0.015784 0.546918
#
# Coordination Sequence:
#
# PCOD8138574 Si02
#       7
#     8   8   8   8   8   8   8
#     4  10  21  37  55  88 120 151 186 231 278 352
#     4  10  20  38  58  82 118 153 182 237 280 346
#     4  11  22  37  60  90 114 152 190 232 284 346
#     4  10  21  39  59  83 113 150 191 240 287 332
#     4  10  21  37  55  88 120 151 186 231 278 352
#     4   9  22  41  60  81 112 147 198 243 284 332
#     4  10  21  39  59  83 113 150 191 240 287 332
#
# _framework density 19.560856000000001
#
# number of rings (size 3 to 8) (size 9 to 14) (size 15 to 20)
#    0.000    2.000    2.857    0.000    4.000    1.143 
#    0.000    1.429    0.000    0.000    0.000    0.000 
#    0.000    0.000    0.000    0.000    0.000    0.000 
#
# Total GULP energy -346947.842031 kJ/mol
# GULP energy per Si atom -12390.994358 kJ/mol
# Density = 1.951633 g / cm^3
# Si number density = 19.560856 Si / 1000 Ang^3
#
#
#
# Elastic Constant Matrix: (Units=GPa)
#
#
# Indices 1 2 3 4 5 6 
#
# 1 62.7327 10.9519 16.6020 0.0000 -13.5071 0.0000
# 2 10.9519 105.4792 30.6169 0.0000 -18.8192 0.0000
# 3 16.6020 30.6169 69.1343 0.0000 -12.4048 0.0000
# 4 0.0000 0.0000 0.0000 16.9818 0.0000 -0.8802
# 5 -13.5071 -18.8192 -12.4048 0.0000 27.5686 0.0000
# 6 0.0000 0.0000 0.0000 -0.8802 0.0000 23.2436
#
#
#
# Elastic Compliance Matrix: (Units=1/GPa)
#
#
# Indices 1 2 3 4 5 6 
#
# 1 0.018407 0.000420 -0.003194 0.000000 0.007867 0.000000
# 2 0.000420 0.011786 -0.004177 0.000000 0.006372 0.000000
# 3 -0.003194 -0.004177 0.017720 0.000000 0.003557 0.000000
# 4 0.000000 0.000000 0.000000 0.059002 0.000000 0.002234
# 5 0.007867 0.006372 0.003557 0.000000 0.046078 0.000000
# 6 0.000000 0.000000 0.000000 0.002234 0.000000 0.043107
#
#
# Mechanical properties :
#
#
# Convention : Reuss Voigt Hill
#
# Bulk Modulus (GPa) = 29.40397 39.29865 34.35131
# Shear Modulus (GPa) = 22.58965 25.50382 24.04673
#
# Velocity S-wave (km/s) = 3.40198 3.61476 3.50998
# Velocity P-wave (km/s) = 5.52232 6.12830 5.83318
#
# Compressibility (1/GPa) = 0.03400901
#
# Stress axis : x y z
#
# Youngs Moduli (GPa) = 54.32800 84.84442 56.43400
#
# Poissons Ratio (x) = -0.03561 0.18028
# Poissons Ratio (y) = -0.02280 0.23574
# Poissons Ratio (z) = 0.17355 0.35441
#
# Static dielectric constant tensor:
#      x y z
#    x 3.559590 0.000000 0.090060 
#    y 0.000000 3.626880 0.000000 
#    z 0.090060 0.000000 3.599890 
# 
# 
# High freq. dielectric constant tensor:
#      x y z
#    x 1.758960 0.000000 -0.005770 
#    y 0.000000 1.756430 0.000000 
#    z -0.005770 0.000000 1.762540 
# 
# From -- ./inp_files/264211.got.cif
#   From: 2010.06.25/outbox.cif.g09.slc.cpg/sg15_133_cif.got.tgz:264211.got - 2010.06.28 07:06:18.
