data_PCOD8138126
_publ_section_title
;
Structure prediction by ZEFSAII (Michael W. Deem and Ramdas Pophale) SiO2 
 PCOD8138126
Probable space group: C 2/C
;
_chemical_formula_sum "Si O2"
_cell_formula_units_Z 52
_cell_length_a 31.105739
_cell_length_b 8.517121
_cell_length_c 14.848770
_cell_angle_alpha 90.000000
_cell_angle_beta 139.763971
_cell_angle_gamma 90.000000
_cell_volume 2541.057879
_symmetry_space_group_name_H-M "C 2/C"
_symmetry_group_IT_number 15
_symmetry_cell_setting 'monoclinic'
loop_
_space_group_symop_operation_xyz
x,y,z
-x,y,1/2-z
-x,-y,-z
x,-y,1/2+z
1/2+x,1/2+y,z
1/2-x,1/2+y,1/2-z
1/2-x,1/2-y,-z
1/2+x,1/2-y,1/2+z
loop_
_atom_site_type_symbol
_atom_site_label
_atom_site_fract_x
_atom_site_fract_y
_atom_site_fract_z
Si Si1 0.290938 0.157166 0.187153
Si Si2 0.146195 0.174524 0.875904
Si Si3 0.888311 0.593373 0.038197
Si Si4 0.500000 0.849680 0.250000
Si Si5 0.658390 0.192824 0.719312
Si Si6 0.795191 0.323513 0.897542
Si Si7 0.897136 0.169936 0.192798
O O1 0.335787 0.263000 0.193817
O O2 0.300663 0.229079 0.302149
O O3 0.315861 0.980310 0.219183
O O4 0.213249 0.153545 0.040115
O O5 0.098889 0.295819 0.855126
O O6 0.103143 0.017138 0.796387
O O7 0.944586 0.460897 0.116375
O O8 0.884706 0.695396 0.941340
O O9 0.817774 0.504825 0.943096
O O10 0.468256 0.734780 0.273655
O O11 0.719636 0.314080 0.810525
O O12 0.612650 0.248052 0.727213
O O13 0.839993 0.210766 0.029915
#
# Coordination Sequence:
#
# PCOD8138126 Si02
#       7
#     8   8   8   4   8   8   8
#     4  10  21  33  57  92 134 152 194 241 323 374
#     4  11  22  35  58  96 122 162 194 258 305 371
#     4  10  23  40  66  89 126 165 209 250 306 363
#     4  10  24  48  62  82 116 178 216 254 292 362
#     4  11  21  38  61  95 122 166 195 257 313 374
#     4  10  20  37  59  92 129 162 198 251 309 377
#     4  11  24  38  63  86 126 165 213 250 305 363
#
# _framework density 20.463916999999999
#
# number of rings (size 3 to 8) (size 9 to 14) (size 15 to 20)
#    0.000    1.538    3.077    2.308    4.308    2.462 
#    0.000    1.538    0.000   10.154    0.000    0.000 
#    0.000    0.000    0.000    0.000    0.000    0.000 
#
# Total GULP energy -322467.656103 kJ/mol
# GULP energy per Si atom -12402.602158 kJ/mol
# Density = 2.041734 g / cm^3
# Si number density = 20.463917 Si / 1000 Ang^3
#
#
#
# Elastic Constant Matrix: (Units=GPa)
#
#
# Indices 1 2 3 4 5 6 
#
# 1 157.9084 59.2542 32.2135 0.0000 -2.8467 0.0000
# 2 59.2542 93.7533 14.3324 0.0000 2.4422 0.0000
# 3 32.2135 14.3324 33.3292 0.0000 -0.2030 0.0000
# 4 0.0000 0.0000 0.0000 20.1810 0.0000 -0.2990
# 5 -2.8467 2.4422 -0.2030 0.0000 32.3139 0.0000
# 6 0.0000 0.0000 0.0000 -0.2990 0.0000 36.6273
#
#
#
# Elastic Compliance Matrix: (Units=1/GPa)
#
#
# Indices 1 2 3 4 5 6 
#
# 1 0.009732 -0.005079 -0.007215 0.000000 0.001196 0.000000
# 2 -0.005079 0.014093 -0.001161 0.000000 -0.001520 0.000000
# 3 -0.007215 -0.001161 0.037474 0.000000 -0.000312 0.000000
# 4 0.000000 0.000000 0.000000 0.049558 0.000000 0.000405
# 5 0.001196 -0.001520 -0.000312 0.000000 0.031165 0.000000
# 6 0.000000 0.000000 0.000000 0.000405 0.000000 0.027305
#
#
# Mechanical properties :
#
#
# Convention : Reuss Voigt Hill
#
# Bulk Modulus (GPa) = 29.07782 55.17678 42.12730
# Shear Modulus (GPa) = 24.07315 29.77050 26.92183
#
# Velocity S-wave (km/s) = 3.43355 3.81830 3.63102
# Velocity P-wave (km/s) = 5.47350 6.81621 6.18142
#
# Compressibility (1/GPa) = 0.03439048
#
# Stress axis : x y z
#
# Youngs Moduli (GPa) = 102.75284 70.95515 26.68491
#
# Poissons Ratio (x) = 0.36039 0.19253
# Poissons Ratio (y) = 0.52189 0.03097
# Poissons Ratio (z) = 0.74135 0.08236
#
# Static dielectric constant tensor:
#      x y z
#    x 3.805950 0.000000 -0.142370 
#    y 0.000000 3.764440 0.000000 
#    z -0.142370 0.000000 3.550620 
# 
# 
# High freq. dielectric constant tensor:
#      x y z
#    x 1.805350 0.000000 -0.017300 
#    y 0.000000 1.805620 0.000000 
#    z -0.017300 0.000000 1.776550 
# 
# From -- ./inp_files/166341.got.cif
#   From: 2010.06.25/outbox.cif.g09.slc.cpg/sg15_84_cif.got.tgz:166341.got - 2010.06.28 07:06:18.
