data_PCOD8138879
_publ_section_title
;
Structure prediction by ZEFSAII (Michael W. Deem and Ramdas Pophale) SiO2 
 PCOD8138879
Probable space group: C 2/C
;
_chemical_formula_sum "Si O2"
_cell_formula_units_Z 48
_cell_length_a 16.978188
_cell_length_b 7.762086
_cell_length_c 31.394175
_cell_angle_alpha 90.000000
_cell_angle_beta 144.609815
_cell_angle_gamma 90.000000
_cell_volume 2396.092456
_symmetry_space_group_name_H-M "C 2/C"
_symmetry_group_IT_number 15
_symmetry_cell_setting 'monoclinic'
loop_
_space_group_symop_operation_xyz
x,y,z
-x,y,1/2-z
-x,-y,-z
x,-y,1/2+z
1/2+x,1/2+y,z
1/2-x,1/2+y,1/2-z
1/2-x,1/2-y,-z
1/2+x,1/2-y,1/2+z
loop_
_atom_site_type_symbol
_atom_site_label
_atom_site_fract_x
_atom_site_fract_y
_atom_site_fract_z
Si Si1 0.870463 0.845348 0.484933
Si Si2 0.437115 0.113035 0.653729
Si Si3 0.020657 0.548497 0.598217
Si Si4 0.770051 0.117191 0.655208
Si Si5 0.000000 0.642627 0.250000
Si Si6 0.500000 0.639140 0.250000
Si Si7 0.561160 0.733493 0.994905
O O1 0.711564 0.811426 0.421302
O O2 0.944595 0.723502 0.551357
O O3 0.921422 0.789279 0.460214
O O4 0.901854 0.047152 0.508432
O O5 0.513696 0.043300 0.645964
O O6 0.529009 0.251029 0.719846
O O7 0.417680 0.956124 0.677482
O O8 0.177770 0.559826 0.654038
O O9 0.957276 0.373861 0.550491
O O10 0.881594 0.251550 0.721717
O O11 0.678809 0.193982 0.577189
O O12 0.861040 0.960505 0.678017
#
# Coordination Sequence:
#
# PCOD8138879 Si02
#       7
#     8   8   8   8   4   4   8
#     4  10  20  38  62  90 119 153 191 241 303 352
#     4  11  22  39  57  89 119 152 200 241 295 346
#     4  11  23  37  61  94 118 147 195 258 291 341
#     4  10  20  41  59  85 114 157 205 230 294 353
#     4  10  22  40  60  76 120 166 192 234 286 362
#     4  10  22  38  64  76 116 172 194 238 282 362
#     4  10  20  38  65  89 118 155 191 247 298 351
#
# _framework density 20.032616999999998
#
# number of rings (size 3 to 8) (size 9 to 14) (size 15 to 20)
#    0.000    1.667    1.667    4.500    0.000    2.000 
#    6.000    0.000    0.000    0.000    0.000    0.000 
#    0.000    0.000    0.000    0.000    0.000    0.000 
#
# Total GULP energy -297466.529583 kJ/mol
# GULP energy per Si atom -12394.438733 kJ/mol
# Density = 1.998702 g / cm^3
# Si number density = 20.032617 Si / 1000 Ang^3
#
#
#
# Elastic Constant Matrix: (Units=GPa)
#
#
# Indices 1 2 3 4 5 6 
#
# 1 109.4109 45.0140 48.5668 0.0000 -4.2853 0.0000
# 2 45.0140 121.9317 37.5272 0.0000 -6.0009 0.0001
# 3 48.5668 37.5272 68.5562 0.0000 9.2032 0.0001
# 4 0.0000 0.0000 0.0000 14.5024 -0.0001 7.3363
# 5 -4.2853 -6.0009 9.2032 -0.0001 34.5218 0.0001
# 6 0.0000 0.0001 0.0001 7.3363 0.0001 19.9338
#
#
#
# Elastic Compliance Matrix: (Units=1/GPa)
#
#
# Indices 1 2 3 4 5 6 
#
# 1 0.014442 -0.002194 -0.009562 0.000000 0.003961 0.000000
# 2 -0.002194 0.010566 -0.004604 0.000000 0.002792 0.000000
# 3 -0.009562 -0.004604 0.025044 0.000000 -0.008664 0.000000
# 4 0.000000 0.000000 0.000000 0.084728 0.000000 -0.031183
# 5 0.003961 0.002792 -0.008664 0.000000 0.032254 0.000000
# 6 0.000000 0.000000 0.000000 -0.031183 0.000000 0.061642
#
#
# Mechanical properties :
#
#
# Convention : Reuss Voigt Hill
#
# Bulk Modulus (GPa) = 57.69768 62.45721 60.07744
# Shear Modulus (GPa) = 18.71447 25.04433 21.87940
#
# Velocity S-wave (km/s) = 3.05978 3.53962 3.30841
# Velocity P-wave (km/s) = 6.43020 6.92464 6.68199
#
# Compressibility (1/GPa) = 0.01733172
#
# Stress axis : x y z
#
# Youngs Moduli (GPa) = 69.24244 94.64635 39.93012
#
# Poissons Ratio (x) = 0.20764 0.38181
# Poissons Ratio (y) = 0.15191 0.18385
# Poissons Ratio (z) = 0.66209 0.43577
#
# Static dielectric constant tensor:
#      x y z
#    x 3.532360 0.000000 0.192870 
#    y 0.000000 3.905470 0.000000 
#    z 0.192870 0.000000 3.452030 
# 
# 
# High freq. dielectric constant tensor:
#      x y z
#    x 1.766040 0.000000 0.019120 
#    y 0.000000 1.799110 0.000000 
#    z 0.019120 0.000000 1.772090 
# 
# From -- ./inp_files/208978.got.cif
#   From: 2010.06.25/outbox.cif.g09.slc.cpg/sg15_105_cif.got.tgz:208978.got - 2010.06.28 07:06:18.
