data_PCOD8138074
_publ_section_title
;
Structure prediction by ZEFSAII (Michael W. Deem and Ramdas Pophale) SiO2 
 PCOD8138074
Probable space group: C 2/C
;
_chemical_formula_sum "Si O2"
_cell_formula_units_Z 56
_cell_length_a 23.369216
_cell_length_b 8.653953
_cell_length_c 16.359524
_cell_angle_alpha 90.000000
_cell_angle_beta 59.369133
_cell_angle_gamma 90.000000
_cell_volume 2846.845468
_symmetry_space_group_name_H-M "C 2/C"
_symmetry_group_IT_number 15
_symmetry_cell_setting 'monoclinic'
loop_
_space_group_symop_operation_xyz
x,y,z
-x,y,1/2-z
-x,-y,-z
x,-y,1/2+z
1/2+x,1/2+y,z
1/2-x,1/2+y,1/2-z
1/2-x,1/2-y,-z
1/2+x,1/2-y,1/2+z
loop_
_atom_site_type_symbol
_atom_site_label
_atom_site_fract_x
_atom_site_fract_y
_atom_site_fract_z
Si Si1 0.105614 0.247430 0.366789
Si Si2 0.771277 0.921779 0.795680
Si Si3 0.015640 0.942315 0.828055
Si Si4 0.833204 0.516181 0.258201
Si Si5 0.637562 0.343035 0.194316
Si Si6 0.737292 0.659220 0.927181
Si Si7 0.379516 0.590848 0.974093
O O1 0.161213 0.161156 0.275566
O O2 0.036508 0.186924 0.379076
O O3 0.112249 0.428541 0.338219
O O4 0.116129 0.214763 0.455318
O O5 0.735578 0.981968 0.741615
O O6 0.722517 0.797812 0.873869
O O7 0.793662 0.066423 0.835963
O O8 0.000000 0.868131 0.750000
O O9 0.071805 0.072310 0.774539
O O10 0.950926 0.013727 0.915704
O O11 0.863205 0.679909 0.259644
O O12 0.807814 0.426673 0.357587
O O13 0.636584 0.317174 0.097421
O O14 0.750000 0.750000 0.000000
O O15 0.675346 0.542152 0.972232
#
# Coordination Sequence:
#
# PCOD8138074 Si02
#       7
#     8   8   8   8   8   8   8
#     4  10  21  38  60  89 115 156 204 245 292 359
#     4  10  20  37  58  87 124 154 195 239 303 360
#     4   9  21  40  64  85 114 162 207 240 298 359
#     4  11  23  37  60  88 124 159 193 249 309 354
#     4  10  21  39  62  85 122 162 196 247 300 358
#     4  11  22  37  60  94 120 152 202 248 298 361
#     4  11  21  39  65  88 120 158 206 250 298 364
#
# _framework density 19.670895000000002
#
# number of rings (size 3 to 8) (size 9 to 14) (size 15 to 20)
#    0.000    1.714    2.857    2.143    4.000    1.714 
#    0.000    2.857    0.000    0.000    0.000    0.000 
#    0.000    0.000    0.000    0.000    0.000    0.000 
#
# Total GULP energy -347028.969705 kJ/mol
# GULP energy per Si atom -12393.891775 kJ/mol
# Density = 1.962612 g / cm^3
# Si number density = 19.670895 Si / 1000 Ang^3
#
#
#
# Elastic Constant Matrix: (Units=GPa)
#
#
# Indices 1 2 3 4 5 6 
#
# 1 94.1846 44.2187 35.8605 0.0000 14.4233 0.0002
# 2 44.2187 107.9867 42.9224 -0.0001 8.4110 0.0011
# 3 35.8605 42.9224 93.1423 0.0000 7.2073 0.0001
# 4 0.0000 -0.0001 0.0000 28.8284 0.0000 12.7415
# 5 14.4233 8.4110 7.2073 0.0000 33.7695 0.0000
# 6 0.0002 0.0011 0.0001 12.7415 0.0000 8.2529
#
#
#
# Elastic Compliance Matrix: (Units=1/GPa)
#
#
# Indices 1 2 3 4 5 6 
#
# 1 0.014574 -0.004319 -0.003277 0.000000 -0.004450 0.000001
# 2 -0.004319 0.012718 -0.004164 0.000002 -0.000434 -0.000005
# 3 -0.003277 -0.004164 0.013959 -0.000001 -0.000543 0.000001
# 4 0.000000 0.000002 -0.000001 0.109208 0.000000 -0.168604
# 5 -0.004450 -0.000434 -0.000543 0.000000 0.031737 0.000001
# 6 0.000001 -0.000005 0.000001 -0.168604 0.000001 0.381477
#
#
# Mechanical properties :
#
#
# Convention : Reuss Voigt Hill
#
# Bulk Modulus (GPa) = 56.39769 60.14631 58.27200
# Shear Modulus (GPa) = 8.43025 25.65761 17.04393
#
# Velocity S-wave (km/s) = 2.07243 3.61549 2.94675
# Velocity P-wave (km/s) = 5.87022 6.93337 6.42383
#
# Compressibility (1/GPa) = 0.01773122
#
# Stress axis : x y z
#
# Youngs Moduli (GPa) = 68.61489 78.62883 71.63945
#
# Poissons Ratio (x) = 0.33959 0.23473
# Poissons Ratio (y) = 0.29634 0.29833
# Poissons Ratio (z) = 0.22482 0.32744
#
# Static dielectric constant tensor:
#      x y z
#    x 3.742410 0.000000 -0.090670 
#    y 0.000000 3.895010 0.000000 
#    z -0.090670 0.000000 4.145810 
# 
# 
# High freq. dielectric constant tensor:
#      x y z
#    x 1.763000 0.000000 0.013760 
#    y 0.000000 1.756650 0.000000 
#    z 0.013760 0.000000 1.771950 
# 
# From -- ./inp_files/171827.got.cif
#   From: 2010.06.25/outbox.cif.g09.slc.cpg/sg15_86_cif.got.tgz:171827.got - 2010.06.28 07:06:18.
