data_PCOD8138976
_publ_section_title
;
Structure prediction by ZEFSAII (Michael W. Deem and Ramdas Pophale) SiO2 
 PCOD8138976
Probable space group: C 2/C
;
_chemical_formula_sum "Si O2"
_cell_formula_units_Z 48
_cell_length_a 7.978489
_cell_length_b 14.906362
_cell_length_c 18.031533
_cell_angle_alpha 90.000000
_cell_angle_beta 87.140119
_cell_angle_gamma 90.000000
_cell_volume 2141.823755
_symmetry_space_group_name_H-M "C 2/C"
_symmetry_group_IT_number 15
_symmetry_cell_setting 'monoclinic'
loop_
_space_group_symop_operation_xyz
x,y,z
-x,y,1/2-z
-x,-y,-z
x,-y,1/2+z
1/2+x,1/2+y,z
1/2-x,1/2+y,1/2-z
1/2-x,1/2-y,-z
1/2+x,1/2-y,1/2+z
loop_
_atom_site_type_symbol
_atom_site_label
_atom_site_fract_x
_atom_site_fract_y
_atom_site_fract_z
Si Si1 0.359475 0.786067 0.849812
Si Si2 0.873863 0.908362 0.569400
Si Si3 0.095069 0.736745 0.558607
Si Si4 0.734054 0.799860 0.808838
Si Si5 0.896659 0.991544 0.822892
Si Si6 0.786097 0.381768 0.074292
O O1 0.270573 0.879273 0.870689
O O2 0.553398 0.810350 0.850095
O O3 0.289770 0.755263 0.771095
O O4 0.318169 0.710095 0.911022
O O5 0.785666 0.938059 0.494371
O O6 0.988671 0.824624 0.546830
O O7 0.978817 0.986282 0.608083
O O8 0.250000 0.750000 0.500000
O O9 0.156816 0.733688 0.642731
O O10 0.980861 0.646289 0.553173
O O11 0.824152 0.895737 0.800999
O O12 0.000000 0.031381 0.750000
O O13 0.743982 0.056876 0.851675
#
# Coordination Sequence:
#
# PCOD8138976 Si02
#       6
#     8   8   8   8   8   8
#     4  10  20  39  65  90 119 159 218 251 312 378
#     4  10  20  39  64  85 123 167 204 252 325 373
#     4  10  20  38  63  92 126 157 214 260 312 368
#     4  10  21  38  62  87 123 173 201 251 318 385
#     4  11  23  41  59  89 131 166 207 254 321 375
#     4  11  23  37  63  96 121 160 212 270 306 370
#
# _framework density 22.410807999999999
#
# number of rings (size 3 to 8) (size 9 to 14) (size 15 to 20)
#    0.000    1.667    1.667    4.500    2.333    0.000 
#    0.000   14.167    0.000    0.000    0.000    0.000 
#    0.000    0.000    0.000    0.000    0.000    0.000 
#
# Total GULP energy -297417.695825 kJ/mol
# GULP energy per Si atom -12392.403993 kJ/mol
# Density = 2.235980 g / cm^3
# Si number density = 22.410808 Si / 1000 Ang^3
#
#
#
# Elastic Constant Matrix: (Units=GPa)
#
#
# Indices 1 2 3 4 5 6 
#
# 1 116.9661 21.0399 60.8410 0.0000 -10.4765 0.0000
# 2 21.0399 40.1778 26.8216 0.0000 -4.9896 0.0000
# 3 60.8410 26.8216 116.5720 0.0000 -1.0629 0.0000
# 4 0.0000 0.0000 0.0000 25.0938 0.0000 -10.0577
# 5 -10.4765 -4.9896 -1.0629 0.0000 42.0598 0.0000
# 6 0.0000 0.0000 0.0000 -10.0577 0.0000 25.9214
#
#
#
# Elastic Compliance Matrix: (Units=1/GPa)
#
#
# Indices 1 2 3 4 5 6 
#
# 1 0.012221 -0.002162 -0.005857 0.000000 0.002640 0.000000
# 2 -0.002162 0.030259 -0.005807 0.000000 0.002904 0.000000
# 3 -0.005857 -0.005807 0.012955 0.000000 -0.001820 0.000000
# 4 0.000000 0.000000 0.000000 0.047189 0.000000 0.018310
# 5 0.002640 0.002904 -0.001820 0.000000 0.024732 0.000000
# 6 0.000000 0.000000 0.000000 0.018310 0.000000 0.045683
#
#
# Mechanical properties :
#
#
# Convention : Reuss Voigt Hill
#
# Bulk Modulus (GPa) = 35.99393 54.56899 45.28146
# Shear Modulus (GPa) = 23.81494 29.61589 26.71541
#
# Velocity S-wave (km/s) = 3.26337 3.63919 3.45639
# Velocity P-wave (km/s) = 5.50412 6.48541 6.01481
#
# Compressibility (1/GPa) = 0.02778246
#
# Stress axis : x y z
#
# Youngs Moduli (GPa) = 81.82344 33.04793 77.19123
#
# Poissons Ratio (x) = 0.07146 0.45211
# Poissons Ratio (y) = 0.17692 0.44827
# Poissons Ratio (z) = 0.47924 0.19192
#
# Static dielectric constant tensor:
#      x y z
#    x 4.371640 0.000000 0.033140 
#    y 0.000000 3.527250 0.000000 
#    z 0.033140 0.000000 4.215460 
# 
# 
# High freq. dielectric constant tensor:
#      x y z
#    x 1.892100 0.000000 -0.006630 
#    y 0.000000 1.836760 0.000000 
#    z -0.006630 0.000000 1.902740 
# 
# From -- ./inp_files/189213.got.cif
#   From: 2010.06.25/outbox.cif.g09.slc.cpg/sg15_95_cif.got.tgz:189213.got - 2010.06.28 07:06:18.
