data_PCOD8138451
_publ_section_title
;
Structure prediction by ZEFSAII (Michael W. Deem and Ramdas Pophale) SiO2 
 PCOD8138451
Probable space group: C 2/C
;
_chemical_formula_sum "Si O2"
_cell_formula_units_Z 64
_cell_length_a 8.338922
_cell_length_b 24.436438
_cell_length_c 20.266325
_cell_angle_alpha 90.000000
_cell_angle_beta 45.070981
_cell_angle_gamma 90.000000
_cell_volume 2923.783280
_symmetry_space_group_name_H-M "C 2/C"
_symmetry_group_IT_number 15
_symmetry_cell_setting 'monoclinic'
loop_
_space_group_symop_operation_xyz
x,y,z
-x,y,1/2-z
-x,-y,-z
x,-y,1/2+z
1/2+x,1/2+y,z
1/2-x,1/2+y,1/2-z
1/2-x,1/2-y,-z
1/2+x,1/2-y,1/2+z
loop_
_atom_site_type_symbol
_atom_site_label
_atom_site_fract_x
_atom_site_fract_y
_atom_site_fract_z
Si Si1 0.600396 0.214481 0.382984
Si Si2 0.136483 0.822122 0.060775
Si Si3 0.283070 0.956941 0.467763
Si Si4 0.978319 0.943405 0.431366
Si Si5 0.216514 0.156843 0.041533
Si Si6 0.239951 0.696141 0.204740
Si Si7 0.663836 0.818606 0.353087
Si Si8 0.846685 0.418195 0.232087
O O1 0.337758 0.197654 0.454261
O O2 0.580558 0.281107 0.383764
O O3 0.723331 0.190555 0.410755
O O4 0.747251 0.188292 0.281307
O O5 0.075252 0.880241 0.050224
O O6 0.230446 0.831775 0.106878
O O7 0.258379 0.908880 0.530179
O O8 0.525957 0.953977 0.360836
O O9 0.090080 0.952001 0.469482
O O10 0.239949 0.016344 0.514217
O O11 0.141989 0.954694 0.320737
O O12 0.950066 0.167631 0.105663
O O13 0.386608 0.180204 0.935696
O O14 0.242908 0.760492 0.193135
O O15 0.000000 0.671731 0.250000
O O16 0.748028 0.862605 0.274237
O O17 0.000000 0.401086 0.250000
#
# Coordination Sequence:
#
# PCOD8138451 Si02
#       8
#     8   8   8   8   8   8   8   8
#     4  10  22  39  59  91 128 162 203 255 310 393
#     4  10  21  38  62  90 125 160 208 260 322 365
#     4   9  21  41  59  90 122 161 218 258 309 383
#     4  10  20  37  65  87 122 162 206 268 317 363
#     4  10  23  41  62  84 129 169 206 254 320 373
#     4  12  23  36  59  93 126 161 207 249 312 386
#     4  10  21  39  61  90 123 161 207 265 305 379
#     4   9  19  36  61  91 118 158 213 262 314 373
#
# _framework density 21.889447000000001
#
# number of rings (size 3 to 8) (size 9 to 14) (size 15 to 20)
#    0.000    2.000    1.250    1.500    1.750    4.000 
#    2.250    6.250    2.750    0.000    0.000    0.000 
#    0.000    0.000    0.000    0.000    0.000    0.000 
#
# Total GULP energy -396502.988134 kJ/mol
# GULP energy per Si atom -12390.718379 kJ/mol
# Density = 2.183963 g / cm^3
# Si number density = 21.889447 Si / 1000 Ang^3
#
#
#
# Elastic Constant Matrix: (Units=GPa)
#
#
# Indices 1 2 3 4 5 6 
#
# 1 35.2915 23.3062 27.3825 0.0000 -16.3091 0.0000
# 2 23.3062 113.6555 41.5774 0.0000 -0.5085 0.0000
# 3 27.3825 41.5774 93.0816 0.0000 -8.6993 0.0000
# 4 0.0000 0.0000 0.0000 0.0742 0.0000 -17.8755
# 5 -16.3091 -0.5085 -8.6993 0.0000 29.4646 0.0000
# 6 0.0000 0.0000 0.0000 -17.8755 0.0000 17.4641
#
#
#
# Elastic Compliance Matrix: (Units=1/GPa)
#
#
# Indices 1 2 3 4 5 6 
#
# 1 0.052812 -0.007081 -0.009926 0.000000 0.026179 0.000000
# 2 -0.007081 0.011511 -0.003503 0.000000 -0.004755 0.000000
# 3 -0.009926 -0.003503 0.015126 0.000000 -0.001089 0.000000
# 4 0.000000 0.000000 0.000000 -0.054877 0.000000 -0.056170
# 5 0.026179 -0.004755 -0.001089 0.000000 0.048026 0.000000
# 6 0.000000 0.000000 0.000000 -0.056170 0.000000 -0.000233
#
#
# Mechanical properties :
#
#
# Convention : Reuss Voigt Hill
#
# Bulk Modulus (GPa) = 26.02280 47.39564 36.70922
# Shear Modulus (GPa) = 39.62153 19.38474 29.50314
#
# Velocity S-wave (km/s) = 4.25911 2.97909 3.67526
# Velocity P-wave (km/s) = 6.00840 5.79073 5.90057
#
# Compressibility (1/GPa) = 0.03842784
#
# Stress axis : x y z
#
# Youngs Moduli (GPa) = 18.93523 86.87552 66.11022
#
# Poissons Ratio (x) = 0.61518 0.65623
# Poissons Ratio (y) = 0.13408 0.23157
# Poissons Ratio (z) = 0.18796 0.30431
#
# Static dielectric constant tensor:
#      x y z
#    x 3.819710 0.000000 -0.131900 
#    y 0.000000 3.932980 0.000000 
#    z -0.131900 0.000000 4.635010 
# 
# 
# High freq. dielectric constant tensor:
#      x y z
#    x 1.844250 0.000000 -0.005030 
#    y 0.000000 1.837350 0.000000 
#    z -0.005030 0.000000 1.880470 
# 
# From -- ./inp_files/234428.got.cif
#   From: 2010.06.25/outbox.cif.g09.slc.cpg/sg15_118_cif.got.tgz:234428.got - 2010.06.28 07:06:18.
