data_PCOD8138287
_publ_section_title
;
Structure prediction by ZEFSAII (Michael W. Deem and Ramdas Pophale) SiO2 
 PCOD8138287
Probable space group: C 2/C
;
_chemical_formula_sum "Si O2"
_cell_formula_units_Z 56
_cell_length_a 9.102674
_cell_length_b 22.742174
_cell_length_c 18.438790
_cell_angle_alpha 90.000000
_cell_angle_beta 133.141640
_cell_angle_gamma 90.000000
_cell_volume 2785.205246
_symmetry_space_group_name_H-M "C 2/C"
_symmetry_group_IT_number 15
_symmetry_cell_setting 'monoclinic'
loop_
_space_group_symop_operation_xyz
x,y,z
-x,y,1/2-z
-x,-y,-z
x,-y,1/2+z
1/2+x,1/2+y,z
1/2-x,1/2+y,1/2-z
1/2-x,1/2-y,-z
1/2+x,1/2-y,1/2+z
loop_
_atom_site_type_symbol
_atom_site_label
_atom_site_fract_x
_atom_site_fract_y
_atom_site_fract_z
Si Si1 0.623554 0.110145 0.958738
Si Si2 0.637240 0.015744 0.477646
Si Si3 0.698508 0.200129 0.860690
Si Si4 0.854140 0.812417 0.035747
Si Si5 0.217695 0.835011 0.845974
Si Si6 0.965988 0.620040 0.152992
Si Si7 0.309515 0.399199 0.138602
O O1 0.700409 0.163293 0.935457
O O2 0.383224 0.101073 0.873742
O O3 0.716244 0.045792 0.968742
O O4 0.685073 0.122832 0.061895
O O5 0.523213 0.054426 0.377747
O O6 0.814472 0.054127 0.573622
O O7 0.500000 0.000000 0.500000
O O8 0.500000 0.179673 0.750000
O O9 0.691925 0.269985 0.871382
O O10 0.905546 0.186579 0.890121
O O11 0.812883 0.835363 0.102778
O O12 0.750000 0.750000 0.000000
O O13 0.752109 0.851542 0.937772
O O14 0.363296 0.837767 0.825031
O O15 0.000000 0.859670 0.750000
O O16 0.000000 0.616298 0.250000
O O17 0.500000 0.414312 0.250000
#
# Coordination Sequence:
#
# PCOD8138287 Si02
#       7
#     8   8   8   8   8   8   8
#     4  11  21  42  64  88 128 165 208 265 317 381
#     4   9  19  41  64  87 130 167 212 267 316 381
#     4  11  24  40  60  96 130 163 208 260 320 382
#     4  11  21  41  61  88 129 167 207 263 322 378
#     4  11  23  41  62  93 124 166 210 262 322 381
#     4  11  23  42  64  97 125 164 223 262 315 386
#     4  10  20  37  62  90 118 168 216 256 316 386
#
# _framework density 20.106238000000001
#
# number of rings (size 3 to 8) (size 9 to 14) (size 15 to 20)
#    0.000    1.429    5.714    1.286    2.000    1.714 
#    2.571    2.857    0.000    0.000    0.000    0.000 
#    0.000    0.000    0.000    0.000    0.000    0.000 
#
# Total GULP energy -347043.403124 kJ/mol
# GULP energy per Si atom -12394.407254 kJ/mol
# Density = 2.006047 g / cm^3
# Si number density = 20.106238 Si / 1000 Ang^3
#
#
#
# Elastic Constant Matrix: (Units=GPa)
#
#
# Indices 1 2 3 4 5 6 
#
# 1 80.3117 46.7946 46.8269 0.0000 5.6782 0.0000
# 2 46.7946 123.0261 48.3252 0.0000 -7.7765 0.0000
# 3 46.8269 48.3252 126.0762 0.0000 4.7244 0.0000
# 4 0.0000 0.0000 0.0000 16.9771 0.0000 -5.3468
# 5 5.6782 -7.7765 4.7244 0.0000 40.8614 0.0000
# 6 0.0000 0.0000 0.0000 -5.3468 0.0000 28.1346
#
#
#
# Elastic Compliance Matrix: (Units=1/GPa)
#
#
# Indices 1 2 3 4 5 6 
#
# 1 0.018562 -0.005405 -0.004708 0.000000 -0.003064 0.000000
# 2 -0.005405 0.011354 -0.002464 0.000000 0.003197 0.000000
# 3 -0.004708 -0.002464 0.010664 0.000000 -0.001048 0.000000
# 4 0.000000 0.000000 0.000000 0.062653 0.000000 0.011907
# 5 -0.003064 0.003197 -0.001048 0.000000 0.025628 0.000000
# 6 0.000000 0.000000 0.000000 0.011907 0.000000 0.037806
#
#
# Mechanical properties :
#
#
# Convention : Reuss Voigt Hill
#
# Bulk Modulus (GPa) = 64.82372 68.14529 66.48450
# Shear Modulus (GPa) = 25.38531 29.69244 27.53888
#
# Velocity S-wave (km/s) = 3.55711 3.84706 3.70492
# Velocity P-wave (km/s) = 7.01294 7.32798 7.17219
#
# Compressibility (1/GPa) = 0.01542645
#
# Stress axis : x y z
#
# Youngs Moduli (GPa) = 53.87275 88.07254 93.77171
#
# Poissons Ratio (x) = 0.47601 0.44147
# Poissons Ratio (y) = 0.29117 0.23110
# Poissons Ratio (z) = 0.25363 0.21705
#
# Static dielectric constant tensor:
#      x y z
#    x 3.566230 0.000000 0.123250 
#    y 0.000000 4.162930 0.000000 
#    z 0.123250 0.000000 3.672700 
# 
# 
# High freq. dielectric constant tensor:
#      x y z
#    x 1.762400 0.000000 0.008430 
#    y 0.000000 1.798560 0.000000 
#    z 0.008430 0.000000 1.785910 
# 
# From -- ./inp_files/193317.got.cif
#   From: 2010.06.25/outbox.cif.g09.slc.cpg/sg15_97_cif.got.tgz:193317.got - 2010.06.28 07:06:18.
