data_PCOD8138621
_publ_section_title
;
Structure prediction by ZEFSAII (Michael W. Deem and Ramdas Pophale) SiO2 
 PCOD8138621
Probable space group: C 2/C
;
_chemical_formula_sum "Si O2"
_cell_formula_units_Z 52
_cell_length_a 11.265582
_cell_length_b 20.297920
_cell_length_c 15.827938
_cell_angle_alpha 90.000000
_cell_angle_beta 134.408176
_cell_angle_gamma 90.000000
_cell_volume 2585.558923
_symmetry_space_group_name_H-M "C 2/C"
_symmetry_group_IT_number 15
_symmetry_cell_setting 'monoclinic'
loop_
_space_group_symop_operation_xyz
x,y,z
-x,y,1/2-z
-x,-y,-z
x,-y,1/2+z
1/2+x,1/2+y,z
1/2-x,1/2+y,1/2-z
1/2-x,1/2-y,-z
1/2+x,1/2-y,1/2+z
loop_
_atom_site_type_symbol
_atom_site_label
_atom_site_fract_x
_atom_site_fract_y
_atom_site_fract_z
Si Si1 0.895827 0.554495 0.308018
Si Si2 0.671788 0.623609 0.646635
Si Si3 0.187419 0.367901 0.014548
Si Si4 0.819750 0.228177 0.707083
Si Si5 0.832472 0.975921 0.203566
Si Si6 0.670032 0.360411 0.590023
Si Si7 0.000000 0.441117 0.250000
O O1 0.789984 0.536013 0.337794
O O2 0.770969 0.574778 0.169826
O O3 0.003591 0.490538 0.332869
O O4 0.004971 0.617615 0.387241
O O5 0.677928 0.692925 0.700478
O O6 0.632317 0.566248 0.694398
O O7 0.528436 0.627799 0.502967
O O8 0.840256 0.606697 0.679007
O O9 0.186579 0.309331 0.081471
O O10 0.255151 0.433260 0.090984
O O11 0.302550 0.345661 0.994927
O O12 0.740924 0.300144 0.681158
O O13 0.000000 0.228909 0.750000
O O14 0.000000 0.006956 0.250000
#
# Coordination Sequence:
#
# PCOD8138621 Si02
#       7
#     8   8   8   8   8   8   4
#     4  11  23  35  58  94 119 155 201 246 294 354
#     4  10  22  40  59  87 115 161 199 240 307 349
#     4  11  19  37  56  90 120 153 191 243 311 352
#     4  11  22  37  62  88 121 153 196 254 300 350
#     4  10  20  38  59  82 121 156 197 246 302 358
#     4  12  22  36  62  91 122 152 203 252 294 354
#     4  10  22  40  60  80 122 160 194 242 288 370
#
# _framework density 20.111705000000001
#
# number of rings (size 3 to 8) (size 9 to 14) (size 15 to 20)
#    0.000    1.231    4.615    2.769    2.154    3.692 
#    0.000    0.769    1.692    0.000    0.000    0.000 
#    0.000    0.000    0.000    0.000    0.000    0.000 
#
# Total GULP energy -322307.520227 kJ/mol
# GULP energy per Si atom -12396.443086 kJ/mol
# Density = 2.006593 g / cm^3
# Si number density = 20.111705 Si / 1000 Ang^3
#
#
#
# Elastic Constant Matrix: (Units=GPa)
#
#
# Indices 1 2 3 4 5 6 
#
# 1 106.0017 30.6501 36.5272 0.0000 27.0435 0.0000
# 2 30.6501 67.9561 35.1947 0.0000 14.5645 0.0000
# 3 36.5272 35.1947 104.9693 0.0000 24.7120 0.0000
# 4 0.0000 0.0000 0.0000 25.5259 0.0000 1.1001
# 5 27.0435 14.5645 24.7120 0.0000 28.5953 0.0000
# 6 0.0000 0.0000 0.0000 1.1001 0.0000 23.6286
#
#
#
# Elastic Compliance Matrix: (Units=1/GPa)
#
#
# Indices 1 2 3 4 5 6 
#
# 1 0.013316 -0.003259 -0.001214 0.000000 -0.009885 0.000000
# 2 -0.003259 0.019171 -0.004671 0.000000 -0.002646 0.000000
# 3 -0.001214 -0.004671 0.013414 0.000000 -0.008065 0.000000
# 4 0.000000 0.000000 0.000000 0.039255 0.000000 -0.001828
# 5 -0.009885 -0.002646 -0.008065 0.000000 0.052636 0.000000
# 6 0.000000 0.000000 0.000000 -0.001828 0.000000 0.042407
#
#
# Mechanical properties :
#
#
# Convention : Reuss Voigt Hill
#
# Bulk Modulus (GPa) = 36.21382 53.74125 44.97753
# Shear Modulus (GPa) = 24.07419 27.32031 25.69725
#
# Velocity S-wave (km/s) = 3.46356 3.68968 3.57841
# Velocity P-wave (km/s) = 5.83442 6.70307 6.28377
#
# Compressibility (1/GPa) = 0.02761377
#
# Stress axis : x y z
#
# Youngs Moduli (GPa) = 75.09646 52.16104 74.54985
#
# Poissons Ratio (x) = 0.16998 0.09051
# Poissons Ratio (y) = 0.24472 0.34822
# Poissons Ratio (z) = 0.09118 0.24364
#
# Static dielectric constant tensor:
#      x y z
#    x 3.593360 0.000000 0.141140 
#    y 0.000000 3.584020 0.000000 
#    z 0.141140 0.000000 3.687620 
# 
# 
# High freq. dielectric constant tensor:
#      x y z
#    x 1.759130 0.000000 0.009010 
#    y 0.000000 1.772900 0.000000 
#    z 0.009010 0.000000 1.790730 
# 
# From -- ./inp_files/88958.got.cif
#   From: 2010.06.25/outbox.cif.g09.slc.cpg/sg15_45_cif.got.tgz:88958.got - 2010.06.28 07:06:18.
