data_PCOD8138488
_publ_section_title
;
Structure prediction by ZEFSAII (Michael W. Deem and Ramdas Pophale) SiO2 
 PCOD8138488
Probable space group: C 2/C
;
_chemical_formula_sum "Si O2"
_cell_formula_units_Z 36
_cell_length_a 26.678667
_cell_length_b 8.087265
_cell_length_c 13.511827
_cell_angle_alpha 90.000000
_cell_angle_beta 38.294649
_cell_angle_gamma 90.000000
_cell_volume 1806.614090
_symmetry_space_group_name_H-M "C 2/C"
_symmetry_group_IT_number 15
_symmetry_cell_setting 'monoclinic'
loop_
_space_group_symop_operation_xyz
x,y,z
-x,y,1/2-z
-x,-y,-z
x,-y,1/2+z
1/2+x,1/2+y,z
1/2-x,1/2+y,1/2-z
1/2-x,1/2-y,-z
1/2+x,1/2-y,1/2+z
loop_
_atom_site_type_symbol
_atom_site_label
_atom_site_fract_x
_atom_site_fract_y
_atom_site_fract_z
Si Si1 0.240125 0.281790 0.180791
Si Si2 0.714277 0.508190 0.069973
Si Si3 0.366500 0.069865 0.093990
Si Si4 0.000000 0.454322 0.750000
Si Si5 0.876731 0.319528 0.793153
O O1 0.197235 0.135923 0.185076
O O2 0.300113 0.207524 0.169382
O O3 0.172536 0.386169 0.343946
O O4 0.289181 0.400735 0.030333
O O5 0.644005 0.373500 0.179536
O O6 0.801998 0.425899 0.951810
O O7 0.401556 0.114961 0.146810
O O8 0.438569 0.073798 0.903316
O O9 0.953399 0.337844 0.745243
#
# Coordination Sequence:
#
# PCOD8138488 Si02
#       5
#     8   8   8   4   8
#     4  10  20  37  66  94 116 165 212 253 292 375
#     4   9  19  39  67  90 119 160 218 253 295 366
#     4  11  23  38  67  90 128 163 212 248 313 363
#     4  12  24  40  60  94 132 162 196 266 314 364
#     4  10  21  40  63  91 123 166 204 257 309 368
#
# _framework density 19.926777999999999
#
# number of rings (size 3 to 8) (size 9 to 14) (size 15 to 20)
#    0.000    1.778    2.222    2.000    6.222    0.000 
#    0.000    2.222    0.000    0.000    0.000    0.000 
#    0.000    0.000    0.000    0.000    0.000    0.000 
#
# Total GULP energy -223303.715562 kJ/mol
# GULP energy per Si atom -12405.761976 kJ/mol
# Density = 1.988142 g / cm^3
# Si number density = 19.926778 Si / 1000 Ang^3
#
#
#
# Elastic Constant Matrix: (Units=GPa)
#
#
# Indices 1 2 3 4 5 6 
#
# 1 143.1976 46.7653 42.2782 0.0000 -6.5785 0.0000
# 2 46.7653 121.6729 40.7228 0.0000 -1.7330 0.0000
# 3 42.2782 40.7228 90.9458 0.0000 13.1747 0.0000
# 4 0.0000 0.0000 0.0000 16.1717 0.0000 6.0065
# 5 -6.5785 -1.7330 13.1747 0.0000 23.0238 0.0000
# 6 0.0000 0.0000 0.0000 6.0065 0.0000 32.0106
#
#
#
# Elastic Compliance Matrix: (Units=1/GPa)
#
#
# Indices 1 2 3 4 5 6 
#
# 1 0.009047 -0.002089 -0.003950 0.000000 0.004688 0.000000
# 2 -0.002089 0.010415 -0.004056 0.000000 0.002508 0.000000
# 3 -0.003950 -0.004056 0.016198 0.000000 -0.010703 0.000000
# 4 0.000000 0.000000 0.000000 0.066469 0.000000 -0.012472
# 5 0.004688 0.002508 -0.010703 0.000000 0.051086 0.000000
# 6 0.000000 0.000000 0.000000 -0.012472 0.000000 0.033580
#
#
# Mechanical properties :
#
#
# Convention : Reuss Voigt Hill
#
# Bulk Modulus (GPa) = 64.63344 68.37213 66.50278
# Shear Modulus (GPa) = 23.56944 29.31121 26.44032
#
# Velocity S-wave (km/s) = 3.44292 3.83945 3.64658
# Velocity P-wave (km/s) = 6.95060 7.35128 7.15375
#
# Compressibility (1/GPa) = 0.01547187
#
# Stress axis : x y z
#
# Youngs Moduli (GPa) = 110.53565 96.01864 61.73583
#
# Poissons Ratio (x) = 0.20054 0.24383
# Poissons Ratio (y) = 0.23086 0.25039
# Poissons Ratio (z) = 0.43656 0.38943
#
# Static dielectric constant tensor:
#      x y z
#    x 3.645360 0.000000 0.181370 
#    y 0.000000 3.701760 0.000000 
#    z 0.181370 0.000000 3.392230 
# 
# 
# High freq. dielectric constant tensor:
#      x y z
#    x 1.789380 0.000000 0.022280 
#    y 0.000000 1.778730 0.000000 
#    z 0.022280 0.000000 1.752850 
# 
# From -- ./inp_files/102625.got.cif
#   From: 2010.06.25/outbox.cif.g09.slc.cpg/sg15_52_cif.got.tgz:102625.got - 2010.06.28 07:06:18.
