data_PCOD8138408
_publ_section_title
;
Structure prediction by ZEFSAII (Michael W. Deem and Ramdas Pophale) SiO2 
 PCOD8138408
Probable space group: C 2/C
;
_chemical_formula_sum "Si O2"
_cell_formula_units_Z 64
_cell_length_a 26.727881
_cell_length_b 11.257052
_cell_length_c 12.940208
_cell_angle_alpha 90.000000
_cell_angle_beta 56.587977
_cell_angle_gamma 90.000000
_cell_volume 3249.957590
_symmetry_space_group_name_H-M "C 2/C"
_symmetry_group_IT_number 15
_symmetry_cell_setting 'monoclinic'
loop_
_space_group_symop_operation_xyz
x,y,z
-x,y,1/2-z
-x,-y,-z
x,-y,1/2+z
1/2+x,1/2+y,z
1/2-x,1/2+y,1/2-z
1/2-x,1/2-y,-z
1/2+x,1/2-y,1/2+z
loop_
_atom_site_type_symbol
_atom_site_label
_atom_site_fract_x
_atom_site_fract_y
_atom_site_fract_z
Si Si1 0.863957 0.300554 0.501048
Si Si2 0.168887 0.495114 0.798570
Si Si3 0.293262 0.614583 0.685174
Si Si4 0.480712 0.322934 0.949296
Si Si5 0.976692 0.089450 0.887374
Si Si6 0.649824 0.631791 0.385553
Si Si7 0.103319 0.300519 0.272690
Si Si8 0.733146 0.207776 0.129677
O O1 0.846328 0.423252 0.579159
O O2 0.811220 0.201716 0.569649
O O3 0.921306 0.249328 0.494203
O O4 0.874180 0.323448 0.368896
O O5 0.223910 0.582392 0.757420
O O6 0.113002 0.575674 0.824611
O O7 0.191096 0.408701 0.680570
O O8 0.338322 0.506172 0.646071
O O9 0.304875 0.687438 0.776312
O O10 0.481668 0.446696 0.886037
O O11 0.534137 0.237078 0.850421
O O12 0.483294 0.350882 0.068490
O O13 0.000000 0.133540 0.750000
O O14 0.909303 0.138993 0.976521
O O15 0.640260 0.694649 0.285779
O O16 0.705603 0.689853 0.378060
O O17 0.750000 0.250000 0.000000
#
# Coordination Sequence:
#
# PCOD8138408 Si02
#       8
#     8   8   8   8   8   8   8   8
#     4  11  23  41  65  87 129 166 202 262 311 362
#     4  10  24  40  57  91 121 160 214 249 298 379
#     4  10  21  41  57  90 123 154 209 256 300 372
#     4  10  22  40  60  97 122 155 215 255 300 381
#     4  10  20  37  64  90 125 160 201 259 315 360
#     4  10  21  38  61  93 123 158 205 260 298 381
#     4  11  23  40  67  89 124 169 206 254 317 370
#     4  10  22  39  61  85 125 163 201 258 306 357
#
# _framework density 19.692565999999999
#
# number of rings (size 3 to 8) (size 9 to 14) (size 15 to 20)
#    0.000    1.750    2.500    1.125    1.750    5.000 
#    0.000    1.250    0.000    0.000    0.000    0.000 
#    0.000    0.000    0.000    0.000    0.000    0.000 
#
# Total GULP energy -396704.797908 kJ/mol
# GULP energy per Si atom -12397.024935 kJ/mol
# Density = 1.964774 g / cm^3
# Si number density = 19.692566 Si / 1000 Ang^3
#
#
#
# Elastic Constant Matrix: (Units=GPa)
#
#
# Indices 1 2 3 4 5 6 
#
# 1 64.9737 26.1778 34.9449 0.0000 -7.6555 0.0000
# 2 26.1778 108.6941 52.4703 0.0000 0.0798 0.0000
# 3 34.9449 52.4703 137.0992 0.0000 5.6034 0.0000
# 4 0.0000 0.0000 0.0000 18.7635 0.0000 1.1596
# 5 -7.6555 0.0798 5.6034 0.0000 25.2567 0.0000
# 6 0.0000 0.0000 0.0000 1.1596 0.0000 12.5382
#
#
#
# Elastic Compliance Matrix: (Units=1/GPa)
#
#
# Indices 1 2 3 4 5 6 
#
# 1 0.019559 -0.002666 -0.004246 0.000000 0.006879 0.000000
# 2 -0.002666 0.011670 -0.003787 0.000000 -0.000005 0.000000
# 3 -0.004246 -0.003787 0.009968 0.000000 -0.003487 0.000000
# 4 0.000000 0.000000 0.000000 0.053601 0.000000 -0.004957
# 5 0.006879 -0.000005 -0.003487 0.000000 0.042452 0.000000
# 6 0.000000 0.000000 0.000000 -0.004957 0.000000 0.080215
#
#
# Mechanical properties :
#
#
# Convention : Reuss Voigt Hill
#
# Bulk Modulus (GPa) = 50.50563 59.77254 55.13909
# Shear Modulus (GPa) = 20.36965 24.45661 22.41313
#
# Velocity S-wave (km/s) = 3.21967 3.52791 3.37731
# Velocity P-wave (km/s) = 6.28685 6.85665 6.57792
#
# Compressibility (1/GPa) = 0.01979977
#
# Stress axis : x y z
#
# Youngs Moduli (GPa) = 51.12675 85.68879 100.32052
#
# Poissons Ratio (x) = 0.22843 0.42599
# Poissons Ratio (y) = 0.13630 0.37988
# Poissons Ratio (z) = 0.21710 0.32448
#
# Static dielectric constant tensor:
#      x y z
#    x 3.459970 0.000000 0.005720 
#    y 0.000000 3.746240 0.000000 
#    z 0.005720 0.000000 3.573280 
# 
# 
# High freq. dielectric constant tensor:
#      x y z
#    x 1.763600 0.000000 -0.010900 
#    y 0.000000 1.774500 0.000000 
#    z -0.010900 0.000000 1.766090 
# 
# From -- ./inp_files/118001.got.cif
#   From: 2010.06.25/outbox.cif.g09.slc.cpg/sg15_60_cif.got.tgz:118001.got - 2010.06.28 07:06:18.
