data_PCOD8138737
_publ_section_title
;
Structure prediction by ZEFSAII (Michael W. Deem and Ramdas Pophale) SiO2 
 PCOD8138737
Probable space group: C 2/C
;
_chemical_formula_sum "Si O2"
_cell_formula_units_Z 40
_cell_length_a 8.445164
_cell_length_b 19.323942
_cell_length_c 19.208770
_cell_angle_alpha 90.000000
_cell_angle_beta 142.836800
_cell_angle_gamma 90.000000
_cell_volume 1893.664957
_symmetry_space_group_name_H-M "C 2/C"
_symmetry_group_IT_number 15
_symmetry_cell_setting 'monoclinic'
loop_
_space_group_symop_operation_xyz
x,y,z
-x,y,1/2-z
-x,-y,-z
x,-y,1/2+z
1/2+x,1/2+y,z
1/2-x,1/2+y,1/2-z
1/2-x,1/2-y,-z
1/2+x,1/2-y,1/2+z
loop_
_atom_site_type_symbol
_atom_site_label
_atom_site_fract_x
_atom_site_fract_y
_atom_site_fract_z
Si Si1 0.439725 0.615861 0.552071
Si Si2 0.600385 0.874125 0.708316
Si Si3 0.657144 0.512415 0.735929
Si Si4 0.080502 0.385619 0.358272
Si Si5 0.827700 0.781463 0.258141
O O1 0.502151 0.546220 0.617077
O O2 0.601922 0.614570 0.534304
O O3 0.516580 0.683534 0.623584
O O4 0.135614 0.619396 0.428994
O O5 0.500000 0.889584 0.750000
O O6 0.822213 0.930172 0.767146
O O7 0.728700 0.798664 0.745611
O O8 0.500000 0.530632 0.750000
O O9 0.951857 0.544815 0.845600
O O10 0.000000 0.381239 0.250000
O O11 0.953885 0.318950 0.352590
O O12 0.000000 0.789793 0.250000
#
# Coordination Sequence:
#
# PCOD8138737 Si02
#       5
#     8   8   8   8   8
#     4  10  20  38  61  79 111 154 184 222 283 333
#     4  11  23  37  55  85 116 146 188 232 271 327
#     4  10  21  36  56  83 110 144 188 233 276 325
#     4   8  16  33  58  79 105 145 183 219 272 336
#     4   9  18  36  59  84 112 141 182 232 278 329
#
# _framework density 21.123061
#
# number of rings (size 3 to 8) (size 9 to 14) (size 15 to 20)
#    0.000    2.800    0.000    4.800    0.000    6.400 
#    0.000    6.000    0.000    0.000    0.000    1.400 
#    0.000    0.000    0.000    0.000    0.000    0.000 
#
# Total GULP energy -247870.141457 kJ/mol
# GULP energy per Si atom -12393.507073 kJ/mol
# Density = 2.107498 g / cm^3
# Si number density = 21.123061 Si / 1000 Ang^3
#
#
#
# Elastic Constant Matrix: (Units=GPa)
#
#
# Indices 1 2 3 4 5 6 
#
# 1 110.7401 52.2655 6.4942 0.0005 -7.7106 0.0014
# 2 52.2655 162.6218 16.7102 0.0005 -5.6644 0.0007
# 3 6.4942 16.7102 35.9947 0.0017 -6.0300 -0.0001
# 4 0.0005 0.0005 0.0017 15.3993 0.0005 -1.0683
# 5 -7.7106 -5.6644 -6.0300 0.0005 10.6673 0.0004
# 6 0.0014 0.0007 -0.0001 -1.0683 0.0004 40.0462
#
#
#
# Elastic Compliance Matrix: (Units=1/GPa)
#
#
# Indices 1 2 3 4 5 6 
#
# 1 0.011049 -0.003392 0.000682 -0.000001 0.006571 0.000000
# 2 -0.003392 0.007534 -0.002901 0.000000 -0.000091 0.000000
# 3 0.000682 -0.002901 0.031846 -0.000004 0.016955 0.000000
# 4 -0.000001 0.000000 -0.000004 0.065058 -0.000005 0.001736
# 5 0.006571 -0.000091 0.016955 -0.000005 0.108030 -0.000001
# 6 0.000000 0.000000 0.000000 0.001736 -0.000001 0.025017
#
#
# Mechanical properties :
#
#
# Convention : Reuss Voigt Hill
#
# Bulk Modulus (GPa) = 25.50581 51.14407 38.32494
# Shear Modulus (GPa) = 18.32672 28.81499 23.57086
#
# Velocity S-wave (km/s) = 2.94873 3.69745 3.34411
# Velocity P-wave (km/s) = 4.86769 6.51868 5.75272
#
# Compressibility (1/GPa) = 0.03920675
#
# Stress axis : x y z
#
# Youngs Moduli (GPa) = 90.50889 132.72492 31.40126
#
# Poissons Ratio (x) = 0.45023 -0.02142
# Poissons Ratio (y) = 0.30702 0.09110
# Poissons Ratio (z) = -0.06174 0.38504
#
# Static dielectric constant tensor:
#      x y z
#    x 4.488250 0.000000 0.385150 
#    y 0.000000 3.941930 0.000000 
#    z 0.385150 0.000000 3.586810 
# 
# 
# High freq. dielectric constant tensor:
#      x y z
#    x 1.835360 0.000000 0.001960 
#    y 0.000000 1.837290 0.000000 
#    z 0.001960 0.000000 1.786340 
# 
# From -- ./inp_files/192373.got.cif
#   From: 2010.06.25/outbox.cif.g09.slc.cpg/sg15_97_cif.got.tgz:192373.got - 2010.06.28 07:06:18.
