data_PCOD8138317
_publ_section_title
;
Structure prediction by ZEFSAII (Michael W. Deem and Ramdas Pophale) SiO2 
 PCOD8138317
Probable space group: C 2/C
;
_chemical_formula_sum "Si O2"
_cell_formula_units_Z 40
_cell_length_a 24.248531
_cell_length_b 10.373160
_cell_length_c 21.992385
_cell_angle_alpha 90.000000
_cell_angle_beta 21.359623
_cell_angle_gamma 90.000000
_cell_volume 2014.806334
_symmetry_space_group_name_H-M "C 2/C"
_symmetry_group_IT_number 15
_symmetry_cell_setting 'monoclinic'
loop_
_space_group_symop_operation_xyz
x,y,z
-x,y,1/2-z
-x,-y,-z
x,-y,1/2+z
1/2+x,1/2+y,z
1/2-x,1/2+y,1/2-z
1/2-x,1/2-y,-z
1/2+x,1/2-y,1/2+z
loop_
_atom_site_type_symbol
_atom_site_label
_atom_site_fract_x
_atom_site_fract_y
_atom_site_fract_z
Si Si1 0.973249 0.914393 0.466980
Si Si2 0.494183 0.569804 0.320789
Si Si3 0.005160 0.398265 0.411748
Si Si4 0.749352 0.234910 0.398955
Si Si5 0.628353 0.846907 0.820885
O O1 0.807661 0.855994 0.640054
O O2 0.092403 0.798685 0.338949
O O3 0.000000 0.000000 0.500000
O O4 0.998254 0.990836 0.378833
O O5 0.500000 0.490965 0.250000
O O6 0.340882 0.652361 0.474863
O O7 0.640471 0.662499 0.167799
O O8 0.146366 0.300379 0.260217
O O9 0.061346 0.545604 0.343198
O O10 0.868273 0.368951 0.506848
O O11 0.945474 0.376908 0.539655
#
# Coordination Sequence:
#
# PCOD8138317 Si02
#       5
#     8   8   8   8   8
#     4  12  26  42  65  92 127 166 210 257 312 369
#     4  11  23  41  65  92 126 164 209 257 311 369
#     4  10  20  37  62  94 124 161 204 255 312 374
#     4  10  20  39  64  90 123 161 207 255 315 365
#     4  11  24  37  61  93 129 163 207 253 313 366
#
# _framework density 19.853024999999999
#
# number of rings (size 3 to 8) (size 9 to 14) (size 15 to 20)
#    0.000    1.200    2.000    5.400    8.400    0.000 
#    0.000    1.000    0.000    0.000    0.000    0.000 
#    0.000    0.000    0.000    0.000    0.000    0.000 
#
# Total GULP energy -247862.371848 kJ/mol
# GULP energy per Si atom -12393.118592 kJ/mol
# Density = 1.980784 g / cm^3
# Si number density = 19.853025 Si / 1000 Ang^3
#
#
#
# Elastic Constant Matrix: (Units=GPa)
#
#
# Indices 1 2 3 4 5 6 
#
# 1 163.1557 76.0972 57.4613 -0.0013 -7.6983 0.0007
# 2 76.0972 126.6271 43.9145 -0.0004 -11.8350 0.0002
# 3 57.4613 43.9145 117.7841 0.0007 -20.3583 -0.0003
# 4 -0.0013 -0.0004 0.0007 38.3373 0.0004 -8.9717
# 5 -7.6983 -11.8350 -20.3583 0.0004 45.8743 -0.0002
# 6 0.0007 0.0002 -0.0003 -8.9717 -0.0002 27.2440
#
#
#
# Elastic Compliance Matrix: (Units=1/GPa)
#
#
# Indices 1 2 3 4 5 6 
#
# 1 0.009297 -0.004647 -0.002968 0.000000 -0.000956 0.000000
# 2 -0.004647 0.011428 -0.001753 0.000000 0.001390 0.000000
# 3 -0.002968 -0.001753 0.011294 0.000000 0.004062 0.000000
# 4 0.000000 0.000000 0.000000 0.028262 0.000000 0.009307
# 5 -0.000956 0.001390 0.004062 0.000000 0.023799 0.000000
# 6 0.000000 0.000000 0.000000 0.009307 0.000000 0.039770
#
#
# Mechanical properties :
#
#
# Convention : Reuss Voigt Hill
#
# Bulk Modulus (GPa) = 75.29251 84.72365 80.00808
# Shear Modulus (GPa) = 34.01028 37.63071 35.82050
#
# Velocity S-wave (km/s) = 4.14346 4.35842 4.25229
# Velocity P-wave (km/s) = 7.80373 8.25202 8.03100
#
# Compressibility (1/GPa) = 0.01328153
#
# Stress axis : x y z
#
# Youngs Moduli (GPa) = 107.56516 87.50574 88.54354
#
# Poissons Ratio (x) = 0.40663 0.26281
# Poissons Ratio (y) = 0.49984 0.15525
# Poissons Ratio (z) = 0.31926 0.15343
#
# Static dielectric constant tensor:
#      x y z
#    x 3.547200 0.000000 -0.217830 
#    y 0.000000 4.014080 0.000000 
#    z -0.217830 0.000000 4.027960 
# 
# 
# High freq. dielectric constant tensor:
#      x y z
#    x 1.761760 0.000000 -0.014460 
#    y 0.000000 1.763870 0.000000 
#    z -0.014460 0.000000 1.796080 
# 
# From -- ./inp_files/54056.got.cif
#   From: 2010.06.25/outbox.cif.g09.slc.cpg/sg15_28_cif.got.tgz:54056.got - 2010.06.28 07:06:18.
