data_PCOD8138044
_publ_section_title
;
Structure prediction by ZEFSAII (Michael W. Deem and Ramdas Pophale) SiO2 
 PCOD8138044
Probable space group: C 2/C
;
_chemical_formula_sum "Si O2"
_cell_formula_units_Z 52
_cell_length_a 12.278568
_cell_length_b 17.855531
_cell_length_c 13.356749
_cell_angle_alpha 90.000000
_cell_angle_beta 57.970915
_cell_angle_gamma 90.000000
_cell_volume 2482.583710
_symmetry_space_group_name_H-M "C 2/C"
_symmetry_group_IT_number 15
_symmetry_cell_setting 'monoclinic'
loop_
_space_group_symop_operation_xyz
x,y,z
-x,y,1/2-z
-x,-y,-z
x,-y,1/2+z
1/2+x,1/2+y,z
1/2-x,1/2+y,1/2-z
1/2-x,1/2-y,-z
1/2+x,1/2-y,1/2+z
loop_
_atom_site_type_symbol
_atom_site_label
_atom_site_fract_x
_atom_site_fract_y
_atom_site_fract_z
Si Si1 0.000000 0.488418 0.250000
Si Si2 0.681086 0.043329 0.997151
Si Si3 0.034361 0.951590 0.121420
Si Si4 0.289507 0.126778 0.044671
Si Si5 0.923257 0.630230 0.637461
Si Si6 0.552365 0.388005 0.531156
Si Si7 0.384799 0.285349 0.727916
O O1 0.087179 0.540879 0.138204
O O2 0.090515 0.435875 0.274539
O O3 0.818070 0.070550 0.971159
O O4 0.627522 0.102314 0.944135
O O5 0.694791 0.961661 0.938193
O O6 0.000000 0.927733 0.250000
O O7 0.012854 0.039769 0.116436
O O8 0.943223 0.906473 0.089106
O O9 0.193079 0.139779 0.997814
O O10 0.238472 0.171567 0.166393
O O11 0.428377 0.157666 0.944852
O O12 0.842808 0.702064 0.714374
O O13 0.439434 0.328357 0.604317
O O14 0.500000 0.283036 0.750000
#
# Coordination Sequence:
#
# PCOD8138044 Si02
#       7
#     4   8   8   8   8   8   8
#     4  10  20  38  58  88 120 158 202 254 304 352
#     4  10  22  38  62  90 122 157 204 252 296 365
#     4  10  20  37  57  90 118 158 208 245 291 358
#     4   9  19  37  61  88 120 155 197 255 305 352
#     4  11  22  38  59  94 121 156 202 246 310 365
#     4   9  19  34  59  84 117 160 199 252 299 345
#     4  10  20  38  59  91 124 156 197 254 311 354
#
# _framework density 20.945920000000001
#
# number of rings (size 3 to 8) (size 9 to 14) (size 15 to 20)
#    0.000    2.154    0.769    4.154    0.000    9.846 
#    5.538    0.769    1.692    0.000    0.000    0.000 
#    0.000    0.000    0.000    0.000    0.000    0.000 
#
# Total GULP energy -322409.208522 kJ/mol
# GULP energy per Si atom -12400.354174 kJ/mol
# Density = 2.089825 g / cm^3
# Si number density = 20.945920 Si / 1000 Ang^3
#
#
#
# Elastic Constant Matrix: (Units=GPa)
#
#
# Indices 1 2 3 4 5 6 
#
# 1 76.2181 29.6542 34.9134 0.0000 6.2730 0.0000
# 2 29.6542 55.0858 42.2337 0.0000 3.5125 0.0000
# 3 34.9134 42.2337 103.8127 0.0000 14.6298 0.0000
# 4 0.0000 0.0000 0.0000 24.6427 0.0000 9.7383
# 5 6.2730 3.5125 14.6298 0.0000 28.7713 0.0000
# 6 0.0000 0.0000 0.0000 9.7383 0.0000 18.4375
#
#
#
# Elastic Compliance Matrix: (Units=1/GPa)
#
#
# Indices 1 2 3 4 5 6 
#
# 1 0.017250 -0.007130 -0.002686 0.000000 -0.001525 0.000000
# 2 -0.007130 0.029485 -0.010028 0.000000 0.003054 0.000000
# 3 -0.002686 -0.010028 0.015469 0.000000 -0.006056 0.000000
# 4 0.000000 0.000000 0.000000 0.051284 0.000000 -0.027087
# 5 -0.001525 0.003054 -0.006056 0.000000 0.037796 0.000000
# 6 0.000000 0.000000 0.000000 -0.027087 0.000000 0.068544
#
#
# Mechanical properties :
#
#
# Convention : Reuss Voigt Hill
#
# Bulk Modulus (GPa) = 44.41041 49.85769 47.13405
# Shear Modulus (GPa) = 18.72510 22.92465 20.82488
#
# Velocity S-wave (km/s) = 2.99318 3.31186 3.15655
# Velocity P-wave (km/s) = 5.76142 6.20317 5.98637
#
# Compressibility (1/GPa) = 0.02251724
#
# Stress axis : x y z
#
# Youngs Moduli (GPa) = 57.97085 33.91542 64.64493
#
# Poissons Ratio (x) = 0.24180 0.17364
# Poissons Ratio (y) = 0.41331 0.64825
# Poissons Ratio (z) = 0.15571 0.34010
#
# Static dielectric constant tensor:
#      x y z
#    x 3.707060 0.000000 -0.081790 
#    y 0.000000 3.660230 0.000000 
#    z -0.081790 0.000000 3.774750 
# 
# 
# High freq. dielectric constant tensor:
#      x y z
#    x 1.801440 0.000000 -0.004420 
#    y 0.000000 1.796460 0.000000 
#    z -0.004420 0.000000 1.822550 
# 
# From -- ./inp_files/145481.got.cif
#   From: 2010.06.25/outbox.cif.g09.slc.cpg/sg15_73_cif.got.tgz:145481.got - 2010.06.28 07:06:18.
