data_PCOD8138210
_publ_section_title
;
Structure prediction by ZEFSAII (Michael W. Deem and Ramdas Pophale) SiO2 
 PCOD8138210
Probable space group: C 2/C
;
_chemical_formula_sum "Si O2"
_cell_formula_units_Z 64
_cell_length_a 28.122476
_cell_length_b 14.330973
_cell_length_c 9.063159
_cell_angle_alpha 90.000000
_cell_angle_beta 123.109999
_cell_angle_gamma 90.000000
_cell_volume 3059.550553
_symmetry_space_group_name_H-M "C 2/C"
_symmetry_group_IT_number 15
_symmetry_cell_setting 'monoclinic'
loop_
_space_group_symop_operation_xyz
x,y,z
-x,y,1/2-z
-x,-y,-z
x,-y,1/2+z
1/2+x,1/2+y,z
1/2-x,1/2+y,1/2-z
1/2-x,1/2-y,-z
1/2+x,1/2-y,1/2+z
loop_
_atom_site_type_symbol
_atom_site_label
_atom_site_fract_x
_atom_site_fract_y
_atom_site_fract_z
Si Si1 0.562630 0.621821 0.829379
Si Si2 0.669636 0.387420 0.037491
Si Si3 0.868792 0.675536 0.537714
Si Si4 0.043250 0.630029 0.596433
Si Si5 0.389688 0.505992 0.325304
Si Si6 0.117769 0.696776 0.474735
Si Si7 0.784270 0.668721 0.638360
Si Si8 0.583566 0.918363 0.650402
O O1 0.500000 0.661277 0.750000
O O2 0.566175 0.558114 0.689666
O O3 0.576225 0.565689 0.000131
O O4 0.607775 0.704691 0.876805
O O5 0.640315 0.425512 0.840696
O O6 0.651272 0.280133 0.032184
O O7 0.655872 0.443886 0.162413
O O8 0.737180 0.400960 0.124041
O O9 0.932775 0.675682 0.712715
O O10 0.826581 0.626107 0.586041
O O11 0.870594 0.610963 0.395869
O O12 0.065726 0.690398 0.499630
O O13 0.069532 0.526694 0.625320
O O14 0.975488 0.635810 0.478732
O O15 0.178326 0.701720 0.658658
O O16 0.112709 0.610421 0.353592
O O17 0.750000 0.750000 0.500000
#
# Coordination Sequence:
#
# PCOD8138210 Si02
#       8
#     8   8   8   8   8   8   8   8
#     4  11  21  37  60  89 122 154 190 237 297 358
#     4  10  21  42  61  83 115 156 198 250 298 348
#     4  10  20  37  61  84 116 159 201 237 298 368
#     4  10  21  37  57  83 129 165 185 239 307 349
#     4  10  22  39  61  88 118 152 198 247 294 351
#     4  11  22  37  60  87 117 156 204 242 293 362
#     4   9  20  41  60  78 113 155 193 248 313 347
#     4  11  21  36  57  91 123 153 200 246 287 357
#
# _framework density 20.918105000000001
#
# number of rings (size 3 to 8) (size 9 to 14) (size 15 to 20)
#    0.000    1.750    0.000    5.625    0.000    2.000 
#    9.000   13.125    0.000    0.000    0.000    0.000 
#    0.000    0.000    0.000    0.000    0.000    0.000 
#
# Total GULP energy -396669.339504 kJ/mol
# GULP energy per Si atom -12395.916859 kJ/mol
# Density = 2.087049 g / cm^3
# Si number density = 20.918105 Si / 1000 Ang^3
#
#
#
# Elastic Constant Matrix: (Units=GPa)
#
#
# Indices 1 2 3 4 5 6 
#
# 1 90.0813 13.2018 37.5919 0.0000 6.2485 0.0000
# 2 13.2018 60.5488 18.0488 0.0000 -0.2312 0.0000
# 3 37.5919 18.0488 88.8093 0.0000 -0.5446 0.0000
# 4 0.0000 0.0000 0.0000 6.4870 0.0000 3.0974
# 5 6.2485 -0.2312 -0.5446 0.0000 34.9921 0.0000
# 6 0.0000 0.0000 0.0000 3.0974 0.0000 31.0099
#
#
#
# Elastic Compliance Matrix: (Units=1/GPa)
#
#
# Indices 1 2 3 4 5 6 
#
# 1 0.013808 -0.001356 -0.005585 0.000000 -0.002562 0.000000
# 2 -0.001356 0.017714 -0.003024 0.000000 0.000312 0.000000
# 3 -0.005585 -0.003024 0.014246 0.000000 0.001199 0.000000
# 4 0.000000 0.000000 0.000000 0.161874 0.000000 -0.016169
# 5 -0.002562 0.000312 0.001199 0.000000 0.029056 0.000000
# 6 0.000000 0.000000 0.000000 -0.016169 0.000000 0.033863
#
#
# Mechanical properties :
#
#
# Convention : Reuss Voigt Hill
#
# Bulk Modulus (GPa) = 38.70228 41.90274 40.30251
# Shear Modulus (GPa) = 16.71662 25.87093 21.29378
#
# Velocity S-wave (km/s) = 2.82998 3.52059 3.19401
# Velocity P-wave (km/s) = 5.40559 6.04991 5.73680
#
# Compressibility (1/GPa) = 0.02583827
#
# Stress axis : x y z
#
# Youngs Moduli (GPa) = 72.42113 56.45298 70.19444
#
# Poissons Ratio (x) = 0.07653 0.39204
# Poissons Ratio (y) = 0.09818 0.21229
# Poissons Ratio (z) = 0.40447 0.17073
#
# Static dielectric constant tensor:
#      x y z
#    x 4.079270 0.000000 -0.019900 
#    y 0.000000 3.634630 0.000000 
#    z -0.019900 0.000000 3.837800 
# 
# 
# High freq. dielectric constant tensor:
#      x y z
#    x 1.819650 0.000000 -0.007480 
#    y 0.000000 1.811030 0.000000 
#    z -0.007480 0.000000 1.825890 
# 
# From -- ./inp_files/69964.got.cif
#   From: 2010.06.25/outbox.cif.g09.slc.cpg/sg15_35_cif.got.tgz:69964.got - 2010.06.28 07:06:18.
