data_PCOD8138686
_publ_section_title
;
Structure prediction by ZEFSAII (Michael W. Deem and Ramdas Pophale) SiO2 
 PCOD8138686
Probable space group: C 2/C
;
_chemical_formula_sum "Si O2"
_cell_formula_units_Z 56
_cell_length_a 18.806432
_cell_length_b 5.933379
_cell_length_c 27.613810
_cell_angle_alpha 90.000000
_cell_angle_beta 61.151650
_cell_angle_gamma 90.000000
_cell_volume 2698.915414
_symmetry_space_group_name_H-M "C 2/C"
_symmetry_group_IT_number 15
_symmetry_cell_setting 'monoclinic'
loop_
_space_group_symop_operation_xyz
x,y,z
-x,y,1/2-z
-x,-y,-z
x,-y,1/2+z
1/2+x,1/2+y,z
1/2-x,1/2+y,1/2-z
1/2-x,1/2-y,-z
1/2+x,1/2-y,1/2+z
loop_
_atom_site_type_symbol
_atom_site_label
_atom_site_fract_x
_atom_site_fract_y
_atom_site_fract_z
Si Si1 0.437524 0.235491 0.148297
Si Si2 0.814124 0.061786 0.467395
Si Si3 0.334103 0.127369 0.728329
Si Si4 0.198113 0.959583 0.841302
Si Si5 0.926705 0.403108 0.393581
Si Si6 0.018540 0.101102 0.296739
Si Si7 0.736018 0.828657 0.575515
O O1 0.384758 0.387241 0.127573
O O2 0.493871 0.397613 0.161888
O O3 0.376943 0.111335 0.205439
O O4 0.502879 0.057049 0.103391
O O5 0.750000 0.250000 0.500000
O O6 0.902316 0.183906 0.434295
O O7 0.809584 0.886126 0.513701
O O8 0.788207 0.933660 0.425641
O O9 0.313319 0.221460 0.681711
O O10 0.388979 0.317257 0.735062
O O11 0.259458 0.107369 0.789206
O O12 0.232134 0.889842 0.882104
O O13 0.845430 0.534727 0.408407
O O14 0.962544 0.311584 0.331093
O O15 0.000000 0.009092 0.250000
#
# Coordination Sequence:
#
# PCOD8138686 Si02
#       7
#     8   8   8   8   8   8   8
#     4  10  22  37  54  82 123 160 196 246 304 364
#     4   9  20  39  60  91 117 151 199 262 304 363
#     4  10  21  36  55  81 121 158 195 238 288 358
#     4  11  21  38  58  87 120 164 199 243 297 368
#     4  10  20  38  60  87 119 154 195 257 309 357
#     4  10  21  35  56  85 116 154 198 241 296 357
#     4  10  21  37  66  89 116 152 206 251 308 361
#
# _framework density 20.749077
#
# number of rings (size 3 to 8) (size 9 to 14) (size 15 to 20)
#    0.000    2.000    1.429    1.714    0.000    6.857 
#    0.000    0.714    0.000   22.286    0.000    0.000 
#    0.000    0.000    0.000    0.000    0.000    0.000 
#
# Total GULP energy -346882.368793 kJ/mol
# GULP energy per Si atom -12388.656028 kJ/mol
# Density = 2.070185 g / cm^3
# Si number density = 20.749077 Si / 1000 Ang^3
#
#
#
# Elastic Constant Matrix: (Units=GPa)
#
#
# Indices 1 2 3 4 5 6 
#
# 1 101.8779 48.2519 60.1589 -0.0052 1.3489 0.0203
# 2 48.2519 111.7744 39.3505 -0.1359 -1.4937 0.0329
# 3 60.1589 39.3505 79.7323 -0.0501 3.4476 0.0010
# 4 -0.0052 -0.1359 -0.0501 21.0810 -0.0024 -9.8306
# 5 1.3489 -1.4937 3.4476 -0.0024 27.8776 0.0113
# 6 0.0203 0.0329 0.0010 -9.8306 0.0113 31.5747
#
#
#
# Elastic Compliance Matrix: (Units=1/GPa)
#
#
# Indices 1 2 3 4 5 6 
#
# 1 0.018960 -0.003796 -0.012450 -0.000062 0.000419 -0.000027
# 2 -0.003796 0.011631 -0.002927 0.000073 0.001169 0.000013
# 3 -0.012450 -0.002927 0.023486 0.000045 -0.002459 0.000025
# 4 -0.000062 0.000073 0.000045 0.055494 -0.000001 0.017278
# 5 0.000419 0.001169 -0.002459 -0.000001 0.036218 -0.000015
# 6 -0.000027 0.000013 0.000025 0.017278 -0.000015 0.037050
#
#
# Mechanical properties :
#
#
# Convention : Reuss Voigt Hill
#
# Bulk Modulus (GPa) = 63.56531 65.43413 64.49972
# Shear Modulus (GPa) = 22.08202 25.81490 23.94846
#
# Velocity S-wave (km/s) = 3.26581 3.53107 3.40103
# Velocity P-wave (km/s) = 6.70242 6.94471 6.82464
#
# Compressibility (1/GPa) = 0.01573185
#
# Stress axis : x y z
#
# Youngs Moduli (GPa) = 52.74320 85.97397 42.57777
#
# Poissons Ratio (x) = 0.32637 0.53009
# Poissons Ratio (y) = 0.20022 0.12461
# Poissons Ratio (z) = 0.65665 0.25162
#
# Static dielectric constant tensor:
#      x y z
#    x 3.893850 0.000020 -0.384170 
#    y 0.000020 4.223270 -0.000240 
#    z -0.384170 -0.000240 3.758680 
# 
# 
# High freq. dielectric constant tensor:
#      x y z
#    x 1.802760 -0.000010 -0.028350 
#    y -0.000010 1.833980 -0.000010 
#    z -0.028350 -0.000010 1.781100 
# 
# From -- ./inp_files/278920.got.cif
#   From: 2010.06.25/outbox.cif.g09.slc.cpg/sg15_140_cif.got.tgz:278920.got - 2010.06.28 07:06:18.
