data_PCOD8138355
_publ_section_title
;
Structure prediction by ZEFSAII (Michael W. Deem and Ramdas Pophale) SiO2 
 PCOD8138355
Probable space group: C 2/C
;
_chemical_formula_sum "Si O2"
_cell_formula_units_Z 36
_cell_length_a 21.734476
_cell_length_b 6.882483
_cell_length_c 17.073355
_cell_angle_alpha 90.000000
_cell_angle_beta 39.008017
_cell_angle_gamma 90.000000
_cell_volume 1607.533482
_symmetry_space_group_name_H-M "C 2/C"
_symmetry_group_IT_number 15
_symmetry_cell_setting 'monoclinic'
loop_
_space_group_symop_operation_xyz
x,y,z
-x,y,1/2-z
-x,-y,-z
x,-y,1/2+z
1/2+x,1/2+y,z
1/2-x,1/2+y,1/2-z
1/2-x,1/2-y,-z
1/2+x,1/2-y,1/2+z
loop_
_atom_site_type_symbol
_atom_site_label
_atom_site_fract_x
_atom_site_fract_y
_atom_site_fract_z
Si Si1 0.035846 0.997220 0.090284
Si Si2 0.500000 0.792832 0.750000
Si Si3 0.863789 0.527509 0.618184
Si Si4 0.519641 0.918215 0.354278
Si Si5 0.359816 0.588549 0.663061
O O1 0.034825 0.221928 0.121320
O O2 0.109634 0.957992 0.943566
O O3 0.065921 0.853061 0.131539
O O4 0.923661 0.959433 0.175793
O O5 0.437178 0.945214 0.758260
O O6 0.938980 0.566923 0.472814
O O7 0.753255 0.566530 0.703484
O O8 0.883884 0.304362 0.615633
O O9 0.895288 0.641167 0.666978
#
# Coordination Sequence:
#
# PCOD8138355 Si02
#       5
#     8   4   8   8   8
#     4  10  22  39  60  89 121 156 201 245 296 358
#     4  12  22  40  62  90 128 160 190 248 314 358
#     4  10  20  37  63  90 117 156 204 249 290 352
#     4  10  22  39  60  89 121 156 201 245 296 358
#     4  10  20  37  63  90 117 156 204 249 290 352
#
# _framework density 22.394556000000001
#
# number of rings (size 3 to 8) (size 9 to 14) (size 15 to 20)
#    0.000    1.778    2.222    2.000    6.222    0.000 
#    0.000    4.444    0.000    8.000    0.000    0.000 
#    0.000    0.000    0.000    0.000    0.000    0.000 
#
# Total GULP energy -223017.907467 kJ/mol
# GULP energy per Si atom -12389.883748 kJ/mol
# Density = 2.234359 g / cm^3
# Si number density = 22.394556 Si / 1000 Ang^3
#
#
#
# Elastic Constant Matrix: (Units=GPa)
#
#
# Indices 1 2 3 4 5 6 
#
# 1 80.1330 29.6581 47.8528 0.0016 8.9101 -0.0040
# 2 29.6581 46.6714 4.7907 0.0087 22.4497 -0.0055
# 3 47.8528 4.7907 89.3432 -0.0157 -16.4657 -0.0038
# 4 0.0016 0.0087 -0.0157 30.0918 0.0063 12.6104
# 5 8.9101 22.4497 -16.4657 0.0063 39.3014 0.0080
# 6 -0.0040 -0.0055 -0.0038 12.6104 0.0080 38.9372
#
#
#
# Elastic Compliance Matrix: (Units=1/GPa)
#
#
# Indices 1 2 3 4 5 6 
#
# 1 0.026315 -0.013145 -0.014202 -0.000005 -0.004408 0.000002
# 2 -0.013145 0.038410 0.001611 -0.000011 -0.018285 0.000011
# 3 -0.014202 0.001611 0.020738 0.000011 0.010988 -0.000005
# 4 -0.000005 -0.000011 0.000011 0.038450 0.000008 -0.012453
# 5 -0.004408 -0.018285 0.010988 0.000008 0.041492 -0.000013
# 6 0.000002 0.000011 -0.000005 -0.012453 -0.000013 0.029715
#
#
# Mechanical properties :
#
#
# Convention : Reuss Voigt Hill
#
# Bulk Modulus (GPa) = 29.41925 42.30564 35.86245
# Shear Modulus (GPa) = 19.38563 30.58915 24.98739
#
# Velocity S-wave (km/s) = 2.94537 3.69984 3.34395
# Velocity P-wave (km/s) = 4.97315 6.09786 5.56399
#
# Compressibility (1/GPa) = 0.03399135
#
# Stress axis : x y z
#
# Youngs Moduli (GPa) = 38.00070 26.03517 48.22007
#
# Poissons Ratio (x) = 0.34222 0.68483
# Poissons Ratio (y) = 0.49950 -0.07767
# Poissons Ratio (z) = 0.53969 -0.04194
#
# Static dielectric constant tensor:
#      x y z
#    x 3.812450 0.000000 0.255490 
#    y 0.000000 4.414840 0.000020 
#    z 0.255490 0.000020 4.314950 
# 
# 
# High freq. dielectric constant tensor:
#      x y z
#    x 1.850080 0.000000 0.020870 
#    y 0.000000 1.925710 0.000000 
#    z 0.020870 0.000000 1.840060 
# 
# From -- ./inp_files/158488.got.cif
#   From: 2010.06.25/outbox.cif.g09.slc.cpg/sg15_80_cif.got.tgz:158488.got - 2010.06.28 07:06:18.
