data_PCOD8138279
_publ_section_title
;
Structure prediction by ZEFSAII (Michael W. Deem and Ramdas Pophale) SiO2 
 PCOD8138279
Probable space group: C 2/C
;
_chemical_formula_sum "Si O2"
_cell_formula_units_Z 56
_cell_length_a 16.754975
_cell_length_b 14.976656
_cell_length_c 16.701965
_cell_angle_alpha 90.000000
_cell_angle_beta 42.294219
_cell_angle_gamma 90.000000
_cell_volume 2820.338174
_symmetry_space_group_name_H-M "C 2/C"
_symmetry_group_IT_number 15
_symmetry_cell_setting 'monoclinic'
loop_
_space_group_symop_operation_xyz
x,y,z
-x,y,1/2-z
-x,-y,-z
x,-y,1/2+z
1/2+x,1/2+y,z
1/2-x,1/2+y,1/2-z
1/2-x,1/2-y,-z
1/2+x,1/2-y,1/2+z
loop_
_atom_site_type_symbol
_atom_site_label
_atom_site_fract_x
_atom_site_fract_y
_atom_site_fract_z
Si Si1 0.154625 0.528915 0.469658
Si Si2 0.000306 0.377331 0.530547
Si Si3 0.096776 0.197408 0.858482
Si Si4 0.770862 0.346939 0.448780
Si Si5 0.984405 0.876058 0.918037
Si Si6 0.088729 0.964169 0.256487
Si Si7 0.359079 0.794879 0.215856
O O1 0.058559 0.448789 0.547559
O O2 0.150405 0.592971 0.550044
O O3 0.281186 0.484214 0.370313
O O4 0.124371 0.585856 0.412125
O O5 0.081708 0.361959 0.391440
O O6 0.980674 0.286943 0.595092
O O7 0.086431 0.138299 0.786892
O O8 0.229551 0.229793 0.778516
O O9 0.041012 0.137755 0.970039
O O10 0.750000 0.250000 0.500000
O O11 0.639600 0.387004 0.536411
O O12 0.844072 0.344218 0.311900
O O13 0.062143 0.793168 0.827568
O O14 0.056447 0.967314 0.851663
O O15 0.000000 0.977418 0.250000
#
# Coordination Sequence:
#
# PCOD8138279 Si02
#       7
#     8   8   8   8   8   8   8
#     4  11  22  39  62  91 124 158 199 254 310 364
#     4  10  22  41  64  85 120 166 204 251 299 360
#     4  10  21  39  61  85 119 163 210 242 296 368
#     4  11  21  34  58  94 128 153 193 249 315 365
#     4  10  21  35  59  90 117 155 199 253 300 359
#     4  12  22  38  62  87 123 162 200 253 302 356
#     4  10  20  37  62  89 120 161 199 250 312 366
#
# _framework density 19.855775000000001
#
# number of rings (size 3 to 8) (size 9 to 14) (size 15 to 20)
#    0.000    1.429    2.857    4.714    0.000    1.714 
#    0.000    0.714    6.286    0.000    0.000    0.000 
#    0.000    0.000    0.000    0.000    0.000    0.000 
#
# Total GULP energy -347199.374175 kJ/mol
# GULP energy per Si atom -12399.977649 kJ/mol
# Density = 1.981058 g / cm^3
# Si number density = 19.855775 Si / 1000 Ang^3
#
#
#
# Elastic Constant Matrix: (Units=GPa)
#
#
# Indices 1 2 3 4 5 6 
#
# 1 78.9586 48.8716 34.2903 0.0000 -8.8677 0.0000
# 2 48.8716 124.0732 37.3772 0.0000 6.6598 0.0000
# 3 34.2903 37.3772 74.8067 0.0000 -3.7708 0.0000
# 4 0.0000 0.0000 0.0000 29.0382 0.0000 1.7401
# 5 -8.8677 6.6598 -3.7708 0.0000 19.3779 0.0000
# 6 0.0000 0.0000 0.0000 1.7401 0.0000 34.8286
#
#
#
# Elastic Compliance Matrix: (Units=1/GPa)
#
#
# Indices 1 2 3 4 5 6 
#
# 1 0.020583 -0.007074 -0.005355 0.000000 0.010809 0.000000
# 2 -0.007074 0.012275 -0.003298 0.000000 -0.008098 0.000000
# 3 -0.005355 -0.003298 0.017577 0.000000 0.002103 0.000000
# 4 0.000000 0.000000 0.000000 0.034541 0.000000 -0.001726
# 5 0.010809 -0.008098 0.002103 0.000000 0.059744 0.000000
# 6 0.000000 0.000000 0.000000 -0.001726 0.000000 0.028798
#
#
# Mechanical properties :
#
#
# Convention : Reuss Voigt Hill
#
# Bulk Modulus (GPa) = 52.69260 57.65739 55.17499
# Shear Modulus (GPa) = 23.66300 27.13555 25.39927
#
# Velocity S-wave (km/s) = 3.45591 3.70081 3.58045
# Velocity P-wave (km/s) = 6.52071 6.88204 6.70381
#
# Compressibility (1/GPa) = 0.01897800
#
# Stress axis : x y z
#
# Youngs Moduli (GPa) = 48.58309 81.46872 56.89340
#
# Poissons Ratio (x) = 0.57635 0.30469
# Poissons Ratio (y) = 0.34370 0.18766
# Poissons Ratio (z) = 0.26019 0.26872
#
# Static dielectric constant tensor:
#      x y z
#    x 3.683890 0.000000 -0.250820 
#    y 0.000000 3.638560 0.000000 
#    z -0.250820 0.000000 3.645330 
# 
# 
# High freq. dielectric constant tensor:
#      x y z
#    x 1.765960 0.000000 -0.020420 
#    y 0.000000 1.776830 0.000000 
#    z -0.020420 0.000000 1.770470 
# 
# From -- ./inp_files/105410.got.cif
#   From: 2010.06.25/outbox.cif.g09.slc.cpg/sg15_53_cif.got.tgz:105410.got - 2010.06.28 07:06:18.
