data_PCOD8138583
_publ_section_title
;
Structure prediction by ZEFSAII (Michael W. Deem and Ramdas Pophale) SiO2 
 PCOD8138583
Probable space group: C 2/C
;
_chemical_formula_sum "Si O2"
_cell_formula_units_Z 48
_cell_length_a 15.821537
_cell_length_b 29.176116
_cell_length_c 9.310222
_cell_angle_alpha 90.000000
_cell_angle_beta 35.280377
_cell_angle_gamma 90.000000
_cell_volume 2482.257798
_symmetry_space_group_name_H-M "C 2/C"
_symmetry_group_IT_number 15
_symmetry_cell_setting 'monoclinic'
loop_
_space_group_symop_operation_xyz
x,y,z
-x,y,1/2-z
-x,-y,-z
x,-y,1/2+z
1/2+x,1/2+y,z
1/2-x,1/2+y,1/2-z
1/2-x,1/2-y,-z
1/2+x,1/2-y,1/2+z
loop_
_atom_site_type_symbol
_atom_site_label
_atom_site_fract_x
_atom_site_fract_y
_atom_site_fract_z
Si Si1 0.303304 0.787728 0.137451
Si Si2 0.643902 0.871034 0.971455
Si Si3 0.151640 0.524973 0.470222
Si Si4 0.336616 0.363878 0.975498
Si Si5 0.373247 0.792662 0.717311
Si Si6 0.333788 0.468236 0.991838
O O1 0.252766 0.832027 0.293793
O O2 0.199639 0.743165 0.294337
O O3 0.296967 0.798206 0.976976
O O4 0.461493 0.776178 0.983460
O O5 0.623601 0.923719 0.950725
O O6 0.653976 0.842414 0.812159
O O7 0.500000 0.853145 0.250000
O O8 0.779192 0.862915 0.891434
O O9 0.216249 0.494390 0.253301
O O10 0.279591 0.526687 0.406731
O O11 0.000000 0.505399 0.750000
O O12 0.332325 0.415439 0.044614
O O13 0.500000 0.344679 0.750000
O O14 0.500000 0.487836 0.750000
#
# Coordination Sequence:
#
# PCOD8138583 Si02
#       6
#     8   8   8   8   8   8
#     4  10  22  40  58  84 115 148 187 234 285 339
#     4  10  20  38  58  84 117 148 190 238 283 332
#     4  10  21  37  60  87 117 150 194 243 285 338
#     4  10  22  38  57  85 117 151 190 235 281 337
#     4  10  22  39  60  83 115 148 187 235 284 340
#     4  10  21  39  59  84 120 155 192 237 288 343
#
# _framework density 19.337233000000001
#
# number of rings (size 3 to 8) (size 9 to 14) (size 15 to 20)
#    0.000    2.000    1.667    1.000    2.333    2.667 
#    3.000    0.000    0.000    0.000    0.000    0.000 
#    0.000    0.000    0.000    0.000    0.000    0.000 
#
# Total GULP energy -297494.638696 kJ/mol
# GULP energy per Si atom -12395.609946 kJ/mol
# Density = 1.929322 g / cm^3
# Si number density = 19.337233 Si / 1000 Ang^3
#
#
#
# Elastic Constant Matrix: (Units=GPa)
#
#
# Indices 1 2 3 4 5 6 
#
# 1 78.1586 23.6587 20.6686 0.0000 -11.5862 0.0000
# 2 23.6587 80.9286 38.2015 0.0000 11.7596 0.0000
# 3 20.6686 38.2015 81.5732 0.0000 -9.6886 0.0000
# 4 0.0000 0.0000 0.0000 31.6087 0.0000 -0.7115
# 5 -11.5862 11.7596 -9.6886 0.0000 30.6355 0.0000
# 6 0.0000 0.0000 0.0000 -0.7115 0.0000 26.0352
#
#
#
# Elastic Compliance Matrix: (Units=1/GPa)
#
#
# Indices 1 2 3 4 5 6 
#
# 1 0.015774 -0.005555 -0.000451 0.000000 0.007956 0.000000
# 2 -0.005555 0.020464 -0.009724 0.000000 -0.013031 0.000000
# 3 -0.000451 -0.009724 0.018027 0.000000 0.009263 0.000000
# 4 0.000000 0.000000 0.000000 0.031656 0.000000 0.000865
# 5 0.007956 -0.013031 0.009263 0.000000 0.043582 0.000000
# 6 0.000000 0.000000 0.000000 0.000865 0.000000 0.038433
#
#
# Mechanical properties :
#
#
# Convention : Reuss Voigt Hill
#
# Bulk Modulus (GPa) = 43.84589 45.07976 44.46282
# Shear Modulus (GPa) = 24.15484 28.19799 26.17641
#
# Velocity S-wave (km/s) = 3.53815 3.82281 3.68323
# Velocity P-wave (km/s) = 6.27813 6.54585 6.41339
#
# Compressibility (1/GPa) = 0.02280715
#
# Stress axis : x y z
#
# Youngs Moduli (GPa) = 63.39373 48.86632 55.47228
#
# Poissons Ratio (x) = 0.27144 0.02499
# Poissons Ratio (y) = 0.35214 0.53940
# Poissons Ratio (z) = 0.02856 0.47516
#
# Static dielectric constant tensor:
#      x y z
#    x 3.665400 0.000000 -0.234560 
#    y 0.000000 3.559470 0.000000 
#    z -0.234560 0.000000 3.545920 
# 
# 
# High freq. dielectric constant tensor:
#      x y z
#    x 1.766720 0.000000 -0.014690 
#    y 0.000000 1.747570 0.000000 
#    z -0.014690 0.000000 1.746660 
# 
# From -- ./inp_files/33380.got.cif
#   From: 2010.06.25/outbox.cif.g09.slc.cpg/sg15_17_cif.got.tgz:33380.got - 2010.06.28 07:06:18.
