data_PCOD8138113
_publ_section_title
;
Structure prediction by ZEFSAII (Michael W. Deem and Ramdas Pophale) SiO2 
 PCOD8138113
Probable space group: C 2/C
;
_chemical_formula_sum "Si O2"
_cell_formula_units_Z 64
_cell_length_a 7.882242
_cell_length_b 14.933120
_cell_length_c 26.269907
_cell_angle_alpha 90.000000
_cell_angle_beta 100.240097
_cell_angle_gamma 90.000000
_cell_volume 3042.884598
_symmetry_space_group_name_H-M "C 2/C"
_symmetry_group_IT_number 15
_symmetry_cell_setting 'monoclinic'
loop_
_space_group_symop_operation_xyz
x,y,z
-x,y,1/2-z
-x,-y,-z
x,-y,1/2+z
1/2+x,1/2+y,z
1/2-x,1/2+y,1/2-z
1/2-x,1/2-y,-z
1/2+x,1/2-y,1/2+z
loop_
_atom_site_type_symbol
_atom_site_label
_atom_site_fract_x
_atom_site_fract_y
_atom_site_fract_z
Si Si1 0.199408 0.607425 0.003835
Si Si2 0.177526 0.672459 0.109275
Si Si3 0.536975 0.351764 0.070990
Si Si4 0.322284 0.743414 0.213579
Si Si5 0.828088 0.585396 0.957681
Si Si6 0.773316 0.070228 0.831079
Si Si7 0.697258 0.937386 0.746920
Si Si8 0.584515 0.990957 0.143008
O O1 0.328861 0.639682 0.967822
O O2 0.002266 0.639516 0.981550
O O3 0.266770 0.649438 0.060263
O O4 0.191933 0.500421 0.006815
O O5 0.050233 0.755554 0.097404
O O6 0.329487 0.697549 0.157736
O O7 0.051427 0.592191 0.120753
O O8 0.343019 0.358129 0.040304
O O9 0.582517 0.425615 0.116946
O O10 0.500000 0.766200 0.250000
O O11 0.224958 0.838626 0.202976
O O12 0.234391 0.668537 0.245175
O O13 0.828967 0.564892 0.897500
O O14 0.812890 0.984834 0.796859
O O15 0.588987 0.058777 0.849174
O O16 0.500000 0.949525 0.750000
O O17 0.722079 0.995338 0.696367
#
# Coordination Sequence:
#
# PCOD8138113 Si02
#       8
#     8   8   8   8   8   8   8   8
#     4  10  20  39  59  83 128 159 195 254 310 347
#     4   9  21  36  59  83 121 159 193 256 300 359
#     4  11  21  37  61  92 119 153 214 246 298 364
#     4  10  20  37  59  87 116 152 200 246 301 366
#     4  10  21  35  61  88 114 160 204 247 296 364
#     4  10  20  37  61  84 117 165 195 247 309 364
#     4   9  19  35  58  81 116 156 194 245 305 362
#     4   9  17  38  57  79 117 160 196 241 313 354
#
# _framework density 21.032675000000001
#
# number of rings (size 3 to 8) (size 9 to 14) (size 15 to 20)
#    0.000    2.250    1.250    1.875    0.000    3.500 
#    0.000   10.625    2.750    0.000    0.000    0.000 
#    0.000    0.000    0.000    0.000    0.000    0.000 
#
# Total GULP energy -396487.015288 kJ/mol
# GULP energy per Si atom -12390.219228 kJ/mol
# Density = 2.098480 g / cm^3
# Si number density = 21.032675 Si / 1000 Ang^3
#
#
#
# Elastic Constant Matrix: (Units=GPa)
#
#
# Indices 1 2 3 4 5 6 
#
# 1 79.4294 18.6468 36.3324 0.0000 9.2698 0.0000
# 2 18.6468 81.6914 37.6676 0.0000 -9.0102 0.0000
# 3 36.3324 37.6676 106.0217 0.0000 4.2533 0.0000
# 4 0.0000 0.0000 0.0000 32.2088 0.0000 -0.0199
# 5 9.2698 -9.0102 4.2533 0.0000 21.5325 0.0000
# 6 0.0000 0.0000 0.0000 -0.0199 0.0000 17.6341
#
#
#
# Elastic Compliance Matrix: (Units=1/GPa)
#
#
# Indices 1 2 3 4 5 6 
#
# 1 0.015958 -0.002423 -0.004326 0.000000 -0.007029 0.000000
# 2 -0.002423 0.016209 -0.005284 0.000000 0.008870 0.000000
# 3 -0.004326 -0.005284 0.012908 0.000000 -0.002899 0.000000
# 4 0.000000 0.000000 0.000000 0.031047 0.000000 0.000035
# 5 -0.007029 0.008870 -0.002899 0.000000 0.053752 0.000000
# 6 0.000000 0.000000 0.000000 0.000035 0.000000 0.056708
#
#
# Mechanical properties :
#
#
# Convention : Reuss Voigt Hill
#
# Bulk Modulus (GPa) = 47.59931 50.27067 48.93499
# Shear Modulus (GPa) = 22.97254 25.90813 24.44034
#
# Velocity S-wave (km/s) = 3.30848 3.51351 3.41254
# Velocity P-wave (km/s) = 6.10532 6.35711 6.23249
#
# Compressibility (1/GPa) = 0.02100871
#
# Stress axis : x y z
#
# Youngs Moduli (GPa) = 62.66591 61.69364 77.47121
#
# Poissons Ratio (x) = 0.14950 0.33511
# Poissons Ratio (y) = 0.15186 0.40937
# Poissons Ratio (z) = 0.27106 0.32600
#
# Static dielectric constant tensor:
#      x y z
#    x 3.387020 0.000000 0.076130 
#    y 0.000000 3.878270 0.000000 
#    z 0.076130 0.000000 4.321000 
# 
# 
# High freq. dielectric constant tensor:
#      x y z
#    x 1.781100 0.000000 0.004790 
#    y 0.000000 1.822970 0.000000 
#    z 0.004790 0.000000 1.845550 
# 
# From -- ./inp_files/288791.got.cif
#   From: 2010.06.25/outbox.cif.g09.slc.cpg/sg15_145_cif.got.tgz:288791.got - 2010.06.28 07:06:18.
