data_PCOD8138565
_publ_section_title
;
Structure prediction by ZEFSAII (Michael W. Deem and Ramdas Pophale) SiO2 
 PCOD8138565
Probable space group: C 2/C
;
_chemical_formula_sum "Si O2"
_cell_formula_units_Z 60
_cell_length_a 8.807531
_cell_length_b 10.954187
_cell_length_c 26.219278
_cell_angle_alpha 90.000000
_cell_angle_beta 87.943527
_cell_angle_gamma 90.000000
_cell_volume 2527.989460
_symmetry_space_group_name_H-M "C 2/C"
_symmetry_group_IT_number 15
_symmetry_cell_setting 'monoclinic'
loop_
_space_group_symop_operation_xyz
x,y,z
-x,y,1/2-z
-x,-y,-z
x,-y,1/2+z
1/2+x,1/2+y,z
1/2-x,1/2+y,1/2-z
1/2-x,1/2-y,-z
1/2+x,1/2-y,1/2+z
loop_
_atom_site_type_symbol
_atom_site_label
_atom_site_fract_x
_atom_site_fract_y
_atom_site_fract_z
Si Si1 0.681010 0.012213 0.053012
Si Si2 0.408799 0.367369 0.868936
Si Si3 0.290372 0.251737 0.594588
Si Si4 0.832921 0.518877 0.062282
Si Si5 0.000000 0.543927 0.750000
Si Si6 0.738229 0.765556 0.218331
Si Si7 0.848344 0.634595 0.312879
Si Si8 0.632043 0.440444 0.357476
O O1 0.756590 0.147081 0.051533
O O2 0.509133 0.026838 0.075422
O O3 0.771684 0.924126 0.091260
O O4 0.688460 0.952245 0.997396
O O5 0.535667 0.273908 0.889024
O O6 0.258314 0.375825 0.906169
O O7 0.372977 0.322841 0.811995
O O8 0.462814 0.509818 0.868981
O O9 0.272116 0.117374 0.573177
O O10 0.157516 0.270063 0.640043
O O11 0.851773 0.628680 0.750331
O O12 0.991787 0.459122 0.802255
O O13 0.835897 0.695953 0.258120
O O14 0.861012 0.817960 0.176049
O O15 0.701225 0.551824 0.324074
#
# Coordination Sequence:
#
# PCOD8138565 Si02
#       8
#     8   8   8   8   4   8   8   8
#     4   9  21  41  61  88 120 153 201 245 301 362
#     4  10  23  37  58  89 115 151 200 237 290 359
#     4  10  22  41  58  86 124 153 192 250 301 347
#     4  11  22  39  65  88 115 157 198 250 298 352
#     4  10  20  38  58  78 118 160 188 240 290 334
#     4  11  21  37  59  83 117 158 193 238 294 342
#     4   9  21  35  57  86 111 152 200 231 286 358
#     4   9  21  39  57  85 122 151 191 249 290 345
#
# _framework density 23.734273999999999
#
# number of rings (size 3 to 8) (size 9 to 14) (size 15 to 20)
#    0.000    2.400    0.000    2.800    0.000   12.800 
#    0.000    6.000    0.000    0.000    0.000    0.000 
#    0.000    0.000    0.000    0.000    0.000    0.000 
#
# Total GULP energy -371674.161854 kJ/mol
# GULP energy per Si atom -12389.138728 kJ/mol
# Density = 2.368025 g / cm^3
# Si number density = 23.734274 Si / 1000 Ang^3
#
#
#
# Elastic Constant Matrix: (Units=GPa)
#
#
# Indices 1 2 3 4 5 6 
#
# 1 68.1935 2.8033 25.1104 0.0000 -19.7296 0.0000
# 2 2.8033 39.6482 25.5801 0.0000 -2.7331 0.0000
# 3 25.1104 25.5801 102.4645 0.0000 -4.5271 0.0000
# 4 0.0000 0.0000 0.0000 21.8448 0.0000 -8.6065
# 5 -19.7296 -2.7331 -4.5271 0.0000 30.6903 0.0000
# 6 0.0000 0.0000 0.0000 -8.6065 0.0000 21.1669
#
#
#
# Elastic Compliance Matrix: (Units=1/GPa)
#
#
# Indices 1 2 3 4 5 6 
#
# 1 0.019971 0.002675 -0.005017 0.000000 0.012337 0.000000
# 2 0.002675 0.030499 -0.008127 0.000000 0.003237 0.000000
# 3 -0.005017 -0.008127 0.012928 0.000000 -0.002042 0.000000
# 4 0.000000 0.000000 0.000000 0.054510 0.000000 0.022164
# 5 0.012337 0.003237 -0.002042 0.000000 0.040501 0.000000
# 6 0.000000 0.000000 0.000000 0.022164 0.000000 0.056256
#
#
# Mechanical properties :
#
#
# Convention : Reuss Voigt Hill
#
# Bulk Modulus (GPa) = 23.55128 35.25485 29.40306
# Shear Modulus (GPa) = 20.01970 25.19454 22.60712
#
# Velocity S-wave (km/s) = 2.90745 3.26164 3.08962
# Velocity P-wave (km/s) = 4.60602 5.39172 5.01428
#
# Compressibility (1/GPa) = 0.04246054
#
# Stress axis : x y z
#
# Youngs Moduli (GPa) = 50.07337 32.78803 77.35441
#
# Poissons Ratio (x) = -0.08771 0.38808
# Poissons Ratio (y) = -0.13395 0.62863
# Poissons Ratio (z) = 0.25121 0.26645
#
# Static dielectric constant tensor:
#      x y z
#    x 4.243750 0.000000 -0.379160 
#    y 0.000000 4.201790 0.000000 
#    z -0.379160 0.000000 4.266670 
# 
# 
# High freq. dielectric constant tensor:
#      x y z
#    x 1.934160 0.000000 -0.019500 
#    y 0.000000 1.936750 0.000000 
#    z -0.019500 0.000000 1.933600 
# 
# From -- ./inp_files/288021.got.cif
#   From: 2010.06.25/outbox.cif.g09.slc.cpg/sg15_145_cif.got.tgz:288021.got - 2010.06.28 07:06:18.
