data_PCOD8138250
_publ_section_title
;
Structure prediction by ZEFSAII (Michael W. Deem and Ramdas Pophale) SiO2 
 PCOD8138250
Probable space group: C 2/C
;
_chemical_formula_sum "Si O2"
_cell_formula_units_Z 32
_cell_length_a 10.004083
_cell_length_b 14.476497
_cell_length_c 9.299533
_cell_angle_alpha 90.000000
_cell_angle_beta 92.468520
_cell_angle_gamma 90.000000
_cell_volume 1345.546511
_symmetry_space_group_name_H-M "C 2/C"
_symmetry_group_IT_number 15
_symmetry_cell_setting 'monoclinic'
loop_
_space_group_symop_operation_xyz
x,y,z
-x,y,1/2-z
-x,-y,-z
x,-y,1/2+z
1/2+x,1/2+y,z
1/2-x,1/2+y,1/2-z
1/2-x,1/2-y,-z
1/2+x,1/2-y,1/2+z
loop_
_atom_site_type_symbol
_atom_site_label
_atom_site_fract_x
_atom_site_fract_y
_atom_site_fract_z
Si Si1 0.903476 0.538444 0.617862
Si Si2 0.130830 0.739992 0.851496
Si Si3 0.765723 0.643795 0.120030
Si Si4 0.464122 0.706561 0.586831
O O1 0.826677 0.636674 0.594472
O O2 0.790801 0.463214 0.655524
O O3 0.000000 0.559322 0.750000
O O4 0.000000 0.500000 0.500000
O O5 0.239545 0.796135 0.763583
O O6 0.000000 0.739792 0.750000
O O7 0.100095 0.795579 0.998593
O O8 0.904786 0.688856 0.070810
O O9 0.651511 0.643373 0.991314
O O10 0.500000 0.673645 0.750000
#
# Coordination Sequence:
#
# PCOD8138250 Si02
#       4
#     8   8   8   8
#     4  11  22  40  65 100 127 160 215 275 310 380
#     4   9  20  38  63  95 128 164 210 263 321 379
#     4  10  21  38  64  94 133 169 207 268 325 367
#     4  10  20  37  61  95 128 168 215 256 315 385
#
# _framework density 23.782156000000001
#
# number of rings (size 3 to 8) (size 9 to 14) (size 15 to 20)
#    0.000    2.000    2.500    0.750    3.500    1.000 
#    0.000    0.000    0.000   12.000    0.000    0.000 
#    0.000    0.000    0.000    0.000    0.000    0.000 
#
# Total GULP energy -198212.610129 kJ/mol
# GULP energy per Si atom -12388.288133 kJ/mol
# Density = 2.372803 g / cm^3
# Si number density = 23.782156 Si / 1000 Ang^3
#
#
#
# Elastic Constant Matrix: (Units=GPa)
#
#
# Indices 1 2 3 4 5 6 
#
# 1 52.1549 56.0146 31.9188 0.0000 -10.8515 0.0000
# 2 56.0146 89.8185 31.9851 0.0000 -11.5131 0.0000
# 3 31.9188 31.9851 149.0344 0.0000 -9.1236 0.0000
# 4 0.0000 0.0000 0.0000 7.2200 0.0000 -6.7085
# 5 -10.8515 -11.5131 -9.1236 0.0000 41.2176 0.0000
# 6 0.0000 0.0000 0.0000 -6.7085 0.0000 26.8793
#
#
#
# Elastic Compliance Matrix: (Units=1/GPa)
#
#
# Indices 1 2 3 4 5 6 
#
# 1 0.062829 -0.036645 -0.005277 0.000000 0.005137 0.000000
# 2 -0.036645 0.033764 0.000597 0.000000 -0.000085 0.000000
# 3 -0.005277 0.000597 0.007742 0.000000 0.000491 0.000000
# 4 0.000000 0.000000 0.000000 0.180321 0.000000 0.045004
# 5 0.005137 -0.000085 0.000491 0.000000 0.025699 0.000000
# 6 0.000000 0.000000 0.000000 0.045004 0.000000 0.048435
#
#
# Mechanical properties :
#
#
# Convention : Reuss Voigt Hill
#
# Bulk Modulus (GPa) = 46.11653 58.98276 52.54965
# Shear Modulus (GPa) = 11.14407 26.46933 18.80670
#
# Velocity S-wave (km/s) = 2.16704 3.33977 2.81515
# Velocity P-wave (km/s) = 5.06900 6.30295 5.71935
#
# Compressibility (1/GPa) = 0.02168420
#
# Stress axis : x y z
#
# Youngs Moduli (GPa) = 15.91614 29.61757 129.16555
#
# Poissons Ratio (x) = 1.08535 0.68161
# Poissons Ratio (y) = 0.58325 -0.07711
# Poissons Ratio (z) = 0.08399 -0.01768
#
# Static dielectric constant tensor:
#      x y z
#    x 4.216690 0.000000 -0.205220 
#    y 0.000000 4.264830 0.000000 
#    z -0.205220 0.000000 4.881570 
# 
# 
# High freq. dielectric constant tensor:
#      x y z
#    x 1.940390 0.000000 0.002380 
#    y 0.000000 1.916040 0.000000 
#    z 0.002380 0.000000 1.960720 
# 
# From -- ./inp_files/27643.got.cif
#   From: 2010.06.25/outbox.cif.g09.slc.cpg/sg15_14_cif.got.tgz:27643.got - 2010.06.28 07:06:18.
