data_PCOD8138258
_publ_section_title
;
Structure prediction by ZEFSAII (Michael W. Deem and Ramdas Pophale) SiO2 
 PCOD8138258
Probable space group: C 2/C
;
_chemical_formula_sum "Si O2"
_cell_formula_units_Z 48
_cell_length_a 9.222015
_cell_length_b 14.941359
_cell_length_c 19.741590
_cell_angle_alpha 90.000000
_cell_angle_beta 65.489911
_cell_angle_gamma 90.000000
_cell_volume 2475.062116
_symmetry_space_group_name_H-M "C 2/C"
_symmetry_group_IT_number 15
_symmetry_cell_setting 'monoclinic'
loop_
_space_group_symop_operation_xyz
x,y,z
-x,y,1/2-z
-x,-y,-z
x,-y,1/2+z
1/2+x,1/2+y,z
1/2-x,1/2+y,1/2-z
1/2-x,1/2-y,-z
1/2+x,1/2-y,1/2+z
loop_
_atom_site_type_symbol
_atom_site_label
_atom_site_fract_x
_atom_site_fract_y
_atom_site_fract_z
Si Si1 0.454992 0.449625 0.577467
Si Si2 0.651761 0.560727 0.170662
Si Si3 0.286102 0.091308 0.840130
Si Si4 0.878655 0.402088 0.171544
Si Si5 0.703640 0.772757 0.908345
Si Si6 0.982498 0.249227 0.064993
O O1 0.500000 0.500000 0.500000
O O2 0.600284 0.452656 0.602647
O O3 0.308890 0.498776 0.642497
O O4 0.400792 0.348008 0.570535
O O5 0.500000 0.568511 0.250000
O O6 0.765330 0.479232 0.166965
O O7 0.762219 0.650307 0.154415
O O8 0.433904 0.073005 0.862499
O O9 0.334487 0.122173 0.756235
O O10 0.175103 0.173465 0.884833
O O11 0.858864 0.315714 0.126302
O O12 0.862970 0.769306 0.920837
O O13 0.544015 0.793796 0.982703
#
# Coordination Sequence:
#
# PCOD8138258 Si02
#       6
#     8   8   8   8   8   8
#     4  11  21  39  63  86 116 156 192 237 291 348
#     4  11  23  38  60  88 117 151 198 243 288 341
#     4  10  20  37  62  84 118 150 193 238 290 344
#     4  10  22  37  57  86 116 153 191 242 289 339
#     4   9  19  34  58  87 108 151 198 235 275 343
#     4   9  19  36  58  83 115 150 194 234 283 346
#
# _framework density 19.393453000000001
#
# number of rings (size 3 to 8) (size 9 to 14) (size 15 to 20)
#    0.000    2.000    3.333    0.000    9.333    0.667 
#    0.000    2.500    3.667    0.000    0.000    0.000 
#    0.000    0.000    0.000    0.000    0.000    0.000 
#
# Total GULP energy -297404.680781 kJ/mol
# GULP energy per Si atom -12391.861699 kJ/mol
# Density = 1.934931 g / cm^3
# Si number density = 19.393453 Si / 1000 Ang^3
#
#
#
# Elastic Constant Matrix: (Units=GPa)
#
#
# Indices 1 2 3 4 5 6 
#
# 1 39.5221 40.7242 23.5715 0.0000 0.8221 0.0000
# 2 40.7242 165.5003 68.2216 0.0000 -17.5336 0.0000
# 3 23.5715 68.2216 109.6038 0.0000 -12.4366 0.0000
# 4 0.0000 0.0000 0.0000 40.5961 0.0000 -6.9204
# 5 0.8221 -17.5336 -12.4366 0.0000 24.2444 0.0000
# 6 0.0000 0.0000 0.0000 -6.9204 0.0000 24.7049
#
#
#
# Elastic Compliance Matrix: (Units=1/GPa)
#
#
# Indices 1 2 3 4 5 6 
#
# 1 0.036325 -0.008422 -0.003611 0.000000 -0.009175 0.000000
# 2 -0.008422 0.010367 -0.003991 0.000000 0.005736 0.000000
# 3 -0.003611 -0.003991 0.012817 0.000000 0.003811 0.000000
# 4 0.000000 0.000000 0.000000 0.025868 0.000000 0.007246
# 5 -0.009175 0.005736 0.003811 0.000000 0.047661 0.000000
# 6 0.000000 0.000000 0.000000 0.007246 0.000000 0.042508
#
#
# Mechanical properties :
#
#
# Convention : Reuss Voigt Hill
#
# Bulk Modulus (GPa) = 36.41474 64.40675 50.41074
# Shear Modulus (GPa) = 23.06832 30.04967 26.55899
#
# Velocity S-wave (km/s) = 3.45264 3.94061 3.70467
# Velocity P-wave (km/s) = 5.89168 7.34760 6.65954
#
# Compressibility (1/GPa) = 0.02746141
#
# Stress axis : x y z
#
# Youngs Moduli (GPa) = 27.52948 96.45546 78.02168
#
# Poissons Ratio (x) = 0.81233 0.28174
# Poissons Ratio (y) = 0.23185 0.31139
# Poissons Ratio (z) = 0.09941 0.38496
#
# Static dielectric constant tensor:
#      x y z
#    x 3.221360 0.000000 -0.034730 
#    y 0.000000 3.896000 0.000000 
#    z -0.034730 0.000000 3.807480 
# 
# 
# High freq. dielectric constant tensor:
#      x y z
#    x 1.709220 0.000000 -0.003600 
#    y 0.000000 1.764950 0.000000 
#    z -0.003600 0.000000 1.768280 
# 
# From -- ./inp_files/237975.got.cif
#   From: 2010.06.25/outbox.cif.g09.slc.cpg/sg15_119_cif.got.tgz:237975.got - 2010.06.28 07:06:18.
