data_PCOD8138052
_publ_section_title
;
Structure prediction by ZEFSAII (Michael W. Deem and Ramdas Pophale) SiO2 
 PCOD8138052
Probable space group: C 2/C
;
_chemical_formula_sum "Si O2"
_cell_formula_units_Z 56
_cell_length_a 14.455085
_cell_length_b 20.826009
_cell_length_c 9.874896
_cell_angle_alpha 90.000000
_cell_angle_beta 91.561793
_cell_angle_gamma 90.000000
_cell_volume 2971.651435
_symmetry_space_group_name_H-M "C 2/C"
_symmetry_group_IT_number 15
_symmetry_cell_setting 'monoclinic'
loop_
_space_group_symop_operation_xyz
x,y,z
-x,y,1/2-z
-x,-y,-z
x,-y,1/2+z
1/2+x,1/2+y,z
1/2-x,1/2+y,1/2-z
1/2-x,1/2-y,-z
1/2+x,1/2-y,1/2+z
loop_
_atom_site_type_symbol
_atom_site_label
_atom_site_fract_x
_atom_site_fract_y
_atom_site_fract_z
Si Si1 0.888980 0.191806 0.747989
Si Si2 0.208394 0.494694 0.981764
Si Si3 0.170550 0.118727 0.494816
Si Si4 0.687113 0.369528 0.523033
Si Si5 0.201300 0.326632 0.724281
Si Si6 0.894993 0.458237 0.779513
Si Si7 0.991785 0.941318 0.898748
O O1 0.841576 0.144929 0.854432
O O2 0.848636 0.174787 0.599515
O O3 0.858933 0.262789 0.789086
O O4 0.000000 0.185085 0.750000
O O5 0.288508 0.547231 0.997603
O O6 0.244611 0.424820 0.029239
O O7 0.172769 0.494370 0.826974
O O8 0.122726 0.512324 0.074009
O O9 0.233320 0.165678 0.405394
O O10 0.069778 0.112630 0.424256
O O11 0.737698 0.325200 0.636423
O O12 0.605034 0.405804 0.595248
O O13 0.125938 0.382881 0.725038
O O14 0.000000 0.471849 0.750000
O O15 0.000000 0.971523 0.750000
O O16 0.000000 0.000000 0.000000
#
# Coordination Sequence:
#
# PCOD8138052 Si02
#       7
#     8   8   8   8   8   8   8
#     4  12  24  37  60  87 111 157 210 243 288 354
#     4  10  21  35  58  86 114 146 182 233 305 354
#     4  11  22  39  59  87 122 153 190 245 301 357
#     4  11  22  39  59  87 122 153 190 245 301 357
#     4  10  23  41  58  78 118 160 198 243 287 350
#     4  10  20  37  58  81 111 147 190 241 284 340
#     4  12  24  36  62  94 130 154 188 239 304 368
#
# _framework density 18.844740000000002
#
# number of rings (size 3 to 8) (size 9 to 14) (size 15 to 20)
#    0.000    1.143    4.286    2.571    2.000    0.000 
#    0.000    0.000    0.000    0.000    0.000    0.000 
#    0.000    0.000    0.000    0.000    0.000    0.000 
#
# Total GULP energy -347283.720628 kJ/mol
# GULP energy per Si atom -12402.990022 kJ/mol
# Density = 1.880185 g / cm^3
# Si number density = 18.844740 Si / 1000 Ang^3
#
#
#
# Elastic Constant Matrix: (Units=GPa)
#
#
# Indices 1 2 3 4 5 6 
#
# 1 76.4230 15.5095 8.9566 0.0000 -10.7810 0.0000
# 2 15.5095 55.4518 20.5972 0.0000 -8.3261 0.0000
# 3 8.9566 20.5972 92.3188 0.0000 -11.9905 0.0000
# 4 0.0000 0.0000 0.0000 27.6215 0.0000 0.6987
# 5 -10.7810 -8.3261 -11.9905 0.0000 28.4891 0.0000
# 6 0.0000 0.0000 0.0000 0.6987 0.0000 24.2049
#
#
#
# Elastic Compliance Matrix: (Units=1/GPa)
#
#
# Indices 1 2 3 4 5 6 
#
# 1 0.014397 -0.003331 -0.000077 0.000000 0.004442 0.000000
# 2 -0.003331 0.020903 -0.003925 0.000000 0.003196 0.000000
# 3 -0.000077 -0.003925 0.012231 0.000000 0.003972 0.000000
# 4 0.000000 0.000000 0.000000 0.036230 0.000000 -0.001046
# 5 0.004442 0.003196 0.003972 0.000000 0.039388 0.000000
# 6 0.000000 0.000000 0.000000 -0.001046 0.000000 0.041344
#
#
# Mechanical properties :
#
#
# Convention : Reuss Voigt Hill
#
# Bulk Modulus (GPa) = 30.42761 34.92447 32.67604
# Shear Modulus (GPa) = 26.29989 28.00512 27.15250
#
# Velocity S-wave (km/s) = 3.73984 3.85918 3.79998
# Velocity P-wave (km/s) = 5.90170 6.19924 6.05230
#
# Compressibility (1/GPa) = 0.03286489
#
# Stress axis : x y z
#
# Youngs Moduli (GPa) = 69.46006 47.83913 81.75885
#
# Poissons Ratio (x) = 0.15936 0.00626
# Poissons Ratio (y) = 0.23139 0.32094
# Poissons Ratio (z) = 0.00532 0.18779
#
# Static dielectric constant tensor:
#      x y z
#    x 3.520380 0.000000 -0.078790 
#    y 0.000000 3.345210 0.000000 
#    z -0.078790 0.000000 3.572420 
# 
# 
# High freq. dielectric constant tensor:
#      x y z
#    x 1.740780 0.000000 -0.004070 
#    y 0.000000 1.721340 0.000000 
#    z -0.004070 0.000000 1.744760 
# 
# From -- ./inp_files/41231.got.cif
#   From: 2010.06.25/outbox.cif.g09.slc.cpg/sg15_21_cif.got.tgz:41231.got - 2010.06.28 07:06:18.
