data_PCOD8138277
_publ_section_title
;
Structure prediction by ZEFSAII (Michael W. Deem and Ramdas Pophale) SiO2 
 PCOD8138277
Probable space group: C 2/C
;
_chemical_formula_sum "Si O2"
_cell_formula_units_Z 48
_cell_length_a 10.704179
_cell_length_b 26.067467
_cell_length_c 16.826994
_cell_angle_alpha 90.000000
_cell_angle_beta 148.491377
_cell_angle_gamma 90.000000
_cell_volume 2453.863941
_symmetry_space_group_name_H-M "C 2/C"
_symmetry_group_IT_number 15
_symmetry_cell_setting 'monoclinic'
loop_
_space_group_symop_operation_xyz
x,y,z
-x,y,1/2-z
-x,-y,-z
x,-y,1/2+z
1/2+x,1/2+y,z
1/2-x,1/2+y,1/2-z
1/2-x,1/2-y,-z
1/2+x,1/2-y,1/2+z
loop_
_atom_site_type_symbol
_atom_site_label
_atom_site_fract_x
_atom_site_fract_y
_atom_site_fract_z
Si Si1 0.677910 0.596026 0.156777
Si Si2 0.000000 0.480944 0.750000
Si Si3 0.772005 0.956632 0.520956
Si Si4 0.762264 0.807620 0.916072
Si Si5 0.000000 0.034788 0.750000
Si Si6 0.007628 0.403010 0.990010
Si Si7 0.768395 0.304732 0.422648
O O1 0.770103 0.554591 0.142846
O O2 0.412435 0.582849 0.041336
O O3 0.637765 0.650689 0.091473
O O4 0.871118 0.595623 0.332091
O O5 0.941635 0.516706 0.643068
O O6 0.662847 0.925936 0.535683
O O7 0.966043 0.998501 0.654911
O O8 0.500000 0.792445 0.750000
O O9 0.895570 0.751695 0.987284
O O10 0.750921 0.828799 0.999224
O O11 0.241305 0.067206 0.873426
O O12 0.069610 0.343464 0.041768
O O13 0.500000 0.303811 0.250000
#
# Coordination Sequence:
#
# PCOD8138277 Si02
#       7
#     8   4   8   8   4   8   8
#     4  12  22  41  64  90 121 166 204 247 305 360
#     4  12  24  40  61  92 123 164 208 252 290 356
#     4  12  26  40  60  91 130 162 201 250 302 363
#     4  10  20  37  62  89 118 149 204 256 298 355
#     4  12  22  40  61  88 119 170 208 244 286 354
#     4  12  22  40  64  90 122 163 207 247 303 359
#     4  10  21  37  61  93 116 150 201 258 302 351
#
# _framework density 19.560987999999998
#
# number of rings (size 3 to 8) (size 9 to 14) (size 15 to 20)
#    0.000    0.667    6.667    2.000    0.000    1.333 
#    0.000    0.833    0.000    0.000    0.000    0.000 
#    0.000    0.000    0.000    0.000    0.000    0.000 
#
# Total GULP energy -297458.770452 kJ/mol
# GULP energy per Si atom -12394.115435 kJ/mol
# Density = 1.951647 g / cm^3
# Si number density = 19.560988 Si / 1000 Ang^3
#
#
#
# Elastic Constant Matrix: (Units=GPa)
#
#
# Indices 1 2 3 4 5 6 
#
# 1 110.0733 68.1797 29.1262 -0.0004 1.0371 -0.0002
# 2 68.1797 146.0005 30.8571 0.0001 0.1907 0.0000
# 3 29.1262 30.8571 71.2832 -0.0014 -13.0300 -0.0014
# 4 -0.0004 0.0001 -0.0014 24.4915 -0.0008 -10.4131
# 5 1.0371 0.1907 -13.0300 -0.0008 35.2548 -0.0005
# 6 -0.0002 0.0000 -0.0014 -10.4131 -0.0005 23.3659
#
#
#
# Elastic Compliance Matrix: (Units=1/GPa)
#
#
# Indices 1 2 3 4 5 6 
#
# 1 0.013437 -0.005559 -0.003379 0.000000 -0.001614 0.000000
# 2 -0.005559 0.009898 -0.002138 0.000000 -0.000680 0.000000
# 3 -0.003379 -0.002138 0.017540 0.000002 0.006594 0.000002
# 4 0.000000 0.000000 0.000002 0.050376 0.000002 0.022450
# 5 -0.001614 -0.000680 0.006594 0.000002 0.030853 0.000002
# 6 0.000000 0.000000 0.000002 0.022450 0.000002 0.052802
#
#
# Mechanical properties :
#
#
# Convention : Reuss Voigt Hill
#
# Bulk Modulus (GPa) = 53.40771 64.85367 59.13069
# Shear Modulus (GPa) = 24.59436 29.90204 27.24820
#
# Velocity S-wave (km/s) = 3.54971 3.91405 3.73632
# Velocity P-wave (km/s) = 6.64553 7.32481 6.99342
#
# Compressibility (1/GPa) = 0.01872389
#
# Stress axis : x y z
#
# Youngs Moduli (GPa) = 74.41972 101.03303 57.01278
#
# Poissons Ratio (x) = 0.56161 0.19266
# Poissons Ratio (y) = 0.41367 0.12187
# Poissons Ratio (z) = 0.25149 0.21597
#
# Static dielectric constant tensor:
#      x y z
#    x 3.374850 0.000000 -0.163560 
#    y 0.000000 4.010450 0.000000 
#    z -0.163560 0.000000 3.570030 
# 
# 
# High freq. dielectric constant tensor:
#      x y z
#    x 1.736610 0.000000 -0.020150 
#    y 0.000000 1.776020 0.000000 
#    z -0.020150 0.000000 1.768050 
# 
# From -- ./inp_files/139114.got.cif
#   From: 2010.06.25/outbox.cif.g09.slc.cpg/sg15_70_cif.got.tgz:139114.got - 2010.06.28 07:06:18.
