data_PCOD8138506
_publ_section_title
;
Structure prediction by ZEFSAII (Michael W. Deem and Ramdas Pophale) SiO2 
 PCOD8138506
Probable space group: C 2/C
;
_chemical_formula_sum "Si O2"
_cell_formula_units_Z 44
_cell_length_a 12.261653
_cell_length_b 21.891513
_cell_length_c 9.034546
_cell_angle_alpha 90.000000
_cell_angle_beta 128.176048
_cell_angle_gamma 90.000000
_cell_volume 1906.414827
_symmetry_space_group_name_H-M "C 2/C"
_symmetry_group_IT_number 15
_symmetry_cell_setting 'monoclinic'
loop_
_space_group_symop_operation_xyz
x,y,z
-x,y,1/2-z
-x,-y,-z
x,-y,1/2+z
1/2+x,1/2+y,z
1/2-x,1/2+y,1/2-z
1/2-x,1/2-y,-z
1/2+x,1/2-y,1/2+z
loop_
_atom_site_type_symbol
_atom_site_label
_atom_site_fract_x
_atom_site_fract_y
_atom_site_fract_z
Si Si1 0.000000 0.501703 0.250000
Si Si2 0.568928 0.378900 0.154327
Si Si3 0.494671 0.249399 0.422824
Si Si4 0.266299 0.711695 0.163456
Si Si5 0.381234 0.422712 0.763682
Si Si6 0.683675 0.034719 0.653611
O O1 0.880365 0.462439 0.233924
O O2 0.063955 0.544420 0.431309
O O3 0.500000 0.364391 0.250000
O O4 0.582050 0.312545 0.092233
O O5 0.719579 0.407530 0.284627
O O6 0.459894 0.423607 0.985373
O O7 0.500000 0.238925 0.250000
O O8 0.641954 0.251671 0.634131
O O9 0.387755 0.199370 0.398449
O O10 0.326792 0.644709 0.175735
O O11 0.250000 0.750000 0.000000
O O12 0.500000 0.444905 0.750000
O O13 0.257385 0.470795 0.675455
#
# Coordination Sequence:
#
# PCOD8138506 Si02
#       6
#     4   8   8   8   8   8
#     4  10  24  38  56  82 140 162 200 252 298 408
#     4  10  20  37  67  91 118 158 213 268 310 369
#     4  10  22  41  64  93 126 168 221 272 322 382
#     4  11  22  41  61  94 130 172 214 272 322 384
#     4  11  22  38  64  93 121 160 215 265 311 372
#     4  11  21  41  59  91 126 166 206 253 325 366
#
# _framework density 23.079972000000001
#
# number of rings (size 3 to 8) (size 9 to 14) (size 15 to 20)
#    0.000    1.455    0.000    6.545    0.000    0.000 
#   11.455    0.000    2.000    0.000    0.000    0.000 
#    0.000    0.000    0.000    0.000    0.000    0.000 
#
# Total GULP energy -272617.556928 kJ/mol
# GULP energy per Si atom -12391.707133 kJ/mol
# Density = 2.302744 g / cm^3
# Si number density = 23.079972 Si / 1000 Ang^3
#
#
#
# Elastic Constant Matrix: (Units=GPa)
#
#
# Indices 1 2 3 4 5 6 
#
# 1 146.9878 22.4149 10.7381 0.0000 -1.0131 0.0000
# 2 22.4149 38.2900 -9.2290 0.0000 2.3184 0.0000
# 3 10.7381 -9.2290 95.1024 0.0000 -11.1342 0.0000
# 4 0.0000 0.0000 0.0000 15.3587 0.0000 -9.0559
# 5 -1.0131 2.3184 -11.1342 0.0000 40.8650 0.0000
# 6 0.0000 0.0000 0.0000 -9.0559 0.0000 2.3892
#
#
#
# Elastic Compliance Matrix: (Units=1/GPa)
#
#
# Indices 1 2 3 4 5 6 
#
# 1 0.007630 -0.004790 -0.001314 0.000000 0.000103 0.000000
# 2 -0.004790 0.029776 0.003325 0.000000 -0.000902 0.000000
# 3 -0.001314 0.003325 0.011321 0.000000 0.002863 0.000000
# 4 0.000000 0.000000 0.000000 -0.052725 0.000000 -0.199845
# 5 0.000103 -0.000902 0.002863 0.000000 0.025305 0.000000
# 6 0.000000 0.000000 0.000000 -0.199845 0.000000 -0.338934
#
#
# Mechanical properties :
#
#
# Convention : Reuss Voigt Hill
#
# Bulk Modulus (GPa) = 23.16461 36.46981 29.81721
# Shear Modulus (GPa) = -16.79671 28.81967 6.01148
#
# Velocity S-wave (km/s) = -2.70063 3.53751 1.61564
# Velocity P-wave (km/s) = 0.57785 5.70273 4.05309
#
# Compressibility (1/GPa) = 0.04316930
#
# Stress axis : x y z
#
# Youngs Moduli (GPa) = 131.05405 33.58362 88.32932
#
# Poissons Ratio (x) = 0.16086 0.11610
# Poissons Ratio (y) = 0.62773 -0.29368
# Poissons Ratio (z) = 0.17225 -0.11166
#
# Static dielectric constant tensor:
#      x y z
#    x 4.318740 0.000000 0.044490 
#    y 0.000000 3.842350 0.000000 
#    z 0.044490 0.000000 4.430250 
# 
# 
# High freq. dielectric constant tensor:
#      x y z
#    x 1.926240 0.000000 -0.002190 
#    y 0.000000 1.885180 0.000000 
#    z -0.002190 0.000000 1.931240 
# 
# From -- ./inp_files/34497.got.cif
#   From: 2010.06.25/outbox.cif.g09.slc.cpg/sg15_18_cif.got.tgz:34497.got - 2010.06.28 07:06:18.
