data_PCOD8138518
_publ_section_title
;
Structure prediction by ZEFSAII (Michael W. Deem and Ramdas Pophale) SiO2 
 PCOD8138518
Probable space group: C 2/C
;
_chemical_formula_sum "Si O2"
_cell_formula_units_Z 56
_cell_length_a 17.249043
_cell_length_b 19.737774
_cell_length_c 8.662793
_cell_angle_alpha 90.000000
_cell_angle_beta 59.592076
_cell_angle_gamma 90.000000
_cell_volume 2543.617803
_symmetry_space_group_name_H-M "C 2/C"
_symmetry_group_IT_number 15
_symmetry_cell_setting 'monoclinic'
loop_
_space_group_symop_operation_xyz
x,y,z
-x,y,1/2-z
-x,-y,-z
x,-y,1/2+z
1/2+x,1/2+y,z
1/2-x,1/2+y,1/2-z
1/2-x,1/2-y,-z
1/2+x,1/2-y,1/2+z
loop_
_atom_site_type_symbol
_atom_site_label
_atom_site_fract_x
_atom_site_fract_y
_atom_site_fract_z
Si Si1 0.902751 0.806907 0.138401
Si Si2 0.417854 0.818446 0.441288
Si Si3 0.951012 0.057665 0.457641
Si Si4 0.796396 0.318661 0.289785
Si Si5 0.323765 0.285499 0.528034
Si Si6 0.715819 0.090623 0.280279
Si Si7 0.747928 0.960052 0.083452
O O1 0.807253 0.804793 0.145539
O O2 0.900602 0.805435 0.327824
O O3 0.953239 0.742162 0.014572
O O4 0.960178 0.872880 0.043062
O O5 0.500000 0.843159 0.250000
O O6 0.329568 0.797333 0.427875
O O7 0.383349 0.878702 0.587785
O O8 0.848693 0.035864 0.543641
O O9 0.000000 0.071419 0.250000
O O10 0.000000 0.000000 0.500000
O O11 0.857382 0.273121 0.112534
O O12 0.808255 0.400824 0.270165
O O13 0.250000 0.250000 0.500000
O O14 0.285394 0.351323 0.654780
O O15 0.753407 0.054550 0.395953
O O16 0.703660 0.033251 0.160997
#
# Coordination Sequence:
#
# PCOD8138518 Si02
#       7
#     8   8   8   8   8   8   8
#     4  10  21  39  64  90 121 171 213 264 317 393
#     4  11  22  40  64  94 128 160 212 281 337 378
#     4  11  24  41  57  88 133 168 208 263 322 387
#     4   9  20  39  65  94 119 167 221 267 317 391
#     4  10  20  37  69  93 123 159 228 274 303 377
#     4  11  23  40  65  95 123 172 219 268 319 387
#     4  10  24  38  66  91 125 175 219 260 323 402
#
# _framework density 22.015885999999998
#
# number of rings (size 3 to 8) (size 9 to 14) (size 15 to 20)
#    0.000    1.714    2.857    1.714   12.000    0.000 
#    2.571    3.571    0.000    0.000    0.000    0.000 
#    0.000    0.000    0.000    0.000    0.000    0.000 
#
# Total GULP energy -346956.382053 kJ/mol
# GULP energy per Si atom -12391.299359 kJ/mol
# Density = 2.196578 g / cm^3
# Si number density = 22.015886 Si / 1000 Ang^3
#
#
#
# Elastic Constant Matrix: (Units=GPa)
#
#
# Indices 1 2 3 4 5 6 
#
# 1 31.1350 36.4999 26.9330 0.0000 3.4163 0.0000
# 2 36.4999 173.6832 97.7461 0.0000 11.3889 0.0000
# 3 26.9330 97.7461 167.5529 0.0000 5.4289 0.0000
# 4 0.0000 0.0000 0.0000 53.6429 0.0000 8.2928
# 5 3.4163 11.3889 5.4289 0.0000 29.6597 0.0000
# 6 0.0000 0.0000 0.0000 8.2928 0.0000 26.4291
#
#
#
# Elastic Compliance Matrix: (Units=1/GPa)
#
#
# Indices 1 2 3 4 5 6 
#
# 1 0.043363 -0.007613 -0.002477 0.000000 -0.001618 0.000000
# 2 -0.007613 0.010080 -0.004587 0.000000 -0.002154 0.000000
# 3 -0.002477 -0.004587 0.009030 0.000000 0.000394 0.000000
# 4 0.000000 0.000000 0.000000 0.019592 0.000000 -0.006148
# 5 -0.001618 -0.002154 0.000394 0.000000 0.034657 0.000000
# 6 0.000000 0.000000 0.000000 -0.006148 0.000000 0.039766
#
#
# Mechanical properties :
#
#
# Convention : Reuss Voigt Hill
#
# Bulk Modulus (GPa) = 30.19379 77.19211 53.69295
# Shear Modulus (GPa) = 25.39606 36.02581 30.71093
#
# Velocity S-wave (km/s) = 3.40006 4.04958 3.73895
# Velocity P-wave (km/s) = 5.39983 7.55007 6.56360
#
# Compressibility (1/GPa) = 0.03311940
#
# Stress axis : x y z
#
# Youngs Moduli (GPa) = 23.06129 99.20417 110.74701
#
# Poissons Ratio (x) = 0.75522 0.27429
# Poissons Ratio (y) = 0.17556 0.50800
# Poissons Ratio (z) = 0.05712 0.45505
#
# Static dielectric constant tensor:
#      x y z
#    x 3.894410 0.000000 1.166010 
#    y 0.000000 4.366980 0.000000 
#    z 1.166010 0.000000 7.672360 
# 
# 
# High freq. dielectric constant tensor:
#      x y z
#    x 1.837080 0.000000 0.016630 
#    y 0.000000 1.876090 0.000000 
#    z 0.016630 0.000000 1.871280 
# 
# From -- ./inp_files/57783.got.cif
#   From: 2010.06.25/outbox.cif.g09.slc.cpg/sg15_29_cif.got.tgz:57783.got - 2010.06.28 07:06:18.
