data_PCOD8138602
_publ_section_title
;
Structure prediction by ZEFSAII (Michael W. Deem and Ramdas Pophale) SiO2 
 PCOD8138602
Probable space group: C 2/C
;
_chemical_formula_sum "Si O2"
_cell_formula_units_Z 52
_cell_length_a 19.424036
_cell_length_b 8.978978
_cell_length_c 15.332841
_cell_angle_alpha 90.000000
_cell_angle_beta 118.254331
_cell_angle_gamma 90.000000
_cell_volume 2355.555909
_symmetry_space_group_name_H-M "C 2/C"
_symmetry_group_IT_number 15
_symmetry_cell_setting 'monoclinic'
loop_
_space_group_symop_operation_xyz
x,y,z
-x,y,1/2-z
-x,-y,-z
x,-y,1/2+z
1/2+x,1/2+y,z
1/2-x,1/2+y,1/2-z
1/2-x,1/2-y,-z
1/2+x,1/2-y,1/2+z
loop_
_atom_site_type_symbol
_atom_site_label
_atom_site_fract_x
_atom_site_fract_y
_atom_site_fract_z
Si Si1 0.851379 0.567574 0.637268
Si Si2 0.120709 0.841610 0.728834
Si Si3 0.214049 0.386398 0.744927
Si Si4 0.914810 0.840178 0.318819
Si Si5 0.013540 0.266893 0.017335
Si Si6 0.624585 0.994763 0.531929
Si Si7 0.500000 0.110258 0.250000
O O1 0.859435 0.737679 0.676316
O O2 0.798988 0.469227 0.670560
O O3 0.820878 0.553876 0.518926
O O4 0.936570 0.498947 0.671352
O O5 0.194412 0.856204 0.708838
O O6 0.047300 0.781718 0.630655
O O7 0.095793 0.008879 0.743444
O O8 0.171202 0.225907 0.712532
O O9 0.182373 0.493698 0.649631
O O10 0.969696 0.866666 0.437572
O O11 0.960514 0.709959 0.298505
O O12 0.084787 0.341064 0.004002
O O13 0.945309 0.381443 0.996217
#
# Coordination Sequence:
#
# PCOD8138602 Si02
#       7
#     8   8   8   8   8   8   4
#     4  11  21  38  68  89 121 175 217 256 312 390
#     4  12  23  38  63  95 127 169 208 264 321 375
#     4  10  23  42  62  91 133 172 206 258 323 381
#     4  10  22  38  60  91 131 162 203 271 318 359
#     4  10  20  39  63  93 126 161 216 267 309 373
#     4  10  20  40  67  94 118 168 225 257 304 386
#     4  10  20  38  58  90 122 160 216 256 312 374
#
# _framework density 22.075468999999998
#
# number of rings (size 3 to 8) (size 9 to 14) (size 15 to 20)
#    0.000    1.538    3.077    2.308    0.000    2.462 
#    0.000    2.308    0.000    0.000    0.000    0.000 
#    0.000    0.000    0.000    0.000    0.000    0.000 
#
# Total GULP energy -322189.899613 kJ/mol
# GULP energy per Si atom -12391.919216 kJ/mol
# Density = 2.202522 g / cm^3
# Si number density = 22.075469 Si / 1000 Ang^3
#
#
#
# Elastic Constant Matrix: (Units=GPa)
#
#
# Indices 1 2 3 4 5 6 
#
# 1 75.7886 9.8122 20.0360 0.0000 -12.8396 0.0000
# 2 9.8122 91.0114 0.2026 0.0000 -5.8498 0.0000
# 3 20.0360 0.2026 50.9537 0.0000 -12.5915 0.0000
# 4 0.0000 0.0000 0.0000 16.0934 0.0000 1.7325
# 5 -12.8396 -5.8498 -12.5915 0.0000 41.5543 0.0000
# 6 0.0000 0.0000 0.0000 1.7325 0.0000 4.2703
#
#
#
# Elastic Compliance Matrix: (Units=1/GPa)
#
#
# Indices 1 2 3 4 5 6 
#
# 1 0.015271 -0.001447 -0.005279 0.000000 0.002915 0.000000
# 2 -0.001447 0.011232 0.000870 0.000000 0.001397 0.000000
# 3 -0.005279 0.000870 0.023051 0.000000 0.005476 0.000000
# 4 0.000000 0.000000 0.000000 0.064975 0.000000 -0.026361
# 5 0.002915 0.001397 0.005476 0.000000 0.026822 0.000000
# 6 0.000000 0.000000 0.000000 -0.026361 0.000000 0.244870
#
#
# Mechanical properties :
#
#
# Convention : Reuss Voigt Hill
#
# Bulk Modulus (GPa) = 26.42604 30.87280 28.64942
# Shear Modulus (GPa) = 12.17887 24.89713 18.53800
#
# Velocity S-wave (km/s) = 2.35136 3.36194 2.90100
# Velocity P-wave (km/s) = 4.40098 5.39312 4.92211
#
# Compressibility (1/GPa) = 0.03784146
#
# Stress axis : x y z
#
# Youngs Moduli (GPa) = 65.48178 89.03484 43.38163
#
# Poissons Ratio (x) = 0.12886 0.22901
# Poissons Ratio (y) = 0.09477 -0.03773
# Poissons Ratio (z) = 0.34567 -0.07744
#
# Static dielectric constant tensor:
#      x y z
#    x 4.123290 0.000000 0.022190 
#    y 0.000000 4.002010 0.000000 
#    z 0.022190 0.000000 4.064350 
# 
# 
# High freq. dielectric constant tensor:
#      x y z
#    x 1.855940 0.000000 0.003120 
#    y 0.000000 1.863870 0.000000 
#    z 0.003120 0.000000 1.862600 
# 
# From -- ./inp_files/214345.got.cif
#   From: 2010.06.25/outbox.cif.g09.slc.cpg/sg15_108_cif.got.tgz:214345.got - 2010.06.28 07:06:18.
