data_PCOD8138018
_publ_section_title
;
Structure prediction by ZEFSAII (Michael W. Deem and Ramdas Pophale) SiO2 
 PCOD8138018
Probable space group: C 2/C
;
_chemical_formula_sum "Si O2"
_cell_formula_units_Z 64
_cell_length_a 17.126861
_cell_length_b 17.393230
_cell_length_c 21.625274
_cell_angle_alpha 90.000000
_cell_angle_beta 147.660011
_cell_angle_gamma 90.000000
_cell_volume 3446.088762
_symmetry_space_group_name_H-M "C 2/C"
_symmetry_group_IT_number 15
_symmetry_cell_setting 'monoclinic'
loop_
_space_group_symop_operation_xyz
x,y,z
-x,y,1/2-z
-x,-y,-z
x,-y,1/2+z
1/2+x,1/2+y,z
1/2-x,1/2+y,1/2-z
1/2-x,1/2-y,-z
1/2+x,1/2-y,1/2+z
loop_
_atom_site_type_symbol
_atom_site_label
_atom_site_fract_x
_atom_site_fract_y
_atom_site_fract_z
Si Si1 0.225308 0.515251 0.132252
Si Si2 0.631001 0.261615 0.509026
Si Si3 0.499920 0.886470 0.949704
Si Si4 0.355761 0.586588 0.415437
Si Si5 0.877669 0.156868 0.619349
Si Si6 0.992624 0.977509 0.894112
Si Si7 0.753374 0.490684 0.990627
Si Si8 0.964926 0.559450 0.291992
O O1 0.149544 0.583340 0.120634
O O2 0.378990 0.494541 0.266073
O O3 0.252175 0.546749 0.081073
O O4 0.130311 0.437323 0.066173
O O5 0.521960 0.204746 0.474294
O O6 0.680156 0.326269 0.590743
O O7 0.772384 0.213995 0.585099
O O8 0.559867 0.300571 0.400176
O O9 0.499514 0.889626 0.874862
O O10 0.474216 0.551333 0.541242
O O11 0.421571 0.587498 0.390158
O O12 0.205951 0.535927 0.319166
O O13 0.000000 0.132159 0.750000
O O14 0.794021 0.080373 0.541484
O O15 0.139899 0.945900 0.959332
O O16 0.920939 0.486810 0.128600
O O17 0.000000 0.602669 0.250000
#
# Coordination Sequence:
#
# PCOD8138018 Si02
#       8
#     8   8   8   8   8   8   8   8
#     4  10  20  37  57  77 110 145 191 234 278 327
#     4  11  23  35  49  81 113 151 186 221 281 342
#     4  10  22  36  54  81 110 151 190 231 274 330
#     4  11  24  35  56  79 115 153 185 229 283 330
#     4  11  22  32  49  78 115 147 181 223 275 345
#     4  11  21  38  54  82 112 146 191 237 277 332
#     4  11  21  36  58  84 111 148 190 230 283 328
#     4  11  19  36  53  78 113 153 186 221 267 343
#
# _framework density 18.571778999999999
#
# number of rings (size 3 to 8) (size 9 to 14) (size 15 to 20)
#    0.000    1.250    6.250    1.125    3.500    0.000 
#    0.000    0.000    0.000    0.750    0.000    0.000 
#    0.000    0.000    0.000    0.000    0.000    0.000 
#
# Total GULP energy -396551.570595 kJ/mol
# GULP energy per Si atom -12392.236581 kJ/mol
# Density = 1.852951 g / cm^3
# Si number density = 18.571779 Si / 1000 Ang^3
#
#
#
# Elastic Constant Matrix: (Units=GPa)
#
#
# Indices 1 2 3 4 5 6 
#
# 1 138.4910 35.9525 40.9071 -0.0003 7.2928 0.0000
# 2 35.9525 49.8945 18.9607 -0.0033 0.3934 -0.0010
# 3 40.9071 18.9607 113.1663 -0.0090 1.3475 -0.0027
# 4 -0.0003 -0.0033 -0.0090 10.0163 -0.0031 0.1740
# 5 7.2928 0.3934 1.3475 -0.0031 28.1433 -0.0005
# 6 0.0000 -0.0010 -0.0027 0.1740 -0.0005 28.0735
#
#
#
# Elastic Compliance Matrix: (Units=1/GPa)
#
#
# Indices 1 2 3 4 5 6 
#
# 1 0.009617 -0.005982 -0.002447 -0.000005 -0.002291 0.000000
# 2 -0.005982 0.025126 -0.002063 0.000007 0.001298 0.000001
# 3 -0.002447 -0.002063 0.010065 0.000008 0.000181 0.000001
# 4 -0.000005 0.000007 0.000008 0.099848 0.000012 -0.000619
# 5 -0.002291 0.001298 0.000181 0.000012 0.036099 0.000001
# 6 0.000000 0.000001 0.000001 -0.000619 0.000001 0.035625
#
#
# Mechanical properties :
#
#
# Convention : Reuss Voigt Hill
#
# Bulk Modulus (GPa) = 41.97345 54.79916 48.38630
# Shear Modulus (GPa) = 20.38282 26.96205 23.67243
#
# Velocity S-wave (km/s) = 3.31647 3.81435 3.57409
# Velocity P-wave (km/s) = 6.10860 6.99784 6.56829
#
# Compressibility (1/GPa) = 0.02382459
#
# Stress axis : x y z
#
# Youngs Moduli (GPa) = 103.98297 39.79885 99.35905
#
# Poissons Ratio (x) = 0.23807 0.24311
# Poissons Ratio (y) = 0.62201 0.20498
# Poissons Ratio (z) = 0.25443 0.08211
#
# Static dielectric constant tensor:
#      x y z
#    x 3.823210 0.000000 0.025320 
#    y 0.000000 3.016760 0.000000 
#    z 0.025320 0.000000 3.613230 
# 
# 
# High freq. dielectric constant tensor:
#      x y z
#    x 1.731950 0.000000 -0.005170 
#    y 0.000000 1.652430 0.000000 
#    z -0.005170 0.000000 1.736640 
# 
# From -- ./inp_files/277805.got.cif
#   From: 2010.06.25/outbox.cif.g09.slc.cpg/sg15_139_cif.got.tgz:277805.got - 2010.06.28 07:06:18.
