data_PCOD8138619
_publ_section_title
;
Structure prediction by ZEFSAII (Michael W. Deem and Ramdas Pophale) SiO2 
 PCOD8138619
Probable space group: C 2/C
;
_chemical_formula_sum "Si O2"
_cell_formula_units_Z 40
_cell_length_a 13.312193
_cell_length_b 9.251719
_cell_length_c 17.396699
_cell_angle_alpha 90.000000
_cell_angle_beta 111.373998
_cell_angle_gamma 90.000000
_cell_volume 1995.224612
_symmetry_space_group_name_H-M "C 2/C"
_symmetry_group_IT_number 15
_symmetry_cell_setting 'monoclinic'
loop_
_space_group_symop_operation_xyz
x,y,z
-x,y,1/2-z
-x,-y,-z
x,-y,1/2+z
1/2+x,1/2+y,z
1/2-x,1/2+y,1/2-z
1/2-x,1/2-y,-z
1/2+x,1/2-y,1/2+z
loop_
_atom_site_type_symbol
_atom_site_label
_atom_site_fract_x
_atom_site_fract_y
_atom_site_fract_z
Si Si1 0.480982 0.835259 0.020266
Si Si2 0.718080 0.807320 0.074463
Si Si3 0.899874 0.324225 0.167683
Si Si4 0.375183 0.128805 0.219696
Si Si5 0.298947 0.123748 0.369032
O O1 0.594896 0.751402 0.049950
O O2 0.432778 0.808167 0.089695
O O3 0.390675 0.776374 0.935630
O O4 0.500000 0.000000 0.000000
O O5 0.796893 0.749219 0.162893
O O6 0.721946 0.980617 0.085399
O O7 0.750000 0.750000 0.000000
O O8 0.856569 0.486068 0.164669
O O9 0.810477 0.210792 0.167502
O O10 0.000000 0.293371 0.250000
O O11 0.500000 0.181058 0.250000
O O12 0.343027 0.086148 0.297149
#
# Coordination Sequence:
#
# PCOD8138619 Si02
#       5
#     8   8   8   8   8
#     4  10  20  38  59  82 113 153 193 235 288 350
#     4  11  22  39  61  88 119 154 196 245 295 349
#     4  11  22  39  60  85 116 155 195 240 293 351
#     4  11  21  38  61  86 116 157 197 238 292 353
#     4  11  22  38  59  87 117 153 196 244 292 349
#
# _framework density 20.047867
#
# number of rings (size 3 to 8) (size 9 to 14) (size 15 to 20)
#    0.000    1.200    0.000   11.400    0.000    0.800 
#    0.000    8.000    0.000    0.000    0.000    0.000 
#    0.000    0.000    0.000    0.000    0.000    0.000 
#
# Total GULP energy -247933.105975 kJ/mol
# GULP energy per Si atom -12396.655299 kJ/mol
# Density = 2.000224 g / cm^3
# Si number density = 20.047867 Si / 1000 Ang^3
#
#
#
# Elastic Constant Matrix: (Units=GPa)
#
#
# Indices 1 2 3 4 5 6 
#
# 1 134.5243 46.0486 40.1763 0.0000 2.4763 0.0000
# 2 46.0486 46.0913 11.5803 0.0000 23.6676 0.0000
# 3 40.1763 11.5803 97.2410 0.0000 1.9180 0.0000
# 4 0.0000 0.0000 0.0000 17.8397 0.0000 0.5182
# 5 2.4763 23.6676 1.9180 0.0000 44.0362 0.0000
# 6 0.0000 0.0000 0.0000 0.5182 0.0000 23.7148
#
#
#
# Elastic Compliance Matrix: (Units=1/GPa)
#
#
# Indices 1 2 3 4 5 6 
#
# 1 0.014860 -0.018614 -0.004107 0.000000 0.009348 0.000000
# 2 -0.018614 0.054348 0.001775 0.000000 -0.028240 0.000000
# 3 -0.004107 0.001775 0.011794 0.000000 -0.001237 0.000000
# 4 0.000000 0.000000 0.000000 0.056090 0.000000 -0.001226
# 5 0.009348 -0.028240 -0.001237 0.000000 0.037415 0.000000
# 6 0.000000 0.000000 0.000000 -0.001226 0.000000 0.042194
#
#
# Mechanical properties :
#
#
# Convention : Reuss Voigt Hill
#
# Bulk Modulus (GPa) = 25.56903 52.60744 39.08823
# Shear Modulus (GPa) = 18.40743 29.12157 23.76450
#
# Velocity S-wave (km/s) = 3.03343 3.81544 3.44668
# Velocity P-wave (km/s) = 5.00505 6.76077 5.94805
#
# Compressibility (1/GPa) = 0.03910982
#
# Stress axis : x y z
#
# Youngs Moduli (GPa) = 67.29522 18.39994 84.79153
#
# Poissons Ratio (x) = 0.34250 0.34826
# Poissons Ratio (y) = 1.25264 -0.15054
# Poissons Ratio (z) = 0.27639 -0.03267
#
# Static dielectric constant tensor:
#      x y z
#    x 4.164420 0.000000 0.337400 
#    y 0.000000 3.422290 0.000000 
#    z 0.337400 0.000000 4.015630 
# 
# 
# High freq. dielectric constant tensor:
#      x y z
#    x 1.806460 0.000000 0.005110 
#    y 0.000000 1.746150 0.000000 
#    z 0.005110 0.000000 1.808000 
# 
# From -- ./inp_files/141892.got.cif
#   From: 2010.06.25/outbox.cif.g09.slc.cpg/sg15_71_cif.got.tgz:141892.got - 2010.06.28 07:06:18.
