data_PCOD8138303
_publ_section_title
;
Structure prediction by ZEFSAII (Michael W. Deem and Ramdas Pophale) SiO2 
 PCOD8138303
Probable space group: C 2/C
;
_chemical_formula_sum "Si O2"
_cell_formula_units_Z 48
_cell_length_a 26.994442
_cell_length_b 16.990349
_cell_length_c 12.206734
_cell_angle_alpha 90.000000
_cell_angle_beta 154.816525
_cell_angle_gamma 90.000000
_cell_volume 2382.288670
_symmetry_space_group_name_H-M "C 2/C"
_symmetry_group_IT_number 15
_symmetry_cell_setting 'monoclinic'
loop_
_space_group_symop_operation_xyz
x,y,z
-x,y,1/2-z
-x,-y,-z
x,-y,1/2+z
1/2+x,1/2+y,z
1/2-x,1/2+y,1/2-z
1/2-x,1/2-y,-z
1/2+x,1/2-y,1/2+z
loop_
_atom_site_type_symbol
_atom_site_label
_atom_site_fract_x
_atom_site_fract_y
_atom_site_fract_z
Si Si1 0.367111 0.058608 0.459915
Si Si2 0.376902 0.113310 0.899572
Si Si3 0.732649 0.587924 0.404185
Si Si4 0.386606 0.179539 0.138337
Si Si5 0.988142 0.150992 0.853930
Si Si6 0.265435 0.588538 0.513263
O O1 0.292915 0.098824 0.407569
O O2 0.340889 0.966185 0.390735
O O3 0.500000 0.077231 0.750000
O O4 0.331017 0.099176 0.274201
O O5 0.303292 0.129847 0.643502
O O6 0.355518 0.183529 0.945673
O O7 0.514818 0.111529 0.145302
O O8 0.732353 0.495061 0.423554
O O9 0.608360 0.630681 0.154958
O O10 0.444511 0.260959 0.291007
O O11 0.270021 0.156869 0.971290
O O12 0.892936 0.095304 0.718098
O O13 0.000000 0.131164 0.750000
#
# Coordination Sequence:
#
# PCOD8138303 Si02
#       6
#     8   8   8   8   8   8
#     4  11  19  35  63  95 122 154 217 270 320 360
#     4  10  20  37  62  91 122 162 202 267 320 371
#     4  11  23  39  63  95 124 163 216 267 313 377
#     4  11  21  42  63  89 126 164 207 256 330 378
#     4  12  24  42  60  89 127 177 204 252 325 398
#     4  11  23  40  64  91 124 165 216 266 311 377
#
# _framework density 20.148690999999999
#
# number of rings (size 3 to 8) (size 9 to 14) (size 15 to 20)
#    0.000    1.000    6.667    2.000    0.000    3.333 
#    0.000    0.833    0.000    0.000    0.000    0.000 
#    0.000    0.000    0.000    0.000    0.000    0.000 
#
# Total GULP energy -297552.222602 kJ/mol
# GULP energy per Si atom -12398.009275 kJ/mol
# Density = 2.010283 g / cm^3
# Si number density = 20.148691 Si / 1000 Ang^3
#
#
#
# Elastic Constant Matrix: (Units=GPa)
#
#
# Indices 1 2 3 4 5 6 
#
# 1 102.1405 23.4767 34.7815 0.0000 5.6334 0.0000
# 2 23.4767 45.8834 13.7891 0.0000 -2.8991 0.0000
# 3 34.7815 13.7891 89.4876 0.0000 -3.8176 0.0000
# 4 0.0000 0.0000 0.0000 28.2113 0.0000 7.0368
# 5 5.6334 -2.8991 -3.8176 0.0000 36.1347 0.0000
# 6 0.0000 0.0000 0.0000 7.0368 0.0000 16.8747
#
#
#
# Elastic Compliance Matrix: (Units=1/GPa)
#
#
# Indices 1 2 3 4 5 6 
#
# 1 0.012610 -0.005371 -0.004195 0.000000 -0.002840 0.000000
# 2 -0.005371 0.025218 -0.001684 0.000000 0.002683 0.000000
# 3 -0.004195 -0.001684 0.013146 0.000000 0.001908 0.000000
# 4 0.000000 0.000000 0.000000 0.039562 0.000000 -0.016497
# 5 -0.002840 0.002683 0.001908 0.000000 0.028534 0.000000
# 6 0.000000 0.000000 0.000000 -0.016497 0.000000 0.066140
#
#
# Mechanical properties :
#
#
# Convention : Reuss Voigt Hill
#
# Bulk Modulus (GPa) = 35.11849 42.40066 38.75957
# Shear Modulus (GPa) = 23.02032 27.27509 25.14771
#
# Velocity S-wave (km/s) = 3.38379 3.68324 3.53669
# Velocity P-wave (km/s) = 5.72138 6.25923 5.99634
#
# Compressibility (1/GPa) = 0.02847503
#
# Stress axis : x y z
#
# Youngs Moduli (GPa) = 79.30248 39.65424 76.06899
#
# Poissons Ratio (x) = 0.21298 0.31909
# Poissons Ratio (y) = 0.42592 0.12809
# Poissons Ratio (z) = 0.33265 0.06677
#
# Static dielectric constant tensor:
#      x y z
#    x 3.814310 0.000000 -0.049640 
#    y 0.000000 3.415390 0.000000 
#    z -0.049640 0.000000 3.697770 
# 
# 
# High freq. dielectric constant tensor:
#      x y z
#    x 1.800600 0.000000 -0.002890 
#    y 0.000000 1.765960 0.000000 
#    z -0.002890 0.000000 1.782430 
# 
# From -- ./inp_files/87381.got.cif
#   From: 2010.06.25/outbox.cif.g09.slc.cpg/sg15_44_cif.got.tgz:87381.got - 2010.06.28 07:06:18.
