data_PCOD8138019
_publ_section_title
;
Structure prediction by ZEFSAII (Michael W. Deem and Ramdas Pophale) SiO2 
 PCOD8138019
Probable space group: C 2/C
;
_chemical_formula_sum "Si O2"
_cell_formula_units_Z 64
_cell_length_a 16.183805
_cell_length_b 8.553759
_cell_length_c 32.147841
_cell_angle_alpha 90.000000
_cell_angle_beta 133.985621
_cell_angle_gamma 90.000000
_cell_volume 3202.054898
_symmetry_space_group_name_H-M "C 2/C"
_symmetry_group_IT_number 15
_symmetry_cell_setting 'monoclinic'
loop_
_space_group_symop_operation_xyz
x,y,z
-x,y,1/2-z
-x,-y,-z
x,-y,1/2+z
1/2+x,1/2+y,z
1/2-x,1/2+y,1/2-z
1/2-x,1/2-y,-z
1/2+x,1/2-y,1/2+z
loop_
_atom_site_type_symbol
_atom_site_label
_atom_site_fract_x
_atom_site_fract_y
_atom_site_fract_z
Si Si1 0.219941 0.960831 0.601510
Si Si2 0.157126 0.238271 0.002647
Si Si3 0.704893 0.381731 0.794676
Si Si4 0.698808 0.183164 0.651303
Si Si5 0.828627 0.231271 0.129165
Si Si6 0.366794 0.993244 0.947522
Si Si7 0.550811 0.632772 0.162508
Si Si8 0.917578 0.844002 0.381870
O O1 0.170467 0.906493 0.539547
O O2 0.262363 0.816473 0.645720
O O3 0.325896 0.079523 0.630304
O O4 0.123355 0.052971 0.593411
O O5 0.032194 0.241236 0.937850
O O6 0.250000 0.250000 0.000000
O O7 0.188628 0.393073 0.038642
O O8 0.716166 0.571620 0.792349
O O9 0.638388 0.341807 0.814424
O O10 0.627382 0.328905 0.729302
O O11 0.824610 0.284751 0.835140
O O12 0.596517 0.254561 0.642398
O O13 0.646124 0.050810 0.603714
O O14 0.699462 0.172350 0.071225
O O15 0.919461 0.176166 0.126578
O O16 0.500000 0.000000 0.000000
O O17 0.556100 0.453984 0.148714
#
# Coordination Sequence:
#
# PCOD8138019 Si02
#       8
#     8   8   8   8   8   8   8   8
#     4   9  20  37  56  79 112 147 181 223 279 340
#     4  11  21  35  55  82 113 143 180 232 278 327
#     4  10  20  38  59  79 110 151 187 228 284 340
#     4   9  20  36  57  82 108 146 188 225 274 342
#     4  10  21  36  57  84 112 146 187 235 284 332
#     4  10  20  37  57  78 110 150 186 223 279 342
#     4  11  21  36  57  84 112 141 187 241 279 326
#     4  10  21  37  57  80 108 148 188 221 275 343
#
# _framework density 19.987164
#
# number of rings (size 3 to 8) (size 9 to 14) (size 15 to 20)
#    0.000    2.000    0.000    4.500    0.000    4.000 
#    0.000    1.875    0.000   15.000    0.000    0.000 
#    0.000    0.000    0.000    0.000    0.000    0.000 
#
# Total GULP energy -396503.858748 kJ/mol
# GULP energy per Si atom -12390.745586 kJ/mol
# Density = 1.994167 g / cm^3
# Si number density = 19.987164 Si / 1000 Ang^3
#
#
#
# Elastic Constant Matrix: (Units=GPa)
#
#
# Indices 1 2 3 4 5 6 
#
# 1 107.5694 40.6283 29.6617 0.0000 -6.9795 0.0000
# 2 40.6283 114.3614 22.6249 0.0000 3.1734 0.0000
# 3 29.6617 22.6249 71.7925 0.0000 4.2315 0.0000
# 4 0.0000 0.0000 0.0000 19.9235 0.0000 -0.8420
# 5 -6.9795 3.1734 4.2315 0.0000 22.9325 0.0000
# 6 0.0000 0.0000 0.0000 -0.8420 0.0000 25.7582
#
#
#
# Elastic Compliance Matrix: (Units=1/GPa)
#
#
# Indices 1 2 3 4 5 6 
#
# 1 0.012136 -0.003625 -0.004164 0.000000 0.004964 0.000000
# 2 -0.003625 0.010422 -0.001654 0.000000 -0.002240 0.000000
# 3 -0.004164 -0.001654 0.016411 0.000000 -0.004067 0.000000
# 4 0.000000 0.000000 0.000000 0.050261 0.000000 0.001643
# 5 0.004964 -0.002240 -0.004067 0.000000 0.046177 0.000000
# 6 0.000000 0.000000 0.000000 0.001643 0.000000 0.038876
#
#
# Mechanical properties :
#
#
# Convention : Reuss Voigt Hill
#
# Bulk Modulus (GPa) = 49.80004 53.28368 51.54186
# Shear Modulus (GPa) = 25.01697 27.11005 26.06351
#
# Velocity S-wave (km/s) = 3.54171 3.68689 3.61503
# Velocity P-wave (km/s) = 6.45717 6.69635 6.57784
#
# Compressibility (1/GPa) = 0.02008031
#
# Stress axis : x y z
#
# Youngs Moduli (GPa) = 82.40030 95.95433 60.93644
#
# Poissons Ratio (x) = 0.34787 0.25375
# Poissons Ratio (y) = 0.29873 0.10081
# Poissons Ratio (z) = 0.34312 0.15875
#
# Static dielectric constant tensor:
#      x y z
#    x 3.350230 0.000060 -0.522470 
#    y 0.000060 30.905290 0.000090 
#    z -0.522470 0.000090 2.732180 
# 
# 
# High freq. dielectric constant tensor:
#      x y z
#    x 1.776240 0.000000 -0.018070 
#    y 0.000000 1.790920 0.000000 
#    z -0.018070 0.000000 1.768790 
# 
# From -- ./inp_files/313190.got.cif
#   From: 2010.06.25/outbox.cif.g09.slc.cpg/sg15_157_cif.got.tgz:313190.got - 2010.06.28 07:06:18.
