data_PCOD8138237
_publ_section_title
;
Structure prediction by ZEFSAII (Michael W. Deem and Ramdas Pophale) SiO2 
 PCOD8138237
Probable space group: C 2/C
;
_chemical_formula_sum "Si O2"
_cell_formula_units_Z 56
_cell_length_a 10.716905
_cell_length_b 16.822854
_cell_length_c 21.093091
_cell_angle_alpha 90.000000
_cell_angle_beta 46.816681
_cell_angle_gamma 90.000000
_cell_volume 2772.916687
_symmetry_space_group_name_H-M "C 2/C"
_symmetry_group_IT_number 15
_symmetry_cell_setting 'monoclinic'
loop_
_space_group_symop_operation_xyz
x,y,z
-x,y,1/2-z
-x,-y,-z
x,-y,1/2+z
1/2+x,1/2+y,z
1/2-x,1/2+y,1/2-z
1/2-x,1/2-y,-z
1/2+x,1/2-y,1/2+z
loop_
_atom_site_type_symbol
_atom_site_label
_atom_site_fract_x
_atom_site_fract_y
_atom_site_fract_z
Si Si1 0.883912 0.349023 0.142753
Si Si2 0.030841 0.171843 0.421406
Si Si3 0.326894 0.592069 0.678624
Si Si4 0.494799 0.551251 0.178023
Si Si5 0.829869 0.547558 0.546933
Si Si6 0.171577 0.085840 0.485607
Si Si7 0.277587 0.087196 0.917769
O O1 0.947175 0.264163 0.098407
O O2 0.743960 0.341569 0.247682
O O3 0.792084 0.390257 0.115360
O O4 0.041391 0.405353 0.110079
O O5 0.177155 0.138919 0.419742
O O6 0.043938 0.129957 0.348652
O O7 0.844439 0.159223 0.517310
O O8 0.343621 0.511128 0.714130
O O9 0.507791 0.613396 0.584002
O O10 0.189254 0.587632 0.669427
O O11 0.500000 0.573900 0.250000
O O12 0.677686 0.516222 0.093935
O O13 0.833650 0.595433 0.477679
O O14 0.000000 0.500000 0.500000
O O15 0.167791 0.992638 0.468818
#
# Coordination Sequence:
#
# PCOD8138237 Si02
#       7
#     8   8   8   8   8   8   8
#     4  12  24  35  60  97 135 143 205 274 312 337
#     4  11  22  40  61  93 121 164 201 258 308 362
#     4  10  20  37  61  91 115 170 201 246 304 377
#     4  11  20  37  65  84 118 164 209 241 304 378
#     4  11  21  36  61  92 117 160 208 246 299 371
#     4  10  20  39  71  82 118 168 217 233 302 388
#     4  11  19  39  66  91 116 166 209 252 300 378
#
# _framework density 20.195340999999999
#
# number of rings (size 3 to 8) (size 9 to 14) (size 15 to 20)
#    0.000    1.143    7.143    1.714    0.000    1.714 
#    0.000    1.429    0.000    8.571    0.000    0.000 
#    0.000    0.000    0.000    0.000    0.000    0.000 
#
# Total GULP energy -346980.214308 kJ/mol
# GULP energy per Si atom -12392.150511 kJ/mol
# Density = 2.014938 g / cm^3
# Si number density = 20.195341 Si / 1000 Ang^3
#
#
#
# Elastic Constant Matrix: (Units=GPa)
#
#
# Indices 1 2 3 4 5 6 
#
# 1 127.4766 33.9867 38.8839 -0.0002 35.4685 0.0001
# 2 33.9867 73.8814 37.6973 -0.0004 6.6079 0.0002
# 3 38.8839 37.6973 94.3668 -0.0012 28.7354 0.0010
# 4 -0.0002 -0.0004 -0.0012 25.2901 0.0006 3.0693
# 5 35.4685 6.6079 28.7354 0.0006 46.6099 -0.0004
# 6 0.0001 0.0002 0.0010 3.0693 -0.0004 18.5219
#
#
#
# Elastic Compliance Matrix: (Units=1/GPa)
#
#
# Indices 1 2 3 4 5 6 
#
# 1 0.011265 -0.004161 -0.000676 0.000000 -0.007566 0.000000
# 2 -0.004161 0.018720 -0.007288 0.000000 0.005005 0.000000
# 3 -0.000676 -0.007288 0.016393 0.000001 -0.008559 -0.000001
# 4 0.000000 0.000000 0.000001 0.040353 -0.000001 -0.006687
# 5 -0.007566 0.005005 -0.008559 -0.000001 0.031779 0.000001
# 6 0.000000 0.000000 -0.000001 -0.006687 0.000001 0.055098
#
#
# Mechanical properties :
#
#
# Convention : Reuss Voigt Hill
#
# Bulk Modulus (GPa) = 45.18888 57.42895 51.30892
# Shear Modulus (GPa) = 24.36247 30.42816 27.39531
#
# Velocity S-wave (km/s) = 3.47701 3.88582 3.68709
# Velocity P-wave (km/s) = 6.20838 6.97362 6.60209
#
# Compressibility (1/GPa) = 0.02212934
#
# Stress axis : x y z
#
# Youngs Moduli (GPa) = 88.77004 53.41846 61.00131
#
# Poissons Ratio (x) = 0.22225 0.04123
# Poissons Ratio (y) = 0.36933 0.44458
# Poissons Ratio (z) = 0.06000 0.38931
#
# Static dielectric constant tensor:
#      x y z
#    x 4.309770 0.000000 0.549280 
#    y 0.000000 3.273260 0.000000 
#    z 0.549280 0.000000 3.692850 
# 
# 
# High freq. dielectric constant tensor:
#      x y z
#    x 1.810100 0.000000 0.032300 
#    y 0.000000 1.749680 0.000000 
#    z 0.032300 0.000000 1.783490 
# 
# From -- ./inp_files/239493.got.cif
#   From: 2010.06.25/outbox.cif.g09.slc.cpg/sg15_120_cif.got.tgz:239493.got - 2010.06.28 07:06:18.
