data_PCOD8138582
_publ_section_title
;
Structure prediction by ZEFSAII (Michael W. Deem and Ramdas Pophale) SiO2 
 PCOD8138582
Probable space group: C 2/C
;
_chemical_formula_sum "Si O2"
_cell_formula_units_Z 64
_cell_length_a 24.055962
_cell_length_b 8.444086
_cell_length_c 30.606105
_cell_angle_alpha 90.000000
_cell_angle_beta 150.125206
_cell_angle_gamma 90.000000
_cell_volume 3096.745338
_symmetry_space_group_name_H-M "C 2/C"
_symmetry_group_IT_number 15
_symmetry_cell_setting 'monoclinic'
loop_
_space_group_symop_operation_xyz
x,y,z
-x,y,1/2-z
-x,-y,-z
x,-y,1/2+z
1/2+x,1/2+y,z
1/2-x,1/2+y,1/2-z
1/2-x,1/2-y,-z
1/2+x,1/2-y,1/2+z
loop_
_atom_site_type_symbol
_atom_site_label
_atom_site_fract_x
_atom_site_fract_y
_atom_site_fract_z
Si Si1 0.997956 0.085525 0.177756
Si Si2 0.094722 0.266699 0.462303
Si Si3 0.174346 0.045336 0.368583
Si Si4 0.701476 0.254910 0.180753
Si Si5 0.388095 0.463345 0.451418
Si Si6 0.173049 0.966941 0.241525
Si Si7 0.508016 0.964585 0.555911
Si Si8 0.293398 0.796240 0.398198
O O1 0.946036 0.233070 0.114998
O O2 0.894479 0.013476 0.134126
O O3 0.097217 0.134556 0.279495
O O4 0.051106 0.950521 0.181312
O O5 0.217606 0.346116 0.547951
O O6 0.088089 0.098739 0.483539
O O7 0.004296 0.381230 0.422802
O O8 0.203546 0.867258 0.371278
O O9 0.670864 0.314497 0.111878
O O10 0.687536 0.401701 0.203136
O O11 0.623954 0.115201 0.147122
O O12 0.817791 0.160444 0.255800
O O13 0.500000 0.500000 0.500000
O O14 0.298621 0.607646 0.393521
O O15 0.270704 0.885008 0.336674
O O16 0.412210 0.837052 0.500204
O O17 0.500000 0.000000 0.500000
#
# Coordination Sequence:
#
# PCOD8138582 Si02
#       8
#     8   8   8   8   8   8   8   8
#     4  10  21  40  66  88 119 161 218 258 315 371
#     4  11  22  37  65  92 122 163 212 253 316 375
#     4   9  21  43  66  85 119 165 210 268 319 361
#     4  12  23  37  57  86 130 160 197 250 312 380
#     4  12  21  34  59  90 126 159 199 250 312 382
#     4  11  24  37  58  88 120 164 203 248 311 374
#     4  11  19  37  57  83 123 164 197 243 308 375
#     4  10  20  38  58  84 116 161 202 253 311 368
#
# _framework density 20.666858999999999
#
# number of rings (size 3 to 8) (size 9 to 14) (size 15 to 20)
#    0.000    1.250    3.750    3.375    1.750    0.000 
#    2.250    0.625    2.750    4.500    0.000    0.000 
#    0.000    0.000    0.000    0.000    0.000    0.000 
#
# Total GULP energy -396471.825345 kJ/mol
# GULP energy per Si atom -12389.744542 kJ/mol
# Density = 2.061982 g / cm^3
# Si number density = 20.666859 Si / 1000 Ang^3
#
#
#
# Elastic Constant Matrix: (Units=GPa)
#
#
# Indices 1 2 3 4 5 6 
#
# 1 112.1127 45.2109 32.9769 0.0000 3.7568 0.0001
# 2 45.2109 107.9197 34.6387 0.0006 3.4934 0.0009
# 3 32.9769 34.6387 70.7241 -0.0002 -0.6908 0.0001
# 4 0.0000 0.0006 -0.0002 33.5766 -0.0002 -2.5953
# 5 3.7568 3.4934 -0.6908 -0.0002 26.0719 0.0000
# 6 0.0001 0.0009 0.0001 -2.5953 0.0000 29.9392
#
#
#
# Elastic Compliance Matrix: (Units=1/GPa)
#
#
# Indices 1 2 3 4 5 6 
#
# 1 0.011476 -0.003613 -0.003594 0.000000 -0.001265 0.000000
# 2 -0.003613 0.012201 -0.004303 0.000000 -0.001228 0.000000
# 3 -0.003594 -0.004303 0.017938 0.000000 0.001570 0.000000
# 4 0.000000 0.000000 0.000000 0.029984 0.000000 0.002599
# 5 -0.001265 -0.001228 0.001570 0.000000 0.038744 0.000000
# 6 0.000000 0.000000 0.000000 0.002599 0.000000 0.033626
#
#
# Mechanical properties :
#
#
# Convention : Reuss Voigt Hill
#
# Bulk Modulus (GPa) = 53.77759 57.37881 55.57820
# Shear Modulus (GPa) = 28.87067 29.77956 29.32512
#
# Velocity S-wave (km/s) = 3.74164 3.80008 3.77097
# Velocity P-wave (km/s) = 6.68911 6.86135 6.77578
#
# Compressibility (1/GPa) = 0.01859511
#
# Stress axis : x y z
#
# Youngs Moduli (GPa) = 87.13728 81.96271 55.74824
#
# Poissons Ratio (x) = 0.29616 0.20034
# Poissons Ratio (y) = 0.31485 0.23987
# Poissons Ratio (z) = 0.31314 0.35266
#
# Static dielectric constant tensor:
#      x y z
#    x 2.712420 -0.000050 0.472830 
#    y -0.000050 3.920640 0.000010 
#    z 0.472830 0.000010 3.883030 
# 
# 
# High freq. dielectric constant tensor:
#      x y z
#    x 1.806210 0.000000 0.003910 
#    y 0.000000 1.786840 0.000000 
#    z 0.003910 0.000000 1.813680 
# 
# From -- ./inp_files/318646.got.cif
#   From: 2010.06.25/outbox.cif.g09.slc.cpg/sg15_160_cif.got.tgz:318646.got - 2010.06.28 07:06:18.
