data_PCOD8138854
_publ_section_title
;
Structure prediction by ZEFSAII (Michael W. Deem and Ramdas Pophale) SiO2 
 PCOD8138854
Probable space group: C 2/C
;
_chemical_formula_sum "Si O2"
_cell_formula_units_Z 52
_cell_length_a 21.926592
_cell_length_b 8.553183
_cell_length_c 19.561509
_cell_angle_alpha 90.000000
_cell_angle_beta 138.117925
_cell_angle_gamma 90.000000
_cell_volume 2449.161159
_symmetry_space_group_name_H-M "C 2/C"
_symmetry_group_IT_number 15
_symmetry_cell_setting 'monoclinic'
loop_
_space_group_symop_operation_xyz
x,y,z
-x,y,1/2-z
-x,-y,-z
x,-y,1/2+z
1/2+x,1/2+y,z
1/2-x,1/2+y,1/2-z
1/2-x,1/2-y,-z
1/2+x,1/2-y,1/2+z
loop_
_atom_site_type_symbol
_atom_site_label
_atom_site_fract_x
_atom_site_fract_y
_atom_site_fract_z
Si Si1 0.942290 0.630080 0.989547
Si Si2 0.540914 0.650923 0.209277
Si Si3 0.243066 0.204178 0.345699
Si Si4 0.401722 0.891362 0.064664
Si Si5 0.752619 0.619972 0.779259
Si Si6 0.066698 0.803919 0.186148
Si Si7 0.500000 0.921717 0.750000
O O1 0.854078 0.696155 0.875157
O O2 0.900880 0.549064 0.021222
O O3 0.000000 0.500000 0.000000
O O4 0.010444 0.766621 0.070111
O O5 0.500000 0.657456 0.250000
O O6 0.643566 0.712586 0.295134
O O7 0.481770 0.767559 0.111957
O O8 0.533473 0.475476 0.177199
O O9 0.306605 0.194222 0.466566
O O10 0.266120 0.356076 0.317872
O O11 0.255761 0.062169 0.301988
O O12 0.419542 0.960699 0.155799
O O13 0.674773 0.703478 0.760239
O O14 0.046131 0.682954 0.229879
#
# Coordination Sequence:
#
# PCOD8138854 Si02
#       7
#     8   8   8   8   8   8   4
#     4  10  20  38  62  88 118 160 202 250 301 363
#     4  11  22  40  58  87 126 156 196 247 300 359
#     4  10  23  40  62  89 120 156 200 251 302 357
#     4  10  21  39  59  88 115 161 205 238 298 359
#     4  10  21  39  60  91 119 155 204 251 303 360
#     4  10  21  38  61  88 124 159 199 253 302 353
#     4  10  20  40  60  84 124 166 202 244 290 364
#
# _framework density 21.231760000000001
#
# number of rings (size 3 to 8) (size 9 to 14) (size 15 to 20)
#    0.000    1.846    1.538    2.769    0.000    3.077 
#    2.769    6.923    0.000    0.000    0.000    0.000 
#    0.000    0.000    0.000    0.000    0.000    0.000 
#
# Total GULP energy -322143.859952 kJ/mol
# GULP energy per Si atom -12390.148460 kJ/mol
# Density = 2.118344 g / cm^3
# Si number density = 21.231760 Si / 1000 Ang^3
#
#
#
# Elastic Constant Matrix: (Units=GPa)
#
#
# Indices 1 2 3 4 5 6 
#
# 1 81.2741 13.3753 27.4504 0.0000 20.4269 0.0000
# 2 13.3753 67.9217 33.3187 0.0000 11.3460 0.0000
# 3 27.4504 33.3187 123.0380 0.0000 24.4094 0.0000
# 4 0.0000 0.0000 0.0000 29.8681 0.0000 7.4285
# 5 20.4269 11.3460 24.4094 0.0000 36.3278 0.0000
# 6 0.0000 0.0000 0.0000 7.4285 0.0000 18.2315
#
#
#
# Elastic Compliance Matrix: (Units=1/GPa)
#
#
# Indices 1 2 3 4 5 6 
#
# 1 0.014752 -0.000935 -0.001673 0.000000 -0.006878 0.000000
# 2 -0.000935 0.017245 -0.004035 0.000000 -0.002149 0.000000
# 3 -0.001673 -0.004035 0.010565 0.000000 -0.004898 0.000000
# 4 0.000000 0.000000 0.000000 0.037256 0.000000 -0.015180
# 5 -0.006878 -0.002149 -0.004898 0.000000 0.035357 0.000000
# 6 0.000000 0.000000 0.000000 -0.015180 0.000000 0.061035
#
#
# Mechanical properties :
#
#
# Convention : Reuss Voigt Hill
#
# Bulk Modulus (GPa) = 34.15829 46.72473 40.44151
# Shear Modulus (GPa) = 25.09331 30.09145 27.59238
#
# Velocity S-wave (km/s) = 3.44157 3.76877 3.60888
# Velocity P-wave (km/s) = 5.64941 6.40257 6.03774
#
# Compressibility (1/GPa) = 0.02927547
#
# Stress axis : x y z
#
# Youngs Moduli (GPa) = 67.78781 57.98666 94.64954
#
# Poissons Ratio (x) = 0.05422 0.15839
# Poissons Ratio (y) = 0.06339 0.38192
# Poissons Ratio (z) = 0.11344 0.23398
#
# Static dielectric constant tensor:
#      x y z
#    x 3.778320 0.000000 -0.047120 
#    y 0.000000 4.554200 0.000000 
#    z -0.047120 0.000000 4.549000 
# 
# 
# High freq. dielectric constant tensor:
#      x y z
#    x 1.826140 0.000000 0.003770 
#    y 0.000000 1.830250 0.000000 
#    z 0.003770 0.000000 1.840920 
# 
# From -- ./inp_files/172056.got.cif
#   From: 2010.06.25/outbox.cif.g09.slc.cpg/sg15_87_cif.got.tgz:172056.got - 2010.06.28 07:06:18.
