data_PCOD8138864
_publ_section_title
;
Structure prediction by ZEFSAII (Michael W. Deem and Ramdas Pophale) SiO2 
 PCOD8138864
Probable space group: C 2/C
;
_chemical_formula_sum "Si O2"
_cell_formula_units_Z 44
_cell_length_a 11.030138
_cell_length_b 26.342664
_cell_length_c 10.609854
_cell_angle_alpha 90.000000
_cell_angle_beta 41.889481
_cell_angle_gamma 90.000000
_cell_volume 2058.395162
_symmetry_space_group_name_H-M "C 2/C"
_symmetry_group_IT_number 15
_symmetry_cell_setting 'monoclinic'
loop_
_space_group_symop_operation_xyz
x,y,z
-x,y,1/2-z
-x,-y,-z
x,-y,1/2+z
1/2+x,1/2+y,z
1/2-x,1/2+y,1/2-z
1/2-x,1/2-y,-z
1/2+x,1/2-y,1/2+z
loop_
_atom_site_type_symbol
_atom_site_label
_atom_site_fract_x
_atom_site_fract_y
_atom_site_fract_z
Si Si1 0.712070 0.906876 0.947871
Si Si2 0.000000 0.826831 0.750000
Si Si3 0.882579 0.005864 0.716573
Si Si4 0.179674 0.716017 0.165555
Si Si5 0.200813 0.599345 0.748236
Si Si6 0.061464 0.196136 0.937630
O O1 0.845950 0.861847 0.804973
O O2 0.757901 0.956489 0.831519
O O3 0.510733 0.888054 0.071103
O O4 0.741145 0.918172 0.073917
O O5 0.079563 0.793317 0.574196
O O6 0.752230 0.054219 0.802519
O O7 0.000000 0.014922 0.750000
O O8 0.000000 0.000000 0.500000
O O9 0.124990 0.751939 0.324871
O O10 0.000000 0.686355 0.250000
O O11 0.250000 0.750000 0.000000
O O12 0.350796 0.680860 0.069547
O O13 0.312640 0.649331 0.700833
#
# Coordination Sequence:
#
# PCOD8138864 Si02
#       6
#     8   4   8   8   8   8
#     4  10  20  40  60  88 129 171 203 261 322 356
#     4  10  20  38  62  88 128 162 206 258 308 384
#     4  12  21  38  62  90 128 168 214 257 317 371
#     4   9  20  39  63  83 121 161 197 261 319 369
#     4  10  22  38  64  92 125 167 216 257 305 387
#     4  10  21  39  61  94 121 163 208 254 321 372
#
# _framework density 21.375875000000001
#
# number of rings (size 3 to 8) (size 9 to 14) (size 15 to 20)
#    0.000    1.818    2.727    1.636    0.000    5.818 
#    0.000    1.818    0.000    0.000    0.000    0.000 
#    0.000    0.000    0.000    0.000    0.000    0.000 
#
# Total GULP energy -272700.015527 kJ/mol
# GULP energy per Si atom -12395.455251 kJ/mol
# Density = 2.132722 g / cm^3
# Si number density = 21.375875 Si / 1000 Ang^3
#
#
#
# Elastic Constant Matrix: (Units=GPa)
#
#
# Indices 1 2 3 4 5 6 
#
# 1 127.3096 50.9666 53.8145 0.0000 -25.0853 0.0000
# 2 50.9666 71.5674 39.1924 0.0000 -10.7265 0.0000
# 3 53.8145 39.1924 107.5622 0.0000 -14.7205 0.0000
# 4 0.0000 0.0000 0.0000 34.4822 0.0000 -3.9523
# 5 -25.0853 -10.7265 -14.7205 0.0000 50.2922 0.0000
# 6 0.0000 0.0000 0.0000 -3.9523 0.0000 35.1293
#
#
#
# Elastic Compliance Matrix: (Units=1/GPa)
#
#
# Indices 1 2 3 4 5 6 
#
# 1 0.012715 -0.006592 -0.003421 0.000000 0.003935 0.000000
# 2 -0.006592 0.021057 -0.004385 0.000000 -0.000081 0.000000
# 3 -0.003421 -0.004385 0.012756 0.000000 0.001092 0.000000
# 4 0.000000 0.000000 0.000000 0.029379 0.000000 0.003305
# 5 0.003935 -0.000081 0.001092 0.000000 0.022149 0.000000
# 6 0.000000 0.000000 0.000000 0.003305 0.000000 0.028838
#
#
# Mechanical properties :
#
#
# Convention : Reuss Voigt Hill
#
# Bulk Modulus (GPa) = 56.39859 66.04291 61.22075
# Shear Modulus (GPa) = 30.94021 34.81179 32.87600
#
# Velocity S-wave (km/s) = 3.80865 4.03991 3.92598
# Velocity P-wave (km/s) = 6.76628 7.26115 7.01808
#
# Compressibility (1/GPa) = 0.01773094
#
# Stress axis : x y z
#
# Youngs Moduli (GPa) = 78.64514 47.49064 78.39460
#
# Poissons Ratio (x) = 0.31305 0.26820
# Poissons Ratio (y) = 0.51842 0.34380
# Poissons Ratio (z) = 0.26906 0.20827
#
# Static dielectric constant tensor:
#      x y z
#    x 5.124700 0.000000 -0.753990 
#    y 0.000000 3.349480 0.000000 
#    z -0.753990 0.000000 4.546810 
# 
# 
# High freq. dielectric constant tensor:
#      x y z
#    x 1.849530 0.000000 -0.005960 
#    y 0.000000 1.804680 0.000000 
#    z -0.005960 0.000000 1.856450 
# 
# From -- ./inp_files/91146.got.cif
#   From: 2010.06.25/outbox.cif.g09.slc.cpg/sg15_46_cif.got.tgz:91146.got - 2010.06.28 07:06:18.
