data_PCOD8138659
_publ_section_title
;
Structure prediction by ZEFSAII (Michael W. Deem and Ramdas Pophale) SiO2 
 PCOD8138659
Probable space group: C 2/C
;
_chemical_formula_sum "Si O2"
_cell_formula_units_Z 56
_cell_length_a 8.441499
_cell_length_b 25.457958
_cell_length_c 15.832085
_cell_angle_alpha 90.000000
_cell_angle_beta 61.083714
_cell_angle_gamma 90.000000
_cell_volume 2978.184760
_symmetry_space_group_name_H-M "C 2/C"
_symmetry_group_IT_number 15
_symmetry_cell_setting 'monoclinic'
loop_
_space_group_symop_operation_xyz
x,y,z
-x,y,1/2-z
-x,-y,-z
x,-y,1/2+z
1/2+x,1/2+y,z
1/2-x,1/2+y,1/2-z
1/2-x,1/2-y,-z
1/2+x,1/2-y,1/2+z
loop_
_atom_site_type_symbol
_atom_site_label
_atom_site_fract_x
_atom_site_fract_y
_atom_site_fract_z
Si Si1 0.500000 0.410203 0.250000
Si Si2 0.000000 0.620871 0.750000
Si Si3 0.659363 0.432990 0.918314
Si Si4 0.818230 0.272262 0.842498
Si Si5 0.333304 0.839142 0.126577
Si Si6 0.841850 0.052504 0.622953
Si Si7 0.455333 0.861173 0.920516
Si Si8 0.667904 0.359079 0.765390
O O1 0.651974 0.373034 0.171522
O O2 0.576513 0.447690 0.303628
O O3 0.073232 0.658193 0.805806
O O4 0.156939 0.585295 0.669463
O O5 0.701163 0.494151 0.896299
O O6 0.835540 0.408695 0.916326
O O7 0.624249 0.408704 0.835488
O O8 0.484231 0.421665 0.021410
O O9 0.705109 0.220434 0.891590
O O10 0.870241 0.305613 0.912119
O O11 0.695442 0.307696 0.814113
O O12 0.000000 0.253654 0.750000
O O13 0.463267 0.862228 0.020114
O O14 0.655443 0.871015 0.835215
O O15 0.500000 0.347277 0.750000
#
# Coordination Sequence:
#
# PCOD8138659 Si02
#       8
#     4   4   8   8   8   8   8   8
#     4  10  20  38  60  82 116 156 196 236 280 358
#     4  10  26  36  56  88 128 154 194 248 292 352
#     4  10  21  40  65  82 120 154 198 245 295 348
#     4   9  19  37  62  86 118 153 197 235 295 355
#     4  11  20  39  60  84 120 156 196 238 293 344
#     4  10  22  40  59  90 117 156 200 240 296 351
#     4  10  21  39  63  91 111 158 198 242 295 357
#     4  10  23  38  60  90 120 149 196 250 295 353
#
# _framework density 18.8034
#
# number of rings (size 3 to 8) (size 9 to 14) (size 15 to 20)
#    0.000    2.000    2.143    1.714    6.000    0.000 
#    0.000    1.429    0.000    0.000    0.000    0.000 
#    0.000    0.000    0.000    0.000    0.000    0.000 
#
# Total GULP energy -347239.659527 kJ/mol
# GULP energy per Si atom -12401.416412 kJ/mol
# Density = 1.876060 g / cm^3
# Si number density = 18.803400 Si / 1000 Ang^3
#
#
#
# Elastic Constant Matrix: (Units=GPa)
#
#
# Indices 1 2 3 4 5 6 
#
# 1 101.8107 28.9598 41.5811 0.0000 -5.2493 0.0000
# 2 28.9598 73.9612 36.4876 0.0000 -8.3187 0.0000
# 3 41.5811 36.4876 129.3895 0.0000 -7.5480 0.0000
# 4 0.0000 0.0000 0.0000 24.1949 0.0000 -5.1927
# 5 -5.2493 -8.3187 -7.5480 0.0000 31.9953 0.0000
# 6 0.0000 0.0000 0.0000 -5.1927 0.0000 11.8897
#
#
#
# Elastic Compliance Matrix: (Units=1/GPa)
#
#
# Indices 1 2 3 4 5 6 
#
# 1 0.011942 -0.003189 -0.002912 0.000000 0.000443 0.000000
# 2 -0.003189 0.016863 -0.003554 0.000000 0.003023 0.000000
# 3 -0.002912 -0.003554 0.009719 0.000000 0.000891 0.000000
# 4 0.000000 0.000000 0.000000 0.045606 0.000000 0.019918
# 5 0.000443 0.003023 0.000891 0.000000 0.032323 0.000000
# 6 0.000000 0.000000 0.000000 0.019918 0.000000 0.092805
#
#
# Mechanical properties :
#
#
# Convention : Reuss Voigt Hill
#
# Bulk Modulus (GPa) = 52.05145 57.69093 54.87119
# Shear Modulus (GPa) = 21.27911 26.82485 24.05198
#
# Velocity S-wave (km/s) = 3.36767 3.78113 3.58037
# Velocity P-wave (km/s) = 6.54703 7.05764 6.80713
#
# Compressibility (1/GPa) = 0.01921176
#
# Stress axis : x y z
#
# Youngs Moduli (GPa) = 83.74069 59.30278 102.89399
#
# Poissons Ratio (x) = 0.18913 0.29967
# Poissons Ratio (y) = 0.26706 0.36569
# Poissons Ratio (z) = 0.24389 0.21076
#
# Static dielectric constant tensor:
#      x y z
#    x 3.552120 0.000000 -0.018610 
#    y 0.000000 3.299640 0.000000 
#    z -0.018610 0.000000 3.628770 
# 
# 
# High freq. dielectric constant tensor:
#      x y z
#    x 1.724980 0.000000 -0.000470 
#    y 0.000000 1.725610 0.000000 
#    z -0.000470 0.000000 1.746020 
# 
# From -- ./inp_files/137772.got.cif
#   From: 2010.06.25/outbox.cif.g09.slc.cpg/sg15_69_cif.got.tgz:137772.got - 2010.06.28 07:06:18.
