data_PCOD8138013
_publ_section_title
;
Structure prediction by ZEFSAII (Michael W. Deem and Ramdas Pophale) SiO2 
 PCOD8138013
Probable space group: C 2/C
;
_chemical_formula_sum "Si O2"
_cell_formula_units_Z 64
_cell_length_a 19.854833
_cell_length_b 12.170941
_cell_length_c 13.560395
_cell_angle_alpha 90.000000
_cell_angle_beta 68.037515
_cell_angle_gamma 90.000000
_cell_volume 3039.088706
_symmetry_space_group_name_H-M "C 2/C"
_symmetry_group_IT_number 15
_symmetry_cell_setting 'monoclinic'
loop_
_space_group_symop_operation_xyz
x,y,z
-x,y,1/2-z
-x,-y,-z
x,-y,1/2+z
1/2+x,1/2+y,z
1/2-x,1/2+y,1/2-z
1/2-x,1/2-y,-z
1/2+x,1/2-y,1/2+z
loop_
_atom_site_type_symbol
_atom_site_label
_atom_site_fract_x
_atom_site_fract_y
_atom_site_fract_z
Si Si1 0.703883 0.506675 0.057136
Si Si2 0.090570 0.681090 0.007110
Si Si3 0.257661 0.426011 0.674098
Si Si4 0.087955 0.887116 0.887785
Si Si5 0.161817 0.539586 0.397695
Si Si6 0.569858 0.760635 0.889570
Si Si7 0.563610 0.569227 0.051832
Si Si8 0.331383 0.270376 0.346898
O O1 0.769420 0.571490 0.071878
O O2 0.697268 0.391954 0.118197
O O3 0.727506 0.495342 0.930969
O O4 0.627561 0.576268 0.099354
O O5 0.144534 0.716278 0.064052
O O6 0.008406 0.687053 0.091257
O O7 0.096337 0.758664 0.908139
O O8 0.112367 0.559080 0.962915
O O9 0.333521 0.425687 0.696880
O O10 0.193982 0.485130 0.770658
O O11 0.235230 0.301051 0.659662
O O12 0.070483 0.946753 0.002653
O O13 0.017761 0.912834 0.856051
O O14 0.114265 0.647909 0.423529
O O15 0.570485 0.655581 0.959511
O O16 0.603284 0.725716 0.766800
#
# Coordination Sequence:
#
# PCOD8138013 Si02
#       8
#     8   8   8   8   8   8   8   8
#     4  11  21  37  62  89 122 159 204 259 305 363
#     4  11  19  40  64  90 121 158 210 263 303 358
#     4  10  20  37  56  90 122 156 202 252 311 358
#     4   9  18  35  59  85 119 156 193 252 309 356
#     4  11  24  37  61  93 123 170 205 249 316 366
#     4  10  24  38  60  91 128 165 204 250 314 376
#     4   9  19  37  59  84 123 162 194 247 313 367
#     4  11  20  36  63  95 118 154 211 266 305 350
#
# _framework density 21.058944
#
# number of rings (size 3 to 8) (size 9 to 14) (size 15 to 20)
#    0.000    1.750    3.750    1.875    3.500    0.500 
#    0.000    0.625    0.000    0.000    0.000    0.000 
#    0.000    0.000    0.000    0.000    0.000    0.000 
#
# Total GULP energy -396619.045039 kJ/mol
# GULP energy per Si atom -12394.345157 kJ/mol
# Density = 2.101101 g / cm^3
# Si number density = 21.058944 Si / 1000 Ang^3
#
#
#
# Elastic Constant Matrix: (Units=GPa)
#
#
# Indices 1 2 3 4 5 6 
#
# 1 110.0528 15.4193 6.0768 0.0000 -8.6443 0.0000
# 2 15.4193 48.8345 10.3054 0.0000 4.2501 0.0000
# 3 6.0768 10.3054 33.5240 0.0000 -12.0665 0.0000
# 4 0.0000 0.0000 0.0000 15.6420 0.0000 -4.6230
# 5 -8.6443 4.2501 -12.0665 0.0000 28.4333 0.0000
# 6 0.0000 0.0000 0.0000 -4.6230 0.0000 32.0717
#
#
#
# Elastic Compliance Matrix: (Units=1/GPa)
#
#
# Indices 1 2 3 4 5 6 
#
# 1 0.009852 -0.003590 0.000695 0.000000 0.003827 0.000000
# 2 -0.003590 0.024544 -0.010159 0.000000 -0.009072 0.000000
# 3 0.000695 -0.010159 0.039479 0.000000 0.018484 0.000000
# 4 0.000000 0.000000 0.000000 0.066775 0.000000 0.009625
# 5 0.003827 -0.009072 0.018484 0.000000 0.045534 0.000000
# 6 0.000000 0.000000 0.000000 0.009625 0.000000 0.032568
#
#
# Mechanical properties :
#
#
# Convention : Reuss Voigt Hill
#
# Bulk Modulus (GPa) = 20.93514 28.44603 24.69059
# Shear Modulus (GPa) = 19.17297 25.93672 22.55485
#
# Velocity S-wave (km/s) = 3.02063 3.51326 3.27622
# Velocity P-wave (km/s) = 4.70408 5.47672 5.10504
#
# Compressibility (1/GPa) = 0.04776657
#
# Stress axis : x y z
#
# Youngs Moduli (GPa) = 101.50429 40.74235 25.32961
#
# Poissons Ratio (x) = 0.14628 -0.01761
# Poissons Ratio (y) = 0.36445 0.25734
# Poissons Ratio (z) = -0.07058 0.41392
#
# Static dielectric constant tensor:
#      x y z
#    x 4.423090 0.000000 -0.221350 
#    y 0.000000 3.605240 0.000000 
#    z -0.221350 0.000000 3.602300 
# 
# 
# High freq. dielectric constant tensor:
#      x y z
#    x 1.850480 0.000000 -0.019830 
#    y 0.000000 1.807070 0.000000 
#    z -0.019830 0.000000 1.803130 
# 
# From -- ./inp_files/167632.got.cif
#   From: 2010.06.25/outbox.cif.g09.slc.cpg/sg15_84_cif.got.tgz:167632.got - 2010.06.28 07:06:18.
