data_PCOD8138397
_publ_section_title
;
Structure prediction by ZEFSAII (Michael W. Deem and Ramdas Pophale) SiO2 
 PCOD8138397
Probable space group: C 2/C
;
_chemical_formula_sum "Si O2"
_cell_formula_units_Z 64
_cell_length_a 8.566463
_cell_length_b 16.990823
_cell_length_c 21.717037
_cell_angle_alpha 90.000000
_cell_angle_beta 97.653441
_cell_angle_gamma 90.000000
_cell_volume 3132.783565
_symmetry_space_group_name_H-M "C 2/C"
_symmetry_group_IT_number 15
_symmetry_cell_setting 'monoclinic'
loop_
_space_group_symop_operation_xyz
x,y,z
-x,y,1/2-z
-x,-y,-z
x,-y,1/2+z
1/2+x,1/2+y,z
1/2-x,1/2+y,1/2-z
1/2-x,1/2-y,-z
1/2+x,1/2-y,1/2+z
loop_
_atom_site_type_symbol
_atom_site_label
_atom_site_fract_x
_atom_site_fract_y
_atom_site_fract_z
Si Si1 0.208752 0.190835 0.320733
Si Si2 0.191451 0.940394 0.630757
Si Si3 0.679521 0.060663 0.778719
Si Si4 0.309448 0.380347 0.164157
Si Si5 0.320244 0.539252 0.109470
Si Si6 0.841560 0.045064 0.976011
Si Si7 0.655376 0.279954 0.678750
Si Si8 0.861323 0.163337 0.873713
O O1 0.245131 0.101133 0.343349
O O2 0.238232 0.205131 0.249525
O O3 0.326057 0.243714 0.368688
O O4 0.030682 0.213409 0.326494
O O5 0.281934 0.972986 0.695701
O O6 0.214966 0.846392 0.633199
O O7 0.008915 0.965695 0.626546
O O8 0.257852 0.983548 0.572364
O O9 0.500000 0.069321 0.750000
O O10 0.800989 0.083861 0.731737
O O11 0.709730 0.121565 0.835480
O O12 0.251178 0.451667 0.117128
O O13 0.196613 0.304522 0.152471
O O14 0.484520 0.353858 0.157903
O O15 0.261825 0.564357 0.037752
O O16 0.876383 0.128435 0.943673
O O17 0.000000 0.000000 0.000000
#
# Coordination Sequence:
#
# PCOD8138397 Si02
#       8
#     8   8   8   8   8   8   8   8
#     4  10  21  37  57  88 121 154 193 241 300 362
#     4   9  19  37  59  83 113 163 195 239 290 351
#     4  11  21  35  56  85 120 156 193 240 305 362
#     4  12  21  35  60  87 117 151 198 243 298 351
#     4  10  20  37  64  87 111 159 208 240 283 354
#     4   9  17  37  62  86 114 152 211 249 276 339
#     4  10  21  36  56  85 127 152 186 241 310 362
#     4  11  21  35  62  89 114 154 198 248 294 347
#
# _framework density 20.429116
#
# number of rings (size 3 to 8) (size 9 to 14) (size 15 to 20)
#    0.000    1.750    5.000    1.875    0.000    1.500 
#    4.500    0.625    0.000    6.750    0.000    0.000 
#    0.000    0.000    0.000    0.000    0.000    0.000 
#
# Total GULP energy -396535.720435 kJ/mol
# GULP energy per Si atom -12391.741264 kJ/mol
# Density = 2.038262 g / cm^3
# Si number density = 20.429116 Si / 1000 Ang^3
#
#
#
# Elastic Constant Matrix: (Units=GPa)
#
#
# Indices 1 2 3 4 5 6 
#
# 1 39.2286 36.3806 28.7219 0.0000 1.8999 0.0000
# 2 36.3806 147.3820 47.0269 0.0000 -3.9387 0.0000
# 3 28.7219 47.0269 96.6048 0.0000 -5.1015 0.0000
# 4 0.0000 0.0000 0.0000 30.5427 0.0000 -1.4321
# 5 1.8999 -3.9387 -5.1015 0.0000 15.3769 0.0000
# 6 0.0000 0.0000 0.0000 -1.4321 0.0000 27.6395
#
#
#
# Elastic Compliance Matrix: (Units=1/GPa)
#
#
# Indices 1 2 3 4 5 6 
#
# 1 0.038816 -0.007095 -0.008587 0.000000 -0.009462 0.000000
# 2 -0.007095 0.009339 -0.002304 0.000000 0.002504 0.000000
# 3 -0.008587 -0.002304 0.014302 0.000000 0.005215 0.000000
# 4 0.000000 0.000000 0.000000 0.032821 0.000000 0.001701
# 5 -0.009462 0.002504 0.005215 0.000000 0.068574 0.000000
# 6 0.000000 0.000000 0.000000 0.001701 0.000000 0.036268
#
#
# Mechanical properties :
#
#
# Convention : Reuss Voigt Hill
#
# Bulk Modulus (GPa) = 37.75715 56.38603 47.07159
# Shear Modulus (GPa) = 20.41492 26.11754 23.26623
#
# Velocity S-wave (km/s) = 3.16461 3.57942 3.37838
# Velocity P-wave (km/s) = 5.64581 6.68907 6.18946
#
# Compressibility (1/GPa) = 0.02648505
#
# Stress axis : x y z
#
# Youngs Moduli (GPa) = 25.76237 107.08246 69.92237
#
# Poissons Ratio (x) = 0.75972 0.60040
# Poissons Ratio (y) = 0.18278 0.16113
# Poissons Ratio (z) = 0.22121 0.24676
#
# Static dielectric constant tensor:
#      x y z
#    x 3.283510 0.000000 -0.027930 
#    y 0.000000 4.000370 0.000000 
#    z -0.027930 0.000000 4.169440 
# 
# 
# High freq. dielectric constant tensor:
#      x y z
#    x 1.756990 0.000000 0.001310 
#    y 0.000000 1.810140 0.000000 
#    z 0.001310 0.000000 1.788800 
# 
# From -- ./inp_files/232676.got.cif
#   From: 2010.06.25/outbox.cif.g09.slc.cpg/sg15_117_cif.got.tgz:232676.got - 2010.06.28 07:06:18.
