data_PCOD8138537
_publ_section_title
;
Structure prediction by ZEFSAII (Michael W. Deem and Ramdas Pophale) SiO2 
 PCOD8138537
Probable space group: C 2/C
;
_chemical_formula_sum "Si O2"
_cell_formula_units_Z 64
_cell_length_a 21.400587
_cell_length_b 14.523301
_cell_length_c 29.268509
_cell_angle_alpha 90.000000
_cell_angle_beta 159.482862
_cell_angle_gamma 90.000000
_cell_volume 3188.336888
_symmetry_space_group_name_H-M "C 2/C"
_symmetry_group_IT_number 15
_symmetry_cell_setting 'monoclinic'
loop_
_space_group_symop_operation_xyz
x,y,z
-x,y,1/2-z
-x,-y,-z
x,-y,1/2+z
1/2+x,1/2+y,z
1/2-x,1/2+y,1/2-z
1/2-x,1/2-y,-z
1/2+x,1/2-y,1/2+z
loop_
_atom_site_type_symbol
_atom_site_label
_atom_site_fract_x
_atom_site_fract_y
_atom_site_fract_z
Si Si1 0.457618 0.508698 0.134405
Si Si2 0.753243 0.086766 0.318570
Si Si3 0.150524 0.561462 0.578746
Si Si4 0.616429 0.971937 0.953227
Si Si5 0.928702 0.794582 0.652548
Si Si6 0.452943 0.815435 0.092230
Si Si7 0.527451 0.437260 0.086484
Si Si8 0.782555 0.711045 0.803913
O O1 0.655872 0.485395 0.286953
O O2 0.427275 0.616103 0.119410
O O3 0.431193 0.484567 0.063260
O O4 0.305853 0.451939 0.058669
O O5 0.549693 0.060203 0.191917
O O6 0.729487 0.185621 0.279043
O O7 0.875951 0.092197 0.447136
O O8 0.830171 0.009106 0.336928
O O9 0.104552 0.578599 0.494244
O O10 0.157905 0.659393 0.609184
O O11 0.000000 0.500000 0.500000
O O12 0.589751 0.079089 0.943959
O O13 0.730598 0.757778 0.528886
O O14 0.041599 0.714435 0.702354
O O15 0.000000 0.824127 0.750000
O O16 0.553329 0.777609 0.117566
O O17 0.627653 0.344778 0.171465
#
# Coordination Sequence:
#
# PCOD8138537 Si02
#       8
#     8   8   8   8   8   8   8   8
#     4  10  21  40  65  90 131 170 208 271 326 388
#     4  11  24  42  67  93 129 174 216 273 330 395
#     4  11  21  38  66  96 125 163 214 271 323 381
#     4  11  21  41  63  90 128 169 215 261 333 386
#     4  10  21  35  58  93 133 161 208 253 327 399
#     4  10  20  38  55  93 125 163 204 261 321 394
#     4  10  23  45  61  95 131 168 218 269 330 395
#     4  11  23  40  67  95 125 166 224 271 326 386
#
# _framework density 20.073160999999999
#
# number of rings (size 3 to 8) (size 9 to 14) (size 15 to 20)
#    0.000    1.500    2.500    3.375    1.750    1.500 
#    6.750    2.500    5.500    0.000    0.000    0.000 
#    0.000    0.000    0.000    0.000    0.000    0.000 
#
# Total GULP energy -396555.758320 kJ/mol
# GULP energy per Si atom -12392.367447 kJ/mol
# Density = 2.002747 g / cm^3
# Si number density = 20.073161 Si / 1000 Ang^3
#
#
#
# Elastic Constant Matrix: (Units=GPa)
#
#
# Indices 1 2 3 4 5 6 
#
# 1 133.7154 37.0806 58.7807 0.1477 2.5569 -0.0030
# 2 37.0806 68.9733 42.5272 0.1908 -10.0245 -0.0118
# 3 58.7807 42.5272 123.4930 0.2509 8.0682 -0.0280
# 4 0.1477 0.1908 0.2509 20.3963 -0.1184 -3.8224
# 5 2.5569 -10.0245 8.0682 -0.1184 38.4455 -0.0393
# 6 -0.0030 -0.0118 -0.0280 -3.8224 -0.0393 31.6604
#
#
#
# Elastic Compliance Matrix: (Units=1/GPa)
#
#
# Indices 1 2 3 4 5 6 
#
# 1 0.009969 -0.003270 -0.003569 -0.000003 -0.000767 -0.000005
# 2 -0.003270 0.021071 -0.006157 -0.000056 0.007004 0.000004
# 3 -0.003569 -0.006157 0.012173 -0.000091 -0.003923 -0.000008
# 4 -0.000003 -0.000056 -0.000091 0.050166 0.000165 0.006057
# 5 -0.000767 0.007004 -0.003923 0.000165 0.028712 0.000055
# 6 -0.000005 0.000004 -0.000008 0.006057 0.000055 0.032317
#
#
# Mechanical properties :
#
#
# Convention : Reuss Voigt Hill
#
# Bulk Modulus (GPa) = 58.06986 66.99541 62.53264
# Shear Modulus (GPa) = 26.86151 30.61997 28.74074
#
# Velocity S-wave (km/s) = 3.66208 3.90990 3.78802
# Velocity P-wave (km/s) = 6.84639 7.33697 7.09592
#
# Compressibility (1/GPa) = 0.01722064
#
# Stress axis : x y z
#
# Youngs Moduli (GPa) = 100.31142 47.45890 82.14898
#
# Poissons Ratio (x) = 0.15521 0.29317
# Poissons Ratio (y) = 0.32807 0.50578
# Poissons Ratio (z) = 0.35798 0.29220
#
# Static dielectric constant tensor:
#      x y z
#    x 4.135860 0.000150 0.019640 
#    y 0.000150 3.490990 -0.000330 
#    z 0.019640 -0.000330 3.822780 
# 
# 
# High freq. dielectric constant tensor:
#      x y z
#    x 1.794440 0.000010 0.002110 
#    y 0.000010 1.773200 -0.000030 
#    z 0.002110 -0.000030 1.785730 
# 
# From -- ./inp_files/318007.got.cif
#   From: 2010.06.25/outbox.cif.g09.slc.cpg/sg15_160_cif.got.tgz:318007.got - 2010.06.28 07:06:18.
