data_PCOD8138117
_publ_section_title
;
Structure prediction by ZEFSAII (Michael W. Deem and Ramdas Pophale) SiO2 
 PCOD8138117
Probable space group: C 2/C
;
_chemical_formula_sum "Si O2"
_cell_formula_units_Z 56
_cell_length_a 15.902038
_cell_length_b 10.920243
_cell_length_c 16.479382
_cell_angle_alpha 90.000000
_cell_angle_beta 82.627818
_cell_angle_gamma 90.000000
_cell_volume 2838.056441
_symmetry_space_group_name_H-M "C 2/C"
_symmetry_group_IT_number 15
_symmetry_cell_setting 'monoclinic'
loop_
_space_group_symop_operation_xyz
x,y,z
-x,y,1/2-z
-x,-y,-z
x,-y,1/2+z
1/2+x,1/2+y,z
1/2-x,1/2+y,1/2-z
1/2-x,1/2-y,-z
1/2+x,1/2-y,1/2+z
loop_
_atom_site_type_symbol
_atom_site_label
_atom_site_fract_x
_atom_site_fract_y
_atom_site_fract_z
Si Si1 0.751598 0.628869 0.551358
Si Si2 0.672083 0.231776 0.396404
Si Si3 0.228689 0.110390 0.740531
Si Si4 0.337208 0.391634 0.951688
Si Si5 0.416769 0.992053 0.061714
Si Si6 0.085128 0.359098 0.280284
Si Si7 0.090122 0.911344 0.721409
O O1 0.750000 0.750000 0.500000
O O2 0.739925 0.663881 0.648009
O O3 0.678216 0.536085 0.531160
O O4 0.837297 0.554350 0.518843
O O5 0.685195 0.293414 0.306884
O O6 0.636889 0.329665 0.466632
O O7 0.758509 0.175683 0.418794
O O8 0.603291 0.123911 0.394868
O O9 0.324950 0.079052 0.760267
O O10 0.170669 0.989817 0.741470
O O11 0.410494 0.381969 0.874931
O O12 0.431386 0.886419 0.124536
O O13 0.500000 0.000000 0.000000
O O14 0.093346 0.214110 0.270496
O O15 0.000000 0.413288 0.250000
O O16 0.000000 0.978491 0.750000
#
# Coordination Sequence:
#
# PCOD8138117 Si02
#       7
#     8   8   8   8   8   8   8
#     4   9  20  41  62  90 122 161 204 253 310 367
#     4  10  20  37  59  88 121 165 201 255 312 366
#     4  10  21  40  64  91 129 158 210 258 310 377
#     4   9  19  37  62  87 117 161 206 245 307 373
#     4  10  23  40  56  88 127 154 209 264 303 373
#     4  10  22  38  65  90 117 165 210 252 316 365
#     4  10  21  39  63  89 124 159 211 255 304 377
#
# _framework density 19.731812999999999
#
# number of rings (size 3 to 8) (size 9 to 14) (size 15 to 20)
#    0.000    2.286    1.429    0.857    4.000    3.429 
#    7.714    0.714    0.000    0.000    0.000    0.000 
#    0.000    0.000    0.000    0.000    0.000    0.000 
#
# Total GULP energy -346940.650339 kJ/mol
# GULP energy per Si atom -12390.737512 kJ/mol
# Density = 1.968690 g / cm^3
# Si number density = 19.731813 Si / 1000 Ang^3
#
#
#
# Elastic Constant Matrix: (Units=GPa)
#
#
# Indices 1 2 3 4 5 6 
#
# 1 130.2297 43.9062 47.6990 0.0000 -23.2019 0.0000
# 2 43.9062 117.0304 73.9653 0.0000 -11.9366 0.0000
# 3 47.6990 73.9653 117.0976 0.0000 -28.0821 0.0000
# 4 0.0000 0.0000 0.0000 39.9780 0.0000 -2.7756
# 5 -23.2019 -11.9366 -28.0821 0.0000 34.0569 0.0000
# 6 0.0000 0.0000 0.0000 -2.7756 0.0000 24.6788
#
#
#
# Elastic Compliance Matrix: (Units=1/GPa)
#
#
# Indices 1 2 3 4 5 6 
#
# 1 0.009813 -0.002312 -0.001406 0.000000 0.004716 0.000000
# 2 -0.002312 0.015021 -0.009550 0.000000 -0.004185 0.000000
# 3 -0.001406 -0.009550 0.017591 0.000000 0.010200 0.000000
# 4 0.000000 0.000000 0.000000 0.025211 0.000000 0.002835
# 5 0.004716 -0.004185 0.010200 0.000000 0.039519 0.000000
# 6 0.000000 0.000000 0.000000 0.002835 0.000000 0.040840
#
#
# Mechanical properties :
#
#
# Convention : Reuss Voigt Hill
#
# Bulk Modulus (GPa) = 62.93528 77.27765 70.10646
# Shear Modulus (GPa) = 27.80443 32.99521 30.39982
#
# Velocity S-wave (km/s) = 3.75789 4.09367 3.92937
# Velocity P-wave (km/s) = 7.12696 7.84813 7.49623
#
# Compressibility (1/GPa) = 0.01588934
#
# Stress axis : x y z
#
# Youngs Moduli (GPa) = 101.90135 66.57298 56.84710
#
# Poissons Ratio (x) = 0.15392 0.07993
# Poissons Ratio (y) = 0.23560 0.54289
# Poissons Ratio (z) = 0.14328 0.63577
#
# Static dielectric constant tensor:
#      x y z
#    x 3.918870 0.000000 -0.214690 
#    y 0.000000 3.727860 0.000000 
#    z -0.214690 0.000000 3.672940 
# 
# 
# High freq. dielectric constant tensor:
#      x y z
#    x 1.762790 0.000000 -0.021700 
#    y 0.000000 1.762710 0.000000 
#    z -0.021700 0.000000 1.762900 
# 
# From -- ./inp_files/152601.got.cif
#   From: 2010.06.25/outbox.cif.g09.slc.cpg/sg15_77_cif.got.tgz:152601.got - 2010.06.28 07:06:18.
