data_PCOD8138196
_publ_section_title
;
Structure prediction by ZEFSAII (Michael W. Deem and Ramdas Pophale) SiO2 
 PCOD8138196
Probable space group: C 2/C
;
_chemical_formula_sum "Si O2"
_cell_formula_units_Z 56
_cell_length_a 15.981221
_cell_length_b 7.967407
_cell_length_c 22.197348
_cell_angle_alpha 90.000000
_cell_angle_beta 71.868991
_cell_angle_gamma 90.000000
_cell_volume 2686.027566
_symmetry_space_group_name_H-M "C 2/C"
_symmetry_group_IT_number 15
_symmetry_cell_setting 'monoclinic'
loop_
_space_group_symop_operation_xyz
x,y,z
-x,y,1/2-z
-x,-y,-z
x,-y,1/2+z
1/2+x,1/2+y,z
1/2-x,1/2+y,1/2-z
1/2-x,1/2-y,-z
1/2+x,1/2-y,1/2+z
loop_
_atom_site_type_symbol
_atom_site_label
_atom_site_fract_x
_atom_site_fract_y
_atom_site_fract_z
Si Si1 0.326509 0.490771 0.327889
Si Si2 0.153339 0.329908 0.859418
Si Si3 0.542646 0.092530 0.933914
Si Si4 0.694331 0.371243 0.467454
Si Si5 0.388712 0.494089 0.187077
Si Si6 0.563003 0.615015 0.093009
Si Si7 0.711927 0.308750 0.888091
O O1 0.237568 0.565131 0.321687
O O2 0.395861 0.512183 0.257522
O O3 0.362741 0.611400 0.372087
O O4 0.300541 0.303675 0.358307
O O5 0.070181 0.453207 0.879043
O O6 0.159173 0.248330 0.923784
O O7 0.144203 0.195043 0.809783
O O8 0.470630 0.198324 0.913304
O O9 0.630166 0.199647 0.933911
O O10 0.500000 0.000000 0.000000
O O11 0.750000 0.250000 0.500000
O O12 0.609974 0.449181 0.521579
O O13 0.739421 0.537384 0.427259
O O14 0.483179 0.498807 0.132818
O O15 0.321131 0.620214 0.169182
#
# Coordination Sequence:
#
# PCOD8138196 Si02
#       7
#     8   8   8   8   8   8   8
#     4  11  21  42  61  90 123 164 208 251 308 371
#     4  10  21  38  64  89 121 166 205 254 307 371
#     4  10  20  37  60  93 124 157 203 252 313 375
#     4  11  21  40  61  96 126 157 204 259 317 363
#     4  10  22  40  64  87 123 164 211 251 301 372
#     4  11  23  37  63  91 127 162 198 264 316 356
#     4   9  23  38  63  94 117 167 206 250 308 372
#
# _framework density 20.848631999999998
#
# number of rings (size 3 to 8) (size 9 to 14) (size 15 to 20)
#    0.000    1.714    2.857    1.286    2.000    2.286 
#    2.571    0.000    0.000    0.000    0.000    0.000 
#    0.000    0.000    0.000    0.000    0.000    0.000 
#
# Total GULP energy -346880.309851 kJ/mol
# GULP energy per Si atom -12388.582495 kJ/mol
# Density = 2.080118 g / cm^3
# Si number density = 20.848632 Si / 1000 Ang^3
#
#
#
# Elastic Constant Matrix: (Units=GPa)
#
#
# Indices 1 2 3 4 5 6 
#
# 1 55.0482 29.1226 20.9978 0.0000 -3.7320 0.0000
# 2 29.1226 116.0044 33.2586 0.0001 1.7703 0.0001
# 3 20.9978 33.2586 103.8001 0.0000 -4.2872 0.0000
# 4 0.0000 0.0001 0.0000 27.6374 0.0000 -2.4196
# 5 -3.7320 1.7703 -4.2872 0.0000 25.6988 0.0000
# 6 0.0000 0.0001 0.0000 -2.4196 0.0000 35.6626
#
#
#
# Elastic Compliance Matrix: (Units=1/GPa)
#
#
# Indices 1 2 3 4 5 6 
#
# 1 0.021954 -0.004758 -0.002791 0.000000 0.003050 0.000000
# 2 -0.004758 0.010559 -0.002496 0.000000 -0.001835 0.000000
# 3 -0.002791 -0.002496 0.011065 0.000000 0.001613 0.000000
# 4 0.000000 0.000000 0.000000 0.036399 0.000000 0.002470
# 5 0.003050 -0.001835 0.001613 0.000000 0.039751 0.000000
# 6 0.000000 0.000000 0.000000 0.002470 0.000000 0.028208
#
#
# Mechanical properties :
#
#
# Convention : Reuss Voigt Hill
#
# Bulk Modulus (GPa) = 42.57543 49.06785 45.82164
# Shear Modulus (GPa) = 28.43251 30.56468 29.49859
#
# Velocity S-wave (km/s) = 3.69692 3.83303 3.76559
# Velocity P-wave (km/s) = 6.22001 6.57083 6.39782
#
# Compressibility (1/GPa) = 0.02348773
#
# Stress axis : x y z
#
# Youngs Moduli (GPa) = 45.54906 94.70981 90.37607
#
# Poissons Ratio (x) = 0.45064 0.25221
# Poissons Ratio (y) = 0.21673 0.22561
# Poissons Ratio (z) = 0.12711 0.23643
#
# Static dielectric constant tensor:
#      x y z
#    x 3.640530 0.000000 -0.144200 
#    y 0.000000 3.991620 0.000000 
#    z -0.144200 0.000000 3.881640 
# 
# 
# High freq. dielectric constant tensor:
#      x y z
#    x 1.793230 0.000000 -0.012660 
#    y 0.000000 1.821180 0.000000 
#    z -0.012660 0.000000 1.824160 
# 
# From -- ./inp_files/276251.got.cif
#   From: 2010.06.25/outbox.cif.g09.slc.cpg/sg15_139_cif.got.tgz:276251.got - 2010.06.28 07:06:18.
