data_PCOD8138789
_publ_section_title
;
Structure prediction by ZEFSAII (Michael W. Deem and Ramdas Pophale) SiO2 
 PCOD8138789
Probable space group: C 2/C
;
_chemical_formula_sum "Si O2"
_cell_formula_units_Z 52
_cell_length_a 15.212780
_cell_length_b 11.379038
_cell_length_c 18.540800
_cell_angle_alpha 90.000000
_cell_angle_beta 54.684189
_cell_angle_gamma 90.000000
_cell_volume 2618.913190
_symmetry_space_group_name_H-M "C 2/C"
_symmetry_group_IT_number 15
_symmetry_cell_setting 'monoclinic'
loop_
_space_group_symop_operation_xyz
x,y,z
-x,y,1/2-z
-x,-y,-z
x,-y,1/2+z
1/2+x,1/2+y,z
1/2-x,1/2+y,1/2-z
1/2-x,1/2-y,-z
1/2+x,1/2-y,1/2+z
loop_
_atom_site_type_symbol
_atom_site_label
_atom_site_fract_x
_atom_site_fract_y
_atom_site_fract_z
Si Si1 0.145518 0.340032 0.258343
Si Si2 0.718517 0.789995 0.691554
Si Si3 0.000000 0.153574 0.250000
Si Si4 0.133286 0.244098 0.587655
Si Si5 0.331380 0.485944 0.101921
Si Si6 0.970713 0.567746 0.180762
Si Si7 0.966217 0.998109 0.402049
O O1 0.203862 0.296765 0.302670
O O2 0.094086 0.232807 0.239054
O O3 0.231153 0.399953 0.164016
O O4 0.052926 0.432041 0.329761
O O5 0.644549 0.722199 0.668551
O O6 0.638833 0.859072 0.783820
O O7 0.787843 0.882289 0.611449
O O8 0.049845 0.073156 0.162961
O O9 0.250000 0.250000 0.500000
O O10 0.070450 0.365656 0.594876
O O11 0.065596 0.136212 0.591256
O O12 0.408996 0.492469 0.134593
O O13 0.394161 0.443916 0.000218
O O14 0.000000 0.566532 0.250000
#
# Coordination Sequence:
#
# PCOD8138789 Si02
#       7
#     8   8   4   8   8   8   8
#     4  11  22  40  62  90 125 157 211 255 309 378
#     4  10  20  38  61  91 116 159 204 255 306 363
#     4  12  26  38  62  96 122 164 210 256 306 384
#     4  11  22  38  62  89 121 160 209 256 310 371
#     4  10  22  42  63  86 127 169 198 253 322 366
#     4   9  20  36  61  85 114 160 200 246 309 362
#     4  11  24  40  62  93 125 162 210 258 312 371
#
# _framework density 19.855564999999999
#
# number of rings (size 3 to 8) (size 9 to 14) (size 15 to 20)
#    0.000    1.538    3.846    0.923    5.385    0.615 
#    0.000    0.769    0.000    0.000    0.000    0.000 
#    0.000    0.000    0.000    0.000    0.000    0.000 
#
# Total GULP energy -322288.223540 kJ/mol
# GULP energy per Si atom -12395.700905 kJ/mol
# Density = 1.981037 g / cm^3
# Si number density = 19.855565 Si / 1000 Ang^3
#
#
#
# Elastic Constant Matrix: (Units=GPa)
#
#
# Indices 1 2 3 4 5 6 
#
# 1 92.1168 35.7047 24.3310 0.0000 -4.6871 0.0000
# 2 35.7047 98.3900 40.4152 0.0000 -6.9444 0.0000
# 3 24.3310 40.4152 77.8442 0.0000 -7.0632 0.0000
# 4 0.0000 0.0000 0.0000 21.8684 0.0000 -0.8974
# 5 -4.6871 -6.9444 -7.0632 0.0000 32.8004 0.0000
# 6 0.0000 0.0000 0.0000 -0.8974 0.0000 45.5552
#
#
#
# Elastic Compliance Matrix: (Units=1/GPa)
#
#
# Indices 1 2 3 4 5 6 
#
# 1 0.012893 -0.003817 -0.001993 0.000000 0.000605 0.000000
# 2 -0.003817 0.014105 -0.006026 0.000000 0.001143 0.000000
# 3 -0.001993 -0.006026 0.016784 0.000000 0.002054 0.000000
# 4 0.000000 0.000000 0.000000 0.045765 0.000000 0.000902
# 5 0.000605 0.001143 0.002054 0.000000 0.031258 0.000000
# 6 0.000000 0.000000 0.000000 0.000902 0.000000 0.021969
#
#
# Mechanical properties :
#
#
# Convention : Reuss Voigt Hill
#
# Bulk Modulus (GPa) = 49.72942 52.13920 50.93431
# Shear Modulus (GPa) = 28.87679 31.23815 30.05747
#
# Velocity S-wave (km/s) = 3.81772 3.97075 3.89499
# Velocity P-wave (km/s) = 6.67333 6.88031 6.77761
#
# Compressibility (1/GPa) = 0.02010882
#
# Stress axis : x y z
#
# Youngs Moduli (GPa) = 77.56430 70.89745 59.58017
#
# Poissons Ratio (x) = 0.27063 0.11874
# Poissons Ratio (y) = 0.29608 0.35904
# Poissons Ratio (z) = 0.15458 0.42724
#
# Static dielectric constant tensor:
#      x y z
#    x 3.931050 0.000000 -0.221500 
#    y 0.000000 3.869810 0.000000 
#    z -0.221500 0.000000 3.532970 
# 
# 
# High freq. dielectric constant tensor:
#      x y z
#    x 1.792780 0.000000 -0.011860 
#    y 0.000000 1.773870 0.000000 
#    z -0.011860 0.000000 1.747550 
# 
# From -- ./inp_files/152546.got.cif
#   From: 2010.06.25/outbox.cif.g09.slc.cpg/sg15_77_cif.got.tgz:152546.got - 2010.06.28 07:06:18.
