data_PCOD8138427
_publ_section_title
;
Structure prediction by ZEFSAII (Michael W. Deem and Ramdas Pophale) SiO2 
 PCOD8138427
Probable space group: C 2/C
;
_chemical_formula_sum "Si O2"
_cell_formula_units_Z 48
_cell_length_a 17.100562
_cell_length_b 16.551279
_cell_length_c 13.940884
_cell_angle_alpha 90.000000
_cell_angle_beta 35.334071
_cell_angle_gamma 90.000000
_cell_volume 2282.010400
_symmetry_space_group_name_H-M "C 2/C"
_symmetry_group_IT_number 15
_symmetry_cell_setting 'monoclinic'
loop_
_space_group_symop_operation_xyz
x,y,z
-x,y,1/2-z
-x,-y,-z
x,-y,1/2+z
1/2+x,1/2+y,z
1/2-x,1/2+y,1/2-z
1/2-x,1/2-y,-z
1/2+x,1/2-y,1/2+z
loop_
_atom_site_type_symbol
_atom_site_label
_atom_site_fract_x
_atom_site_fract_y
_atom_site_fract_z
Si Si1 0.513217 0.306708 0.940451
Si Si2 0.000000 0.884687 0.750000
Si Si3 0.010211 0.633166 0.033009
Si Si4 0.710404 0.527013 0.532523
Si Si5 0.194863 0.080678 0.751538
Si Si6 0.500000 0.919090 0.750000
Si Si7 0.280690 0.581444 0.183437
O O1 0.505145 0.324438 0.835254
O O2 0.656663 0.336696 0.837688
O O3 0.502478 0.213548 0.977788
O O4 0.389286 0.349178 0.116778
O O5 0.134901 0.940501 0.610273
O O6 0.002855 0.642484 0.156443
O O7 0.879762 0.579894 0.135051
O O8 0.150043 0.589029 0.869129
O O9 0.667058 0.583013 0.665445
O O10 0.675512 0.575728 0.471383
O O11 0.873498 0.518357 0.375051
O O12 0.147766 0.992921 0.834476
#
# Coordination Sequence:
#
# PCOD8138427 Si02
#       7
#     8   4   8   8   8   4   8
#     4  12  24  40  60  93 126 165 200 255 319 368
#     4  12  22  40  61  91 126 160 214 252 302 368
#     4  10  23  40  62  91 131 159 202 254 319 369
#     4  10  20  37  64  95 117 153 214 264 296 359
#     4  11  21  40  64  91 120 164 211 257 303 364
#     4   8  20  40  65  93 122 158 202 264 316 354
#     4  11  21  40  64  91 120 164 211 257 303 364
#
# _framework density 21.034085000000001
#
# number of rings (size 3 to 8) (size 9 to 14) (size 15 to 20)
#    0.000    1.333    3.333    3.000    0.000    1.333 
#    0.000   10.000    0.000    0.000    0.000    0.000 
#    0.000    0.000    0.000    0.000    0.000    0.000 
#
# Total GULP energy -297474.754079 kJ/mol
# GULP energy per Si atom -12394.781420 kJ/mol
# Density = 2.098621 g / cm^3
# Si number density = 21.034085 Si / 1000 Ang^3
#
#
#
# Elastic Constant Matrix: (Units=GPa)
#
#
# Indices 1 2 3 4 5 6 
#
# 1 88.2255 22.3431 23.5638 -0.0002 12.0135 0.0000
# 2 22.3431 81.8284 4.8910 -0.0001 9.5666 0.0000
# 3 23.5638 4.8910 68.4626 -0.0005 -5.8392 0.0003
# 4 -0.0002 -0.0001 -0.0005 29.6504 0.0007 2.4187
# 5 12.0135 9.5666 -5.8392 0.0007 34.6186 -0.0005
# 6 0.0000 0.0000 0.0003 2.4187 -0.0005 34.8430
#
#
#
# Elastic Compliance Matrix: (Units=1/GPa)
#
#
# Indices 1 2 3 4 5 6 
#
# 1 0.014112 -0.002974 -0.005065 0.000000 -0.004930 0.000000
# 2 -0.002974 0.013356 -0.000160 0.000000 -0.002686 0.000000
# 3 -0.005065 -0.000160 0.016756 0.000000 0.004628 0.000000
# 4 0.000000 0.000000 0.000000 0.033918 -0.000001 -0.002354
# 5 -0.004930 -0.002686 0.004628 -0.000001 0.032120 0.000001
# 6 0.000000 0.000000 0.000000 -0.002354 0.000001 0.028864
#
#
# Mechanical properties :
#
#
# Convention : Reuss Voigt Hill
#
# Bulk Modulus (GPa) = 35.93693 37.79026 36.86359
# Shear Modulus (GPa) = 30.34000 32.33698 31.33849
#
# Velocity S-wave (km/s) = 3.80204 3.92517 3.86410
# Velocity P-wave (km/s) = 6.03293 6.20869 6.12144
#
# Compressibility (1/GPa) = 0.02782653
#
# Stress axis : x y z
#
# Youngs Moduli (GPa) = 70.86240 74.87091 59.68022
#
# Poissons Ratio (x) = 0.22268 0.30228
# Poissons Ratio (y) = 0.21076 0.00952
# Poissons Ratio (z) = 0.35892 0.01195
#
# Static dielectric constant tensor:
#      x y z
#    x 4.063900 0.000000 -0.030020 
#    y 0.000000 3.331740 0.000000 
#    z -0.030020 0.000000 4.065460 
# 
# 
# High freq. dielectric constant tensor:
#      x y z
#    x 1.840570 0.000000 -0.003760 
#    y 0.000000 1.786520 0.000000 
#    z -0.003760 0.000000 1.842570 
# 
# From -- ./inp_files/48386.got.cif
#   From: 2010.06.25/outbox.cif.g09.slc.cpg/sg15_25_cif.got.tgz:48386.got - 2010.06.28 07:06:18.
