data_PCOD8138710
_publ_section_title
;
Structure prediction by ZEFSAII (Michael W. Deem and Ramdas Pophale) SiO2 
 PCOD8138710
Probable space group: C 2/C
;
_chemical_formula_sum "Si O2"
_cell_formula_units_Z 52
_cell_length_a 28.063103
_cell_length_b 9.038525
_cell_length_c 9.381404
_cell_angle_alpha 90.000000
_cell_angle_beta 84.245730
_cell_angle_gamma 90.000000
_cell_volume 2367.593679
_symmetry_space_group_name_H-M "C 2/C"
_symmetry_group_IT_number 15
_symmetry_cell_setting 'monoclinic'
loop_
_space_group_symop_operation_xyz
x,y,z
-x,y,1/2-z
-x,-y,-z
x,-y,1/2+z
1/2+x,1/2+y,z
1/2-x,1/2+y,1/2-z
1/2-x,1/2-y,-z
1/2+x,1/2-y,1/2+z
loop_
_atom_site_type_symbol
_atom_site_label
_atom_site_fract_x
_atom_site_fract_y
_atom_site_fract_z
Si Si1 0.000000 0.930027 0.250000
Si Si2 0.698463 0.110940 0.848655
Si Si3 0.051028 0.872496 0.501322
Si Si4 0.358161 0.042772 0.910472
Si Si5 0.965862 0.444571 0.389363
Si Si6 0.844146 0.129880 0.495800
Si Si7 0.290523 0.440704 0.734065
O O1 0.037178 0.838296 0.337424
O O2 0.978792 0.017316 0.390816
O O3 0.657294 0.074580 0.746174
O O4 0.716728 0.280403 0.837871
O O5 0.741495 0.995296 0.818330
O O6 0.674811 0.084916 0.010602
O O7 0.047526 0.725471 0.593509
O O8 0.104383 0.938728 0.481271
O O9 0.413085 0.980808 0.895328
O O10 0.348405 0.192044 0.005697
O O11 0.000000 0.478884 0.250000
O O12 0.000000 0.500000 0.500000
O O13 0.830779 0.077214 0.341901
O O14 0.805390 0.066416 0.617156
#
# Coordination Sequence:
#
# PCOD8138710 Si02
#       7
#     4   8   8   8   8   8   8
#     4  10  20  38  60  90 116 168 196 264 304 364
#     4  11  23  41  62  94 123 164 206 254 310 365
#     4  10  21  39  62  87 126 157 214 252 311 366
#     4  10  23  42  62  87 126 161 207 259 306 368
#     4  11  23  41  63  89 122 165 209 259 315 370
#     4  10  22  40  60  90 122 166 199 257 303 364
#     4  11  23  39  65  92 128 163 206 250 309 371
#
# _framework density 21.963228999999998
#
# number of rings (size 3 to 8) (size 9 to 14) (size 15 to 20)
#    0.000    1.538    0.769    3.692    1.077    6.154 
#    5.538    0.000    0.000    0.000    0.000    0.000 
#    0.000    0.000    0.000    0.000    0.000    0.000 
#
# Total GULP energy -322167.727469 kJ/mol
# GULP energy per Si atom -12391.066441 kJ/mol
# Density = 2.191324 g / cm^3
# Si number density = 21.963229 Si / 1000 Ang^3
#
#
#
# Elastic Constant Matrix: (Units=GPa)
#
#
# Indices 1 2 3 4 5 6 
#
# 1 111.4083 29.3534 21.3796 0.0000 -6.1033 0.0000
# 2 29.3534 58.8399 12.5409 0.0000 -12.9036 0.0000
# 3 21.3796 12.5409 96.9326 0.0000 -8.5999 0.0000
# 4 0.0000 0.0000 0.0000 33.5359 0.0000 2.3772
# 5 -6.1033 -12.9036 -8.5999 0.0000 42.7157 0.0000
# 6 0.0000 0.0000 0.0000 2.3772 0.0000 26.9409
#
#
#
# Elastic Compliance Matrix: (Units=1/GPa)
#
#
# Indices 1 2 3 4 5 6 
#
# 1 0.010605 -0.004998 -0.001723 0.000000 -0.000341 0.000000
# 2 -0.004998 0.020907 -0.001126 0.000000 0.005375 0.000000
# 3 -0.001723 -0.001126 0.010986 0.000000 0.001626 0.000000
# 4 0.000000 0.000000 0.000000 0.030006 0.000000 -0.002648
# 5 -0.000341 0.005375 0.001626 0.000000 0.025313 0.000000
# 6 0.000000 0.000000 0.000000 -0.002648 0.000000 0.037352
#
#
# Mechanical properties :
#
#
# Convention : Reuss Voigt Hill
#
# Bulk Modulus (GPa) = 37.30579 43.74759 40.52669
# Shear Modulus (GPa) = 31.28961 34.23230 32.76096
#
# Velocity S-wave (km/s) = 3.77853 3.95222 3.86635
# Velocity P-wave (km/s) = 6.00490 6.38659 6.19868
#
# Compressibility (1/GPa) = 0.02680549
#
# Stress axis : x y z
#
# Youngs Moduli (GPa) = 94.29743 47.83014 91.02270
#
# Poissons Ratio (x) = 0.23906 0.15680
# Poissons Ratio (y) = 0.47131 0.10246
# Poissons Ratio (z) = 0.16244 0.05384
#
# Static dielectric constant tensor:
#      x y z
#    x 4.294090 0.000000 0.147160 
#    y 0.000000 2.771720 0.000000 
#    z 0.147160 0.000000 3.814910 
# 
# 
# High freq. dielectric constant tensor:
#      x y z
#    x 1.878880 0.000000 0.005570 
#    y 0.000000 1.849310 0.000000 
#    z 0.005570 0.000000 1.869640 
# 
# From -- ./inp_files/65139.got.cif
#   From: 2010.06.25/outbox.cif.g09.slc.cpg/sg15_33_cif.got.tgz:65139.got - 2010.06.28 07:06:18.
