data_PCOD8138517
_publ_section_title
;
Structure prediction by ZEFSAII (Michael W. Deem and Ramdas Pophale) SiO2 
 PCOD8138517
Probable space group: C 2/C
;
_chemical_formula_sum "Si O2"
_cell_formula_units_Z 36
_cell_length_a 8.785640
_cell_length_b 14.956262
_cell_length_c 18.836251
_cell_angle_alpha 90.000000
_cell_angle_beta 41.073127
_cell_angle_gamma 90.000000
_cell_volume 1626.187708
_symmetry_space_group_name_H-M "C 2/C"
_symmetry_group_IT_number 15
_symmetry_cell_setting 'monoclinic'
loop_
_space_group_symop_operation_xyz
x,y,z
-x,y,1/2-z
-x,-y,-z
x,-y,1/2+z
1/2+x,1/2+y,z
1/2-x,1/2+y,1/2-z
1/2-x,1/2-y,-z
1/2+x,1/2-y,1/2+z
loop_
_atom_site_type_symbol
_atom_site_label
_atom_site_fract_x
_atom_site_fract_y
_atom_site_fract_z
Si Si1 0.862732 0.136960 0.154865
Si Si2 0.500000 0.420321 0.750000
Si Si3 0.500000 0.010496 0.750000
Si Si4 0.756939 0.425359 0.085414
Si Si5 0.500000 0.715714 0.750000
Si Si6 0.654750 0.066387 0.547983
O O1 0.729487 0.226265 0.179576
O O2 0.878224 0.142089 0.234597
O O3 0.728007 0.048495 0.179057
O O4 0.116333 0.128621 0.030232
O O5 0.308184 0.481380 0.854179
O O6 0.537687 0.070971 0.666728
O O7 0.556717 0.349503 0.162401
O O8 0.982641 0.391238 0.049060
O O9 0.795588 0.460183 0.990712
#
# Coordination Sequence:
#
# PCOD8138517 Si02
#       6
#     8   4   4   8   4   8
#     4  10  21  36  61  94 128 163 201 258 314 373
#     4   9  16  37  65  83 122 168 212 243 300 371
#     4  11  20  37  63  98 121 156 212 273 284 359
#     4   9  19  38  65  90 118 168 211 252 303 377
#     4  10  22  40  62  93 135 156 196 264 328 356
#     4  10  20  37  68  92 118 163 223 249 299 369
#
# _framework density 22.137667
#
# number of rings (size 3 to 8) (size 9 to 14) (size 15 to 20)
#    0.000    2.222    2.222    0.667    0.000    0.889 
#    0.000    5.556    0.000    0.000    0.000    0.000 
#    0.000    0.000    0.000    0.000    0.000    0.000 
#
# Total GULP energy -223027.237254 kJ/mol
# GULP energy per Si atom -12390.402070 kJ/mol
# Density = 2.208728 g / cm^3
# Si number density = 22.137667 Si / 1000 Ang^3
#
#
#
# Elastic Constant Matrix: (Units=GPa)
#
#
# Indices 1 2 3 4 5 6 
#
# 1 79.7460 22.8165 39.5563 -0.0020 5.3518 0.0009
# 2 22.8165 86.6313 38.0879 -0.0073 -3.3024 0.0031
# 3 39.5563 38.0879 113.3976 -0.0133 0.6484 0.0053
# 4 -0.0020 -0.0073 -0.0133 21.1582 0.0030 -1.5983
# 5 5.3518 -3.3024 0.6484 0.0030 42.7403 -0.0011
# 6 0.0009 0.0031 0.0053 -1.5983 -0.0011 10.2466
#
#
#
# Elastic Compliance Matrix: (Units=1/GPa)
#
#
# Indices 1 2 3 4 5 6 
#
# 1 0.015628 -0.002115 -0.004730 -0.000002 -0.002049 0.000001
# 2 -0.002115 0.013883 -0.003933 0.000002 0.001397 -0.000001
# 3 -0.004730 -0.003933 0.011789 0.000005 0.000109 -0.000004
# 4 -0.000002 0.000002 0.000005 0.047827 -0.000003 0.007460
# 5 -0.002049 0.001397 0.000109 -0.000003 0.023760 0.000002
# 6 0.000001 -0.000001 -0.000004 0.007460 0.000002 0.098757
#
#
# Mechanical properties :
#
#
# Convention : Reuss Voigt Hill
#
# Bulk Modulus (GPa) = 50.64660 53.41071 52.02866
# Shear Modulus (GPa) = 20.85247 26.78329 23.81788
#
# Velocity S-wave (km/s) = 3.07244 3.48207 3.28365
# Velocity P-wave (km/s) = 5.95938 6.35180 6.15872
#
# Compressibility (1/GPa) = 0.01974466
#
# Stress axis : x y z
#
# Youngs Moduli (GPa) = 63.98607 72.03221 84.82629
#
# Poissons Ratio (x) = 0.15234 0.40119
# Poissons Ratio (y) = 0.13532 0.33364
# Poissons Ratio (z) = 0.30263 0.28332
#
# Static dielectric constant tensor:
#      x y z
#    x 4.173360 0.000000 -0.002630 
#    y 0.000000 3.571640 0.000010 
#    z -0.002630 0.000010 4.238420 
# 
# 
# High freq. dielectric constant tensor:
#      x y z
#    x 1.864500 0.000000 -0.017410 
#    y 0.000000 1.827260 0.000000 
#    z -0.017410 0.000000 1.886500 
# 
# From -- ./inp_files/132682.got.cif
#   From: 2010.06.25/outbox.cif.g09.slc.cpg/sg15_67_cif.got.tgz:132682.got - 2010.06.28 07:06:18.
