data_PCOD8138118
_publ_section_title
;
Structure prediction by ZEFSAII (Michael W. Deem and Ramdas Pophale) SiO2 
 PCOD8138118
Probable space group: C 2/C
;
_chemical_formula_sum "Si O2"
_cell_formula_units_Z 52
_cell_length_a 8.885467
_cell_length_b 23.497987
_cell_length_c 21.032788
_cell_angle_alpha 90.000000
_cell_angle_beta 141.863947
_cell_angle_gamma 90.000000
_cell_volume 2711.855061
_symmetry_space_group_name_H-M "C 2/C"
_symmetry_group_IT_number 15
_symmetry_cell_setting 'monoclinic'
loop_
_space_group_symop_operation_xyz
x,y,z
-x,y,1/2-z
-x,-y,-z
x,-y,1/2+z
1/2+x,1/2+y,z
1/2-x,1/2+y,1/2-z
1/2-x,1/2-y,-z
1/2+x,1/2-y,1/2+z
loop_
_atom_site_type_symbol
_atom_site_label
_atom_site_fract_x
_atom_site_fract_y
_atom_site_fract_z
Si Si1 0.293260 0.548884 0.355701
Si Si2 0.500000 0.855951 0.250000
Si Si3 0.818591 0.346615 0.746854
Si Si4 0.473807 0.244821 0.985672
Si Si5 0.690062 0.840353 0.968386
Si Si6 0.952480 0.929174 0.425180
Si Si7 0.461115 0.764874 0.336937
O O1 0.369331 0.603111 0.337494
O O2 0.405721 0.488218 0.371691
O O3 0.400514 0.560608 0.460886
O O4 0.000000 0.546384 0.250000
O O5 0.696712 0.896447 0.350222
O O6 0.369556 0.816350 0.260918
O O7 0.668938 0.293733 0.725964
O O8 0.000000 0.328054 0.750000
O O9 0.978254 0.371069 0.857871
O O10 0.320890 0.297320 0.962413
O O11 0.394216 0.226621 0.888424
O O12 0.428192 0.189238 0.011090
O O13 0.752726 0.262526 0.080039
O O14 0.873418 0.887731 0.057547
#
# Coordination Sequence:
#
# PCOD8138118 Si02
#       7
#     8   4   8   8   8   8   8
#     4  10  20  37  59  89 113 159 208 259 289 348
#     4  12  24  34  58  98 126 156 190 256 306 360
#     4  11  20  35  59  86 116 157 199 241 295 361
#     4  10  22  35  58  85 126 163 192 241 299 371
#     4  11  20  38  57  88 120 154 199 246 301 356
#     4  11  21  36  59  89 123 149 206 256 302 345
#     4  11  22  37  55  91 125 161 197 235 308 368
#
# _framework density 19.175066000000001
#
# number of rings (size 3 to 8) (size 9 to 14) (size 15 to 20)
#    0.000    1.231    6.923    0.923    4.308    0.000 
#    0.000    0.000    0.000    0.923    8.000    0.000 
#    0.000    0.000    0.000    0.000    0.000    0.000 
#
# Total GULP energy -322117.059914 kJ/mol
# GULP energy per Si atom -12389.117689 kJ/mol
# Density = 1.913142 g / cm^3
# Si number density = 19.175066 Si / 1000 Ang^3
#
#
#
# Elastic Constant Matrix: (Units=GPa)
#
#
# Indices 1 2 3 4 5 6 
#
# 1 57.6904 17.6212 19.4808 0.0000 -22.1599 0.0001
# 2 17.6212 102.2302 40.5290 0.0000 -15.1622 0.0001
# 3 19.4808 40.5290 105.0742 -0.0005 -0.5144 -0.0003
# 4 0.0000 0.0000 -0.0005 34.9920 -0.0001 -4.0633
# 5 -22.1599 -15.1622 -0.5144 -0.0001 -4.0570 0.0000
# 6 0.0001 0.0001 -0.0003 -4.0633 0.0000 2.9459
#
#
#
# Elastic Compliance Matrix: (Units=1/GPa)
#
#
# Indices 1 2 3 4 5 6 
#
# 1 0.008694 -0.005608 0.000421 0.000000 -0.026582 -0.000001
# 2 -0.005608 0.010672 -0.003120 0.000000 -0.008856 -0.000001
# 3 0.000421 -0.003120 0.010682 0.000000 0.008006 0.000002
# 4 0.000000 0.000000 0.000000 0.034028 0.000000 0.046935
# 5 -0.026582 -0.008856 0.008006 0.000000 -0.069208 0.000001
# 6 -0.000001 -0.000001 0.000002 0.046935 0.000001 0.404190
#
#
# Mechanical properties :
#
#
# Convention : Reuss Voigt Hill
#
# Bulk Modulus (GPa) = 74.43975 46.69520 60.56747
# Shear Modulus (GPa) = 11.90052 19.26710 15.58381
#
# Velocity S-wave (km/s) = 2.49394 3.17330 2.85390
# Velocity P-wave (km/s) = 6.87011 6.15072 6.52034
#
# Compressibility (1/GPa) = 0.01343368
#
# Stress axis : x y z
#
# Youngs Moduli (GPa) = 115.02241 93.70451 93.61868
#
# Poissons Ratio (x) = 0.52550 -0.03942
# Poissons Ratio (y) = 0.64505 0.29209
# Poissons Ratio (z) = -0.04844 0.29235
#
# Static dielectric constant tensor:
#      x y z
#    x 3.232140 0.000000 0.034490 
#    y 0.000000 3.937320 0.000000 
#    z 0.034490 0.000000 3.827390 
# 
# 
# High freq. dielectric constant tensor:
#      x y z
#    x 1.696510 0.000000 0.005440 
#    y 0.000000 1.749810 0.000000 
#    z 0.005440 0.000000 1.771730 
# 
# From -- ./inp_files/234488.got.cif
#   From: 2010.06.25/outbox.cif.g09.slc.cpg/sg15_118_cif.got.tgz:234488.got - 2010.06.28 07:06:18.
