data_PCOD8138837
_publ_section_title
;
Structure prediction by ZEFSAII (Michael W. Deem and Ramdas Pophale) SiO2 
 PCOD8138837
Probable space group: C 2/C
;
_chemical_formula_sum "Si O2"
_cell_formula_units_Z 56
_cell_length_a 16.567271
_cell_length_b 9.050489
_cell_length_c 27.310110
_cell_angle_alpha 90.000000
_cell_angle_beta 134.724907
_cell_angle_gamma 90.000000
_cell_volume 2909.421621
_symmetry_space_group_name_H-M "C 2/C"
_symmetry_group_IT_number 15
_symmetry_cell_setting 'monoclinic'
loop_
_space_group_symop_operation_xyz
x,y,z
-x,y,1/2-z
-x,-y,-z
x,-y,1/2+z
1/2+x,1/2+y,z
1/2-x,1/2+y,1/2-z
1/2-x,1/2-y,-z
1/2+x,1/2-y,1/2+z
loop_
_atom_site_type_symbol
_atom_site_label
_atom_site_fract_x
_atom_site_fract_y
_atom_site_fract_z
Si Si1 0.688310 0.172035 0.067446
Si Si2 0.331763 0.144162 0.896441
Si Si3 0.505055 0.347525 0.473791
Si Si4 0.465735 0.087117 0.584925
Si Si5 0.911177 0.643755 0.669448
Si Si6 0.617334 0.239876 0.434702
Si Si7 0.617826 0.189714 0.325725
O O1 0.616689 0.269074 0.075409
O O2 0.813994 0.235846 0.121031
O O3 0.698818 0.006248 0.089852
O O4 0.625978 0.177110 0.987535
O O5 0.406719 0.112634 0.880531
O O6 0.215982 0.233192 0.835017
O O7 0.399606 0.242935 0.963290
O O8 0.500000 0.500000 0.500000
O O9 0.546707 0.365336 0.434994
O O10 0.473667 0.142868 0.643855
O O11 0.432893 0.916225 0.569201
O O12 0.854959 0.484522 0.656896
O O13 0.000000 0.689302 0.750000
O O14 0.750000 0.250000 0.500000
O O15 0.601835 0.269054 0.370920
O O16 0.500000 0.215227 0.250000
#
# Coordination Sequence:
#
# PCOD8138837 Si02
#       7
#     8   8   8   8   8   8   8
#     4  11  20  37  63  86 119 152 198 248 296 347
#     4  11  20  40  59  88 118 153 197 249 298 352
#     4  11  21  35  59  93 118 148 195 250 300 350
#     4  10  20  38  62  86 119 156 197 245 305 347
#     4  10  23  41  58  86 121 158 197 247 299 360
#     4  11  19  37  63  89 118 155 197 245 300 356
#     4  10  22  40  63  82 119 161 202 239 297 362
#
# _framework density 19.247812
#
# number of rings (size 3 to 8) (size 9 to 14) (size 15 to 20)
#    0.000    1.429    4.286    2.143    2.000    0.571 
#    7.714    0.000    0.000    0.000    0.000    0.000 
#    0.000    0.000    0.000    0.000    0.000    0.000 
#
# Total GULP energy -347114.500345 kJ/mol
# GULP energy per Si atom -12396.946441 kJ/mol
# Density = 1.920400 g / cm^3
# Si number density = 19.247812 Si / 1000 Ang^3
#
#
#
# Elastic Constant Matrix: (Units=GPa)
#
#
# Indices 1 2 3 4 5 6 
#
# 1 147.7434 64.6106 66.8756 0.0000 0.8899 0.0000
# 2 64.6106 99.1522 43.1623 0.0000 8.7078 0.0000
# 3 66.8756 43.1623 108.1359 0.0000 -6.9267 0.0000
# 4 0.0000 0.0000 0.0000 25.2725 0.0000 5.6006
# 5 0.8899 8.7078 -6.9267 0.0000 28.3881 0.0000
# 6 0.0000 0.0000 0.0000 5.6006 0.0000 37.6713
#
#
#
# Elastic Compliance Matrix: (Units=1/GPa)
#
#
# Indices 1 2 3 4 5 6 
#
# 1 0.011257 -0.005218 -0.004875 0.000000 0.000058 0.000000
# 2 -0.005218 0.015370 -0.003250 0.000000 -0.005344 0.000000
# 3 -0.004875 -0.003250 0.013850 0.000000 0.004529 0.000000
# 4 0.000000 0.000000 0.000000 0.040917 0.000000 -0.006083
# 5 0.000058 -0.005344 0.004529 0.000000 0.037969 0.000000
# 6 0.000000 0.000000 0.000000 -0.006083 0.000000 0.027450
#
#
# Mechanical properties :
#
#
# Convention : Reuss Voigt Hill
#
# Bulk Modulus (GPa) = 72.51634 78.25873 75.38754
# Shear Modulus (GPa) = 28.07483 30.29190 29.18336
#
# Velocity S-wave (km/s) = 3.82330 3.97140 3.89805
# Velocity P-wave (km/s) = 7.56618 7.85978 7.71438
#
# Compressibility (1/GPa) = 0.01379000
#
# Stress axis : x y z
#
# Youngs Moduli (GPa) = 88.83465 65.06185 72.20233
#
# Poissons Ratio (x) = 0.33951 0.35199
# Poissons Ratio (y) = 0.46356 0.23466
# Poissons Ratio (z) = 0.43308 0.21146
#
# Static dielectric constant tensor:
#      x y z
#    x 3.939950 0.000000 -0.127930 
#    y 0.000000 1.093240 0.000000 
#    z -0.127930 0.000000 3.509470 
# 
# 
# High freq. dielectric constant tensor:
#      x y z
#    x 1.764880 0.000000 0.001680 
#    y 0.000000 1.745850 0.000000 
#    z 0.001680 0.000000 1.727840 
# 
# From -- ./inp_files/298558.got.cif
#   From: 2010.06.25/outbox.cif.g09.slc.cpg/sg15_150_cif.got.tgz:298558.got - 2010.06.28 07:06:18.
