data_PCOD8138243
_publ_section_title
;
Structure prediction by ZEFSAII (Michael W. Deem and Ramdas Pophale) SiO2 
 PCOD8138243
Probable space group: C 2/C
;
_chemical_formula_sum "Si O2"
_cell_formula_units_Z 56
_cell_length_a 11.068583
_cell_length_b 17.323013
_cell_length_c 17.724097
_cell_angle_alpha 90.000000
_cell_angle_beta 123.440900
_cell_angle_gamma 90.000000
_cell_volume 2835.844012
_symmetry_space_group_name_H-M "C 2/C"
_symmetry_group_IT_number 15
_symmetry_cell_setting 'monoclinic'
loop_
_space_group_symop_operation_xyz
x,y,z
-x,y,1/2-z
-x,-y,-z
x,-y,1/2+z
1/2+x,1/2+y,z
1/2-x,1/2+y,1/2-z
1/2-x,1/2-y,-z
1/2+x,1/2-y,1/2+z
loop_
_atom_site_type_symbol
_atom_site_label
_atom_site_fract_x
_atom_site_fract_y
_atom_site_fract_z
Si Si1 0.427439 0.421100 0.449970
Si Si2 0.612557 0.868228 0.096482
Si Si3 0.115112 0.303206 0.722449
Si Si4 0.160081 0.812069 0.585172
Si Si5 0.593369 0.935686 0.357835
Si Si6 0.104581 0.397096 0.928566
Si Si7 0.388615 0.368664 0.278639
O O1 0.500000 0.500000 0.500000
O O2 0.505921 0.352512 0.522407
O O3 0.258193 0.409481 0.405466
O O4 0.451582 0.419253 0.368229
O O5 0.636367 0.779925 0.078244
O O6 0.466493 0.884571 0.093020
O O7 0.737607 0.900322 0.194466
O O8 0.618973 0.917703 0.021672
O O9 0.266045 0.335465 0.809169
O O10 0.136412 0.217474 0.697435
O O11 0.000000 0.301413 0.750000
O O12 0.052930 0.356536 0.634832
O O13 0.265625 0.840066 0.553418
O O14 0.500000 0.920844 0.250000
O O15 0.599196 0.026137 0.377384
O O16 0.500000 0.369773 0.250000
#
# Coordination Sequence:
#
# PCOD8138243 Si02
#       7
#     8   8   8   8   8   8   8
#     4  12  24  40  63  88 124 167 210 254 312 383
#     4  11  23  39  64  93 122 163 211 263 318 373
#     4   8  17  33  61  93 119 150 194 260 311 354
#     4  10  20  38  64  94 121 158 211 261 309 370
#     4  12  25  43  60  88 130 175 201 249 325 395
#     4  11  20  38  65  93 124 156 213 265 314 367
#     4  10  20  37  61  92 122 152 205 264 316 365
#
# _framework density 19.747205999999998
#
# number of rings (size 3 to 8) (size 9 to 14) (size 15 to 20)
#    0.000    1.429    2.857    4.714    0.000    0.571 
#    0.000    0.000    0.000    0.000    0.000    0.000 
#    0.000    0.000    0.000    0.000    0.000    0.000 
#
# Total GULP energy -347089.450597 kJ/mol
# GULP energy per Si atom -12396.051807 kJ/mol
# Density = 1.970226 g / cm^3
# Si number density = 19.747206 Si / 1000 Ang^3
#
#
#
# Elastic Constant Matrix: (Units=GPa)
#
#
# Indices 1 2 3 4 5 6 
#
# 1 100.0515 37.9779 49.3060 0.0000 10.1119 0.0000
# 2 37.9779 57.7238 53.6982 0.0000 -7.5580 0.0000
# 3 49.3060 53.6982 139.3443 0.0000 13.0079 0.0000
# 4 0.0000 0.0000 0.0000 29.7541 0.0000 -0.6862
# 5 10.1119 -7.5580 13.0079 0.0000 36.0645 0.0000
# 6 0.0000 0.0000 0.0000 -0.6862 0.0000 26.3309
#
#
#
# Elastic Compliance Matrix: (Units=1/GPa)
#
#
# Indices 1 2 3 4 5 6 
#
# 1 0.014661 -0.009458 -0.001008 0.000000 -0.005729 0.000000
# 2 -0.009458 0.036875 -0.012245 0.000000 0.014796 0.000000
# 3 -0.001008 -0.012245 0.012899 0.000000 -0.006936 0.000000
# 4 0.000000 0.000000 0.000000 0.033629 0.000000 0.000876
# 5 -0.005729 0.014796 -0.006936 0.000000 0.034937 0.000000
# 6 0.000000 0.000000 0.000000 0.000876 0.000000 0.038001
#
#
# Mechanical properties :
#
#
# Convention : Reuss Voigt Hill
#
# Bulk Modulus (GPa) = 52.59523 64.34267 58.46895
# Shear Modulus (GPa) = 22.44553 28.83906 25.64230
#
# Velocity S-wave (km/s) = 3.37507 3.82568 3.60742
# Velocity P-wave (km/s) = 6.47149 7.22277 6.85743
#
# Compressibility (1/GPa) = 0.01901313
#
# Stress axis : x y z
#
# Youngs Moduli (GPa) = 68.20905 27.11877 77.52376
#
# Poissons Ratio (x) = 0.25650 0.07814
# Poissons Ratio (y) = 0.64514 0.94926
# Poissons Ratio (z) = 0.06875 0.33206
#
# Static dielectric constant tensor:
#      x y z
#    x 3.528250 0.000000 0.299810 
#    y 0.000000 3.508120 0.000000 
#    z 0.299810 0.000000 4.085890 
# 
# 
# High freq. dielectric constant tensor:
#      x y z
#    x 1.742490 0.000000 0.012290 
#    y 0.000000 1.756970 0.000000 
#    z 0.012290 0.000000 1.795290 
# 
# From -- ./inp_files/199567.got.cif
#   From: 2010.06.25/outbox.cif.g09.slc.cpg/sg15_100_cif.got.tgz:199567.got - 2010.06.28 07:06:18.
