data_PCOD8138958
_publ_section_title
;
Structure prediction by ZEFSAII (Michael W. Deem and Ramdas Pophale) SiO2 
 PCOD8138958
Probable space group: C 2/C
;
_chemical_formula_sum "Si O2"
_cell_formula_units_Z 56
_cell_length_a 18.110301
_cell_length_b 14.539628
_cell_length_c 12.714756
_cell_angle_alpha 90.000000
_cell_angle_beta 128.205584
_cell_angle_gamma 90.000000
_cell_volume 2630.856441
_symmetry_space_group_name_H-M "C 2/C"
_symmetry_group_IT_number 15
_symmetry_cell_setting 'monoclinic'
loop_
_space_group_symop_operation_xyz
x,y,z
-x,y,1/2-z
-x,-y,-z
x,-y,1/2+z
1/2+x,1/2+y,z
1/2-x,1/2+y,1/2-z
1/2-x,1/2-y,-z
1/2+x,1/2-y,1/2+z
loop_
_atom_site_type_symbol
_atom_site_label
_atom_site_fract_x
_atom_site_fract_y
_atom_site_fract_z
Si Si1 0.562350 0.567016 0.702270
Si Si2 0.781762 0.166493 0.750093
Si Si3 0.123374 0.351774 0.584433
Si Si4 0.895719 0.570955 0.659479
Si Si5 0.916549 0.691060 0.882592
Si Si6 0.913779 0.104225 0.400086
Si Si7 0.260117 0.982739 0.675510
O O1 0.500000 0.576014 0.750000
O O2 0.650989 0.637560 0.788714
O O3 0.508300 0.594968 0.549066
O O4 0.595080 0.462411 0.709680
O O5 0.817149 0.260782 0.835650
O O6 0.672622 0.176004 0.616993
O O7 0.786369 0.080293 0.834370
O O8 0.128626 0.370361 0.464705
O O9 0.162590 0.443234 0.674680
O O10 0.014029 0.339892 0.522537
O O11 0.893629 0.639428 0.755593
O O12 0.814772 0.494158 0.611627
O O13 0.000000 0.525457 0.750000
O O14 0.917177 0.796907 0.850696
O O15 0.826146 0.089306 0.403997
#
# Coordination Sequence:
#
# PCOD8138958 Si02
#       7
#     8   8   8   8   8   8   8
#     4  10  22  39  60  87 126 164 205 251 309 369
#     4  10  21  39  61  88 124 160 203 250 308 365
#     4  11  21  40  66  88 127 165 196 266 308 354
#     4   9  22  38  61  95 119 160 216 249 306 369
#     4  10  20  38  63  90 123 160 209 255 306 362
#     4  10  20  39  60  89 124 162 202 261 305 358
#     4  10  22  38  61  90 127 160 204 251 313 362
#
# _framework density 21.285841999999999
#
# number of rings (size 3 to 8) (size 9 to 14) (size 15 to 20)
#    0.000    2.000    2.857    0.000    0.000   11.429 
#    0.000    1.429    6.286    0.000    0.000    0.000 
#    0.000    0.000    0.000    0.000    0.000    0.000 
#
# Total GULP energy -346887.060581 kJ/mol
# GULP energy per Si atom -12388.823592 kJ/mol
# Density = 2.123739 g / cm^3
# Si number density = 21.285842 Si / 1000 Ang^3
#
#
#
# Elastic Constant Matrix: (Units=GPa)
#
#
# Indices 1 2 3 4 5 6 
#
# 1 171.8085 39.0299 36.1230 0.0000 15.7229 0.0000
# 2 39.0299 64.2403 23.0903 0.0000 0.8677 0.0000
# 3 36.1230 23.0903 39.6016 0.0000 15.5304 0.0000
# 4 0.0000 0.0000 0.0000 19.8151 0.0000 11.2936
# 5 15.7229 0.8677 15.5304 0.0000 34.4376 0.0000
# 6 0.0000 0.0000 0.0000 11.2936 0.0000 27.7338
#
#
#
# Elastic Compliance Matrix: (Units=1/GPa)
#
#
# Indices 1 2 3 4 5 6 
#
# 1 0.007589 -0.002887 -0.004749 0.000000 -0.001251 0.000000
# 2 -0.002887 0.021754 -0.012577 0.000000 0.006442 0.000000
# 3 -0.004749 -0.012577 0.043664 0.000000 -0.017206 0.000000
# 4 0.000000 0.000000 0.000000 0.065719 0.000000 -0.026762
# 5 -0.001251 0.006442 -0.017206 0.000000 0.037206 0.000000
# 6 0.000000 0.000000 0.000000 -0.026762 0.000000 0.046955
#
#
# Mechanical properties :
#
#
# Convention : Reuss Voigt Hill
#
# Bulk Modulus (GPa) = 30.69185 52.45964 41.57575
# Shear Modulus (GPa) = 18.23659 28.22443 23.23051
#
# Velocity S-wave (km/s) = 2.93020 3.64534 3.30716
# Velocity P-wave (km/s) = 5.08904 6.51282 5.84445
#
# Compressibility (1/GPa) = 0.03258194
#
# Stress axis : x y z
#
# Youngs Moduli (GPa) = 131.76644 45.96805 22.90219
#
# Poissons Ratio (x) = 0.13272 0.10876
# Poissons Ratio (y) = 0.38043 0.28804
# Poissons Ratio (z) = 0.62572 0.57813
#
# Static dielectric constant tensor:
#      x y z
#    x 4.607890 0.000000 0.447480 
#    y 0.000000 3.985820 0.000000 
#    z 0.447480 0.000000 3.439770 
# 
# 
# High freq. dielectric constant tensor:
#      x y z
#    x 1.858300 0.000000 0.033920 
#    y 0.000000 1.837430 0.000000 
#    z 0.033920 0.000000 1.790580 
# 
# From -- ./inp_files/105805.got.cif
#   From: 2010.06.25/outbox.cif.g09.slc.cpg/sg15_53_cif.got.tgz:105805.got - 2010.06.28 07:06:18.
