data_PCOD8138547
_publ_section_title
;
Structure prediction by ZEFSAII (Michael W. Deem and Ramdas Pophale) SiO2 
 PCOD8138547
Probable space group: C 2/C
;
_chemical_formula_sum "Si O2"
_cell_formula_units_Z 48
_cell_length_a 14.596048
_cell_length_b 33.266854
_cell_length_c 14.317089
_cell_angle_alpha 90.000000
_cell_angle_beta 160.166590
_cell_angle_gamma 90.000000
_cell_volume 2358.676197
_symmetry_space_group_name_H-M "C 2/C"
_symmetry_group_IT_number 15
_symmetry_cell_setting 'monoclinic'
loop_
_space_group_symop_operation_xyz
x,y,z
-x,y,1/2-z
-x,-y,-z
x,-y,1/2+z
1/2+x,1/2+y,z
1/2-x,1/2+y,1/2-z
1/2-x,1/2-y,-z
1/2+x,1/2-y,1/2+z
loop_
_atom_site_type_symbol
_atom_site_label
_atom_site_fract_x
_atom_site_fract_y
_atom_site_fract_z
Si Si1 0.449005 0.276021 0.809045
Si Si2 0.564363 0.890395 0.013661
Si Si3 0.000000 0.590170 0.250000
Si Si4 0.518292 0.274647 0.158478
Si Si5 0.265004 0.480071 0.215624
Si Si6 0.000000 0.962161 0.250000
Si Si7 0.456081 0.343658 0.958889
O O1 0.500000 0.284409 0.750000
O O2 0.434534 0.319462 0.842130
O O3 0.180453 0.251571 0.574101
O O4 0.581863 0.883366 0.918214
O O5 0.254901 0.881017 0.745562
O O6 0.693084 0.933422 0.161520
O O7 0.740868 0.859481 0.241472
O O8 0.263249 0.563796 0.472983
O O9 0.500000 0.283423 0.250000
O O10 0.826376 0.261340 0.436120
O O11 0.416788 0.314580 0.009537
O O12 0.500000 0.500000 0.500000
O O13 0.349287 0.487737 0.187359
O O14 0.000000 0.500000 0.000000
#
# Coordination Sequence:
#
# PCOD8138547 Si02
#       7
#     8   8   4   8   8   4   8
#     4  10  21  39  64  87 110 154 212 260 307 361
#     4  11  24  36  60  91 121 160 200 247 308 367
#     4  10  20  38  56  86 126 155 204 250 288 363
#     4  10  21  35  51  77 117 160 197 232 286 354
#     4  11  22  41  67  88 126 161 207 255 308 370
#     4  10  20  38  64  94 114 157 208 258 294 359
#     4  12  22  36  59  86 123 153 202 250 309 356
#
# _framework density 20.350398999999999
#
# number of rings (size 3 to 8) (size 9 to 14) (size 15 to 20)
#    0.000    1.333    0.000    8.000    2.333    0.000 
#    0.000    0.000   11.000    0.000    0.000    0.000 
#    0.000    0.000    0.000    0.000    0.000    0.000 
#
# Total GULP energy -297371.806207 kJ/mol
# GULP energy per Si atom -12390.491925 kJ/mol
# Density = 2.030408 g / cm^3
# Si number density = 20.350399 Si / 1000 Ang^3
#
#
#
# Elastic Constant Matrix: (Units=GPa)
#
#
# Indices 1 2 3 4 5 6 
#
# 1 95.7703 38.3528 42.0993 0.0022 2.4588 0.0006
# 2 38.3528 82.6366 37.9788 -0.0006 -7.2396 -0.0001
# 3 42.0993 37.9788 141.3895 0.0143 5.4723 0.0087
# 4 0.0022 -0.0006 0.0143 36.0077 0.0022 1.3298
# 5 2.4588 -7.2396 5.4723 0.0022 48.3448 0.0003
# 6 0.0006 -0.0001 0.0087 1.3298 0.0003 17.8648
#
#
#
# Elastic Compliance Matrix: (Units=1/GPa)
#
#
# Indices 1 2 3 4 5 6 
#
# 1 0.013739 -0.005273 -0.002628 0.000000 -0.001191 0.000001
# 2 -0.005273 0.016136 -0.002881 0.000001 0.003011 0.000001
# 3 -0.002628 -0.002881 0.008679 -0.000003 -0.001280 -0.000004
# 4 0.000000 0.000001 -0.000003 0.027848 -0.000001 -0.002073
# 5 -0.001191 0.003011 -0.001280 -0.000001 0.021341 0.000000
# 6 0.000001 0.000001 -0.000004 -0.002073 0.000000 0.056130
#
#
# Mechanical properties :
#
#
# Convention : Reuss Voigt Hill
#
# Bulk Modulus (GPa) = 58.85933 61.85091 60.35512
# Shear Modulus (GPa) = 29.22239 33.86782 31.54510
#
# Velocity S-wave (km/s) = 3.79352 4.08393 3.94140
# Velocity P-wave (km/s) = 6.94071 7.25926 7.10177
#
# Compressibility (1/GPa) = 0.01698966
#
# Stress axis : x y z
#
# Youngs Moduli (GPa) = 72.78392 61.97260 115.22504
#
# Poissons Ratio (x) = 0.32678 0.30287
# Poissons Ratio (y) = 0.38378 0.33195
# Poissons Ratio (z) = 0.19131 0.17853
#
# Static dielectric constant tensor:
#      x y z
#    x 3.078920 -0.000110 -0.006410 
#    y -0.000110 3.707330 -0.000020 
#    z -0.006410 -0.000020 4.060140 
# 
# 
# High freq. dielectric constant tensor:
#      x y z
#    x 1.786320 0.000000 0.002290 
#    y 0.000000 1.772480 0.000000 
#    z 0.002290 0.000000 1.827340 
# 
# From -- ./inp_files/8679.got.cif
#   From: 2010.06.25/outbox.cif.g09.slc.cpg/sg15_5_cif.got.tgz:8679.got - 2010.06.28 07:06:18.
