data_PCOD8138806
_publ_section_title
;
Structure prediction by ZEFSAII (Michael W. Deem and Ramdas Pophale) SiO2 
 PCOD8138806
Probable space group: C 2/C
;
_chemical_formula_sum "Si O2"
_cell_formula_units_Z 52
_cell_length_a 29.738772
_cell_length_b 15.874627
_cell_length_c 9.563941
_cell_angle_alpha 90.000000
_cell_angle_beta 34.335980
_cell_angle_gamma 90.000000
_cell_volume 2546.695223
_symmetry_space_group_name_H-M "C 2/C"
_symmetry_group_IT_number 15
_symmetry_cell_setting 'monoclinic'
loop_
_space_group_symop_operation_xyz
x,y,z
-x,y,1/2-z
-x,-y,-z
x,-y,1/2+z
1/2+x,1/2+y,z
1/2-x,1/2+y,1/2-z
1/2-x,1/2-y,-z
1/2+x,1/2-y,1/2+z
loop_
_atom_site_type_symbol
_atom_site_label
_atom_site_fract_x
_atom_site_fract_y
_atom_site_fract_z
Si Si1 0.926118 0.811645 0.197455
Si Si2 0.744868 0.485020 0.999873
Si Si3 0.882616 0.427597 0.001233
Si Si4 0.500000 0.213065 0.250000
Si Si5 0.500000 0.587589 0.250000
Si Si6 0.139124 0.974466 0.019209
Si Si7 0.859207 0.352996 0.774153
Si Si8 0.500000 0.067571 0.750000
O O1 0.991799 0.765574 0.126532
O O2 0.885469 0.876725 0.409310
O O3 0.859630 0.746600 0.306381
O O4 0.964793 0.855375 0.963519
O O5 0.814572 0.549596 0.785494
O O6 0.666715 0.498084 0.105055
O O7 0.782266 0.389049 0.886013
O O8 0.716449 0.510339 0.226684
O O9 0.845025 0.405467 0.950601
O O10 0.923700 0.346567 0.965978
O O11 0.941256 0.505798 0.815956
O O12 0.434194 0.530419 0.344165
O O13 0.946468 0.373039 0.486107
#
# Coordination Sequence:
#
# PCOD8138806 Si02
#       8
#     8   8   8   4   4   8   8   4
#     4  11  24  42  65  95 125 164 213 266 311 362
#     4  11  23  42  67  93 127 167 210 256 319 378
#     4   9  18  37  61  95 129 167 207 252 306 378
#     4   9  21  40  65  95 132 164 212 257 309 366
#     4  12  26  46  68  90 120 168 220 262 306 376
#     4  12  25  45  66  91 121 168 220 258 308 381
#     4  10  20  38  61  95 133 159 205 261 315 366
#     4   9  17  30  61  91 126 176 204 243 299 384
#
# _framework density 20.418619
#
# number of rings (size 3 to 8) (size 9 to 14) (size 15 to 20)
#    0.000    1.538    3.077    1.846    2.154    1.846 
#    2.769    3.077    0.000    0.000    0.000    0.000 
#    0.000    0.000    0.000    0.000    0.000    0.000 
#
# Total GULP energy -322187.168481 kJ/mol
# GULP energy per Si atom -12391.814172 kJ/mol
# Density = 2.037214 g / cm^3
# Si number density = 20.418619 Si / 1000 Ang^3
#
#
#
# Elastic Constant Matrix: (Units=GPa)
#
#
# Indices 1 2 3 4 5 6 
#
# 1 101.6807 52.7522 20.6144 0.0000 -4.9315 0.0000
# 2 52.7522 130.8839 48.6822 0.0000 -0.4820 0.0000
# 3 20.6144 48.6822 91.9596 0.0000 1.5636 0.0000
# 4 0.0000 0.0000 0.0000 36.4778 0.0000 8.2071
# 5 -4.9315 -0.4820 1.5636 0.0000 27.2276 0.0000
# 6 0.0000 0.0000 0.0000 8.2071 0.0000 33.2177
#
#
#
# Elastic Compliance Matrix: (Units=1/GPa)
#
#
# Indices 1 2 3 4 5 6 
#
# 1 0.012567 -0.004975 -0.000221 0.000000 0.002201 0.000000
# 2 -0.004975 0.011489 -0.004960 0.000000 -0.000413 0.000000
# 3 -0.000221 -0.004960 0.013565 0.000000 -0.000907 0.000000
# 4 0.000000 0.000000 0.000000 0.029028 0.000000 -0.007172
# 5 0.002201 -0.000413 -0.000907 0.000000 0.037171 0.000000
# 6 0.000000 0.000000 0.000000 -0.007172 0.000000 0.031876
#
#
# Mechanical properties :
#
#
# Convention : Reuss Voigt Hill
#
# Bulk Modulus (GPa) = 57.77111 63.18021 60.47566
# Shear Modulus (GPa) = 30.90680 32.88296 31.89488
#
# Velocity S-wave (km/s) = 3.89480 4.01738 3.95656
# Velocity P-wave (km/s) = 6.96998 7.24767 7.11018
#
# Compressibility (1/GPa) = 0.01730969
#
# Stress axis : x y z
#
# Youngs Moduli (GPa) = 79.57201 87.04186 73.71960
#
# Poissons Ratio (x) = 0.43302 0.01629
# Poissons Ratio (y) = 0.39586 0.36563
# Poissons Ratio (z) = 0.01758 0.43171
#
# Static dielectric constant tensor:
#      x y z
#    x 3.925710 0.000000 0.002130 
#    y 0.000000 3.796090 0.000000 
#    z 0.002130 0.000000 3.611440 
# 
# 
# High freq. dielectric constant tensor:
#      x y z
#    x 1.806400 0.000000 0.001280 
#    y 0.000000 1.797660 0.000000 
#    z 0.001280 0.000000 1.791850 
# 
# From -- ./inp_files/70108.got.cif
#   From: 2010.06.25/outbox.cif.g09.slc.cpg/sg15_36_cif.got.tgz:70108.got - 2010.06.28 07:06:18.
