data_PCOD8138562
_publ_section_title
;
Structure prediction by ZEFSAII (Michael W. Deem and Ramdas Pophale) SiO2 
 PCOD8138562
Probable space group: C 2/C
;
_chemical_formula_sum "Si O2"
_cell_formula_units_Z 48
_cell_length_a 24.222237
_cell_length_b 11.664921
_cell_length_c 8.368641
_cell_angle_alpha 90.000000
_cell_angle_beta 92.276326
_cell_angle_gamma 90.000000
_cell_volume 2362.697644
_symmetry_space_group_name_H-M "C 2/C"
_symmetry_group_IT_number 15
_symmetry_cell_setting 'monoclinic'
loop_
_space_group_symop_operation_xyz
x,y,z
-x,y,1/2-z
-x,-y,-z
x,-y,1/2+z
1/2+x,1/2+y,z
1/2-x,1/2+y,1/2-z
1/2-x,1/2-y,-z
1/2+x,1/2-y,1/2+z
loop_
_atom_site_type_symbol
_atom_site_label
_atom_site_fract_x
_atom_site_fract_y
_atom_site_fract_z
Si Si1 0.594016 0.296369 0.911505
Si Si2 0.798001 0.162218 0.549970
Si Si3 0.944644 0.973442 0.160863
Si Si4 0.994729 0.373394 0.060436
Si Si5 0.835147 0.940789 0.356845
Si Si6 0.407545 0.721367 0.451381
O O1 0.546917 0.395636 0.895231
O O2 0.563455 0.188339 0.994645
O O3 0.611269 0.263550 0.734000
O O4 0.648104 0.343716 0.010261
O O5 0.750000 0.250000 0.500000
O O6 0.790332 0.114040 0.729405
O O7 0.853042 0.240703 0.551694
O O8 0.806682 0.053546 0.430559
O O9 0.890456 0.971831 0.266099
O O10 0.000000 0.925914 0.250000
O O11 0.932108 0.904411 0.996284
O O12 0.046969 0.311794 0.986389
O O13 0.000000 0.365194 0.250000
O O14 0.000000 0.500000 0.000000
#
# Coordination Sequence:
#
# PCOD8138562 Si02
#       6
#     8   8   8   8   8   8
#     4  11  19  35  62  89 123 154 190 243 302 360
#     4  11  23  42  64  87 118 154 202 265 315 361
#     4  11  19  30  60  99 124 151 184 238 305 361
#     4  10  23  37  55  82 126 168 197 230 284 365
#     4  11  21  39  62  92 123 147 198 256 307 371
#     4  10  20  38  57  86 122 154 199 245 296 353
#
# _framework density 20.315761999999999
#
# number of rings (size 3 to 8) (size 9 to 14) (size 15 to 20)
#    0.000    1.333    5.000    2.500    0.000    5.333 
#    0.000    8.333    0.000    0.000    0.000    0.000 
#    0.000    0.000    0.000    0.000    0.000    0.000 
#
# Total GULP energy -297348.447361 kJ/mol
# GULP energy per Si atom -12389.518640 kJ/mol
# Density = 2.026952 g / cm^3
# Si number density = 20.315762 Si / 1000 Ang^3
#
#
#
# Elastic Constant Matrix: (Units=GPa)
#
#
# Indices 1 2 3 4 5 6 
#
# 1 77.2515 46.7861 29.2182 0.0000 12.7582 0.0000
# 2 46.7861 122.0302 33.0365 0.0000 3.2943 0.0000
# 3 29.2182 33.0365 88.5216 0.0000 14.7465 0.0000
# 4 0.0000 0.0000 0.0000 32.8756 0.0000 1.0148
# 5 12.7582 3.2943 14.7465 0.0000 24.4018 0.0000
# 6 0.0000 0.0000 0.0000 1.0148 0.0000 38.8576
#
#
#
# Elastic Compliance Matrix: (Units=1/GPa)
#
#
# Indices 1 2 3 4 5 6 
#
# 1 0.019054 -0.006383 -0.002658 0.000000 -0.007494 0.000000
# 2 -0.006383 0.011273 -0.002671 0.000000 0.003430 0.000000
# 3 -0.002658 -0.002671 0.014321 0.000000 -0.006904 0.000000
# 4 0.000000 0.000000 0.000000 0.030442 0.000000 -0.000795
# 5 -0.007494 0.003430 -0.006904 0.000000 0.048608 0.000000
# 6 0.000000 0.000000 0.000000 -0.000795 0.000000 0.025756
#
#
# Mechanical properties :
#
#
# Convention : Reuss Voigt Hill
#
# Bulk Modulus (GPa) = 47.12226 56.20942 51.66584
# Shear Modulus (GPa) = 27.78502 31.14449 29.46475
#
# Velocity S-wave (km/s) = 3.70220 3.91963 3.81246
# Velocity P-wave (km/s) = 6.44363 6.94353 6.69824
#
# Compressibility (1/GPa) = 0.02122139
#
# Stress axis : x y z
#
# Youngs Moduli (GPa) = 52.48345 88.71064 69.82618
#
# Poissons Ratio (x) = 0.56625 0.18563
# Poissons Ratio (y) = 0.33501 0.18654
# Poissons Ratio (z) = 0.13953 0.23699
#
# Static dielectric constant tensor:
#      x y z
#    x 3.498300 0.000000 -0.010710 
#    y 0.000000 3.477880 0.000000 
#    z -0.010710 0.000000 3.987750 
# 
# 
# High freq. dielectric constant tensor:
#      x y z
#    x 1.759680 0.000000 -0.002500 
#    y 0.000000 1.775690 0.000000 
#    z -0.002500 0.000000 1.805850 
# 
# From -- ./inp_files/64895.got.cif
#   From: 2010.06.25/outbox.cif.g09.slc.cpg/sg15_33_cif.got.tgz:64895.got - 2010.06.28 07:06:18.
