data_PCOD8138104
_publ_section_title
;
Structure prediction by ZEFSAII (Michael W. Deem and Ramdas Pophale) SiO2 
 PCOD8138104
Probable space group: C 2/C
;
_chemical_formula_sum "Si O2"
_cell_formula_units_Z 64
_cell_length_a 11.285406
_cell_length_b 17.338490
_cell_length_c 22.064682
_cell_angle_alpha 90.000000
_cell_angle_beta 134.300859
_cell_angle_gamma 90.000000
_cell_volume 3089.913961
_symmetry_space_group_name_H-M "C 2/C"
_symmetry_group_IT_number 15
_symmetry_cell_setting 'monoclinic'
loop_
_space_group_symop_operation_xyz
x,y,z
-x,y,1/2-z
-x,-y,-z
x,-y,1/2+z
1/2+x,1/2+y,z
1/2-x,1/2+y,1/2-z
1/2-x,1/2-y,-z
1/2+x,1/2-y,1/2+z
loop_
_atom_site_type_symbol
_atom_site_label
_atom_site_fract_x
_atom_site_fract_y
_atom_site_fract_z
Si Si1 0.195663 0.332193 0.562516
Si Si2 0.941587 0.997155 0.793761
Si Si3 0.886523 0.681994 0.267226
Si Si4 0.662372 0.649085 0.709730
Si Si5 0.104096 0.557412 0.137630
Si Si6 0.679206 0.658478 0.578466
Si Si7 0.984795 0.393796 0.111571
Si Si8 0.987987 0.132257 0.394132
O O1 0.173119 0.404973 0.599954
O O2 0.175010 0.250608 0.587811
O O3 0.056571 0.341667 0.461479
O O4 0.375405 0.320873 0.595417
O O5 0.968666 0.089108 0.807305
O O6 0.000000 0.964062 0.750000
O O7 0.747940 0.980302 0.728760
O O8 0.019690 0.954097 0.879454
O O9 0.905696 0.767009 0.300663
O O10 0.967833 0.625925 0.346641
O O11 0.694078 0.664781 0.184355
O O12 0.000000 0.671561 0.250000
O O13 0.657716 0.625280 0.637614
O O14 0.843477 0.637830 0.802145
O O15 0.980093 0.484110 0.086898
O O16 0.847515 0.621009 0.613580
O O17 0.527731 0.634532 0.479882
#
# Coordination Sequence:
#
# PCOD8138104 Si02
#       8
#     8   8   8   8   8   8   8   8
#     4  11  19  39  64  95 126 156 213 261 321 372
#     4  10  20  37  59  85 115 160 208 250 303 371
#     4  11  23  41  62  87 126 168 210 262 320 382
#     4  11  22  38  59  87 126 169 212 250 312 377
#     4  10  21  37  63  90 123 162 206 258 321 374
#     4  11  22  38  63  94 130 158 213 261 321 373
#     4  10  22  36  62  96 126 165 202 272 315 376
#     4  10  22  38  64  92 119 163 203 264 312 374
#
# _framework density 20.71255
#
# number of rings (size 3 to 8) (size 9 to 14) (size 15 to 20)
#    0.000    1.500    2.500    4.125    0.000    3.500 
#    0.000    1.875    0.000    0.000    0.000    0.000 
#    0.000    0.000    0.000    0.000    0.000    0.000 
#
# Total GULP energy -396504.304686 kJ/mol
# GULP energy per Si atom -12390.759521 kJ/mol
# Density = 2.066541 g / cm^3
# Si number density = 20.712550 Si / 1000 Ang^3
#
#
#
# Elastic Constant Matrix: (Units=GPa)
#
#
# Indices 1 2 3 4 5 6 
#
# 1 62.3546 19.1828 24.9803 0.0000 -18.9186 0.0000
# 2 19.1828 109.1376 14.6339 0.0000 0.8225 0.0000
# 3 24.9803 14.6339 71.7643 0.0000 -10.3401 0.0000
# 4 0.0000 0.0000 0.0000 28.5882 0.0000 -4.6803
# 5 -18.9186 0.8225 -10.3401 0.0000 25.8061 0.0000
# 6 0.0000 0.0000 0.0000 -4.6803 0.0000 35.1274
#
#
#
# Elastic Compliance Matrix: (Units=1/GPa)
#
#
# Indices 1 2 3 4 5 6 
#
# 1 0.024034 -0.003620 -0.005383 0.000000 0.015578 0.000000
# 2 -0.003620 0.009997 -0.001281 0.000000 -0.003486 0.000000
# 3 -0.005383 -0.001281 0.016457 0.000000 0.002688 0.000000
# 4 0.000000 0.000000 0.000000 0.035759 0.000000 0.004764
# 5 0.015578 -0.003486 0.002688 0.000000 0.051359 0.000000
# 6 0.000000 0.000000 0.000000 0.004764 0.000000 0.029103
#
#
# Mechanical properties :
#
#
# Convention : Reuss Voigt Hill
#
# Bulk Modulus (GPa) = 33.42247 40.09451 36.75849
# Shear Modulus (GPa) = 25.34855 30.20166 27.77510
#
# Velocity S-wave (km/s) = 3.50212 3.82269 3.66591
# Velocity P-wave (km/s) = 5.70302 6.23567 5.97529
#
# Compressibility (1/GPa) = 0.02991999
#
# Stress axis : x y z
#
# Youngs Moduli (GPa) = 41.60785 100.02991 60.76504
#
# Poissons Ratio (x) = 0.36211 0.32711
# Poissons Ratio (y) = 0.15062 0.07782
# Poissons Ratio (z) = 0.22398 0.12811
#
# Static dielectric constant tensor:
#      x y z
#    x 3.544080 0.000000 -0.071710 
#    y 0.000000 4.095860 0.000000 
#    z -0.071710 0.000000 3.736090 
# 
# 
# High freq. dielectric constant tensor:
#      x y z
#    x 1.793550 0.000000 -0.014540 
#    y 0.000000 1.825620 0.000000 
#    z -0.014540 0.000000 1.807290 
# 
# From -- ./inp_files/239835.got.cif
#   From: 2010.06.25/outbox.cif.g09.slc.cpg/sg15_120_cif.got.tgz:239835.got - 2010.06.28 07:06:18.
