data_PCOD8138951
_publ_section_title
;
Structure prediction by ZEFSAII (Michael W. Deem and Ramdas Pophale) SiO2 
 PCOD8138951
Probable space group: C 2/C
;
_chemical_formula_sum "Si O2"
_cell_formula_units_Z 60
_cell_length_a 8.424949
_cell_length_b 16.781428
_cell_length_c 22.889387
_cell_angle_alpha 90.000000
_cell_angle_beta 109.612848
_cell_angle_gamma 90.000000
_cell_volume 3048.407744
_symmetry_space_group_name_H-M "C 2/C"
_symmetry_group_IT_number 15
_symmetry_cell_setting 'monoclinic'
loop_
_space_group_symop_operation_xyz
x,y,z
-x,y,1/2-z
-x,-y,-z
x,-y,1/2+z
1/2+x,1/2+y,z
1/2-x,1/2+y,1/2-z
1/2-x,1/2-y,-z
1/2+x,1/2-y,1/2+z
loop_
_atom_site_type_symbol
_atom_site_label
_atom_site_fract_x
_atom_site_fract_y
_atom_site_fract_z
Si Si1 0.756974 0.159437 0.276715
Si Si2 0.500000 0.552455 0.250000
Si Si3 0.448404 0.192515 0.811156
Si Si4 0.680939 0.031807 0.660133
Si Si5 0.613337 0.923791 0.028222
Si Si6 0.731280 0.321690 0.540701
Si Si7 0.990615 0.377712 0.659026
Si Si8 0.930258 0.730740 0.550181
O O1 0.791186 0.248365 0.304104
O O2 0.640270 0.107914 0.304743
O O3 0.660612 0.165616 0.202311
O O4 0.930265 0.110230 0.292185
O O5 0.645211 0.496547 0.291777
O O6 0.500000 0.210216 0.750000
O O7 0.389521 0.101904 0.807670
O O8 0.581055 0.212664 0.880673
O O9 0.719820 0.061837 0.599989
O O10 0.538843 0.963448 0.638719
O O11 0.493841 0.847427 0.023900
O O12 0.752688 0.904290 0.994806
O O13 0.500000 0.000000 0.000000
O O14 0.750000 0.250000 0.500000
O O15 0.556517 0.307267 0.554689
O O16 0.896993 0.320978 0.601772
O O17 0.750000 0.750000 0.500000
#
# Coordination Sequence:
#
# PCOD8138951 Si02
#       8
#     8   4   8   8   8   8   8   8
#     4  10  21  37  62  87 112 158 208 243 300 363
#     4  10  22  40  58  88 116 162 198 246 296 376
#     4  11  23  39  60  90 127 156 202 262 314 358
#     4  10  23  40  59  87 128 159 195 253 316 369
#     4  10  20  39  63  88 117 161 202 250 308 368
#     4  10  20  38  63  89 121 160 207 252 304 373
#     4  10  20  38  64  86 119 163 202 244 309 380
#     4  10  23  42  60  88 123 162 208 260 310 368
#
# _framework density 19.682406
#
# number of rings (size 3 to 8) (size 9 to 14) (size 15 to 20)
#    0.000    1.867    3.333    0.000    3.733    4.267 
#    2.400    0.667    0.000    0.000    0.000    0.000 
#    0.000    0.000    0.000    0.000    0.000    0.000 
#
# Total GULP energy -371673.621102 kJ/mol
# GULP energy per Si atom -12389.120703 kJ/mol
# Density = 1.963761 g / cm^3
# Si number density = 19.682406 Si / 1000 Ang^3
#
#
#
# Elastic Constant Matrix: (Units=GPa)
#
#
# Indices 1 2 3 4 5 6 
#
# 1 89.9477 44.3469 48.9807 0.0000 10.1132 0.0000
# 2 44.3469 105.7555 46.1939 0.0000 15.0602 0.0000
# 3 48.9807 46.1939 126.8273 0.0000 7.3813 0.0000
# 4 0.0000 0.0000 0.0000 34.3390 0.0000 1.5910
# 5 10.1132 15.0602 7.3813 0.0000 32.0132 0.0000
# 6 0.0000 0.0000 0.0000 1.5910 0.0000 32.0079
#
#
#
# Elastic Compliance Matrix: (Units=1/GPa)
#
#
# Indices 1 2 3 4 5 6 
#
# 1 0.015948 -0.004488 -0.004413 0.000000 -0.001909 0.000000
# 2 -0.004488 0.013156 -0.002819 0.000000 -0.004121 0.000000
# 3 -0.004413 -0.002819 0.010600 0.000000 0.000276 0.000000
# 4 0.000000 0.000000 0.000000 0.029189 0.000000 -0.001451
# 5 -0.001909 -0.004121 0.000276 0.000000 0.033715 0.000000
# 6 0.000000 0.000000 0.000000 -0.001451 0.000000 0.031314
#
#
# Mechanical properties :
#
#
# Convention : Reuss Voigt Hill
#
# Bulk Modulus (GPa) = 61.48632 66.84151 64.16391
# Shear Modulus (GPa) = 30.71563 31.87261 31.29412
#
# Velocity S-wave (km/s) = 3.95468 4.02847 3.99175
# Velocity P-wave (km/s) = 7.22217 7.46136 7.34274
#
# Compressibility (1/GPa) = 0.01626378
#
# Stress axis : x y z
#
# Youngs Moduli (GPa) = 62.70266 76.01220 94.34189
#
# Poissons Ratio (x) = 0.34114 0.41637
# Poissons Ratio (y) = 0.28141 0.26591
# Poissons Ratio (z) = 0.27674 0.21425
#
# Static dielectric constant tensor:
#      x y z
#    x 3.661040 0.000000 -0.179970 
#    y 0.000000 3.918960 0.000000 
#    z -0.179970 0.000000 3.755030 
# 
# 
# High freq. dielectric constant tensor:
#      x y z
#    x 1.747080 0.000000 -0.005990 
#    y 0.000000 1.764310 0.000000 
#    z -0.005990 0.000000 1.786010 
# 
# From -- ./inp_files/264764.got.cif
#   From: 2010.06.25/outbox.cif.g09.slc.cpg/sg15_133_cif.got.tgz:264764.got - 2010.06.28 07:06:18.
