data_PCOD8138973
_publ_section_title
;
Structure prediction by ZEFSAII (Michael W. Deem and Ramdas Pophale) SiO2 
 PCOD8138973
Probable space group: C 2/C
;
_chemical_formula_sum "Si O2"
_cell_formula_units_Z 48
_cell_length_a 6.332537
_cell_length_b 23.094196
_cell_length_c 19.631622
_cell_angle_alpha 90.000000
_cell_angle_beta 60.215628
_cell_angle_gamma 90.000000
_cell_volume 2491.764208
_symmetry_space_group_name_H-M "C 2/C"
_symmetry_group_IT_number 15
_symmetry_cell_setting 'monoclinic'
loop_
_space_group_symop_operation_xyz
x,y,z
-x,y,1/2-z
-x,-y,-z
x,-y,1/2+z
1/2+x,1/2+y,z
1/2-x,1/2+y,1/2-z
1/2-x,1/2-y,-z
1/2+x,1/2-y,1/2+z
loop_
_atom_site_type_symbol
_atom_site_label
_atom_site_fract_x
_atom_site_fract_y
_atom_site_fract_z
Si Si1 0.486380 0.785540 0.943501
Si Si2 0.989723 0.926870 0.554258
Si Si3 0.479090 0.774958 0.333581
Si Si4 0.799302 0.669816 0.334894
Si Si5 0.245754 0.534793 0.962970
Si Si6 0.017946 0.629059 0.561928
O O1 0.707168 0.741447 0.898113
O O2 0.440179 0.820649 0.882418
O O3 0.250000 0.750000 0.000000
O O4 0.553928 0.827925 0.993259
O O5 0.230556 0.906658 0.474593
O O6 0.902659 0.880163 0.623718
O O7 0.781030 0.936348 0.531526
O O8 0.038928 0.988149 0.585665
O O9 0.500000 0.783580 0.250000
O O10 0.672493 0.727749 0.327911
O O11 0.536793 0.836233 0.360128
O O12 0.000000 0.647448 0.250000
O O13 0.215761 0.586711 0.912741
O O14 0.000000 0.500000 0.000000
#
# Coordination Sequence:
#
# PCOD8138973 Si02
#       6
#     8   8   8   8   8   8
#     4  12  22  36  61  93 123 161 209 252 302 371
#     4  10  20  38  63  92 118 155 210 267 305 362
#     4  12  25  39  56  94 135 165 199 251 319 383
#     4  12  23  38  60  93 128 164 200 258 322 375
#     4   9  20  37  63  91 113 150 212 262 306 356
#     4  11  21  36  64  91 119 159 210 254 302 373
#
# _framework density 19.263459999999998
#
# number of rings (size 3 to 8) (size 9 to 14) (size 15 to 20)
#    0.000    1.000    6.667    1.500    0.000    0.000 
#    0.000    0.000    0.000   11.000    0.000    0.000 
#    0.000    0.000    0.000    0.000    0.000    0.000 
#
# Total GULP energy -297562.500428 kJ/mol
# GULP energy per Si atom -12398.437518 kJ/mol
# Density = 1.921962 g / cm^3
# Si number density = 19.263460 Si / 1000 Ang^3
#
#
#
# Elastic Constant Matrix: (Units=GPa)
#
#
# Indices 1 2 3 4 5 6 
#
# 1 95.2331 42.3223 28.1445 0.0000 10.9618 0.0000
# 2 42.3223 125.5994 43.9765 0.0000 9.5565 0.0000
# 3 28.1445 43.9765 73.1575 0.0000 16.7375 0.0000
# 4 0.0000 0.0000 0.0000 -1.6170 0.0000 14.1789
# 5 10.9618 9.5565 16.7375 0.0000 30.8928 0.0000
# 6 0.0000 0.0000 0.0000 14.1789 0.0000 43.2753
#
#
#
# Elastic Compliance Matrix: (Units=1/GPa)
#
#
# Indices 1 2 3 4 5 6 
#
# 1 0.012971 -0.003334 -0.002476 0.000000 -0.002230 0.000000
# 2 -0.003334 0.010942 -0.005469 0.000000 0.000761 0.000000
# 3 -0.002476 -0.005469 0.019772 0.000000 -0.008142 0.000000
# 4 0.000000 0.000000 0.000000 -0.159678 0.000000 0.052318
# 5 -0.002230 0.000761 -0.008142 0.000000 0.037337 0.000000
# 6 0.000000 0.000000 0.000000 0.052318 0.000000 0.005966
#
#
# Mechanical properties :
#
#
# Convention : Reuss Voigt Hill
#
# Bulk Modulus (GPa) = 47.33256 58.09740 52.71498
# Shear Modulus (GPa) = -116.03604 26.48000 -44.77802
#
# Velocity S-wave (km/s) = -7.76963 3.71161 -4.82654
# Velocity P-wave (km/s) = 7.47429 6.97086 1.90683
#
# Compressibility (1/GPa) = 0.02112710
#
# Stress axis : x y z
#
# Youngs Moduli (GPa) = 77.09783 91.38832 50.57675
#
# Poissons Ratio (x) = 0.30470 0.12520
# Poissons Ratio (y) = 0.25706 0.27661
# Poissons Ratio (z) = 0.19086 0.49982
#
# Static dielectric constant tensor:
#      x y z
#    x 3.801510 0.000000 0.146650 
#    y 0.000000 2.754580 0.000000 
#    z 0.146650 0.000000 3.498130 
# 
# 
# High freq. dielectric constant tensor:
#      x y z
#    x 1.772170 0.000000 0.012650 
#    y 0.000000 1.762420 0.000000 
#    z 0.012650 0.000000 1.710090 
# 
# From -- ./inp_files/185213.got.cif
#   From: 2010.06.25/outbox.cif.g09.slc.cpg/sg15_93_cif.got.tgz:185213.got - 2010.06.28 07:06:18.
