data_PCOD8138567
_publ_section_title
;
Structure prediction by ZEFSAII (Michael W. Deem and Ramdas Pophale) SiO2 
 PCOD8138567
Probable space group: C 2/C
;
_chemical_formula_sum "Si O2"
_cell_formula_units_Z 48
_cell_length_a 15.652928
_cell_length_b 31.555903
_cell_length_c 15.526441
_cell_angle_alpha 90.000000
_cell_angle_beta 161.532914
_cell_angle_gamma 90.000000
_cell_volume 2429.283619
_symmetry_space_group_name_H-M "C 2/C"
_symmetry_group_IT_number 15
_symmetry_cell_setting 'monoclinic'
loop_
_space_group_symop_operation_xyz
x,y,z
-x,y,1/2-z
-x,-y,-z
x,-y,1/2+z
1/2+x,1/2+y,z
1/2-x,1/2+y,1/2-z
1/2-x,1/2-y,-z
1/2+x,1/2-y,1/2+z
loop_
_atom_site_type_symbol
_atom_site_label
_atom_site_fract_x
_atom_site_fract_y
_atom_site_fract_z
Si Si1 0.109647 0.889721 0.699415
Si Si2 0.388632 0.154656 0.734993
Si Si3 0.750979 0.470084 0.746031
Si Si4 0.212464 0.220088 0.703720
Si Si5 0.411797 0.639543 0.824140
Si Si6 0.590467 0.905015 0.743163
O O1 0.201401 0.938650 0.780285
O O2 0.846846 0.880770 0.508451
O O3 0.003447 0.875994 0.505030
O O4 0.369253 0.862840 0.975019
O O5 0.500000 0.169996 0.750000
O O6 0.256012 0.194568 0.656384
O O7 0.500000 0.500000 0.500000
O O8 0.788313 0.444751 0.692470
O O9 0.000000 0.500000 0.000000
O O10 0.170664 0.188780 0.745830
O O11 0.955486 0.249062 0.451940
O O12 0.155529 0.613558 0.546681
O O13 0.675159 0.630644 0.016665
O O14 0.500000 0.921173 0.750000
#
# Coordination Sequence:
#
# PCOD8138567 Si02
#       6
#     8   8   8   8   8   8
#     4  10  20  38  58  79 109 156 201 227 270 341
#     4  11  22  37  56  82 117 154 196 238 277 330
#     4  11  21  37  60  85 116 149 185 232 285 341
#     4  11  21  35  58  85 113 148 190 236 286 340
#     4  10  20  38  61  82 110 150 193 230 274 342
#     4  11  22  39  63  88 113 146 193 239 278 329
#
# _framework density 19.758911999999999
#
# number of rings (size 3 to 8) (size 9 to 14) (size 15 to 20)
#    0.000    1.333    0.000   11.000    0.000    0.667 
#    0.000    5.000    0.000   10.000    0.000    0.000 
#    0.000    0.000    0.000    0.000    0.000    0.000 
#
# Total GULP energy -297479.156918 kJ/mol
# GULP energy per Si atom -12394.964872 kJ/mol
# Density = 1.971394 g / cm^3
# Si number density = 19.758912 Si / 1000 Ang^3
#
#
#
# Elastic Constant Matrix: (Units=GPa)
#
#
# Indices 1 2 3 4 5 6 
#
# 1 98.9137 54.1557 36.0219 0.0024 18.3881 0.0055
# 2 54.1557 130.0171 76.0975 -0.0071 9.6324 -0.0063
# 3 36.0219 76.0975 172.2503 0.0145 22.2617 0.0624
# 4 0.0024 -0.0071 0.0145 47.9164 0.0085 11.1367
# 5 18.3881 9.6324 22.2617 0.0085 31.4328 0.0152
# 6 0.0055 -0.0063 0.0624 11.1367 0.0152 24.4704
#
#
#
# Elastic Compliance Matrix: (Units=1/GPa)
#
#
# Indices 1 2 3 4 5 6 
#
# 1 0.014383 -0.005720 0.000419 0.000000 -0.006957 -0.000001
# 2 -0.005720 0.012649 -0.004759 0.000000 0.002841 0.000015
# 3 0.000419 -0.004759 0.008436 0.000002 -0.004761 -0.000021
# 4 0.000000 0.000000 0.000002 0.023338 -0.000003 -0.010621
# 5 -0.006957 0.002841 -0.004761 -0.000003 0.038385 -0.000008
# 6 -0.000001 0.000015 -0.000021 -0.010621 -0.000008 0.045700
#
#
# Mechanical properties :
#
#
# Convention : Reuss Voigt Hill
#
# Bulk Modulus (GPa) = 65.16432 81.52570 73.34501
# Shear Modulus (GPa) = 29.73937 36.42430 33.08184
#
# Velocity S-wave (km/s) = 3.88379 4.29818 4.09623
# Velocity P-wave (km/s) = 7.29130 8.12295 7.71833
#
# Compressibility (1/GPa) = 0.01534582
#
# Stress axis : x y z
#
# Youngs Moduli (GPa) = 69.52813 79.05847 118.54355
#
# Poissons Ratio (x) = 0.45224 -0.04961
# Poissons Ratio (y) = 0.39772 0.56414
# Poissons Ratio (z) = -0.02910 0.37623
#
# Static dielectric constant tensor:
#      x y z
#    x 3.858170 0.000140 0.546480 
#    y 0.000140 4.029770 0.000210 
#    z 0.546480 0.000210 4.027560 
# 
# 
# High freq. dielectric constant tensor:
#      x y z
#    x 1.753950 0.000000 0.021920 
#    y 0.000000 1.764210 0.000000 
#    z 0.021920 0.000000 1.799670 
# 
# From -- ./inp_files/157704.got.cif
#   From: 2010.06.25/outbox.cif.g09.slc.cpg/sg15_79_cif.got.tgz:157704.got - 2010.06.28 07:06:18.
