data_PCOD8138193
_publ_section_title
;
Structure prediction by ZEFSAII (Michael W. Deem and Ramdas Pophale) SiO2 
 PCOD8138193
Probable space group: C 2/C
;
_chemical_formula_sum "Si O2"
_cell_formula_units_Z 40
_cell_length_a 16.119180
_cell_length_b 13.855548
_cell_length_c 8.616155
_cell_angle_alpha 90.000000
_cell_angle_beta 60.280596
_cell_angle_gamma 90.000000
_cell_volume 1671.213023
_symmetry_space_group_name_H-M "C 2/C"
_symmetry_group_IT_number 15
_symmetry_cell_setting 'monoclinic'
loop_
_space_group_symop_operation_xyz
x,y,z
-x,y,1/2-z
-x,-y,-z
x,-y,1/2+z
1/2+x,1/2+y,z
1/2-x,1/2+y,1/2-z
1/2-x,1/2-y,-z
1/2+x,1/2-y,1/2+z
loop_
_atom_site_type_symbol
_atom_site_label
_atom_site_fract_x
_atom_site_fract_y
_atom_site_fract_z
Si Si1 0.226384 0.879056 0.334884
Si Si2 0.348315 0.279372 0.545776
Si Si3 0.844473 0.627420 0.316699
Si Si4 0.987497 0.105492 0.443659
Si Si5 0.311260 0.039783 0.051138
O O1 0.293091 0.795078 0.208249
O O2 0.116040 0.851099 0.418360
O O3 0.248988 0.892300 0.497102
O O4 0.243244 0.979899 0.230320
O O5 0.272337 0.360963 0.563218
O O6 0.388897 0.222992 0.354787
O O7 0.436750 0.322643 0.552547
O O8 0.874422 0.608973 0.108461
O O9 0.875675 0.533510 0.389571
O O10 0.000000 0.100184 0.250000
O O11 0.000000 0.000000 0.500000
#
# Coordination Sequence:
#
# PCOD8138193 Si02
#       5
#     8   8   8   8   8
#     4  10  20  37  60  91 127 161 203 255 310 368
#     4  10  22  37  56  89 128 163 202 253 312 367
#     4   9  18  34  54  85 120 156 203 248 301 365
#     4  12  25  40  62  95 127 162 208 255 308 371
#     4   9  17  34  61  88 116 158 203 248 307 366
#
# _framework density 23.934711
#
# number of rings (size 3 to 8) (size 9 to 14) (size 15 to 20)
#    0.000    2.000    0.000    4.800    0.000    6.400 
#    0.000    0.000    0.000    0.000    0.000  113.400 
#    0.000    0.000    0.000    0.000    0.000    0.000 
#
# Total GULP energy -247884.653713 kJ/mol
# GULP energy per Si atom -12394.232686 kJ/mol
# Density = 2.388023 g / cm^3
# Si number density = 23.934711 Si / 1000 Ang^3
#
#
#
# Elastic Constant Matrix: (Units=GPa)
#
#
# Indices 1 2 3 4 5 6 
#
# 1 127.6380 66.2292 68.0446 0.0000 28.6029 0.0000
# 2 66.2292 116.4963 52.3290 0.0000 19.0378 0.0000
# 3 68.0446 52.3290 109.9660 0.0000 39.0098 0.0000
# 4 0.0000 0.0000 0.0000 28.5098 0.0000 6.2618
# 5 28.6029 19.0378 39.0098 0.0000 48.0112 0.0000
# 6 0.0000 0.0000 0.0000 6.2618 0.0000 25.4423
#
#
#
# Elastic Compliance Matrix: (Units=1/GPa)
#
#
# Indices 1 2 3 4 5 6 
#
# 1 0.013796 -0.005089 -0.005500 0.000000 -0.001732 0.000000
# 2 -0.005089 0.012796 -0.003113 0.000000 0.000487 0.000000
# 3 -0.005500 -0.003113 0.017391 0.000000 -0.009619 0.000000
# 4 0.000000 0.000000 0.000000 0.037080 0.000000 -0.009126
# 5 -0.001732 0.000487 -0.009619 0.000000 0.029483 0.000000
# 6 0.000000 0.000000 0.000000 -0.009126 0.000000 0.041551
#
#
# Mechanical properties :
#
#
# Convention : Reuss Voigt Hill
#
# Bulk Modulus (GPa) = 60.32281 80.81176 70.56728
# Shear Modulus (GPa) = 27.02311 31.55916 29.29113
#
# Velocity S-wave (km/s) = 3.36376 3.63513 3.50207
# Velocity P-wave (km/s) = 6.35171 7.17325 6.77495
#
# Compressibility (1/GPa) = 0.01657748
#
# Stress axis : x y z
#
# Youngs Moduli (GPa) = 72.48603 78.14999 57.50146
#
# Poissons Ratio (x) = 0.39773 0.31628
# Poissons Ratio (y) = 0.36890 0.17899
# Poissons Ratio (z) = 0.39870 0.24327
#
# Static dielectric constant tensor:
#      x y z
#    x 4.193180 0.000000 0.573020 
#    y 0.000000 4.437330 0.000000 
#    z 0.573020 0.000000 4.484490 
# 
# 
# High freq. dielectric constant tensor:
#      x y z
#    x 1.923550 0.000000 0.044410 
#    y 0.000000 1.960240 0.000000 
#    z 0.044410 0.000000 1.949780 
# 
# From -- ./inp_files/37806.got.cif
#   From: 2010.06.25/outbox.cif.g09.slc.cpg/sg15_19_cif.got.tgz:37806.got - 2010.06.28 07:06:18.
