data_PCOD8138782
_publ_section_title
;
Structure prediction by ZEFSAII (Michael W. Deem and Ramdas Pophale) SiO2 
 PCOD8138782
Probable space group: C 2/C
;
_chemical_formula_sum "Si O2"
_cell_formula_units_Z 64
_cell_length_a 24.846534
_cell_length_b 16.669677
_cell_length_c 15.069031
_cell_angle_alpha 90.000000
_cell_angle_beta 28.763048
_cell_angle_gamma 90.000000
_cell_volume 3003.263844
_symmetry_space_group_name_H-M "C 2/C"
_symmetry_group_IT_number 15
_symmetry_cell_setting 'monoclinic'
loop_
_space_group_symop_operation_xyz
x,y,z
-x,y,1/2-z
-x,-y,-z
x,-y,1/2+z
1/2+x,1/2+y,z
1/2-x,1/2+y,1/2-z
1/2-x,1/2-y,-z
1/2+x,1/2-y,1/2+z
loop_
_atom_site_type_symbol
_atom_site_label
_atom_site_fract_x
_atom_site_fract_y
_atom_site_fract_z
Si Si1 0.069505 0.702934 0.069755
Si Si2 0.239088 0.810860 0.594878
Si Si3 0.006638 0.035866 0.893963
Si Si4 0.613903 0.026263 0.054786
Si Si5 0.501063 0.298691 0.482046
Si Si6 0.258240 0.479332 0.993137
Si Si7 0.197696 0.213730 0.831039
Si Si8 0.226402 0.026503 0.829906
O O1 0.067756 0.608385 0.082166
O O2 0.011740 0.719599 0.058775
O O3 0.000000 0.744565 0.250000
O O4 0.195732 0.737615 0.883771
O O5 0.250000 0.750000 0.500000
O O6 0.281471 0.896816 0.498243
O O7 0.310708 0.774918 0.573642
O O8 0.111254 0.823297 0.805861
O O9 0.033524 0.129969 0.867048
O O10 0.108692 0.992984 0.696136
O O11 0.000000 0.000000 0.000000
O O12 0.891827 0.019879 0.006972
O O13 0.500000 0.977920 0.250000
O O14 0.689184 0.988310 0.866081
O O15 0.693723 0.043928 0.024875
O O16 0.588942 0.276553 0.429780
O O17 0.219021 0.485721 0.151791
O O18 0.208124 0.121504 0.846018
#
# Coordination Sequence:
#
# PCOD8138782 Si02
#       8
#     8   8   8   8   8   8   8   8
#     4   9  21  40  62  86 122 164 214 260 308 373
#     4  11  22  39  60  93 131 162 207 262 315 389
#     4  12  20  38  67  96 130 161 206 270 334 386
#     4  10  22  44  63  85 124 174 218 261 307 380
#     4  11  22  39  65  92 128 167 207 267 322 378
#     4  12  23  40  66  96 130 169 210 270 326 381
#     4  10  20  38  61  89 124 166 204 254 323 382
#     4  11  21  38  65  95 124 164 212 261 328 389
#
# _framework density 21.310148999999999
#
# number of rings (size 3 to 8) (size 9 to 14) (size 15 to 20)
#    0.000    1.250    5.000    1.125    0.000    2.500 
#    2.250    7.500    0.000    0.000    0.000    0.000 
#    0.000    0.000    0.000    0.000    0.000    0.000 
#
# Total GULP energy -396625.417193 kJ/mol
# GULP energy per Si atom -12394.544287 kJ/mol
# Density = 2.126165 g / cm^3
# Si number density = 21.310149 Si / 1000 Ang^3
#
#
#
# Elastic Constant Matrix: (Units=GPa)
#
#
# Indices 1 2 3 4 5 6 
#
# 1 164.9970 40.3618 58.0506 0.0000 4.2488 0.0000
# 2 40.3618 65.8330 10.8205 0.0000 -7.5065 0.0000
# 3 58.0506 10.8205 90.1882 -0.0001 1.6779 0.0000
# 4 0.0000 0.0000 -0.0001 16.0540 0.0000 -2.4690
# 5 4.2488 -7.5065 1.6779 0.0000 31.0547 0.0000
# 6 0.0000 0.0000 0.0000 -2.4690 0.0000 35.3585
#
#
#
# Elastic Compliance Matrix: (Units=1/GPa)
#
#
# Indices 1 2 3 4 5 6 
#
# 1 0.009204 -0.005025 -0.005281 0.000000 -0.002188 0.000000
# 2 -0.005025 0.018712 0.000893 0.000000 0.005162 0.000000
# 3 -0.005281 0.000893 0.014377 0.000000 0.000162 0.000000
# 4 0.000000 0.000000 0.000000 0.062966 0.000000 0.004397
# 5 -0.002188 0.005162 0.000162 0.000000 0.033740 0.000000
# 6 0.000000 0.000000 0.000000 0.004397 0.000000 0.028589
#
#
# Mechanical properties :
#
#
# Convention : Reuss Voigt Hill
#
# Bulk Modulus (GPa) = 42.61006 59.94264 51.27635
# Shear Modulus (GPa) = 25.74199 30.61247 28.17723
#
# Velocity S-wave (km/s) = 3.47935 3.79426 3.64021
# Velocity P-wave (km/s) = 6.01497 6.88367 6.46393
#
# Compressibility (1/GPa) = 0.02346864
#
# Stress axis : x y z
#
# Youngs Moduli (GPa) = 108.64708 53.44068 69.55646
#
# Poissons Ratio (x) = 0.26852 0.36731
# Poissons Ratio (y) = 0.54590 -0.06212
# Poissons Ratio (z) = 0.57374 -0.04772
#
# Static dielectric constant tensor:
#      x y z
#    x 3.839680 0.000000 0.219760 
#    y 0.000000 4.571850 0.000000 
#    z 0.219760 0.000000 4.351940 
# 
# 
# High freq. dielectric constant tensor:
#      x y z
#    x 1.839150 0.000000 0.008030 
#    y 0.000000 1.815440 0.000000 
#    z 0.008030 0.000000 1.842020 
# 
# From -- ./inp_files/174221.got.cif
#   From: 2010.06.25/outbox.cif.g09.slc.cpg/sg15_88_cif.got.tgz:174221.got - 2010.06.28 07:06:18.
