data_PCOD8138088
_publ_section_title
;
Structure prediction by ZEFSAII (Michael W. Deem and Ramdas Pophale) SiO2 
 PCOD8138088
Probable space group: C 2/C
;
_chemical_formula_sum "Si O2"
_cell_formula_units_Z 48
_cell_length_a 18.081031
_cell_length_b 12.563068
_cell_length_c 11.688735
_cell_angle_alpha 90.000000
_cell_angle_beta 113.417507
_cell_angle_gamma 90.000000
_cell_volume 2436.439026
_symmetry_space_group_name_H-M "C 2/C"
_symmetry_group_IT_number 15
_symmetry_cell_setting 'monoclinic'
loop_
_space_group_symop_operation_xyz
x,y,z
-x,y,1/2-z
-x,-y,-z
x,-y,1/2+z
1/2+x,1/2+y,z
1/2-x,1/2+y,1/2-z
1/2-x,1/2-y,-z
1/2+x,1/2-y,1/2+z
loop_
_atom_site_type_symbol
_atom_site_label
_atom_site_fract_x
_atom_site_fract_y
_atom_site_fract_z
Si Si1 0.000000 0.812339 0.750000
Si Si2 0.203205 0.869484 0.381888
Si Si3 0.238747 0.316242 0.326719
Si Si4 0.827530 0.890427 0.600916
Si Si5 0.373625 0.177673 0.069299
Si Si6 0.431716 0.136377 0.855051
Si Si7 0.000000 0.462200 0.750000
O O1 0.076150 0.880355 0.837761
O O2 0.022697 0.741934 0.655216
O O3 0.215992 0.814876 0.266446
O O4 0.282511 0.863522 0.508941
O O5 0.131002 0.803571 0.400103
O O6 0.185233 0.993082 0.355699
O O7 0.220597 0.194028 0.350334
O O8 0.294545 0.377652 0.451807
O O9 0.153619 0.377379 0.263059
O O10 0.421322 0.111769 0.193931
O O11 0.421131 0.153125 0.982431
O O12 0.486920 0.035222 0.855121
#
# Coordination Sequence:
#
# PCOD8138088 Si02
#       7
#     4   8   8   8   8   8   4
#     4   9  20  35  54  80 110 143 180 219 270 326
#     4  10  22  38  56  80 113 144 177 227 273 318
#     4   9  20  37  59  82 105 144 191 220 261 331
#     4  10  20  37  59  81 108 145 183 222 270 323
#     4  10  22  36  53  81 110 140 182 227 274 323
#     4   9  19  37  55  78 111 143 179 229 272 311
#     4  11  20  33  58  82 108 145 182 225 274 320
#
# _framework density 19.700883000000001
#
# number of rings (size 3 to 8) (size 9 to 14) (size 15 to 20)
#    0.000    2.333    0.000    1.500    0.000   11.333 
#    0.000    1.667    0.000    0.000    0.000    0.000 
#    0.000    0.000    0.000    0.000    0.000    0.000 
#
# Total GULP energy -297530.784086 kJ/mol
# GULP energy per Si atom -12397.116004 kJ/mol
# Density = 1.965604 g / cm^3
# Si number density = 19.700883 Si / 1000 Ang^3
#
#
#
# Elastic Constant Matrix: (Units=GPa)
#
#
# Indices 1 2 3 4 5 6 
#
# 1 91.3412 51.8014 37.5171 0.0000 -2.7483 0.0000
# 2 51.8014 117.3310 38.8109 0.0000 -1.2974 0.0000
# 3 37.5171 38.8109 84.3862 0.0000 2.4677 0.0000
# 4 0.0000 0.0000 0.0000 18.4261 0.0000 3.2395
# 5 -2.7483 -1.2974 2.4677 0.0000 27.4127 0.0000
# 6 0.0000 0.0000 0.0000 3.2395 0.0000 29.0599
#
#
#
# Elastic Compliance Matrix: (Units=1/GPa)
#
#
# Indices 1 2 3 4 5 6 
#
# 1 0.016042 -0.005528 -0.004642 0.000000 0.001765 0.000000
# 2 -0.005528 0.011979 -0.003060 0.000000 0.000288 0.000000
# 3 -0.004642 -0.003060 0.015380 0.000000 -0.001995 0.000000
# 4 0.000000 0.000000 0.000000 0.055356 0.000000 -0.006171
# 5 0.001765 0.000288 -0.001995 0.000000 0.036850 0.000000
# 6 0.000000 0.000000 0.000000 -0.006171 0.000000 0.035100
#
#
# Mechanical properties :
#
#
# Convention : Reuss Voigt Hill
#
# Bulk Modulus (GPa) = 59.02527 61.03523 60.03025
# Shear Modulus (GPa) = 24.65337 25.97501 25.31419
#
# Velocity S-wave (km/s) = 3.54133 3.63501 3.58848
# Velocity P-wave (km/s) = 6.83719 6.97610 6.90699
#
# Compressibility (1/GPa) = 0.01694189
#
# Stress axis : x y z
#
# Youngs Moduli (GPa) = 62.33461 83.48038 65.02130
#
# Poissons Ratio (x) = 0.46147 0.30180
# Poissons Ratio (y) = 0.34458 0.19897
# Poissons Ratio (z) = 0.28933 0.25546
#
# Static dielectric constant tensor:
#      x y z
#    x 3.604260 0.000000 0.074870 
#    y 0.000000 3.521250 0.000000 
#    z 0.074870 0.000000 3.487290 
# 
# 
# High freq. dielectric constant tensor:
#      x y z
#    x 1.764800 0.000000 0.002390 
#    y 0.000000 1.764220 0.000000 
#    z 0.002390 0.000000 1.764660 
# 
# From -- ./inp_files/104210.got.cif
#   From: 2010.06.25/outbox.cif.g09.slc.cpg/sg15_53_cif.got.tgz:104210.got - 2010.06.28 07:06:18.
