data_PCOD8138246
_publ_section_title
;
Structure prediction by ZEFSAII (Michael W. Deem and Ramdas Pophale) SiO2 
 PCOD8138246
Probable space group: C 2/C
;
_chemical_formula_sum "Si O2"
_cell_formula_units_Z 52
_cell_length_a 16.262216
_cell_length_b 8.642369
_cell_length_c 16.336224
_cell_angle_alpha 90.000000
_cell_angle_beta 88.675175
_cell_angle_gamma 90.000000
_cell_volume 2295.345690
_symmetry_space_group_name_H-M "C 2/C"
_symmetry_group_IT_number 15
_symmetry_cell_setting 'monoclinic'
loop_
_space_group_symop_operation_xyz
x,y,z
-x,y,1/2-z
-x,-y,-z
x,-y,1/2+z
1/2+x,1/2+y,z
1/2-x,1/2+y,1/2-z
1/2-x,1/2-y,-z
1/2+x,1/2-y,1/2+z
loop_
_atom_site_type_symbol
_atom_site_label
_atom_site_fract_x
_atom_site_fract_y
_atom_site_fract_z
Si Si1 0.000000 0.355676 0.250000
Si Si2 0.710574 0.578737 0.671872
Si Si3 0.877866 0.550526 0.884732
Si Si4 0.227406 0.758541 0.331212
Si Si5 0.592559 0.276799 0.058006
Si Si6 0.082106 0.341343 0.944532
Si Si7 0.388025 0.181003 0.613955
O O1 0.939378 0.460452 0.306140
O O2 0.940822 0.255357 0.190801
O O3 0.725715 0.399891 0.692068
O O4 0.681503 0.674194 0.752330
O O5 0.636756 0.585710 0.606792
O O6 0.793215 0.658365 0.637067
O O7 0.791048 0.612961 0.857577
O O8 0.859982 0.380312 0.918982
O O9 0.912724 0.659155 0.956838
O O10 0.163028 0.735009 0.405385
O O11 0.495959 0.261409 0.080955
O O12 0.604628 0.303448 0.960287
O O13 0.070279 0.516903 0.913020
#
# Coordination Sequence:
#
# PCOD8138246 Si02
#       7
#     4   8   8   8   8   8   8
#     4  12  18  34  68  94 118 158 210 252 284 366
#     4  11  24  38  62  89 126 158 203 253 306 360
#     4  11  21  39  66  92 118 159 206 253 299 357
#     4  11  24  41  62  90 125 164 202 249 308 361
#     4  11  21  39  65  93 119 157 207 253 299 359
#     4  10  21  38  63  91 122 160 205 246 300 367
#     4  10  20  37  61  95 115 158 208 249 293 360
#
# _framework density 22.654540999999998
#
# number of rings (size 3 to 8) (size 9 to 14) (size 15 to 20)
#    0.000    1.231    4.615    2.769    2.154    0.615 
#    0.000    3.846    0.000    0.000    0.000    0.000 
#    0.000    0.000    0.000    0.000    0.000    0.000 
#
# Total GULP energy -322407.563660 kJ/mol
# GULP energy per Si atom -12400.290910 kJ/mol
# Density = 2.260298 g / cm^3
# Si number density = 22.654541 Si / 1000 Ang^3
#
#
#
# Elastic Constant Matrix: (Units=GPa)
#
#
# Indices 1 2 3 4 5 6 
#
# 1 78.9777 1.2768 35.3765 0.0000 8.4816 0.0000
# 2 1.2768 38.1653 15.1409 0.0000 -0.9181 0.0000
# 3 35.3765 15.1409 146.8304 0.0000 6.4094 0.0000
# 4 0.0000 0.0000 0.0000 20.6223 0.0000 8.0417
# 5 8.4816 -0.9181 6.4094 0.0000 44.7350 0.0000
# 6 0.0000 0.0000 0.0000 8.0417 0.0000 26.4575
#
#
#
# Elastic Compliance Matrix: (Units=1/GPa)
#
#
# Indices 1 2 3 4 5 6 
#
# 1 0.014441 0.000840 -0.003469 0.000000 -0.002224 0.000000
# 2 0.000840 0.027410 -0.003066 0.000000 0.000843 0.000000
# 3 -0.003469 -0.003066 0.007986 0.000000 -0.000550 0.000000
# 4 0.000000 0.000000 0.000000 0.055011 0.000000 -0.016720
# 5 -0.002224 0.000843 -0.000550 0.000000 0.022872 0.000000
# 6 0.000000 0.000000 0.000000 -0.016720 0.000000 0.042879
#
#
# Mechanical properties :
#
#
# Convention : Reuss Voigt Hill
#
# Bulk Modulus (GPa) = 26.00933 40.84022 33.42478
# Shear Modulus (GPa) = 25.66680 32.50825 29.08752
#
# Velocity S-wave (km/s) = 3.36961 3.79219 3.58713
# Velocity P-wave (km/s) = 5.16186 6.10252 5.65179
#
# Compressibility (1/GPa) = 0.03844774
#
# Stress axis : x y z
#
# Youngs Moduli (GPa) = 69.24819 36.48287 125.21242
#
# Poissons Ratio (x) = -0.03063 0.43434
# Poissons Ratio (y) = -0.05814 0.38384
# Poissons Ratio (z) = 0.24021 0.11184
#
# Static dielectric constant tensor:
#      x y z
#    x 4.062340 0.000000 0.123180 
#    y 0.000000 3.564700 0.000000 
#    z 0.123180 0.000000 4.567590 
# 
# 
# High freq. dielectric constant tensor:
#      x y z
#    x 1.904210 0.000000 0.005750 
#    y 0.000000 1.837690 0.000000 
#    z 0.005750 0.000000 1.914550 
# 
# From -- ./inp_files/209130.got.cif
#   From: 2010.06.25/outbox.cif.g09.slc.cpg/sg15_105_cif.got.tgz:209130.got - 2010.06.28 07:06:18.
