data_PCOD8138417
_publ_section_title
;
Structure prediction by ZEFSAII (Michael W. Deem and Ramdas Pophale) SiO2 
 PCOD8138417
Probable space group: C 2/C
;
_chemical_formula_sum "Si O2"
_cell_formula_units_Z 64
_cell_length_a 27.799424
_cell_length_b 10.185949
_cell_length_c 20.377489
_cell_angle_alpha 90.000000
_cell_angle_beta 31.046434
_cell_angle_gamma 90.000000
_cell_volume 2975.860213
_symmetry_space_group_name_H-M "C 2/C"
_symmetry_group_IT_number 15
_symmetry_cell_setting 'monoclinic'
loop_
_space_group_symop_operation_xyz
x,y,z
-x,y,1/2-z
-x,-y,-z
x,-y,1/2+z
1/2+x,1/2+y,z
1/2-x,1/2+y,1/2-z
1/2-x,1/2-y,-z
1/2+x,1/2-y,1/2+z
loop_
_atom_site_type_symbol
_atom_site_label
_atom_site_fract_x
_atom_site_fract_y
_atom_site_fract_z
Si Si1 0.288952 0.842530 0.871420
Si Si2 0.046644 0.511951 0.258501
Si Si3 0.070869 0.300660 0.043756
Si Si4 0.980544 0.038965 0.127308
Si Si5 0.213295 0.730505 0.272257
Si Si6 0.820799 0.065132 0.886828
Si Si7 0.150425 0.979718 0.844799
Si Si8 0.307250 0.160479 0.981298
O O1 0.279960 0.846930 0.804234
O O2 0.277782 0.694013 0.905788
O O3 0.392502 0.887712 0.770951
O O4 0.208250 0.931030 0.001468
O O5 0.105060 0.391762 0.161468
O O6 0.000000 0.586106 0.250000
O O7 0.969575 0.445624 0.395486
O O8 0.152842 0.266429 0.000767
O O9 0.990594 0.189509 0.139130
O O10 0.113710 0.302831 0.920870
O O11 0.931702 0.957772 0.244713
O O12 0.911463 0.020046 0.147441
O O13 0.082689 0.984481 0.988195
O O14 0.219057 0.890596 0.262809
O O15 0.294379 0.658724 0.219265
O O16 0.763802 0.953677 0.914236
O O17 0.250000 0.250000 0.000000
#
# Coordination Sequence:
#
# PCOD8138417 Si02
#       8
#     8   8   8   8   8   8   8   8
#     4  10  22  39  62  89 127 169 218 260 318 402
#     4   9  20  39  56  89 128 159 209 270 321 378
#     4  10  22  37  65  94 128 171 209 270 335 384
#     4  10  20  40  63  91 127 168 211 272 332 388
#     4  11  23  42  63  95 129 177 224 262 333 399
#     4  10  20  39  65  85 124 173 206 266 330 372
#     4  10  23  41  64  90 134 171 215 274 326 398
#     4  10  20  37  64  92 124 162 213 268 317 386
#
# _framework density 21.506385999999999
#
# number of rings (size 3 to 8) (size 9 to 14) (size 15 to 20)
#    0.000    2.000    1.250    1.500    0.000    5.500 
#    2.250    3.125    0.000    0.000    0.000    0.000 
#    0.000    0.000    0.000    0.000    0.000    0.000 
#
# Total GULP energy -396566.121206 kJ/mol
# GULP energy per Si atom -12392.691288 kJ/mol
# Density = 2.145744 g / cm^3
# Si number density = 21.506386 Si / 1000 Ang^3
#
#
#
# Elastic Constant Matrix: (Units=GPa)
#
#
# Indices 1 2 3 4 5 6 
#
# 1 66.9931 35.0469 27.0256 -0.0001 5.7266 0.0001
# 2 35.0469 97.5348 30.8467 0.0001 -10.9040 0.0001
# 3 27.0256 30.8467 108.8312 -0.0003 10.2817 0.0001
# 4 -0.0001 0.0001 -0.0003 39.4213 0.0000 -7.5151
# 5 5.7266 -10.9040 10.2817 0.0000 31.2634 0.0000
# 6 0.0001 0.0001 0.0001 -7.5151 0.0000 34.2278
#
#
#
# Elastic Compliance Matrix: (Units=1/GPa)
#
#
# Indices 1 2 3 4 5 6 
#
# 1 0.020052 -0.007009 -0.002492 0.000000 -0.005298 0.000000
# 2 -0.007009 0.014573 -0.003087 0.000000 0.007382 0.000000
# 3 -0.002492 -0.003087 0.011086 0.000000 -0.004266 0.000000
# 4 0.000000 0.000000 0.000000 0.026475 0.000000 0.005813
# 5 -0.005298 0.007382 -0.004266 0.000000 0.036934 0.000000
# 6 0.000000 0.000000 0.000000 0.005813 0.000000 0.030492
#
#
# Mechanical properties :
#
#
# Convention : Reuss Voigt Hill
#
# Bulk Modulus (GPa) = 48.70244 51.02193 49.86219
# Shear Modulus (GPa) = 29.13164 33.01182 31.07173
#
# Velocity S-wave (km/s) = 3.68442 3.92213 3.80513
# Velocity P-wave (km/s) = 6.38707 6.65480 6.52231
#
# Compressibility (1/GPa) = 0.02053285
#
# Stress axis : x y z
#
# Youngs Moduli (GPa) = 49.87024 68.61957 90.20777
#
# Poissons Ratio (x) = 0.48098 0.22482
# Poissons Ratio (y) = 0.34956 0.27850
# Poissons Ratio (z) = 0.12429 0.21185
#
# Static dielectric constant tensor:
#      x y z
#    x 4.026430 0.000000 0.056020 
#    y 0.000000 3.953030 0.000000 
#    z 0.056020 0.000000 4.352090 
# 
# 
# High freq. dielectric constant tensor:
#      x y z
#    x 1.828590 0.000000 0.011290 
#    y 0.000000 1.832030 0.000000 
#    z 0.011290 0.000000 1.856760 
# 
# From -- ./inp_files/257510.got.cif
#   From: 2010.06.25/outbox.cif.g09.slc.cpg/sg15_129_cif.got.tgz:257510.got - 2010.06.28 07:06:18.
