data_PCOD8138882
_publ_section_title
;
Structure prediction by ZEFSAII (Michael W. Deem and Ramdas Pophale) SiO2 
 PCOD8138882
Probable space group: C 2/C
;
_chemical_formula_sum "Si O2"
_cell_formula_units_Z 64
_cell_length_a 14.408893
_cell_length_b 17.037829
_cell_length_c 22.885099
_cell_angle_alpha 90.000000
_cell_angle_beta 146.158104
_cell_angle_gamma 90.000000
_cell_volume 3128.796404
_symmetry_space_group_name_H-M "C 2/C"
_symmetry_group_IT_number 15
_symmetry_cell_setting 'monoclinic'
loop_
_space_group_symop_operation_xyz
x,y,z
-x,y,1/2-z
-x,-y,-z
x,-y,1/2+z
1/2+x,1/2+y,z
1/2-x,1/2+y,1/2-z
1/2-x,1/2-y,-z
1/2+x,1/2-y,1/2+z
loop_
_atom_site_type_symbol
_atom_site_label
_atom_site_fract_x
_atom_site_fract_y
_atom_site_fract_z
Si Si1 0.770800 0.377482 0.451996
Si Si2 0.226009 0.788458 0.311578
Si Si3 0.692333 0.299043 0.839012
Si Si4 0.465012 0.308179 0.501600
Si Si5 0.434750 0.553378 0.368724
Si Si6 0.148481 0.041793 0.368080
Si Si7 0.027596 0.875254 0.117390
Si Si8 0.139768 0.342734 0.688074
O O1 0.696095 0.323255 0.360767
O O2 0.776254 0.469898 0.439462
O O3 0.647960 0.365849 0.441803
O O4 0.959048 0.357563 0.566974
O O5 0.414944 0.757673 0.407854
O O6 0.182554 0.855796 0.241572
O O7 0.117171 0.711647 0.234642
O O8 0.500000 0.285845 0.750000
O O9 0.782532 0.227105 0.919172
O O10 0.747161 0.384078 0.893078
O O11 0.743135 0.297042 0.797421
O O12 0.489123 0.394267 0.539867
O O13 0.488735 0.314506 0.444150
O O14 0.558529 0.569338 0.380008
O O15 0.439717 0.462581 0.389462
O O16 0.241383 0.577571 0.256360
O O17 0.000000 0.010467 0.250000
#
# Coordination Sequence:
#
# PCOD8138882 Si02
#       8
#     8   8   8   8   8   8   8   8
#     4  11  23  38  63  94 123 163 209 258 311 372
#     4  11  22  38  62  91 124 161 208 251 317 363
#     4  11  21  41  64  87 126 157 200 264 305 367
#     4  11  24  42  63  94 125 169 208 250 315 374
#     4  10  22  42  65  87 124 172 205 252 314 367
#     4  10  20  38  62  90 123 159 203 258 316 357
#     4  11  23  42  64  91 130 166 208 255 310 375
#     4  11  22  41  59  92 128 157 210 261 309 371
#
# _framework density 20.455151000000001
#
# number of rings (size 3 to 8) (size 9 to 14) (size 15 to 20)
#    0.000    1.250    5.000    2.250    0.000    5.000 
#    0.000    4.375    0.000    0.000    0.000    0.000 
#    0.000    0.000    0.000    0.000    0.000    0.000 
#
# Total GULP energy -396554.217953 kJ/mol
# GULP energy per Si atom -12392.319311 kJ/mol
# Density = 2.040859 g / cm^3
# Si number density = 20.455151 Si / 1000 Ang^3
#
#
#
# Elastic Constant Matrix: (Units=GPa)
#
#
# Indices 1 2 3 4 5 6 
#
# 1 80.0213 42.0788 56.5374 0.0000 0.2850 0.0000
# 2 42.0788 116.6833 65.7489 0.0000 13.6564 0.0000
# 3 56.5374 65.7489 143.7968 0.0001 2.4998 0.0004
# 4 0.0000 0.0000 0.0001 35.0111 0.0001 1.6405
# 5 0.2850 13.6564 2.4998 0.0001 22.1891 0.0002
# 6 0.0000 0.0000 0.0004 1.6405 0.0002 33.2637
#
#
#
# Elastic Compliance Matrix: (Units=1/GPa)
#
#
# Indices 1 2 3 4 5 6 
#
# 1 0.018417 -0.003848 -0.005530 0.000000 0.002755 0.000000
# 2 -0.003848 0.013375 -0.004469 0.000000 -0.007679 0.000000
# 3 -0.005530 -0.004469 0.011144 0.000000 0.001566 0.000000
# 4 0.000000 0.000000 0.000000 0.028629 0.000000 -0.001412
# 5 0.002755 -0.007679 0.001566 0.000000 0.049581 0.000000
# 6 0.000000 0.000000 0.000000 -0.001412 0.000000 0.030132
#
#
# Mechanical properties :
#
#
# Convention : Reuss Voigt Hill
#
# Bulk Modulus (GPa) = 65.60363 74.35907 69.98135
# Shear Modulus (GPa) = 27.16605 29.83520 28.50062
#
# Velocity S-wave (km/s) = 3.64823 3.82326 3.73677
# Velocity P-wave (km/s) = 7.06312 7.47803 7.27354
#
# Compressibility (1/GPa) = 0.01524306
#
# Stress axis : x y z
#
# Youngs Moduli (GPa) = 54.29694 74.76724 89.73085
#
# Poissons Ratio (x) = 0.28773 0.49617
# Poissons Ratio (y) = 0.20895 0.40100
# Poissons Ratio (z) = 0.30024 0.33413
#
# Static dielectric constant tensor:
#      x y z
#    x 4.731870 0.000000 -0.922390 
#    y 0.000000 3.906410 0.000000 
#    z -0.922390 0.000000 4.237380 
# 
# 
# High freq. dielectric constant tensor:
#      x y z
#    x 1.783960 0.000000 -0.012990 
#    y 0.000000 1.810590 0.000000 
#    z -0.012990 0.000000 1.801060 
# 
# From -- ./inp_files/274839.got.cif
#   From: 2010.06.25/outbox.cif.g09.slc.cpg/sg15_138_cif.got.tgz:274839.got - 2010.06.28 07:06:18.
