data_PCOD8138877
_publ_section_title
;
Structure prediction by ZEFSAII (Michael W. Deem and Ramdas Pophale) SiO2 
 PCOD8138877
Probable space group: C 2/C
;
_chemical_formula_sum "Si O2"
_cell_formula_units_Z 44
_cell_length_a 16.859357
_cell_length_b 15.104154
_cell_length_c 9.021454
_cell_angle_alpha 90.000000
_cell_angle_beta 54.382888
_cell_angle_gamma 90.000000
_cell_volume 1867.520717
_symmetry_space_group_name_H-M "C 2/C"
_symmetry_group_IT_number 15
_symmetry_cell_setting 'monoclinic'
loop_
_space_group_symop_operation_xyz
x,y,z
-x,y,1/2-z
-x,-y,-z
x,-y,1/2+z
1/2+x,1/2+y,z
1/2-x,1/2+y,1/2-z
1/2-x,1/2-y,-z
1/2+x,1/2-y,1/2+z
loop_
_atom_site_type_symbol
_atom_site_label
_atom_site_fract_x
_atom_site_fract_y
_atom_site_fract_z
Si Si1 0.785857 0.572789 0.295610
Si Si2 0.741574 0.262033 0.268113
Si Si3 0.895450 0.284608 0.317711
Si Si4 0.500000 0.516187 0.250000
Si Si5 0.633146 0.438416 0.349206
Si Si6 0.397566 0.979185 0.400569
O O1 0.774823 0.678960 0.323005
O O2 0.690842 0.528519 0.326807
O O3 0.807527 0.538536 0.437798
O O4 0.879203 0.544788 0.092212
O O5 0.855715 0.259886 0.195715
O O6 0.679992 0.249621 0.481969
O O7 0.705339 0.355392 0.239820
O O8 0.899378 0.390053 0.303289
O O9 0.000000 0.244166 0.250000
O O10 0.573505 0.453337 0.262735
O O11 0.440038 0.578029 0.431141
O O12 0.500000 0.028206 0.250000
#
# Coordination Sequence:
#
# PCOD8138877 Si02
#       6
#     8   8   8   4   8   8
#     4  11  22  40  64  92 127 171 211 267 324 378
#     4  10  22  37  63  93 128 170 214 267 324 381
#     4   9  19  35  61  92 118 161 220 266 308 381
#     4  10  26  42  70  94 126 180 212 272 330 382
#     4  11  23  45  66  95 133 166 224 267 324 394
#     4  10  20  38  62  89 125 165 211 260 321 385
#
# _framework density 23.560649000000002
#
# number of rings (size 3 to 8) (size 9 to 14) (size 15 to 20)
#    0.000    1.818    1.818    1.636    6.364    1.455 
#    1.636    3.636    0.000    0.000    0.000    0.000 
#    0.000    0.000    0.000    0.000    0.000    0.000 
#
# Total GULP energy -272646.290509 kJ/mol
# GULP energy per Si atom -12393.013205 kJ/mol
# Density = 2.350702 g / cm^3
# Si number density = 23.560649 Si / 1000 Ang^3
#
#
#
# Elastic Constant Matrix: (Units=GPa)
#
#
# Indices 1 2 3 4 5 6 
#
# 1 137.4799 32.1401 6.8370 0.0000 4.9278 0.0000
# 2 32.1401 115.0112 8.6761 0.0000 7.8176 0.0000
# 3 6.8370 8.6761 40.3365 0.0000 4.0476 0.0000
# 4 0.0000 0.0000 0.0000 20.8828 0.0000 -2.9260
# 5 4.9278 7.8176 4.0476 0.0000 32.0792 0.0000
# 6 0.0000 0.0000 0.0000 -2.9260 0.0000 21.2864
#
#
#
# Elastic Compliance Matrix: (Units=1/GPa)
#
#
# Indices 1 2 3 4 5 6 
#
# 1 0.007823 -0.002084 -0.000818 0.000000 -0.000591 0.000000
# 2 -0.002084 0.009514 -0.001512 0.000000 -0.001808 0.000000
# 3 -0.000818 -0.001512 0.025529 0.000000 -0.002727 0.000000
# 4 0.000000 0.000000 0.000000 0.048827 0.000000 0.006712
# 5 -0.000591 -0.001808 -0.002727 0.000000 0.032048 0.000000
# 6 0.000000 0.000000 0.000000 0.006712 0.000000 0.047901
#
#
# Mechanical properties :
#
#
# Convention : Reuss Voigt Hill
#
# Bulk Modulus (GPa) = 29.37962 43.12600 36.25281
# Shear Modulus (GPa) = 26.06662 31.19466 28.63064
#
# Velocity S-wave (km/s) = 3.32981 3.64265 3.48974
# Velocity P-wave (km/s) = 5.22306 6.00299 5.62655
#
# Compressibility (1/GPa) = 0.03403720
#
# Stress axis : x y z
#
# Youngs Moduli (GPa) = 127.82955 105.10646 39.17119
#
# Poissons Ratio (x) = 0.21907 0.03206
# Poissons Ratio (y) = 0.26643 0.05922
# Poissons Ratio (z) = 0.10462 0.15889
#
# Static dielectric constant tensor:
#      x y z
#    x 4.706590 0.000000 -0.225190 
#    y 0.000000 4.095710 0.000000 
#    z -0.225190 0.000000 4.116850 
# 
# 
# High freq. dielectric constant tensor:
#      x y z
#    x 1.940870 0.000000 -0.006720 
#    y 0.000000 1.918200 0.000000 
#    z -0.006720 0.000000 1.916790 
# 
# From -- ./inp_files/39756.got.cif
#   From: 2010.06.25/outbox.cif.g09.slc.cpg/sg15_20_cif.got.tgz:39756.got - 2010.06.28 07:06:18.
