data_PCOD8138848
_publ_section_title
;
Structure prediction by ZEFSAII (Michael W. Deem and Ramdas Pophale) SiO2 
 PCOD8138848
Probable space group: C 2/C
;
_chemical_formula_sum "Si O2"
_cell_formula_units_Z 48
_cell_length_a 9.121544
_cell_length_b 24.341996
_cell_length_c 11.825804
_cell_angle_alpha 90.000000
_cell_angle_beta 54.975689
_cell_angle_gamma 90.000000
_cell_volume 2150.258395
_symmetry_space_group_name_H-M "C 2/C"
_symmetry_group_IT_number 15
_symmetry_cell_setting 'monoclinic'
loop_
_space_group_symop_operation_xyz
x,y,z
-x,y,1/2-z
-x,-y,-z
x,-y,1/2+z
1/2+x,1/2+y,z
1/2-x,1/2+y,1/2-z
1/2-x,1/2-y,-z
1/2+x,1/2-y,1/2+z
loop_
_atom_site_type_symbol
_atom_site_label
_atom_site_fract_x
_atom_site_fract_y
_atom_site_fract_z
Si Si1 0.180832 0.922511 0.462871
Si Si2 0.832956 0.470072 0.898417
Si Si3 0.655638 0.164156 0.771223
Si Si4 0.294925 0.763016 0.850098
Si Si5 0.316597 0.622993 0.172443
Si Si6 0.533117 0.090208 0.484459
O O1 0.213304 0.881827 0.342497
O O2 0.365653 0.931377 0.450251
O O3 0.017846 0.898971 0.609630
O O4 0.166320 0.988104 0.444874
O O5 0.757026 0.410008 0.902211
O O6 0.000000 0.488736 0.750000
O O7 0.905933 0.458631 0.993542
O O8 0.500000 0.181075 0.750000
O O9 0.766065 0.216332 0.766935
O O10 0.580728 0.141841 0.922779
O O11 0.500000 0.781544 0.750000
O O12 0.170509 0.813356 0.865638
O O13 0.250000 0.750000 0.000000
O O14 0.184050 0.612489 0.333787
#
# Coordination Sequence:
#
# PCOD8138848 Si02
#       6
#     8   8   8   8   8   8
#     4  11  22  38  60  91 123 156 200 251 307 366
#     4  10  20  38  62  87 121 161 200 249 303 367
#     4  10  23  41  63  91 125 165 208 258 313 368
#     4  12  24  43  66  91 123 165 212 260 311 371
#     4  11  23  39  59  89 121 156 203 254 304 360
#     4  10  21  39  61  87 120 161 202 244 306 370
#
# _framework density 22.322900000000001
#
# number of rings (size 3 to 8) (size 9 to 14) (size 15 to 20)
#    0.000    1.333    0.000    7.500    0.000    2.667 
#    0.000    5.833    0.000    0.000    0.000    0.000 
#    0.000    0.000    0.000    0.000    0.000    0.000 
#
# Total GULP energy -297352.274412 kJ/mol
# GULP energy per Si atom -12389.678100 kJ/mol
# Density = 2.227209 g / cm^3
# Si number density = 22.322900 Si / 1000 Ang^3
#
#
#
# Elastic Constant Matrix: (Units=GPa)
#
#
# Indices 1 2 3 4 5 6 
#
# 1 77.5836 47.1762 29.7179 0.0000 -1.9936 0.0000
# 2 47.1762 143.3461 56.6525 0.0000 1.3409 0.0000
# 3 29.7179 56.6525 89.9997 0.0000 0.5050 0.0000
# 4 0.0000 0.0000 0.0000 28.6184 0.0000 1.7133
# 5 -1.9936 1.3409 0.5050 0.0000 36.8154 0.0000
# 6 0.0000 0.0000 0.0000 1.7133 0.0000 42.3981
#
#
#
# Elastic Compliance Matrix: (Units=1/GPa)
#
#
# Indices 1 2 3 4 5 6 
#
# 1 0.016644 -0.004411 -0.002725 0.000000 0.001099 0.000000
# 2 -0.004411 0.010458 -0.005123 0.000000 -0.000549 0.000000
# 3 -0.002725 -0.005123 0.015237 0.000000 -0.000170 0.000000
# 4 0.000000 0.000000 0.000000 0.035027 0.000000 -0.001415
# 5 0.001099 -0.000549 -0.000170 0.000000 0.027244 0.000000
# 6 0.000000 0.000000 0.000000 -0.001415 0.000000 0.023643
#
#
# Mechanical properties :
#
#
# Convention : Reuss Voigt Hill
#
# Bulk Modulus (GPa) = 56.11886 64.22473 60.17179
# Shear Modulus (GPa) = 31.50364 33.39189 32.44777
#
# Velocity S-wave (km/s) = 3.76076 3.87183 3.81670
# Velocity P-wave (km/s) = 6.63716 6.98723 6.81444
#
# Compressibility (1/GPa) = 0.01781932
#
# Stress axis : x y z
#
# Youngs Moduli (GPa) = 60.08342 95.62376 65.62939
#
# Poissons Ratio (x) = 0.42176 0.17887
# Poissons Ratio (y) = 0.26501 0.33624
# Poissons Ratio (z) = 0.16376 0.48991
#
# Static dielectric constant tensor:
#      x y z
#    x 4.136880 0.000000 -0.005110 
#    y 0.000000 4.158430 0.000000 
#    z -0.005110 0.000000 3.908350 
# 
# 
# High freq. dielectric constant tensor:
#      x y z
#    x 1.880490 0.000000 0.000050 
#    y 0.000000 1.890810 0.000000 
#    z 0.000050 0.000000 1.875670 
# 
# From -- ./inp_files/80493.got.cif
#   From: 2010.06.25/outbox.cif.g09.slc.cpg/sg15_41_cif.got.tgz:80493.got - 2010.06.28 07:06:18.
