data_PCOD8138835
_publ_section_title
;
Structure prediction by ZEFSAII (Michael W. Deem and Ramdas Pophale) SiO2 
 PCOD8138835
Probable space group: C 2/C
;
_chemical_formula_sum "Si O2"
_cell_formula_units_Z 60
_cell_length_a 11.663033
_cell_length_b 8.806750
_cell_length_c 28.271636
_cell_angle_alpha 90.000000
_cell_angle_beta 102.849610
_cell_angle_gamma 90.000000
_cell_volume 2831.154994
_symmetry_space_group_name_H-M "C 2/C"
_symmetry_group_IT_number 15
_symmetry_cell_setting 'monoclinic'
loop_
_space_group_symop_operation_xyz
x,y,z
-x,y,1/2-z
-x,-y,-z
x,-y,1/2+z
1/2+x,1/2+y,z
1/2-x,1/2+y,1/2-z
1/2-x,1/2-y,-z
1/2+x,1/2-y,1/2+z
loop_
_atom_site_type_symbol
_atom_site_label
_atom_site_fract_x
_atom_site_fract_y
_atom_site_fract_z
Si Si1 0.892993 0.038691 0.311214
Si Si2 0.518971 0.105983 0.934648
Si Si3 0.000000 0.838115 0.250000
Si Si4 0.679819 0.897118 0.009547
Si Si5 0.011211 0.371550 0.169059
Si Si6 0.211834 0.181550 0.446740
Si Si7 0.673675 0.107234 0.229179
Si Si8 0.759967 0.806789 0.352656
O O1 0.933405 0.205045 0.327745
O O2 0.788383 0.037186 0.263265
O O3 0.846625 0.951081 0.353595
O O4 0.000795 0.944677 0.297012
O O5 0.424695 0.146761 0.965173
O O6 0.466686 0.048344 0.880196
O O7 0.577101 0.269873 0.927037
O O8 0.619181 0.985978 0.960340
O O9 0.116710 0.733145 0.258826
O O10 0.771273 0.001109 0.047334
O O11 0.750000 0.750000 0.000000
O O12 0.078286 0.473000 0.213541
O O13 0.873287 0.363626 0.168323
O O14 0.250000 0.250000 0.500000
O O15 0.284280 0.244134 0.407989
O O16 0.709284 0.177160 0.182106
#
# Coordination Sequence:
#
# PCOD8138835 Si02
#       8
#     8   8   4   8   8   8   8   8
#     4  11  23  38  59  84 116 158 203 245 296 357
#     4   9  21  38  57  87 118 151 194 242 299 355
#     4  10  22  38  54  82 112 148 198 240 290 352
#     4  10  20  38  62  86 117 154 193 243 301 361
#     4  11  22  38  60  86 118 153 199 248 291 353
#     4   9  19  38  60  84 120 157 196 245 297 358
#     4  11  22  38  60  84 118 158 195 246 304 351
#     4  10  22  39  58  85 118 157 198 246 304 355
#
# _framework density 21.192765999999999
#
# number of rings (size 3 to 8) (size 9 to 14) (size 15 to 20)
#    0.000    1.867    0.000    4.000    0.000    5.333 
#    0.000   13.333    0.000    0.000    0.000    0.000 
#    0.000    0.000    0.000    0.000    0.000    0.000 
#
# Total GULP energy -371837.181035 kJ/mol
# GULP energy per Si atom -12394.572701 kJ/mol
# Density = 2.114453 g / cm^3
# Si number density = 21.192766 Si / 1000 Ang^3
#
#
#
# Elastic Constant Matrix: (Units=GPa)
#
#
# Indices 1 2 3 4 5 6 
#
# 1 103.0301 59.8151 42.3109 0.0000 -18.4279 0.0000
# 2 59.8151 130.5012 40.7451 0.0000 -13.3235 0.0000
# 3 42.3109 40.7451 98.5914 0.0000 -15.6240 0.0000
# 4 0.0000 0.0000 0.0000 30.7786 0.0000 1.1715
# 5 -18.4279 -13.3235 -15.6240 0.0000 30.0505 0.0000
# 6 0.0000 0.0000 0.0000 1.1715 0.0000 31.6746
#
#
#
# Elastic Compliance Matrix: (Units=1/GPa)
#
#
# Indices 1 2 3 4 5 6 
#
# 1 0.015148 -0.005332 -0.003487 0.000000 0.005112 0.000000
# 2 -0.005332 0.010810 -0.002112 0.000000 0.000425 0.000000
# 3 -0.003487 -0.002112 0.013104 0.000000 0.003739 0.000000
# 4 0.000000 0.000000 0.000000 0.032536 0.000000 -0.001203
# 5 0.005112 0.000425 0.003739 0.000000 0.038544 0.000000
# 6 0.000000 0.000000 0.000000 -0.001203 0.000000 0.031616
#
#
# Mechanical properties :
#
#
# Convention : Reuss Voigt Hill
#
# Bulk Modulus (GPa) = 58.13918 68.65167 63.39542
# Shear Modulus (GPa) = 29.52411 31.11752 30.32081
#
# Velocity S-wave (km/s) = 3.73650 3.83601 3.78658
# Velocity P-wave (km/s) = 6.79031 7.21694 7.00687
#
# Compressibility (1/GPa) = 0.01720011
#
# Stress axis : x y z
#
# Youngs Moduli (GPa) = 66.01520 92.51107 76.31001
#
# Poissons Ratio (x) = 0.49331 0.26609
# Poissons Ratio (y) = 0.35202 0.16113
# Poissons Ratio (z) = 0.23019 0.19534
#
# Static dielectric constant tensor:
#      x y z
#    x 4.026170 0.000000 -0.027700 
#    y 0.000000 4.013450 0.000000 
#    z -0.027700 0.000000 3.989230 
# 
# 
# High freq. dielectric constant tensor:
#      x y z
#    x 1.836140 0.000000 -0.017520 
#    y 0.000000 1.832460 0.000000 
#    z -0.017520 0.000000 1.825830 
# 
# From -- ./inp_files/310351.got.cif
#   From: 2010.06.25/outbox.cif.g09.slc.cpg/sg15_156_cif.got.tgz:310351.got - 2010.06.28 07:06:18.
