data_PCOD8138267
_publ_section_title
;
Structure prediction by ZEFSAII (Michael W. Deem and Ramdas Pophale) SiO2 
 PCOD8138267
Probable space group: C 2/C
;
_chemical_formula_sum "Si O2"
_cell_formula_units_Z 48
_cell_length_a 24.304197
_cell_length_b 13.424597
_cell_length_c 13.651018
_cell_angle_alpha 90.000000
_cell_angle_beta 146.997202
_cell_angle_gamma 90.000000
_cell_volume 2425.989933
_symmetry_space_group_name_H-M "C 2/C"
_symmetry_group_IT_number 15
_symmetry_cell_setting 'monoclinic'
loop_
_space_group_symop_operation_xyz
x,y,z
-x,y,1/2-z
-x,-y,-z
x,-y,1/2+z
1/2+x,1/2+y,z
1/2-x,1/2+y,1/2-z
1/2-x,1/2-y,-z
1/2+x,1/2-y,1/2+z
loop_
_atom_site_type_symbol
_atom_site_label
_atom_site_fract_x
_atom_site_fract_y
_atom_site_fract_z
Si Si1 0.056199 0.795168 0.239159
Si Si2 0.237360 0.133044 0.469803
Si Si3 0.536970 0.936053 0.195710
Si Si4 0.915976 0.069822 0.422763
Si Si5 0.903549 0.381683 0.830663
Si Si6 0.314757 0.532549 0.469853
O O1 0.119618 0.715034 0.271104
O O2 0.124519 0.889407 0.371523
O O3 0.000000 0.747790 0.250000
O O4 0.968553 0.829020 0.034911
O O5 0.250000 0.250000 0.500000
O O6 0.347721 0.091234 0.625437
O O7 0.174486 0.102794 0.281317
O O8 0.183468 0.078014 0.480748
O O9 0.500000 0.936345 0.250000
O O10 0.529467 0.045545 0.137239
O O11 0.470433 0.860573 0.028554
O O12 0.867064 0.015423 0.443565
O O13 0.000000 0.000000 0.500000
O O14 0.798475 0.427048 0.710876
#
# Coordination Sequence:
#
# PCOD8138267 Si02
#       6
#     8   8   8   8   8   8
#     4  10  20  37  62  91 119 161 210 257 309 376
#     4  11  23  42  61  91 126 164 212 259 314 378
#     4  10  21  38  57  86 124 160 201 257 312 372
#     4  11  22  41  63  89 127 165 207 256 316 369
#     4  10  20  37  62  86 122 161 206 254 316 368
#     4  10  22  40  62  89 126 161 209 265 309 374
#
# _framework density 19.785737999999998
#
# number of rings (size 3 to 8) (size 9 to 14) (size 15 to 20)
#    0.000    1.667    1.667    3.000    0.000    0.000 
#    9.000    3.333    0.000    0.000    0.000    0.000 
#    0.000    0.000    0.000    0.000    0.000    0.000 
#
# Total GULP energy -297496.027033 kJ/mol
# GULP energy per Si atom -12395.667793 kJ/mol
# Density = 1.974070 g / cm^3
# Si number density = 19.785738 Si / 1000 Ang^3
#
#
#
# Elastic Constant Matrix: (Units=GPa)
#
#
# Indices 1 2 3 4 5 6 
#
# 1 151.1164 65.4594 44.1528 0.0000 -17.7232 0.0000
# 2 65.4594 104.7115 37.2113 0.0000 -14.0119 0.0000
# 3 44.1528 37.2113 140.9951 0.0000 -20.1913 0.0000
# 4 0.0000 0.0000 0.0000 -14.6969 0.0000 39.7346
# 5 -17.7232 -14.0119 -20.1913 0.0000 26.5322 0.0000
# 6 0.0000 0.0000 0.0000 39.7346 0.0000 -23.8611
#
#
#
# Elastic Compliance Matrix: (Units=1/GPa)
#
#
# Indices 1 2 3 4 5 6 
#
# 1 0.009529 -0.005156 -0.001236 0.000000 0.002701 0.000000
# 2 -0.005156 0.013695 -0.001635 0.000000 0.002544 0.000000
# 3 -0.001236 -0.001635 0.008607 0.000000 0.004861 0.000000
# 4 0.000000 0.000000 0.000000 0.019428 0.000000 0.032353
# 5 0.002701 0.002544 0.004861 0.000000 0.044537 0.000000
# 6 0.000000 0.000000 0.000000 0.032353 0.000000 0.011967
#
#
# Mechanical properties :
#
#
# Convention : Reuss Voigt Hill
#
# Bulk Modulus (GPa) = 63.38995 76.71887 70.05441
# Shear Modulus (GPa) = 38.73645 14.26147 26.49896
#
# Velocity S-wave (km/s) = 4.42950 2.68768 3.66361
# Velocity P-wave (km/s) = 7.63337 6.96351 7.30612
#
# Compressibility (1/GPa) = 0.01577537
#
# Stress axis : x y z
#
# Youngs Moduli (GPa) = 104.94341 73.01994 116.18011
#
# Poissons Ratio (x) = 0.37650 0.14364
# Poissons Ratio (y) = 0.54110 0.19001
# Poissons Ratio (z) = 0.12975 0.11942
#
# Static dielectric constant tensor:
#      x y z
#    x 3.838280 0.000000 -0.155850 
#    y 0.000000 3.639780 0.000000 
#    z -0.155850 0.000000 3.609980 
# 
# 
# High freq. dielectric constant tensor:
#      x y z
#    x 1.777460 0.000000 -0.002470 
#    y 0.000000 1.754230 0.000000 
#    z -0.002470 0.000000 1.794010 
# 
# From -- ./inp_files/96869.got.cif
#   From: 2010.06.25/outbox.cif.g09.slc.cpg/sg15_49_cif.got.tgz:96869.got - 2010.06.28 07:06:18.
