data_PCOD8138675
_publ_section_title
;
Structure prediction by ZEFSAII (Michael W. Deem and Ramdas Pophale) SiO2 
 PCOD8138675
Probable space group: C 2/C
;
_chemical_formula_sum "Si O2"
_cell_formula_units_Z 52
_cell_length_a 9.872138
_cell_length_b 15.583197
_cell_length_c 18.049420
_cell_angle_alpha 90.000000
_cell_angle_beta 107.208555
_cell_angle_gamma 90.000000
_cell_volume 2652.411436
_symmetry_space_group_name_H-M "C 2/C"
_symmetry_group_IT_number 15
_symmetry_cell_setting 'monoclinic'
loop_
_space_group_symop_operation_xyz
x,y,z
-x,y,1/2-z
-x,-y,-z
x,-y,1/2+z
1/2+x,1/2+y,z
1/2-x,1/2+y,1/2-z
1/2-x,1/2-y,-z
1/2+x,1/2-y,1/2+z
loop_
_atom_site_type_symbol
_atom_site_label
_atom_site_fract_x
_atom_site_fract_y
_atom_site_fract_z
Si Si1 0.500000 0.678753 0.750000
Si Si2 0.274111 0.230182 0.313285
Si Si3 0.697944 0.009687 0.506271
Si Si4 0.000000 0.884700 0.750000
Si Si5 0.227502 0.592441 0.870597
Si Si6 0.045946 0.588975 0.103811
Si Si7 0.000000 0.491318 0.750000
Si Si8 0.527055 0.535678 0.868841
O O1 0.630258 0.736086 0.740199
O O2 0.565944 0.616116 0.822780
O O3 0.217420 0.306563 0.355476
O O4 0.374447 0.179408 0.387643
O O5 0.140686 0.174166 0.262426
O O6 0.678609 0.929998 0.446008
O O7 0.631019 0.984867 0.574212
O O8 0.613291 0.090941 0.456358
O O9 0.859576 0.034302 0.546391
O O10 0.022781 0.944800 0.825298
O O11 0.130409 0.550636 0.792548
O O12 0.380693 0.551756 0.885568
O O13 0.048506 0.568542 0.191028
#
# Coordination Sequence:
#
# PCOD8138675 Si02
#       8
#     4   8   8   4   8   8   4   8
#     4   9  23  38  61  85 124 152 196 247 301 344
#     4  11  21  38  55  92 119 151 194 253 299 344
#     4  10  21  39  59  86 116 160 193 238 287 360
#     4  11  21  36  63  89 116 154 204 249 289 342
#     4  10  22  36  60  86 121 149 195 243 300 342
#     4  10  21  37  61  83 119 151 199 238 292 348
#     4  10  20  38  60  86 108 162 200 234 282 370
#     4  10  20  40  61  84 114 159 202 240 283 356
#
# _framework density 19.604800999999998
#
# number of rings (size 3 to 8) (size 9 to 14) (size 15 to 20)
#    0.000    1.846    1.538    2.308    4.308    1.846 
#    2.769    3.077    0.000    0.000    0.000    0.000 
#    0.000    0.000    0.000    0.000    0.000    0.000 
#
# Total GULP energy -322337.210005 kJ/mol
# GULP energy per Si atom -12397.585000 kJ/mol
# Density = 1.956018 g / cm^3
# Si number density = 19.604801 Si / 1000 Ang^3
#
#
#
# Elastic Constant Matrix: (Units=GPa)
#
#
# Indices 1 2 3 4 5 6 
#
# 1 91.4685 27.1301 30.7222 0.0000 20.3968 0.0000
# 2 27.1301 77.1639 16.4664 0.0000 17.7718 0.0000
# 3 30.7222 16.4664 91.7842 0.0000 19.9394 0.0000
# 4 0.0000 0.0000 0.0000 14.2665 0.0000 -7.2917
# 5 20.3968 17.7718 19.9394 0.0000 46.0675 0.0000
# 6 0.0000 0.0000 0.0000 -7.2917 0.0000 42.7842
#
#
#
# Elastic Compliance Matrix: (Units=1/GPa)
#
#
# Indices 1 2 3 4 5 6 
#
# 1 0.013787 -0.003368 -0.003275 0.000000 -0.003388 0.000000
# 2 -0.003368 0.015236 -0.000721 0.000000 -0.004074 0.000000
# 3 -0.003275 -0.000721 0.012964 0.000000 -0.003883 0.000000
# 4 0.000000 0.000000 0.000000 0.076783 0.000000 0.013086
# 5 -0.003388 -0.004074 -0.003883 0.000000 0.026460 0.000000
# 6 0.000000 0.000000 0.000000 0.013086 0.000000 0.025603
#
#
# Mechanical properties :
#
#
# Convention : Reuss Voigt Hill
#
# Bulk Modulus (GPa) = 36.68446 45.45045 41.06745
# Shear Modulus (GPa) = 25.68752 33.03016 29.35884
#
# Velocity S-wave (km/s) = 3.62369 4.10908 3.87400
# Velocity P-wave (km/s) = 6.02169 6.76361 6.40340
#
# Compressibility (1/GPa) = 0.02725950
#
# Stress axis : x y z
#
# Youngs Moduli (GPa) = 72.53158 65.63439 77.13589
#
# Poissons Ratio (x) = 0.22109 0.25259
# Poissons Ratio (y) = 0.24432 0.05560
# Poissons Ratio (z) = 0.23751 0.04731
#
# Static dielectric constant tensor:
#      x y z
#    x 3.710430 0.000000 0.108190 
#    y 0.000000 3.545890 0.000000 
#    z 0.108190 0.000000 3.622920 
# 
# 
# High freq. dielectric constant tensor:
#      x y z
#    x 1.777370 0.000000 0.005350 
#    y 0.000000 1.753080 0.000000 
#    z 0.005350 0.000000 1.762990 
# 
# From -- ./inp_files/197286.got.cif
#   From: 2010.06.25/outbox.cif.g09.slc.cpg/sg15_99_cif.got.tgz:197286.got - 2010.06.28 07:06:18.
