data_PCOD8138492
_publ_section_title
;
Structure prediction by ZEFSAII (Michael W. Deem and Ramdas Pophale) SiO2 
 PCOD8138492
Probable space group: C 2/C
;
_chemical_formula_sum "Si O2"
_cell_formula_units_Z 52
_cell_length_a 20.455088
_cell_length_b 17.230504
_cell_length_c 5.400526
_cell_angle_alpha 90.000000
_cell_angle_beta 84.822389
_cell_angle_gamma 90.000000
_cell_volume 1895.656892
_symmetry_space_group_name_H-M "C 2/C"
_symmetry_group_IT_number 15
_symmetry_cell_setting 'monoclinic'
loop_
_space_group_symop_operation_xyz
x,y,z
-x,y,1/2-z
-x,-y,-z
x,-y,1/2+z
1/2+x,1/2+y,z
1/2-x,1/2+y,1/2-z
1/2-x,1/2-y,-z
1/2+x,1/2-y,1/2+z
loop_
_atom_site_type_symbol
_atom_site_label
_atom_site_fract_x
_atom_site_fract_y
_atom_site_fract_z
Si Si1 0.924554 0.468897 0.028387
Si Si2 0.207886 0.803407 0.688200
Si Si3 0.097125 0.830169 0.355412
Si Si4 0.604814 0.469302 0.023648
Si Si5 0.104960 0.288787 0.483077
Si Si6 0.000000 0.193902 0.250000
Si Si7 0.749339 0.966232 0.652945
O O1 0.889767 0.499422 0.291016
O O2 0.912930 0.377899 0.021181
O O3 0.000000 0.500000 0.000000
O O4 0.250000 0.750000 0.500000
O O5 0.154112 0.846876 0.533758
O O6 0.250152 0.872521 0.803730
O O7 0.178670 0.741249 0.896116
O O8 0.107610 0.878478 0.095536
O O9 0.091303 0.740695 0.268682
O O10 0.027232 0.855466 0.505903
O O11 0.569894 0.515488 0.267530
O O12 0.677572 0.500190 0.925616
O O13 0.060460 0.248752 0.292783
O O14 0.714648 0.011513 0.899700
#
# Coordination Sequence:
#
# PCOD8138492 Si02
#       7
#     8   8   8   8   8   4   8
#     4  10  23  40  68  99 135 181 230 285 360 435
#     4  11  25  44  68 104 142 188 240 304 368 438
#     4  11  23  41  67 100 136 183 238 293 357 430
#     4  10  20  37  66  95 134 179 232 283 343 414
#     4  11  24  43  69  99 137 183 238 294 356 438
#     4  10  24  38  66  94 136 172 236 286 348 420
#     4  10  20  40  68  98 133 185 243 288 348 428
#
# _framework density 27.431121999999998
#
# number of rings (size 3 to 8) (size 9 to 14) (size 15 to 20)
#    0.000    1.538    1.538    4.154   10.769    0.615 
#    0.000    2.308    0.000    0.000    0.000    0.000 
#    0.000    0.000    0.000    0.000    0.000    0.000 
#
# Total GULP energy -322094.111418 kJ/mol
# GULP energy per Si atom -12388.235055 kJ/mol
# Density = 2.736869 g / cm^3
# Si number density = 27.431122 Si / 1000 Ang^3
#
#
#
# Elastic Constant Matrix: (Units=GPa)
#
#
# Indices 1 2 3 4 5 6 
#
# 1 14.1351 11.9709 23.1429 0.0000 -1.2264 0.0000
# 2 11.9709 175.3501 79.8996 0.0000 0.1978 0.0000
# 3 23.1429 79.8996 244.1155 0.0000 -14.0479 0.0000
# 4 0.0000 0.0000 0.0000 51.7527 0.0000 -0.5604
# 5 -1.2264 0.1978 -14.0479 0.0000 35.7317 0.0000
# 6 0.0000 0.0000 0.0000 -0.5604 0.0000 22.1010
#
#
#
# Elastic Compliance Matrix: (Units=1/GPa)
#
#
# Indices 1 2 3 4 5 6 
#
# 1 0.084663 -0.002497 -0.007204 0.000000 0.000088 0.000000
# 2 -0.002497 0.006806 -0.002044 0.000000 -0.000927 0.000000
# 3 -0.007204 -0.002044 0.005561 0.000000 0.001950 0.000000
# 4 0.000000 0.000000 0.000000 0.019328 0.000000 0.000490
# 5 0.000088 -0.000927 0.001950 0.000000 0.028761 0.000000
# 6 0.000000 0.000000 0.000000 0.000490 0.000000 0.045259
#
#
# Mechanical properties :
#
#
# Convention : Reuss Voigt Hill
#
# Bulk Modulus (GPa) = 13.59829 73.73640 43.66735
# Shear Modulus (GPa) = 20.97477 43.15623 32.06550
#
# Velocity S-wave (km/s) = 2.76820 3.97073 3.42269
# Velocity P-wave (km/s) = 3.89683 6.92540 5.61901
#
# Compressibility (1/GPa) = 0.07353864
#
# Stress axis : x y z
#
# Youngs Moduli (GPa) = 11.81154 146.93235 179.83494
#
# Poissons Ratio (x) = 0.36695 1.29551
# Poissons Ratio (y) = 0.02950 0.36761
# Poissons Ratio (z) = 0.08509 0.30035
#
# Static dielectric constant tensor:
#      x y z
#    x 5.195150 0.000000 0.047000 
#    y 0.000000 4.664450 0.000000 
#    z 0.047000 0.000000 6.042700 
# 
# 
# High freq. dielectric constant tensor:
#      x y z
#    x 2.089530 0.000000 -0.003270 
#    y 0.000000 2.095110 0.000000 
#    z -0.003270 0.000000 2.145730 
# 
# From -- ./inp_files/13344.got.cif
#   From: 2010.06.25/outbox.cif.g09.slc.cpg/sg15_7_cif.got.tgz:13344.got - 2010.06.28 07:06:18.
