data_PCOD8138297
_publ_section_title
;
Structure prediction by ZEFSAII (Michael W. Deem and Ramdas Pophale) SiO2 
 PCOD8138297
Probable space group: C 2/C
;
_chemical_formula_sum "Si O2"
_cell_formula_units_Z 56
_cell_length_a 17.420140
_cell_length_b 9.120798
_cell_length_c 26.246190
_cell_angle_alpha 90.000000
_cell_angle_beta 140.195702
_cell_angle_gamma 90.000000
_cell_volume 2669.588074
_symmetry_space_group_name_H-M "C 2/C"
_symmetry_group_IT_number 15
_symmetry_cell_setting 'monoclinic'
loop_
_space_group_symop_operation_xyz
x,y,z
-x,y,1/2-z
-x,-y,-z
x,-y,1/2+z
1/2+x,1/2+y,z
1/2-x,1/2+y,1/2-z
1/2-x,1/2-y,-z
1/2+x,1/2-y,1/2+z
loop_
_atom_site_type_symbol
_atom_site_label
_atom_site_fract_x
_atom_site_fract_y
_atom_site_fract_z
Si Si1 0.126969 0.160389 0.439864
Si Si2 0.842805 0.602957 0.946390
Si Si3 0.203107 0.327229 0.648445
Si Si4 0.983010 0.597360 0.369342
Si Si5 0.459350 0.819157 0.284768
Si Si6 0.020662 0.164161 0.494576
Si Si7 0.849520 0.835040 0.080171
O O1 0.250000 0.250000 0.500000
O O2 0.050227 0.195437 0.450887
O O3 0.057242 0.204662 0.353689
O O4 0.140019 0.986585 0.444706
O O5 0.826361 0.468827 0.900395
O O6 0.705480 0.643758 0.891398
O O7 0.923676 0.557641 0.037125
O O8 0.905230 0.737984 0.949621
O O9 0.146634 0.356104 0.675231
O O10 0.338847 0.276661 0.723288
O O11 0.136429 0.195086 0.587372
O O12 0.958544 0.459062 0.321103
O O13 0.030186 0.736482 0.359961
O O14 0.500000 0.873553 0.250000
O O15 0.000000 0.000000 0.500000
O O16 0.750000 0.750000 0.000000
#
# Coordination Sequence:
#
# PCOD8138297 Si02
#       7
#     8   8   8   8   8   8   8
#     4  12  23  41  67  93 124 163 207 259 311 374
#     4  10  20  40  67  91 120 161 206 255 309 372
#     4  11  23  41  63  91 125 163 206 255 312 371
#     4  10  22  42  63  88 124 165 205 254 311 369
#     4  12  26  42  61  91 126 167 212 259 311 367
#     4  11  22  39  66  99 124 159 210 258 308 373
#     4  10  20  37  62  91 119 156 203 252 304 364
#
# _framework density 20.977018999999999
#
# number of rings (size 3 to 8) (size 9 to 14) (size 15 to 20)
#    0.000    1.143    0.000   10.286    0.000    3.429 
#    0.000    5.000    0.000    0.000    0.000    0.000 
#    0.000    0.000    0.000    0.000    0.000    0.000 
#
# Total GULP energy -347042.929223 kJ/mol
# GULP energy per Si atom -12394.390329 kJ/mol
# Density = 2.092927 g / cm^3
# Si number density = 20.977019 Si / 1000 Ang^3
#
#
#
# Elastic Constant Matrix: (Units=GPa)
#
#
# Indices 1 2 3 4 5 6 
#
# 1 169.7151 52.2727 51.6458 0.0000 5.3410 0.0000
# 2 52.2727 155.4900 63.0089 0.0000 3.0715 0.0000
# 3 51.6458 63.0089 98.0325 0.0000 10.5584 0.0000
# 4 0.0000 0.0000 0.0000 17.7813 0.0000 8.3354
# 5 5.3410 3.0715 10.5584 0.0000 32.0287 0.0000
# 6 0.0000 0.0000 0.0000 8.3354 0.0000 38.0067
#
#
#
# Elastic Compliance Matrix: (Units=1/GPa)
#
#
# Indices 1 2 3 4 5 6 
#
# 1 0.007177 -0.001194 -0.003004 0.000000 -0.000092 0.000000
# 2 -0.001194 0.008929 -0.005225 0.000000 0.001065 0.000000
# 3 -0.003004 -0.005225 0.015587 0.000000 -0.004136 0.000000
# 4 0.000000 0.000000 0.000000 0.062683 0.000000 -0.013747
# 5 -0.000092 0.001065 -0.004136 0.000000 0.032499 0.000000
# 6 0.000000 0.000000 0.000000 -0.013747 0.000000 0.029326
#
#
# Mechanical properties :
#
#
# Convention : Reuss Voigt Hill
#
# Bulk Modulus (GPa) = 77.83288 84.12138 80.97713
# Shear Modulus (GPa) = 27.88196 34.65069 31.26633
#
# Velocity S-wave (km/s) = 3.64973 4.06869 3.86489
# Velocity P-wave (km/s) = 7.41250 7.89057 7.65527
#
# Compressibility (1/GPa) = 0.01284804
#
# Stress axis : x y z
#
# Youngs Moduli (GPa) = 139.33666 111.99827 64.15713
#
# Poissons Ratio (x) = 0.13369 0.19272
# Poissons Ratio (y) = 0.16632 0.33520
# Poissons Ratio (z) = 0.41854 0.58515
#
# Static dielectric constant tensor:
#      x y z
#    x 5.189650 0.000000 0.665530 
#    y 0.000000 4.067750 0.000000 
#    z 0.665530 0.000000 3.894530 
# 
# 
# High freq. dielectric constant tensor:
#      x y z
#    x 1.849630 0.000000 0.007850 
#    y 0.000000 1.839750 0.000000 
#    z 0.007850 0.000000 1.791800 
# 
# From -- ./inp_files/315536.got.cif
#   From: 2010.06.25/outbox.cif.g09.slc.cpg/sg15_158_cif.got.tgz:315536.got - 2010.06.28 07:06:18.
