data_PCOD8138566
_publ_section_title
;
Structure prediction by ZEFSAII (Michael W. Deem and Ramdas Pophale) SiO2 
 PCOD8138566
Probable space group: C 2/C
;
_chemical_formula_sum "Si O2"
_cell_formula_units_Z 56
_cell_length_a 5.078556
_cell_length_b 24.074761
_cell_length_c 23.818978
_cell_angle_alpha 90.000000
_cell_angle_beta 109.353759
_cell_angle_gamma 90.000000
_cell_volume 2747.659105
_symmetry_space_group_name_H-M "C 2/C"
_symmetry_group_IT_number 15
_symmetry_cell_setting 'monoclinic'
loop_
_space_group_symop_operation_xyz
x,y,z
-x,y,1/2-z
-x,-y,-z
x,-y,1/2+z
1/2+x,1/2+y,z
1/2-x,1/2+y,1/2-z
1/2-x,1/2-y,-z
1/2+x,1/2-y,1/2+z
loop_
_atom_site_type_symbol
_atom_site_label
_atom_site_fract_x
_atom_site_fract_y
_atom_site_fract_z
Si Si1 0.910387 0.693914 0.525673
Si Si2 0.038790 0.164488 0.814723
Si Si3 0.297983 0.834486 0.898074
Si Si4 0.626704 0.123412 0.874355
Si Si5 0.136722 0.488468 0.317429
Si Si6 0.363820 0.561555 0.183042
Si Si7 0.242755 0.234407 0.123356
O O1 0.750000 0.750000 0.500000
O O2 0.927129 0.658035 0.469671
O O3 0.759326 0.652226 0.560020
O O4 0.203494 0.718751 0.570681
O O5 0.759493 0.156472 0.831445
O O6 0.000000 0.141324 0.750000
O O7 0.293973 0.128362 0.856360
O O8 0.117121 0.230087 0.816942
O O9 0.168763 0.891079 0.865876
O O10 0.556841 0.815992 0.878207
O O11 0.057610 0.787934 0.878959
O O12 0.687501 0.058263 0.868764
O O13 0.440701 0.513084 0.326777
O O14 0.000000 0.463972 0.250000
O O15 0.941367 0.537176 0.326923
O O16 0.500000 0.586220 0.250000
#
# Coordination Sequence:
#
# PCOD8138566 Si02
#       7
#     8   8   8   8   8   8   8
#     4   9  20  38  58  83 115 151 188 225 274 338
#     4  11  21  34  53  84 116 143 180 231 283 337
#     4  11  21  37  58  80 110 151 189 229 277 332
#     4  11  22  36  58  84 111 149 189 228 278 335
#     4  10  20  38  58  79 109 145 185 235 285 333
#     4  10  22  38  58  82 110 145 191 237 285 335
#     4  10  21  35  55  82 113 148 187 225 275 340
#
# _framework density 20.380984999999999
#
# number of rings (size 3 to 8) (size 9 to 14) (size 15 to 20)
#    0.000    1.714    0.000    6.000    0.000    5.714 
#    0.000    1.429    0.000    0.000    0.000    0.000 
#    0.000    0.000    0.000    0.000    0.000    0.000 
#
# Total GULP energy -346965.491181 kJ/mol
# GULP energy per Si atom -12391.624685 kJ/mol
# Density = 2.033460 g / cm^3
# Si number density = 20.380985 Si / 1000 Ang^3
#
#
#
# Elastic Constant Matrix: (Units=GPa)
#
#
# Indices 1 2 3 4 5 6 
#
# 1 69.6379 7.5868 7.6775 0.0000 -3.6529 0.0000
# 2 7.5868 90.5701 48.5501 0.0000 -3.2704 0.0000
# 3 7.6775 48.5501 76.6416 0.0000 -5.8955 0.0000
# 4 0.0000 0.0000 0.0000 40.6194 0.0000 -7.2088
# 5 -3.6529 -3.2704 -5.8955 0.0000 20.7248 0.0000
# 6 0.0000 0.0000 0.0000 -7.2088 0.0000 27.7599
#
#
#
# Elastic Compliance Matrix: (Units=1/GPa)
#
#
# Indices 1 2 3 4 5 6 
#
# 1 0.014646 -0.000684 -0.000862 0.000000 0.002228 0.000000
# 2 -0.000684 0.016753 -0.010582 0.000000 -0.000487 0.000000
# 3 -0.000862 -0.010582 0.020138 0.000000 0.003907 0.000000
# 4 0.000000 0.000000 0.000000 0.025808 0.000000 0.006702
# 5 0.002228 -0.000487 0.003907 0.000000 0.049679 0.000000
# 6 0.000000 0.000000 0.000000 0.006702 0.000000 0.037764
#
#
# Mechanical properties :
#
#
# Convention : Reuss Voigt Hill
#
# Bulk Modulus (GPa) = 36.65528 40.49759 38.57644
# Shear Modulus (GPa) = 25.23498 29.35648 27.29573
#
# Velocity S-wave (km/s) = 3.52257 3.79936 3.66358
# Velocity P-wave (km/s) = 5.87952 6.25782 6.07162
#
# Compressibility (1/GPa) = 0.02728120
#
# Stress axis : x y z
#
# Youngs Moduli (GPa) = 68.27573 59.69033 49.65802
#
# Poissons Ratio (x) = 0.04084 0.04283
# Poissons Ratio (y) = 0.04671 0.52546
# Poissons Ratio (z) = 0.05888 0.63162
#
# Static dielectric constant tensor:
#      x y z
#    x 3.664560 0.000000 0.058600 
#    y 0.000000 3.532280 0.000000 
#    z 0.058600 0.000000 4.251270 
# 
# 
# High freq. dielectric constant tensor:
#      x y z
#    x 1.803250 0.000000 -0.000020 
#    y 0.000000 1.783050 0.000000 
#    z -0.000020 0.000000 1.783230 
# 
# From -- ./inp_files/227907.got.cif
#   From: 2010.06.25/outbox.cif.g09.slc.cpg/sg15_114_cif.got.tgz:227907.got - 2010.06.28 07:06:18.
