data_PCOD8138599
_publ_section_title
;
Structure prediction by ZEFSAII (Michael W. Deem and Ramdas Pophale) SiO2 
 PCOD8138599
Probable space group: C 2/C
;
_chemical_formula_sum "Si O2"
_cell_formula_units_Z 48
_cell_length_a 23.126823
_cell_length_b 9.837136
_cell_length_c 10.164590
_cell_angle_alpha 90.000000
_cell_angle_beta 77.108345
_cell_angle_gamma 90.000000
_cell_volume 2254.172936
_symmetry_space_group_name_H-M "C 2/C"
_symmetry_group_IT_number 15
_symmetry_cell_setting 'monoclinic'
loop_
_space_group_symop_operation_xyz
x,y,z
-x,y,1/2-z
-x,-y,-z
x,-y,1/2+z
1/2+x,1/2+y,z
1/2-x,1/2+y,1/2-z
1/2-x,1/2-y,-z
1/2+x,1/2-y,1/2+z
loop_
_atom_site_type_symbol
_atom_site_label
_atom_site_fract_x
_atom_site_fract_y
_atom_site_fract_z
Si Si1 0.935990 0.070167 0.016665
Si Si2 0.880556 0.332186 0.964804
Si Si3 0.931244 0.112882 0.299276
Si Si4 0.621914 0.135168 0.563485
Si Si5 0.707486 0.888060 0.254959
Si Si6 0.684569 0.192993 0.273105
O O1 0.935027 0.227240 0.965213
O O2 0.900590 0.979720 0.927743
O O3 0.901757 0.073051 0.174187
O O4 0.000000 0.000000 0.000000
O O5 0.906358 0.484456 0.934095
O O6 0.847295 0.286064 0.849801
O O7 0.834949 0.329770 0.109605
O O8 0.925952 0.270761 0.339188
O O9 0.000000 0.077965 0.250000
O O10 0.680737 0.134771 0.623375
O O11 0.635697 0.197557 0.413647
O O12 0.770161 0.815117 0.230233
O O13 0.718380 0.048807 0.267559
#
# Coordination Sequence:
#
# PCOD8138599 Si02
#       6
#     8   8   8   8   8   8
#     4  10  22  41  63  88 121 158 206 263 315 372
#     4  10  21  39  62  87 127 166 206 256 309 370
#     4  10  22  41  62  89 119 158 207 261 319 372
#     4  10  21  39  62  88 127 165 208 255 312 369
#     4  10  20  38  58  89 128 167 205 257 305 376
#     4  10  22  34  60  93 124 164 210 248 313 375
#
# _framework density 21.293841
#
# number of rings (size 3 to 8) (size 9 to 14) (size 15 to 20)
#    0.000    2.000    1.667    1.000    2.333    2.667 
#    0.000    5.833    0.000    0.000    0.000    0.000 
#    0.000    0.000    0.000    0.000    0.000    0.000 
#
# Total GULP energy -297415.222678 kJ/mol
# GULP energy per Si atom -12392.300945 kJ/mol
# Density = 2.124538 g / cm^3
# Si number density = 21.293841 Si / 1000 Ang^3
#
#
#
# Elastic Constant Matrix: (Units=GPa)
#
#
# Indices 1 2 3 4 5 6 
#
# 1 38.3491 45.1881 31.2881 0.0000 7.1704 0.0000
# 2 45.1881 144.6291 69.4711 0.0000 5.4670 0.0000
# 3 31.2881 69.4711 137.5779 0.0000 25.1621 0.0000
# 4 0.0000 0.0000 0.0000 38.4659 0.0000 1.2999
# 5 7.1704 5.4670 25.1621 0.0000 17.6675 0.0000
# 6 0.0000 0.0000 0.0000 1.2999 0.0000 40.3594
#
#
#
# Elastic Compliance Matrix: (Units=1/GPa)
#
#
# Indices 1 2 3 4 5 6 
#
# 1 0.044571 -0.012750 -0.001503 0.000000 -0.012004 0.000000
# 2 -0.012750 0.013123 -0.005315 0.000000 0.008684 0.000000
# 3 -0.001503 -0.005315 0.013362 0.000000 -0.016776 0.000000
# 4 0.000000 0.000000 0.000000 0.026025 0.000000 -0.000838
# 5 -0.012004 0.008684 -0.016776 0.000000 0.082679 0.000000
# 6 0.000000 0.000000 0.000000 -0.000838 0.000000 0.024804
#
#
# Mechanical properties :
#
#
# Convention : Reuss Voigt Hill
#
# Bulk Modulus (GPa) = 31.32800 68.05006 49.68903
# Shear Modulus (GPa) = 19.65877 30.93914 25.29896
#
# Velocity S-wave (km/s) = 3.04174 3.81591 3.45060
# Velocity P-wave (km/s) = 5.20388 7.17230 6.26587
#
# Compressibility (1/GPa) = 0.03192033
#
# Stress axis : x y z
#
# Youngs Moduli (GPa) = 22.43634 76.20421 74.83691
#
# Poissons Ratio (x) = 0.97162 0.11245
# Poissons Ratio (y) = 0.28607 0.39775
# Poissons Ratio (z) = 0.03371 0.40502
#
# Static dielectric constant tensor:
#      x y z
#    x 3.244760 0.000000 0.484060 
#    y 0.000000 4.089650 0.000000 
#    z 0.484060 0.000000 5.066900 
# 
# 
# High freq. dielectric constant tensor:
#      x y z
#    x 1.779140 0.000000 0.023050 
#    y 0.000000 1.849250 0.000000 
#    z 0.023050 0.000000 1.867150 
# 
# From -- ./inp_files/60511.got.cif
#   From: 2010.06.25/outbox.cif.g09.slc.cpg/sg15_31_cif.got.tgz:60511.got - 2010.06.28 07:06:18.
