data_PCOD8138476
_publ_section_title
;
Structure prediction by ZEFSAII (Michael W. Deem and Ramdas Pophale) SiO2 
 PCOD8138476
Probable space group: C 2/C
;
_chemical_formula_sum "Si O2"
_cell_formula_units_Z 48
_cell_length_a 9.005194
_cell_length_b 19.676683
_cell_length_c 11.496385
_cell_angle_alpha 90.000000
_cell_angle_beta 82.383407
_cell_angle_gamma 90.000000
_cell_volume 2019.098768
_symmetry_space_group_name_H-M "C 2/C"
_symmetry_group_IT_number 15
_symmetry_cell_setting 'monoclinic'
loop_
_space_group_symop_operation_xyz
x,y,z
-x,y,1/2-z
-x,-y,-z
x,-y,1/2+z
1/2+x,1/2+y,z
1/2-x,1/2+y,1/2-z
1/2-x,1/2-y,-z
1/2+x,1/2-y,1/2+z
loop_
_atom_site_type_symbol
_atom_site_label
_atom_site_fract_x
_atom_site_fract_y
_atom_site_fract_z
Si Si1 0.836923 0.158087 0.780374
Si Si2 0.891654 0.340349 0.520414
Si Si3 0.688163 0.438429 0.425770
Si Si4 0.571031 0.420850 0.868970
Si Si5 0.773796 0.328607 0.969968
Si Si6 0.648465 0.734036 0.176868
O O1 0.835180 0.093728 0.697672
O O2 0.716618 0.215640 0.764555
O O3 0.000000 0.192928 0.750000
O O4 0.797644 0.130751 0.912864
O O5 0.847166 0.411353 0.460780
O O6 0.765558 0.324462 0.630490
O O7 0.899782 0.277373 0.430717
O O8 0.052322 0.347975 0.564909
O O9 0.563189 0.410806 0.526802
O O10 0.679025 0.518406 0.403468
O O11 0.500000 0.434633 0.750000
O O12 0.679639 0.353902 0.866195
O O13 0.750000 0.250000 0.000000
O O14 0.500000 0.699257 0.250000
#
# Coordination Sequence:
#
# PCOD8138476 Si02
#       6
#     8   8   8   8   8   8
#     4  11  20  39  70 104 143 191 245 296 366 438
#     4  10  23  41  67 109 145 189 246 300 364 438
#     4  10  24  44  74 106 136 198 248 305 370 450
#     4  11  26  48  75 103 149 191 250 309 375 449
#     4  12  26  44  72 114 151 193 244 310 374 443
#     4  10  20  37  66 104 150 193 232 299 366 435
#
# _framework density 23.772981000000001
#
# number of rings (size 3 to 8) (size 9 to 14) (size 15 to 20)
#    0.000    1.333    3.333    1.500    7.000    2.667 
#    3.000    2.500    3.667    0.000    0.000    0.000 
#    0.000    0.000    0.000    0.000    0.000    0.000 
#
# Total GULP energy -297564.304746 kJ/mol
# GULP energy per Si atom -12398.512698 kJ/mol
# Density = 2.371887 g / cm^3
# Si number density = 23.772981 Si / 1000 Ang^3
#
#
#
# Elastic Constant Matrix: (Units=GPa)
#
#
# Indices 1 2 3 4 5 6 
#
# 1 168.8818 52.9465 58.0846 0.0000 -1.3739 0.0000
# 2 52.9465 93.2721 15.2174 0.0000 4.9797 0.0000
# 3 58.0846 15.2174 101.4302 0.0000 -7.9942 0.0000
# 4 0.0000 0.0000 0.0000 10.0394 0.0000 -13.3625
# 5 -1.3739 4.9797 -7.9942 0.0000 45.0202 0.0000
# 6 0.0000 0.0000 0.0000 -13.3625 0.0000 26.1119
#
#
#
# Elastic Compliance Matrix: (Units=1/GPa)
#
#
# Indices 1 2 3 4 5 6 
#
# 1 0.008763 -0.004257 -0.004383 0.000000 -0.000040 0.000000
# 2 -0.004257 0.013163 0.000343 0.000000 -0.001525 0.000000
# 3 -0.004383 0.000343 0.012478 0.000000 0.002044 0.000000
# 4 0.000000 0.000000 0.000000 0.312374 0.000000 0.159854
# 5 -0.000040 -0.001525 0.002044 0.000000 0.022743 0.000000
# 6 0.000000 0.000000 0.000000 0.159854 0.000000 0.120101
#
#
# Mechanical properties :
#
#
# Convention : Reuss Voigt Hill
#
# Bulk Modulus (GPa) = 56.14560 68.45345 62.29953
# Shear Modulus (GPa) = 9.76270 32.05668 20.90969
#
# Velocity S-wave (km/s) = 2.02868 3.67611 2.96895
# Velocity P-wave (km/s) = 5.39964 6.84657 6.16570
#
# Compressibility (1/GPa) = 0.01781083
#
# Stress axis : x y z
#
# Youngs Moduli (GPa) = 114.11597 75.96804 80.13834
#
# Poissons Ratio (x) = 0.32341 0.35122
# Poissons Ratio (y) = 0.48582 -0.02747
# Poissons Ratio (z) = 0.50013 -0.02604
#
# Static dielectric constant tensor:
#      x y z
#    x 3.986090 0.000000 -0.011970 
#    y 0.000000 4.064750 0.000000 
#    z -0.011970 0.000000 5.073920 
# 
# 
# High freq. dielectric constant tensor:
#      x y z
#    x 1.946370 0.000000 0.008470 
#    y 0.000000 1.924130 0.000000 
#    z 0.008470 0.000000 1.958610 
# 
# From -- ./inp_files/79128.got.cif
#   From: 2010.06.25/outbox.cif.g09.slc.cpg/sg15_40_cif.got.tgz:79128.got - 2010.06.28 07:06:18.
