data_PCOD8138699
_publ_section_title
;
Structure prediction by ZEFSAII (Michael W. Deem and Ramdas Pophale) SiO2 
 PCOD8138699
Probable space group: C 2/C
;
_chemical_formula_sum "Si O2"
_cell_formula_units_Z 60
_cell_length_a 13.978990
_cell_length_b 13.233324
_cell_length_c 16.480879
_cell_angle_alpha 90.000000
_cell_angle_beta 110.318732
_cell_angle_gamma 90.000000
_cell_volume 2859.064639
_symmetry_space_group_name_H-M "C 2/C"
_symmetry_group_IT_number 15
_symmetry_cell_setting 'monoclinic'
loop_
_space_group_symop_operation_xyz
x,y,z
-x,y,1/2-z
-x,-y,-z
x,-y,1/2+z
1/2+x,1/2+y,z
1/2-x,1/2+y,1/2-z
1/2-x,1/2-y,-z
1/2+x,1/2-y,1/2+z
loop_
_atom_site_type_symbol
_atom_site_label
_atom_site_fract_x
_atom_site_fract_y
_atom_site_fract_z
Si Si1 0.765488 0.884107 0.489839
Si Si2 0.088174 0.384705 0.218562
Si Si3 0.789877 0.772513 0.647993
Si Si4 0.692264 0.912231 0.750243
Si Si5 0.531093 0.108919 0.976658
Si Si6 0.414800 0.767172 0.562468
Si Si7 0.500000 0.798249 0.750000
Si Si8 0.223289 0.107285 0.053885
O O1 0.833340 0.834390 0.582298
O O2 0.779102 0.817309 0.411911
O O3 0.646818 0.885477 0.481427
O O4 0.803129 0.995781 0.483976
O O5 0.126270 0.279928 0.270317
O O6 0.179896 0.466413 0.235819
O O7 0.043802 0.358826 0.118012
O O8 0.000000 0.431078 0.250000
O O9 0.729579 0.856999 0.680503
O O10 0.580708 0.871581 0.733571
O O11 0.768940 0.889099 0.846554
O O12 0.511570 0.188048 0.043401
O O13 0.500000 0.000000 0.000000
O O14 0.450065 0.731215 0.663230
O O15 0.327664 0.853386 0.543891
O O16 0.373050 0.671967 0.501772
#
# Coordination Sequence:
#
# PCOD8138699 Si02
#       8
#     8   8   8   8   8   8   4   8
#     4  11  22  41  63  90 131 169 210 257 324 386
#     4  12  22  40  66  97 125 160 211 272 313 373
#     4  11  24  39  63  94 130 170 208 261 326 387
#     4  11  21  38  62  94 124 162 208 264 322 371
#     4  12  21  36  65  99 126 159 210 265 323 371
#     4  10  21  34  62  93 129 161 207 264 318 372
#     4  10  20  38  60  88 128 158 212 266 304 366
#     4  10  20  39  58  91 129 168 203 261 319 382
#
# _framework density 20.985883999999999
#
# number of rings (size 3 to 8) (size 9 to 14) (size 15 to 20)
#    0.000    1.067    4.667    3.200    0.000    0.000 
#    0.000    0.000    1.467    7.200    0.000    0.000 
#    0.000    0.000    0.000    0.000    0.000    0.000 
#
# Total GULP energy -371869.118125 kJ/mol
# GULP energy per Si atom -12395.637271 kJ/mol
# Density = 2.093812 g / cm^3
# Si number density = 20.985884 Si / 1000 Ang^3
#
#
#
# Elastic Constant Matrix: (Units=GPa)
#
#
# Indices 1 2 3 4 5 6 
#
# 1 41.7991 20.3225 16.3642 0.0000 -5.9833 0.0000
# 2 20.3225 116.7477 46.4207 0.0000 -3.1475 0.0000
# 3 16.3642 46.4207 149.8223 0.0000 2.5624 0.0000
# 4 0.0000 0.0000 0.0000 42.5409 0.0000 -0.1647
# 5 -5.9833 -3.1475 2.5624 0.0000 27.6709 0.0000
# 6 0.0000 0.0000 0.0000 -0.1647 0.0000 22.3304
#
#
#
# Elastic Compliance Matrix: (Units=1/GPa)
#
#
# Indices 1 2 3 4 5 6 
#
# 1 0.027347 -0.003857 -0.001888 0.000000 0.005649 0.000000
# 2 -0.003857 0.010367 -0.002801 0.000000 0.000605 0.000000
# 3 -0.001888 -0.002801 0.007773 0.000000 -0.001447 0.000000
# 4 0.000000 0.000000 0.000000 0.023507 0.000000 0.000173
# 5 0.005649 0.000605 -0.001447 0.000000 0.037563 0.000000
# 6 0.000000 0.000000 0.000000 0.000173 0.000000 0.044783
#
#
# Mechanical properties :
#
#
# Convention : Reuss Voigt Hill
#
# Bulk Modulus (GPa) = 35.21854 52.73155 43.97504
# Shear Modulus (GPa) = 28.10565 33.52589 30.81577
#
# Velocity S-wave (km/s) = 3.66357 4.00127 3.83613
# Velocity P-wave (km/s) = 5.89186 6.82118 6.37348
#
# Compressibility (1/GPa) = 0.02839414
#
# Stress axis : x y z
#
# Youngs Moduli (GPa) = 36.56663 96.46009 128.64242
#
# Poissons Ratio (x) = 0.37207 0.24294
# Poissons Ratio (y) = 0.14105 0.36034
# Poissons Ratio (z) = 0.06906 0.27020
#
# Static dielectric constant tensor:
#      x y z
#    x 3.488030 0.000000 -0.144590 
#    y 0.000000 3.802850 0.000000 
#    z -0.144590 0.000000 4.261660 
# 
# 
# High freq. dielectric constant tensor:
#      x y z
#    x 1.781890 0.000000 -0.009350 
#    y 0.000000 1.813010 0.000000 
#    z -0.009350 0.000000 1.849980 
# 
# From -- ./inp_files/204500.got.cif
#   From: 2010.06.25/outbox.cif.g09.slc.cpg/sg15_103_cif.got.tgz:204500.got - 2010.06.28 07:06:18.
