data_PCOD8138183
_publ_section_title
;
Structure prediction by ZEFSAII (Michael W. Deem and Ramdas Pophale) SiO2 
 PCOD8138183
Probable space group: C 2/C
;
_chemical_formula_sum "Si O2"
_cell_formula_units_Z 64
_cell_length_a 25.021612
_cell_length_b 18.122801
_cell_length_c 20.547504
_cell_angle_alpha 90.000000
_cell_angle_beta 160.158825
_cell_angle_gamma 90.000000
_cell_volume 3162.491854
_symmetry_space_group_name_H-M "C 2/C"
_symmetry_group_IT_number 15
_symmetry_cell_setting 'monoclinic'
loop_
_space_group_symop_operation_xyz
x,y,z
-x,y,1/2-z
-x,-y,-z
x,-y,1/2+z
1/2+x,1/2+y,z
1/2-x,1/2+y,1/2-z
1/2-x,1/2-y,-z
1/2+x,1/2-y,1/2+z
loop_
_atom_site_type_symbol
_atom_site_label
_atom_site_fract_x
_atom_site_fract_y
_atom_site_fract_z
Si Si1 0.928244 0.783095 0.934919
Si Si2 0.737617 0.769915 0.837331
Si Si3 0.503636 0.430911 0.553813
Si Si4 0.266855 0.023504 0.450549
Si Si5 0.905844 0.446328 0.242885
Si Si6 0.328097 0.868141 0.276999
Si Si7 0.549198 0.093672 0.140995
Si Si8 0.144866 0.635600 0.462702
O O1 0.892243 0.784561 0.971171
O O2 0.905747 0.863140 0.877196
O O3 0.821167 0.720534 0.777629
O O4 0.110341 0.760323 0.139618
O O5 0.686357 0.846861 0.809978
O O6 0.759397 0.711742 0.921487
O O7 0.500000 0.500000 0.500000
O O8 0.604189 0.450687 0.732867
O O9 0.331159 0.407721 0.380766
O O10 0.413425 0.049261 0.573704
O O11 0.288466 0.057940 0.546996
O O12 0.257681 0.934820 0.451069
O O13 0.863913 0.377796 0.241115
O O14 0.872252 0.516407 0.250940
O O15 0.477402 0.903815 0.486187
O O16 0.403520 0.114517 0.019756
O O17 0.000000 0.649697 0.250000
#
# Coordination Sequence:
#
# PCOD8138183 Si02
#       8
#     8   8   8   8   8   8   8   8
#     4  11  23  42  60  93 132 160 210 270 324 372
#     4  11  21  37  60  89 125 167 209 259 312 380
#     4  12  25  40  64  99 129 167 214 270 336 368
#     4  10  22  40  65  86 127 164 210 269 315 395
#     4  10  21  41  61  93 119 168 213 255 329 377
#     4  11  23  39  66  92 125 164 212 269 319 382
#     4  10  20  37  60  90 120 164 212 255 306 387
#     4  11  19  40  60  84 130 171 208 252 319 388
#
# _framework density 20.237206
#
# number of rings (size 3 to 8) (size 9 to 14) (size 15 to 20)
#    0.000    1.250    6.250    2.625    5.250    1.000 
#    0.000    0.625    0.000    0.000    0.000    0.000 
#    0.000    0.000    0.000    0.000    0.000    0.000 
#
# Total GULP energy -396671.216604 kJ/mol
# GULP energy per Si atom -12395.975519 kJ/mol
# Density = 2.019114 g / cm^3
# Si number density = 20.237206 Si / 1000 Ang^3
#
#
#
# Elastic Constant Matrix: (Units=GPa)
#
#
# Indices 1 2 3 4 5 6 
#
# 1 73.5335 35.9023 24.0727 0.0198 -14.2380 0.0193
# 2 35.9023 113.5919 47.8732 0.0102 -5.6904 0.0088
# 3 24.0727 47.8732 100.2539 0.0239 -16.5741 0.0263
# 4 0.0198 0.0102 0.0239 31.7276 0.0167 -4.1884
# 5 -14.2380 -5.6904 -16.5741 0.0167 29.9687 0.0177
# 6 0.0193 0.0088 0.0263 -4.1884 0.0177 23.3639
#
#
#
# Elastic Compliance Matrix: (Units=1/GPa)
#
#
# Indices 1 2 3 4 5 6 
#
# 1 0.017590 -0.004904 -0.000720 -0.000015 0.007028 -0.000020
# 2 -0.004904 0.012411 -0.005222 0.000006 -0.002861 0.000008
# 3 -0.000720 -0.005222 0.013671 -0.000014 0.006227 -0.000020
# 4 -0.000015 0.000006 -0.000014 0.032282 -0.000035 0.005787
# 5 0.007028 -0.002861 0.006227 -0.000035 0.039607 -0.000048
# 6 -0.000020 0.000008 -0.000020 0.005787 -0.000048 0.043839
#
#
# Mechanical properties :
#
#
# Convention : Reuss Voigt Hill
#
# Bulk Modulus (GPa) = 45.49709 55.89730 50.69720
# Shear Modulus (GPa) = 26.53666 28.98077 27.75871
#
# Velocity S-wave (km/s) = 3.62509 3.78835 3.70762
# Velocity P-wave (km/s) = 6.32870 6.84226 6.59048
#
# Compressibility (1/GPa) = 0.02197943
#
# Stress axis : x y z
#
# Youngs Moduli (GPa) = 56.85018 80.57451 73.14966
#
# Poissons Ratio (x) = 0.39514 0.05267
# Poissons Ratio (y) = 0.27880 0.38198
# Poissons Ratio (z) = 0.04094 0.42075
#
# Static dielectric constant tensor:
#      x y z
#    x 3.575060 -0.000020 -0.053480 
#    y -0.000020 3.839990 -0.000020 
#    z -0.053480 -0.000020 3.507660 
# 
# 
# High freq. dielectric constant tensor:
#      x y z
#    x 1.781520 0.000000 -0.003700 
#    y 0.000000 1.790370 0.000000 
#    z -0.003700 0.000000 1.777920 
# 
# From -- ./inp_files/258082.got.cif
#   From: 2010.06.25/outbox.cif.g09.slc.cpg/sg15_130_cif.got.tgz:258082.got - 2010.06.28 07:06:18.
