data_PCOD8138135
_publ_section_title
;
Structure prediction by ZEFSAII (Michael W. Deem and Ramdas Pophale) SiO2 
 PCOD8138135
Probable space group: C 2/C
;
_chemical_formula_sum "Si O2"
_cell_formula_units_Z 56
_cell_length_a 16.682412
_cell_length_b 11.598485
_cell_length_c 18.127649
_cell_angle_alpha 90.000000
_cell_angle_beta 130.771832
_cell_angle_gamma 90.000000
_cell_volume 2656.310502
_symmetry_space_group_name_H-M "C 2/C"
_symmetry_group_IT_number 15
_symmetry_cell_setting 'monoclinic'
loop_
_space_group_symop_operation_xyz
x,y,z
-x,y,1/2-z
-x,-y,-z
x,-y,1/2+z
1/2+x,1/2+y,z
1/2-x,1/2+y,1/2-z
1/2-x,1/2-y,-z
1/2+x,1/2-y,1/2+z
loop_
_atom_site_type_symbol
_atom_site_label
_atom_site_fract_x
_atom_site_fract_y
_atom_site_fract_z
Si Si1 0.584726 0.343330 0.936386
Si Si2 0.135847 0.553691 0.429316
Si Si3 0.548045 0.706318 0.854413
Si Si4 0.028901 0.367391 0.186490
Si Si5 0.252398 0.932038 0.136855
Si Si6 0.088099 0.974571 0.159514
Si Si7 0.326389 0.509960 0.129613
O O1 0.521038 0.223799 0.900383
O O2 0.507875 0.442599 0.920708
O O3 0.625723 0.374877 0.878847
O O4 0.687665 0.335703 0.051424
O O5 0.115466 0.689714 0.430192
O O6 0.198952 0.526577 0.390682
O O7 0.201353 0.503867 0.538535
O O8 0.021955 0.492039 0.360240
O O9 0.500000 0.757232 0.750000
O O10 0.456562 0.656303 0.854556
O O11 0.622147 0.599403 0.879872
O O12 0.156038 0.373745 0.258329
O O13 0.000000 0.323615 0.250000
O O14 0.172062 0.989638 0.145281
O O15 0.146269 0.018105 0.268535
#
# Coordination Sequence:
#
# PCOD8138135 Si02
#       7
#     8   8   8   8   8   8   8
#     4  10  20  38  62  81 111 158 196 232 283 356
#     4  10  20  37  60  84 115 159 195 235 290 360
#     4   9  17  34  58  82 113 152 197 240 287 347
#     4  10  21  37  57  83 116 149 194 234 285 351
#     4  10  22  38  56  88 119 151 196 241 296 344
#     4  10  20  38  57  88 116 145 198 249 291 335
#     4   9  19  34  61  85 110 151 201 236 285 351
#
# _framework density 21.081872000000001
#
# number of rings (size 3 to 8) (size 9 to 14) (size 15 to 20)
#    0.000    2.286    0.000    4.286    0.000    6.286 
#   10.286    0.714    0.000    0.000    0.000    0.000 
#    0.000    0.000    0.000    0.000    0.000    0.000 
#
# Total GULP energy -347082.698139 kJ/mol
# GULP energy per Si atom -12395.810648 kJ/mol
# Density = 2.103389 g / cm^3
# Si number density = 21.081872 Si / 1000 Ang^3
#
#
#
# Elastic Constant Matrix: (Units=GPa)
#
#
# Indices 1 2 3 4 5 6 
#
# 1 78.2929 17.0288 30.9651 0.0000 10.8490 0.0000
# 2 17.0288 66.6159 18.1576 0.0000 7.0915 0.0000
# 3 30.9651 18.1576 96.4113 0.0000 27.3951 0.0000
# 4 0.0000 0.0000 0.0000 28.8758 0.0000 7.9727
# 5 10.8490 7.0915 27.3951 0.0000 29.5877 0.0000
# 6 0.0000 0.0000 0.0000 7.9727 0.0000 10.6780
#
#
#
# Elastic Compliance Matrix: (Units=1/GPa)
#
#
# Indices 1 2 3 4 5 6 
#
# 1 0.015099 -0.002639 -0.004015 0.000000 -0.001186 0.000000
# 2 -0.002639 0.016328 -0.001887 0.000000 -0.001199 0.000000
# 3 -0.004015 -0.001887 0.015566 0.000000 -0.012487 0.000000
# 4 0.000000 0.000000 0.000000 0.043624 0.000000 -0.032572
# 5 -0.001186 -0.001199 -0.012487 0.000000 0.046082 0.000000
# 6 0.000000 0.000000 0.000000 -0.032572 0.000000 0.117971
#
#
# Mechanical properties :
#
#
# Convention : Reuss Voigt Hill
#
# Bulk Modulus (GPa) = 33.43380 41.51369 37.47375
# Shear Modulus (GPa) = 17.74794 25.50620 21.62707
#
# Velocity S-wave (km/s) = 2.90463 3.48208 3.20638
# Velocity P-wave (km/s) = 5.20986 5.99174 5.61443
#
# Compressibility (1/GPa) = 0.02990985
#
# Stress axis : x y z
#
# Youngs Moduli (GPa) = 66.22958 61.24468 64.24433
#
# Poissons Ratio (x) = 0.16162 0.25797
# Poissons Ratio (y) = 0.17478 0.12123
# Poissons Ratio (z) = 0.26594 0.11557
#
# Static dielectric constant tensor:
#      x y z
#    x 3.625930 0.000000 0.363120 
#    y 0.000000 3.475860 0.000000 
#    z 0.363120 0.000000 4.135410 
# 
# 
# High freq. dielectric constant tensor:
#      x y z
#    x 1.797180 0.000000 0.026700 
#    y 0.000000 1.807610 0.000000 
#    z 0.026700 0.000000 1.839520 
# 
# From -- ./inp_files/210664.got.cif
#   From: 2010.06.25/outbox.cif.g09.slc.cpg/sg15_106_cif.got.tgz:210664.got - 2010.06.28 07:06:18.
