data_PCOD8138873
_publ_section_title
;
Structure prediction by ZEFSAII (Michael W. Deem and Ramdas Pophale) SiO2 
 PCOD8138873
Probable space group: C 2/C
;
_chemical_formula_sum "Si O2"
_cell_formula_units_Z 52
_cell_length_a 8.694169
_cell_length_b 12.382824
_cell_length_c 24.673118
_cell_angle_alpha 90.000000
_cell_angle_beta 83.253280
_cell_angle_gamma 90.000000
_cell_volume 2637.873368
_symmetry_space_group_name_H-M "C 2/C"
_symmetry_group_IT_number 15
_symmetry_cell_setting 'monoclinic'
loop_
_space_group_symop_operation_xyz
x,y,z
-x,y,1/2-z
-x,-y,-z
x,-y,1/2+z
1/2+x,1/2+y,z
1/2-x,1/2+y,1/2-z
1/2-x,1/2-y,-z
1/2+x,1/2-y,1/2+z
loop_
_atom_site_type_symbol
_atom_site_label
_atom_site_fract_x
_atom_site_fract_y
_atom_site_fract_z
Si Si1 0.745119 0.782573 0.320781
Si Si2 0.373098 0.700035 0.931641
Si Si3 0.362771 0.926170 0.980587
Si Si4 0.000000 0.655637 0.250000
Si Si5 0.761732 0.988669 0.773440
Si Si6 0.456395 0.584031 0.170175
Si Si7 0.087884 0.978744 0.440380
O O1 0.773228 0.805186 0.382006
O O2 0.902171 0.729417 0.293730
O O3 0.594362 0.707988 0.318743
O O4 0.712442 0.890877 0.289546
O O5 0.423723 0.821863 0.945242
O O6 0.539602 0.639915 0.921154
O O7 0.260847 0.629900 0.974631
O O8 0.271168 0.008576 0.944447
O O9 0.500000 0.000000 0.000000
O O10 0.892417 0.581673 0.217000
O O11 0.836986 0.989870 0.709981
O O12 0.873616 0.935582 0.813556
O O13 0.455666 0.561297 0.106063
O O14 0.000000 0.000000 0.500000
#
# Coordination Sequence:
#
# PCOD8138873 Si02
#       7
#     8   8   8   4   8   8   8
#     4  11  21  39  63  85 122 157 199 246 304 351
#     4  10  21  38  63  85 119 161 194 245 306 353
#     4  10  22  40  61  89 121 154 203 249 296 357
#     4  10  24  38  58  92 118 148 204 248 288 364
#     4  10  22  39  61  85 119 157 199 239 303 349
#     4  10  20  39  62  87 121 159 196 248 299 355
#     4  10  20  38  62  89 120 157 199 247 302 358
#
# _framework density 19.71285
#
# number of rings (size 3 to 8) (size 9 to 14) (size 15 to 20)
#    0.000    1.846    3.077    0.923    0.000    4.308 
#    0.000    1.538    0.000    0.000    0.000    0.000 
#    0.000    0.000    0.000    0.000    0.000    0.000 
#
# Total GULP energy -322164.594949 kJ/mol
# GULP energy per Si atom -12390.945960 kJ/mol
# Density = 1.966798 g / cm^3
# Si number density = 19.712850 Si / 1000 Ang^3
#
#
#
# Elastic Constant Matrix: (Units=GPa)
#
#
# Indices 1 2 3 4 5 6 
#
# 1 71.5395 19.2551 -2.7615 0.0000 18.5847 0.0000
# 2 19.2551 91.7961 2.1549 0.0000 7.4372 0.0000
# 3 -2.7615 2.1549 76.5208 0.0000 11.8982 0.0000
# 4 0.0000 0.0000 0.0000 32.4726 0.0000 8.1433
# 5 18.5847 7.4372 11.8982 0.0000 22.5039 0.0000
# 6 0.0000 0.0000 0.0000 8.1433 0.0000 37.9804
#
#
#
# Elastic Compliance Matrix: (Units=1/GPa)
#
#
# Indices 1 2 3 4 5 6 
#
# 1 0.019193 -0.002750 0.003370 0.000000 -0.016724 0.000000
# 2 -0.002750 0.011593 -0.000200 0.000000 -0.001455 0.000000
# 3 0.003370 -0.000200 0.014838 0.000000 -0.010563 0.000000
# 4 0.000000 0.000000 0.000000 0.032545 0.000000 -0.006978
# 5 -0.016724 -0.001455 -0.010563 0.000000 0.064313 0.000000
# 6 0.000000 0.000000 0.000000 -0.006978 0.000000 0.027825
#
#
# Mechanical properties :
#
#
# Convention : Reuss Voigt Hill
#
# Bulk Modulus (GPa) = 21.52123 30.79483 26.15803
# Shear Modulus (GPa) = 27.03360 33.33857 30.18609
#
# Velocity S-wave (km/s) = 3.70722 4.11689 3.91742
# Velocity P-wave (km/s) = 5.40978 6.18498 5.81032
#
# Compressibility (1/GPa) = 0.04646575
#
# Stress axis : x y z
#
# Youngs Moduli (GPa) = 52.10201 86.25807 67.39465
#
# Poissons Ratio (x) = 0.23722 -0.22715
# Poissons Ratio (y) = 0.14329 0.01345
# Poissons Ratio (z) = -0.17561 0.01721
#
# Static dielectric constant tensor:
#      x y z
#    x 3.698790 0.000000 0.127550 
#    y 0.000000 3.894800 0.000000 
#    z 0.127550 0.000000 3.703510 
# 
# 
# High freq. dielectric constant tensor:
#      x y z
#    x 1.758550 0.000000 0.011360 
#    y 0.000000 1.772390 0.000000 
#    z 0.011360 0.000000 1.775090 
# 
# From -- ./inp_files/287600.got.cif
#   From: 2010.06.25/outbox.cif.g09.slc.cpg/sg15_144_cif.got.tgz:287600.got - 2010.06.28 07:06:18.
