data_PCOD8138992
_publ_section_title
;
Structure prediction by ZEFSAII (Michael W. Deem and Ramdas Pophale) SiO2 
 PCOD8138992
Probable space group: C 2/C
;
_chemical_formula_sum "Si O2"
_cell_formula_units_Z 44
_cell_length_a 25.610087
_cell_length_b 5.944268
_cell_length_c 15.859418
_cell_angle_alpha 90.000000
_cell_angle_beta 53.258487
_cell_angle_gamma 90.000000
_cell_volume 1934.705296
_symmetry_space_group_name_H-M "C 2/C"
_symmetry_group_IT_number 15
_symmetry_cell_setting 'monoclinic'
loop_
_space_group_symop_operation_xyz
x,y,z
-x,y,1/2-z
-x,-y,-z
x,-y,1/2+z
1/2+x,1/2+y,z
1/2-x,1/2+y,1/2-z
1/2-x,1/2-y,-z
1/2+x,1/2-y,1/2+z
loop_
_atom_site_type_symbol
_atom_site_label
_atom_site_fract_x
_atom_site_fract_y
_atom_site_fract_z
Si Si1 0.548535 0.693223 0.482567
Si Si2 0.712253 0.067095 0.484679
Si Si3 0.333129 0.687103 0.848911
Si Si4 0.390276 0.591595 0.443229
Si Si5 0.435545 0.039008 0.169845
Si Si6 0.000000 0.685399 0.750000
O O1 0.500000 0.500000 0.500000
O O2 0.606757 0.591037 0.484215
O O3 0.506176 0.869100 0.576385
O O4 0.583640 0.830088 0.372592
O O5 0.750000 0.250000 0.500000
O O6 0.656788 0.198494 0.483653
O O7 0.680315 0.905727 0.583439
O O8 0.765576 0.923607 0.378237
O O9 0.368254 0.507499 0.875013
O O10 0.379507 0.766405 0.726109
O O11 0.464733 0.670996 0.357335
O O12 0.443773 0.958447 0.258506
#
# Coordination Sequence:
#
# PCOD8138992 Si02
#       6
#     8   8   8   8   8   4
#     4  11  24  39  56  96 134 176 200 261 341 394
#     4   9  20  36  62  98 116 159 215 276 316 363
#     4  10  20  38  63  96 119 166 222 273 313 377
#     4  11  21  36  61  94 133 166 216 268 326 388
#     4  11  23  37  59  94 132 171 216 264 326 396
#     4  12  20  36  62  96 128 162 212 266 320 388
#
# _framework density 22.742481000000002
#
# number of rings (size 3 to 8) (size 9 to 14) (size 15 to 20)
#    0.000    1.455    3.636    2.182    0.000    0.000 
#    0.000    0.000    0.000    0.000   80.364    0.000 
#    0.000    0.000    0.000    0.000    0.000    0.000 
#
# Total GULP energy -272661.157682 kJ/mol
# GULP energy per Si atom -12393.688986 kJ/mol
# Density = 2.269072 g / cm^3
# Si number density = 22.742481 Si / 1000 Ang^3
#
#
#
# Elastic Constant Matrix: (Units=GPa)
#
#
# Indices 1 2 3 4 5 6 
#
# 1 87.1549 45.3391 49.1505 0.0107 -10.7080 -0.0469
# 2 45.3391 111.8079 42.9080 0.0269 -8.2839 -0.1593
# 3 49.1505 42.9080 94.0703 -0.0059 -11.2188 -0.0036
# 4 0.0107 0.0269 -0.0059 48.5118 0.0058 -7.8547
# 5 -10.7080 -8.2839 -11.2188 0.0058 31.7758 0.0161
# 6 -0.0469 -0.1593 -0.0036 -7.8547 0.0161 47.3961
#
#
#
# Elastic Compliance Matrix: (Units=1/GPa)
#
#
# Indices 1 2 3 4 5 6 
#
# 1 0.018104 -0.004416 -0.007156 -0.000002 0.002423 0.000001
# 2 -0.004416 0.011958 -0.003083 0.000000 0.000541 0.000035
# 3 -0.007156 -0.003083 0.016069 0.000002 0.002458 -0.000017
# 4 -0.000002 0.000000 0.000002 0.021182 -0.000006 0.003510
# 5 0.002423 0.000541 0.002458 -0.000006 0.033296 -0.000008
# 6 0.000001 0.000035 -0.000017 0.003510 -0.000008 0.021681
#
#
# Mechanical properties :
#
#
# Convention : Reuss Voigt Hill
#
# Bulk Modulus (GPa) = 59.44701 63.09204 61.26953
# Shear Modulus (GPa) = 31.80561 35.91243 33.85902
#
# Velocity S-wave (km/s) = 3.74372 3.97809 3.86268
# Velocity P-wave (km/s) = 6.69950 6.99303 6.84783
#
# Compressibility (1/GPa) = 0.01682170
#
# Stress axis : x y z
#
# Youngs Moduli (GPa) = 55.23550 83.62885 62.23337
#
# Poissons Ratio (x) = 0.36927 0.44535
# Poissons Ratio (y) = 0.24390 0.19184
# Poissons Ratio (z) = 0.39528 0.25779
#
# Static dielectric constant tensor:
#      x y z
#    x 4.119110 -0.000120 -0.399160 
#    y -0.000120 4.381440 0.000000 
#    z -0.399160 0.000000 4.007370 
# 
# 
# High freq. dielectric constant tensor:
#      x y z
#    x 1.872510 0.000000 -0.023560 
#    y 0.000000 1.922260 0.000000 
#    z -0.023560 0.000000 1.873460 
# 
# From -- ./inp_files/175661.got.cif
#   From: 2010.06.25/outbox.cif.g09.slc.cpg/sg15_88_cif.got.tgz:175661.got - 2010.06.28 07:06:18.
