data_PCOD8138011
_publ_section_title
;
Structure prediction by ZEFSAII (Michael W. Deem and Ramdas Pophale) SiO2 
 PCOD8138011
Probable space group: C 2/C
;
_chemical_formula_sum "Si O2"
_cell_formula_units_Z 60
_cell_length_a 25.995194
_cell_length_b 19.465453
_cell_length_c 8.006319
_cell_angle_alpha 90.000000
_cell_angle_beta 132.226061
_cell_angle_gamma 90.000000
_cell_volume 2999.956358
_symmetry_space_group_name_H-M "C 2/C"
_symmetry_group_IT_number 15
_symmetry_cell_setting 'monoclinic'
loop_
_space_group_symop_operation_xyz
x,y,z
-x,y,1/2-z
-x,-y,-z
x,-y,1/2+z
1/2+x,1/2+y,z
1/2-x,1/2+y,1/2-z
1/2-x,1/2-y,-z
1/2+x,1/2-y,1/2+z
loop_
_atom_site_type_symbol
_atom_site_label
_atom_site_fract_x
_atom_site_fract_y
_atom_site_fract_z
Si Si1 0.500000 0.296110 0.250000
Si Si2 0.351063 0.340370 0.855976
Si Si3 0.697993 0.060085 0.475780
Si Si4 0.504028 0.800155 0.067146
Si Si5 0.252571 0.578164 0.939318
Si Si6 0.460541 0.063700 0.333068
Si Si7 0.737439 0.813313 0.854524
Si Si8 0.838434 0.297796 0.136147
O O1 0.566118 0.344008 0.437955
O O2 0.477543 0.253139 0.366679
O O3 0.328024 0.403031 0.683017
O O4 0.309673 0.344763 0.940639
O O5 0.325301 0.268796 0.720187
O O6 0.753986 0.075733 0.742704
O O7 0.620311 0.045649 0.377115
O O8 0.695772 0.125415 0.350604
O O9 0.725257 0.994661 0.438517
O O10 0.500000 0.771310 0.250000
O O11 0.581930 0.817846 0.189509
O O12 0.461407 0.871059 0.959978
O O13 0.199495 0.636792 0.874346
O O14 0.500000 0.084396 0.250000
O O15 0.500000 0.000000 0.500000
O O16 0.687369 0.781905 0.605285
O O17 0.750000 0.750000 0.000000
#
# Coordination Sequence:
#
# PCOD8138011 Si02
#       8
#     4   8   8   8   8   8   8   8
#     4  10  24  42  64  90 124 160 202 266 322 374
#     4  10  22  40  63  87 121 157 202 263 320 362
#     4  12  24  38  62  88 124 166 209 254 305 370
#     4  11  22  36  58  85 126 166 205 248 304 373
#     4  11  22  40  59  85 121 161 209 258 310 361
#     4  12  24  37  55  87 129 174 209 249 299 370
#     4  11  22  35  61  89 120 156 209 253 301 363
#     4  10  20  37  56  87 120 161 202 251 301 356
#
# _framework density 20.000292000000002
#
# number of rings (size 3 to 8) (size 9 to 14) (size 15 to 20)
#    0.000    1.067    0.667    8.400    5.600    0.000 
#    0.000    0.000    0.000    3.200    0.000    0.000 
#    0.000    0.000    0.000    0.000    0.000    0.000 
#
# Total GULP energy -372001.575810 kJ/mol
# GULP energy per Si atom -12400.052527 kJ/mol
# Density = 1.995477 g / cm^3
# Si number density = 20.000292 Si / 1000 Ang^3
#
#
#
# Elastic Constant Matrix: (Units=GPa)
#
#
# Indices 1 2 3 4 5 6 
#
# 1 67.0294 28.0239 41.1367 0.0000 -6.6406 0.0000
# 2 28.0239 74.0056 30.7527 0.0000 8.3643 0.0000
# 3 41.1367 30.7527 112.3733 0.0000 1.8753 0.0000
# 4 0.0000 0.0000 0.0000 33.8479 0.0000 6.4434
# 5 -6.6406 8.3643 1.8753 0.0000 41.0009 0.0000
# 6 0.0000 0.0000 0.0000 6.4434 0.0000 55.1253
#
#
#
# Elastic Compliance Matrix: (Units=1/GPa)
#
#
# Indices 1 2 3 4 5 6 
#
# 1 0.021974 -0.006230 -0.006425 0.000000 0.005124 0.000000
# 2 -0.006230 0.017371 -0.002399 0.000000 -0.004443 0.000000
# 3 -0.006425 -0.002399 0.011926 0.000000 -0.001097 0.000000
# 4 0.000000 0.000000 0.000000 0.030216 0.000000 -0.003532
# 5 0.005124 -0.004443 -0.001097 0.000000 0.026176 0.000000
# 6 0.000000 0.000000 0.000000 -0.003532 0.000000 0.018553
#
#
# Mechanical properties :
#
#
# Convention : Reuss Voigt Hill
#
# Bulk Modulus (GPa) = 47.25278 50.35944 48.80611
# Shear Modulus (GPa) = 30.60387 36.22781 33.41584
#
# Velocity S-wave (km/s) = 3.91598 4.26063 4.09194
# Velocity P-wave (km/s) = 6.64258 7.03121 6.83966
#
# Compressibility (1/GPa) = 0.02116278
#
# Stress axis : x y z
#
# Youngs Moduli (GPa) = 45.50817 57.56797 83.85358
#
# Poissons Ratio (x) = 0.35867 0.53872
# Poissons Ratio (y) = 0.28353 0.20115
# Poissons Ratio (z) = 0.29237 0.13810
#
# Static dielectric constant tensor:
#      x y z
#    x 3.687980 0.000000 -0.132440 
#    y 0.000000 3.580720 0.000000 
#    z -0.132440 0.000000 4.385200 
# 
# 
# High freq. dielectric constant tensor:
#      x y z
#    x 1.774320 0.000000 -0.009500 
#    y 0.000000 1.763580 0.000000 
#    z -0.009500 0.000000 1.795670 
# 
# From -- ./inp_files/67048.got.cif
#   From: 2010.06.25/outbox.cif.g09.slc.cpg/sg15_34_cif.got.tgz:67048.got - 2010.06.28 07:06:18.
