data_PCOD8138291
_publ_section_title
;
Structure prediction by ZEFSAII (Michael W. Deem and Ramdas Pophale) SiO2 
 PCOD8138291
Probable space group: C 2/C
;
_chemical_formula_sum "Si O2"
_cell_formula_units_Z 48
_cell_length_a 14.819483
_cell_length_b 12.469111
_cell_length_c 13.975339
_cell_angle_alpha 90.000000
_cell_angle_beta 66.002422
_cell_angle_gamma 90.000000
_cell_volume 2359.224291
_symmetry_space_group_name_H-M "C 2/C"
_symmetry_group_IT_number 15
_symmetry_cell_setting 'monoclinic'
loop_
_space_group_symop_operation_xyz
x,y,z
-x,y,1/2-z
-x,-y,-z
x,-y,1/2+z
1/2+x,1/2+y,z
1/2-x,1/2+y,1/2-z
1/2-x,1/2-y,-z
1/2+x,1/2-y,1/2+z
loop_
_atom_site_type_symbol
_atom_site_label
_atom_site_fract_x
_atom_site_fract_y
_atom_site_fract_z
Si Si1 0.894766 0.854614 0.184612
Si Si2 0.616705 0.949056 0.190934
Si Si3 0.612236 0.305942 0.097581
Si Si4 0.187710 0.409665 0.500218
Si Si5 0.245172 0.250396 0.116257
Si Si6 0.255189 0.975654 0.705762
O O1 0.876791 0.792044 0.292467
O O2 0.848737 0.789127 0.116077
O O3 0.011237 0.866615 0.114193
O O4 0.846842 0.972770 0.211707
O O5 0.500000 0.948897 0.250000
O O6 0.658423 0.829386 0.190388
O O7 0.649952 0.985625 0.071608
O O8 0.665782 0.035744 0.242512
O O9 0.612203 0.188192 0.050130
O O10 0.701727 0.375412 0.014490
O O11 0.189880 0.441426 0.388666
O O12 0.223430 0.133106 0.167474
O O13 0.250000 0.250000 0.000000
#
# Coordination Sequence:
#
# PCOD8138291 Si02
#       6
#     8   8   8   8   8   8
#     4   9  20  38  64  92 119 165 210 256 314 370
#     4  11  25  41  62  96 124 169 216 258 317 375
#     4   9  19  37  63  95 118 156 213 264 309 367
#     4  10  20  37  62  90 125 157 206 262 309 377
#     4  11  22  42  60  89 133 166 206 260 320 377
#     4  10  22  41  64  87 128 168 208 258 316 377
#
# _framework density 20.345669999999998
#
# number of rings (size 3 to 8) (size 9 to 14) (size 15 to 20)
#    0.000    2.000    1.667    1.000    4.667    3.333 
#    6.000    3.333    0.000    0.000    0.000    0.000 
#    0.000    0.000    0.000    0.000    0.000    0.000 
#
# Total GULP energy -297590.723228 kJ/mol
# GULP energy per Si atom -12399.613468 kJ/mol
# Density = 2.029936 g / cm^3
# Si number density = 20.345670 Si / 1000 Ang^3
#
#
#
# Elastic Constant Matrix: (Units=GPa)
#
#
# Indices 1 2 3 4 5 6 
#
# 1 136.0579 39.2116 54.4056 0.0000 -13.4297 0.0000
# 2 39.2116 97.5416 30.2168 0.0000 -9.6337 0.0000
# 3 54.4056 30.2168 74.8556 0.0000 -10.2949 0.0000
# 4 0.0000 0.0000 0.0000 23.9297 0.0000 6.7479
# 5 -13.4297 -9.6337 -10.2949 0.0000 36.1230 0.0000
# 6 0.0000 0.0000 0.0000 6.7479 0.0000 19.7116
#
#
#
# Elastic Compliance Matrix: (Units=1/GPa)
#
#
# Indices 1 2 3 4 5 6 
#
# 1 0.010829 -0.002091 -0.006817 0.000000 0.001526 0.000000
# 2 -0.002091 0.012241 -0.003205 0.000000 0.001574 0.000000
# 3 -0.006817 -0.003205 0.019922 0.000000 0.002289 0.000000
# 4 0.000000 0.000000 0.000000 0.046254 0.000000 -0.015834
# 5 0.001526 0.001574 0.002289 0.000000 0.029322 0.000000
# 6 0.000000 0.000000 0.000000 -0.015834 0.000000 0.056152
#
#
# Mechanical properties :
#
#
# Convention : Reuss Voigt Hill
#
# Bulk Modulus (GPa) = 53.28670 61.79147 57.53909
# Shear Modulus (GPa) = 24.36637 28.26092 26.31364
#
# Velocity S-wave (km/s) = 3.46442 3.73102 3.60019
# Velocity P-wave (km/s) = 6.50004 6.99982 6.75455
#
# Compressibility (1/GPa) = 0.01876641
#
# Stress axis : x y z
#
# Youngs Moduli (GPa) = 92.34711 81.69348 50.19581
#
# Poissons Ratio (x) = 0.17080 0.34216
# Poissons Ratio (y) = 0.19308 0.16089
# Poissons Ratio (z) = 0.62949 0.26184
#
# Static dielectric constant tensor:
#      x y z
#    x 3.635690 0.000000 0.057520 
#    y 0.000000 3.676060 0.000000 
#    z 0.057520 0.000000 3.683110 
# 
# 
# High freq. dielectric constant tensor:
#      x y z
#    x 1.787610 0.000000 0.003580 
#    y 0.000000 1.790610 0.000000 
#    z 0.003580 0.000000 1.795260 
# 
# From -- ./inp_files/152430.got.cif
#   From: 2010.06.25/outbox.cif.g09.slc.cpg/sg15_77_cif.got.tgz:152430.got - 2010.06.28 07:06:18.
