data_PCOD8138431
_publ_section_title
;
Structure prediction by ZEFSAII (Michael W. Deem and Ramdas Pophale) SiO2 
 PCOD8138431
Probable space group: C 2/C
;
_chemical_formula_sum "Si O2"
_cell_formula_units_Z 40
_cell_length_a 13.671830
_cell_length_b 10.929360
_cell_length_c 12.739142
_cell_angle_alpha 90.000000
_cell_angle_beta 110.921987
_cell_angle_gamma 90.000000
_cell_volume 1778.033033
_symmetry_space_group_name_H-M "C 2/C"
_symmetry_group_IT_number 15
_symmetry_cell_setting 'monoclinic'
loop_
_space_group_symop_operation_xyz
x,y,z
-x,y,1/2-z
-x,-y,-z
x,-y,1/2+z
1/2+x,1/2+y,z
1/2-x,1/2+y,1/2-z
1/2-x,1/2-y,-z
1/2+x,1/2-y,1/2+z
loop_
_atom_site_type_symbol
_atom_site_label
_atom_site_fract_x
_atom_site_fract_y
_atom_site_fract_z
Si Si1 0.000000 0.379180 0.750000
Si Si2 0.460658 0.289915 0.541663
Si Si3 0.500000 0.464245 0.750000
Si Si4 0.095218 0.474019 0.461302
Si Si5 0.692218 0.193082 0.578147
Si Si6 0.371219 0.328734 0.296030
O O1 0.919461 0.465931 0.658648
O O2 0.940587 0.293015 0.809083
O O3 0.465041 0.380900 0.640313
O O4 0.392093 0.171050 0.548580
O O5 0.578032 0.255207 0.547683
O O6 0.389914 0.358406 0.425952
O O7 0.595988 0.553021 0.758089
O O8 0.189717 0.546870 0.553186
O O9 0.000000 0.500000 0.500000
O O10 0.750000 0.250000 0.500000
O O11 0.754779 0.207423 0.712167
#
# Coordination Sequence:
#
# PCOD8138431 Si02
#       6
#     4   8   4   8   8   8
#     4  11  17  38  64  92 129 171 208 266 330 389
#     4  11  24  46  66  95 136 176 224 276 336 398
#     4  11  25  46  62  92 137 185 216 280 340 393
#     4  10  20  37  64  95 128 164 216 267 326 390
#     4  11  21  39  69 104 127 173 225 269 330 400
#     4  11  22  40  68  93 130 179 224 268 333 401
#
# _framework density 22.496767999999999
#
# number of rings (size 3 to 8) (size 9 to 14) (size 15 to 20)
#    0.000    1.200    6.000    2.400    0.000    1.600 
#    0.000    8.000    0.000    0.000    0.000    0.000 
#    0.000    0.000    0.000    0.000    0.000    0.000 
#
# Total GULP energy -247817.625253 kJ/mol
# GULP energy per Si atom -12390.881263 kJ/mol
# Density = 2.244556 g / cm^3
# Si number density = 22.496768 Si / 1000 Ang^3
#
#
#
# Elastic Constant Matrix: (Units=GPa)
#
#
# Indices 1 2 3 4 5 6 
#
# 1 43.3443 41.7200 45.3423 0.0000 13.4054 0.0000
# 2 41.7200 131.3301 50.1310 0.0000 -2.8903 0.0000
# 3 45.3423 50.1310 195.7179 0.0000 22.9734 0.0000
# 4 0.0000 0.0000 0.0000 48.9682 0.0000 3.1973
# 5 13.4054 -2.8903 22.9734 0.0000 38.4399 0.0000
# 6 0.0000 0.0000 0.0000 3.1973 0.0000 21.0583
#
#
#
# Elastic Compliance Matrix: (Units=1/GPa)
#
#
# Indices 1 2 3 4 5 6 
#
# 1 0.045127 -0.012448 -0.005710 0.000000 -0.013261 0.000000
# 2 -0.012448 0.012029 -0.000874 0.000000 0.005768 0.000000
# 3 -0.005710 -0.000874 0.006915 0.000000 -0.002207 0.000000
# 4 0.000000 0.000000 0.000000 0.020626 0.000000 -0.003132
# 5 -0.013261 0.005768 -0.002207 0.000000 0.032392 0.000000
# 6 0.000000 0.000000 0.000000 -0.003132 0.000000 0.047963
#
#
# Mechanical properties :
#
#
# Convention : Reuss Voigt Hill
#
# Bulk Modulus (GPa) = 38.45055 71.64209 55.04632
# Shear Modulus (GPa) = 23.60884 37.23988 30.42436
#
# Velocity S-wave (km/s) = 3.24301 4.07301 3.68147
# Velocity P-wave (km/s) = 5.58135 7.35077 6.52630
#
# Compressibility (1/GPa) = 0.02600743
#
# Stress axis : x y z
#
# Youngs Moduli (GPa) = 22.15989 83.12903 144.60799
#
# Poissons Ratio (x) = 1.03478 0.82565
# Poissons Ratio (y) = 0.27584 0.12645
# Poissons Ratio (z) = 0.12652 0.07269
#
# Static dielectric constant tensor:
#      x y z
#    x 3.625830 0.000000 0.008650 
#    y 0.000000 4.641010 0.000000 
#    z 0.008650 0.000000 4.089760 
# 
# 
# High freq. dielectric constant tensor:
#      x y z
#    x 1.846870 0.000000 0.008740 
#    y 0.000000 1.897700 0.000000 
#    z 0.008740 0.000000 1.905560 
# 
# From -- ./inp_files/94914.got.cif
#   From: 2010.06.25/outbox.cif.g09.slc.cpg/sg15_48_cif.got.tgz:94914.got - 2010.06.28 07:06:18.
