data_PCOD8138930
_publ_section_title
;
Structure prediction by ZEFSAII (Michael W. Deem and Ramdas Pophale) SiO2 
 PCOD8138930
Probable space group: C 2/C
;
_chemical_formula_sum "Si O2"
_cell_formula_units_Z 64
_cell_length_a 12.733207
_cell_length_b 9.623761
_cell_length_c 26.135572
_cell_angle_alpha 90.000000
_cell_angle_beta 89.216268
_cell_angle_gamma 90.000000
_cell_volume 3202.388421
_symmetry_space_group_name_H-M "C 2/C"
_symmetry_group_IT_number 15
_symmetry_cell_setting 'monoclinic'
loop_
_space_group_symop_operation_xyz
x,y,z
-x,y,1/2-z
-x,-y,-z
x,-y,1/2+z
1/2+x,1/2+y,z
1/2-x,1/2+y,1/2-z
1/2-x,1/2-y,-z
1/2+x,1/2-y,1/2+z
loop_
_atom_site_type_symbol
_atom_site_label
_atom_site_fract_x
_atom_site_fract_y
_atom_site_fract_z
Si Si1 0.942591 0.948113 0.699961
Si Si2 0.274651 0.223727 0.679738
Si Si3 0.150114 0.553335 0.352464
Si Si4 0.414901 0.613053 0.882656
Si Si5 0.688663 0.609189 0.061696
Si Si6 0.142226 0.397717 0.022421
Si Si7 0.383224 0.731355 0.731681
Si Si8 0.990064 0.384381 0.931212
O O1 0.867885 0.838039 0.670359
O O2 0.000000 0.880157 0.750000
O O3 0.867028 0.067999 0.722104
O O4 0.028515 0.026488 0.663234
O O5 0.192418 0.193943 0.634039
O O6 0.207928 0.275563 0.728560
O O7 0.334031 0.076489 0.685946
O O8 0.250094 0.590270 0.385814
O O9 0.129162 0.689777 0.320696
O O10 0.054749 0.518194 0.391691
O O11 0.400861 0.507399 0.930741
O O12 0.485476 0.734486 0.905155
O O13 0.648368 0.766938 0.060528
O O14 0.750608 0.576078 0.009053
O O15 0.119011 0.535709 0.056249
O O16 0.048844 0.363475 0.984271
O O17 0.500000 0.765940 0.750000
#
# Coordination Sequence:
#
# PCOD8138930 Si02
#       8
#     8   8   8   8   8   8   8   8
#     4  11  23  41  61  89 128 168 206 257 307 361
#     4  11  23  38  61  90 124 167 207 249 309 364
#     4  10  21  37  58  87 118 158 205 251 299 368
#     4  11  22  41  60  91 122 160 203 256 301 373
#     4   9  21  38  61  84 119 151 201 252 309 373
#     4   9  20  40  60  86 115 155 191 256 319 368
#     4  11  20  39  61  83 128 163 203 260 306 357
#     4  10  20  38  63  85 120 152 200 253 311 372
#
# _framework density 19.985082999999999
#
# number of rings (size 3 to 8) (size 9 to 14) (size 15 to 20)
#    0.000    1.750    3.750    0.750    3.500    2.500 
#    2.250    2.500    0.000    0.000    0.000    0.000 
#    0.000    0.000    0.000    0.000    0.000    0.000 
#
# Total GULP energy -396471.770632 kJ/mol
# GULP energy per Si atom -12389.742832 kJ/mol
# Density = 1.993960 g / cm^3
# Si number density = 19.985083 Si / 1000 Ang^3
#
#
#
# Elastic Constant Matrix: (Units=GPa)
#
#
# Indices 1 2 3 4 5 6 
#
# 1 67.7852 45.4294 28.7955 0.0000 -15.6108 0.0000
# 2 45.4294 93.8024 47.6293 0.0000 -8.7108 0.0000
# 3 28.7955 47.6293 78.4324 0.0000 -8.1970 0.0000
# 4 0.0000 0.0000 0.0000 35.7869 0.0000 -2.3155
# 5 -15.6108 -8.7108 -8.1970 0.0000 18.5652 0.0000
# 6 0.0000 0.0000 0.0000 -2.3155 0.0000 34.3746
#
#
#
# Elastic Compliance Matrix: (Units=1/GPa)
#
#
# Indices 1 2 3 4 5 6 
#
# 1 0.026130 -0.010309 -0.001617 0.000000 0.016421 0.000000
# 2 -0.010309 0.019670 -0.008493 0.000000 -0.003190 0.000000
# 3 -0.001617 -0.008493 0.018811 0.000000 0.002961 0.000000
# 4 0.000000 0.000000 0.000000 0.028065 0.000000 0.001891
# 5 0.016421 -0.003190 0.002961 0.000000 0.067483 0.000000
# 6 0.000000 0.000000 0.000000 0.001891 0.000000 0.029219
#
#
# Mechanical properties :
#
#
# Convention : Reuss Voigt Hill
#
# Bulk Modulus (GPa) = 42.06619 53.74760 47.90690
# Shear Modulus (GPa) = 20.99602 25.62307 23.30955
#
# Velocity S-wave (km/s) = 3.24479 3.58454 3.41889
# Velocity P-wave (km/s) = 5.92728 6.63959 6.29352
#
# Compressibility (1/GPa) = 0.02377206
#
# Stress axis : x y z
#
# Youngs Moduli (GPa) = 38.26980 50.83895 53.16177
#
# Poissons Ratio (x) = 0.52411 0.08595
# Poissons Ratio (y) = 0.39453 0.45152
# Poissons Ratio (z) = 0.06187 0.43179
#
# Static dielectric constant tensor:
#      x y z
#    x 3.773920 0.000000 -0.208870 
#    y 0.000000 3.744370 0.000000 
#    z -0.208870 0.000000 3.603320 
# 
# 
# High freq. dielectric constant tensor:
#      x y z
#    x 1.771950 0.000000 -0.013490 
#    y 0.000000 1.777810 0.000000 
#    z -0.013490 0.000000 1.778160 
# 
# From -- ./inp_files/295151.got.cif
#   From: 2010.06.25/outbox.cif.g09.slc.cpg/sg15_148_cif.got.tgz:295151.got - 2010.06.28 07:06:18.
