data_PCOD8138138
_publ_section_title
;
Structure prediction by ZEFSAII (Michael W. Deem and Ramdas Pophale) SiO2 
 PCOD8138138
Probable space group: C 2/C
;
_chemical_formula_sum "Si O2"
_cell_formula_units_Z 56
_cell_length_a 17.923681
_cell_length_b 14.749706
_cell_length_c 12.679375
_cell_angle_alpha 90.000000
_cell_angle_beta 61.989111
_cell_angle_gamma 90.000000
_cell_volume 2959.371229
_symmetry_space_group_name_H-M "C 2/C"
_symmetry_group_IT_number 15
_symmetry_cell_setting 'monoclinic'
loop_
_space_group_symop_operation_xyz
x,y,z
-x,y,1/2-z
-x,-y,-z
x,-y,1/2+z
1/2+x,1/2+y,z
1/2-x,1/2+y,1/2-z
1/2-x,1/2-y,-z
1/2+x,1/2-y,1/2+z
loop_
_atom_site_type_symbol
_atom_site_label
_atom_site_fract_x
_atom_site_fract_y
_atom_site_fract_z
Si Si1 0.845157 0.682596 0.260647
Si Si2 0.949068 0.592670 0.026910
Si Si3 0.396553 0.217291 0.554843
Si Si4 0.294132 0.891319 0.485746
Si Si5 0.220383 0.748484 0.684564
Si Si6 0.263642 0.899210 0.012200
Si Si7 0.084851 0.171098 0.654127
O O1 0.802305 0.751823 0.206072
O O2 0.774460 0.646779 0.389941
O O3 0.916857 0.736254 0.276451
O O4 0.890006 0.599114 0.170585
O O5 0.890691 0.605264 0.962698
O O6 0.013837 0.674403 0.979182
O O7 0.000000 0.500000 0.000000
O O8 0.361821 0.256564 0.687705
O O9 0.333461 0.142026 0.545330
O O10 0.414978 0.303611 0.468913
O O11 0.229265 0.836669 0.604093
O O12 0.288205 0.844493 0.375333
O O13 0.266223 0.994169 0.496018
O O14 0.171128 0.881581 0.121762
O O15 0.000000 0.117642 0.750000
#
# Coordination Sequence:
#
# PCOD8138138 Si02
#       7
#     8   8   8   8   8   8   8
#     4  10  20  37  60  84 123 156 201 241 304 359
#     4  11  22  36  57  97 125 155 193 255 306 353
#     4  11  20  37  61  88 125 157 199 239 306 368
#     4  10  24  39  60  88 123 159 205 243 298 363
#     4  10  21  41  59  82 115 171 198 234 299 367
#     4  11  21  37  62  92 115 161 199 251 299 360
#     4  11  20  37  62  90 114 154 204 257 293 352
#
# _framework density 18.922937999999998
#
# number of rings (size 3 to 8) (size 9 to 14) (size 15 to 20)
#    0.000    1.429    5.714    0.857    2.000    0.571 
#    0.000    0.000    9.429    1.714    0.000    0.000 
#    0.000    0.000    0.000    0.000    0.000    0.000 
#
# Total GULP energy -347056.228725 kJ/mol
# GULP energy per Si atom -12394.865312 kJ/mol
# Density = 1.887987 g / cm^3
# Si number density = 18.922938 Si / 1000 Ang^3
#
#
#
# Elastic Constant Matrix: (Units=GPa)
#
#
# Indices 1 2 3 4 5 6 
#
# 1 98.5403 42.5157 47.2095 0.0000 -12.6598 0.0000
# 2 42.5157 69.6298 28.0473 0.0000 6.1670 0.0000
# 3 47.2095 28.0473 123.3810 0.0000 -5.7693 0.0000
# 4 0.0000 0.0000 0.0000 18.3762 0.0000 0.2948
# 5 -12.6598 6.1670 -5.7693 0.0000 33.9072 0.0000
# 6 0.0000 0.0000 0.0000 0.2948 0.0000 26.3872
#
#
#
# Elastic Compliance Matrix: (Units=1/GPa)
#
#
# Indices 1 2 3 4 5 6 
#
# 1 0.017141 -0.009492 -0.004053 0.000000 0.007437 0.000000
# 2 -0.009492 0.021493 -0.001615 0.000000 -0.007728 0.000000
# 3 -0.004053 -0.001615 0.010046 0.000000 0.000490 0.000000
# 4 0.000000 0.000000 0.000000 0.054428 0.000000 -0.000608
# 5 0.007437 -0.007728 0.000490 0.000000 0.033758 0.000000
# 6 0.000000 0.000000 0.000000 -0.000608 0.000000 0.037904
#
#
# Mechanical properties :
#
#
# Convention : Reuss Voigt Hill
#
# Bulk Modulus (GPa) = 54.47061 58.56624 56.51842
# Shear Modulus (GPa) = 23.67325 27.31936 25.49630
#
# Velocity S-wave (km/s) = 3.54083 3.80375 3.67464
# Velocity P-wave (km/s) = 6.75016 7.09284 6.92362
#
# Compressibility (1/GPa) = 0.01835853
#
# Stress axis : x y z
#
# Youngs Moduli (GPa) = 58.34051 46.52781 99.54341
#
# Poissons Ratio (x) = 0.44165 0.40346
# Poissons Ratio (y) = 0.55377 0.16077
# Poissons Ratio (z) = 0.23646 0.07515
#
# Static dielectric constant tensor:
#      x y z
#    x 3.515130 0.000000 -0.049380 
#    y 0.000000 3.265350 0.000000 
#    z -0.049380 0.000000 3.751020 
# 
# 
# High freq. dielectric constant tensor:
#      x y z
#    x 1.735240 0.000000 -0.003200 
#    y 0.000000 1.707370 0.000000 
#    z -0.003200 0.000000 1.747640 
# 
# From -- ./inp_files/105276.got.cif
#   From: 2010.06.25/outbox.cif.g09.slc.cpg/sg15_53_cif.got.tgz:105276.got - 2010.06.28 07:06:18.
