data_PCOD8138403
_publ_section_title
;
Structure prediction by ZEFSAII (Michael W. Deem and Ramdas Pophale) SiO2 
 PCOD8138403
Probable space group: C 2/C
;
_chemical_formula_sum "Si O2"
_cell_formula_units_Z 60
_cell_length_a 19.913605
_cell_length_b 12.249916
_cell_length_c 19.624082
_cell_angle_alpha 90.000000
_cell_angle_beta 36.477486
_cell_angle_gamma 90.000000
_cell_volume 2845.962852
_symmetry_space_group_name_H-M "C 2/C"
_symmetry_group_IT_number 15
_symmetry_cell_setting 'monoclinic'
loop_
_space_group_symop_operation_xyz
x,y,z
-x,y,1/2-z
-x,-y,-z
x,-y,1/2+z
1/2+x,1/2+y,z
1/2-x,1/2+y,1/2-z
1/2-x,1/2-y,-z
1/2+x,1/2-y,1/2+z
loop_
_atom_site_type_symbol
_atom_site_label
_atom_site_fract_x
_atom_site_fract_y
_atom_site_fract_z
Si Si1 0.146435 0.097598 0.572222
Si Si2 0.804519 0.189800 0.189057
Si Si3 0.534123 0.693224 0.083602
Si Si4 0.000000 0.079637 0.250000
Si Si5 0.884087 0.622402 0.061511
Si Si6 0.388723 0.881339 0.038734
Si Si7 0.602550 0.486704 0.968210
Si Si8 0.106891 0.658855 0.121248
O O1 0.121777 0.213359 0.628163
O O2 0.281666 0.089939 0.449000
O O3 0.108892 0.000443 0.654599
O O4 0.077311 0.085705 0.557148
O O5 0.704553 0.195054 0.324258
O O6 0.799014 0.295577 0.143862
O O7 0.924681 0.189909 0.126405
O O8 0.795039 0.075641 0.153780
O O9 0.494146 0.662563 0.191585
O O10 0.590350 0.813144 0.030438
O O11 0.627910 0.607425 0.977209
O O12 0.834787 0.502927 0.084995
O O13 0.995661 0.616326 0.014997
O O14 0.417210 0.849487 0.938894
O O15 0.500000 0.500000 0.000000
O O16 0.000000 0.611343 0.250000
#
# Coordination Sequence:
#
# PCOD8138403 Si02
#       8
#     8   8   8   4   8   8   8   8
#     4  10  21  37  60  95 126 166 213 259 323 381
#     4  10  20  37  64  88 117 163 205 260 314 367
#     4   9  21  39  60  91 117 158 209 262 310 375
#     4  10  20  42  66  86 128 156 214 278 310 376
#     4  10  23  40  61  89 125 159 213 251 313 382
#     4  10  23  42  59  91 126 164 205 256 312 376
#     4   9  18  36  59  90 118 149 211 261 310 367
#     4  11  23  38  59  93 136 171 204 258 325 395
#
# _framework density 21.082497
#
# number of rings (size 3 to 8) (size 9 to 14) (size 15 to 20)
#    0.000    2.133    2.000    0.000    5.600    0.000 
#    1.200    0.667    0.000    0.000    0.000    0.000 
#    0.000    0.000    0.000    0.000    0.000    0.000 
#
# Total GULP energy -371685.950522 kJ/mol
# GULP energy per Si atom -12389.531684 kJ/mol
# Density = 2.103451 g / cm^3
# Si number density = 21.082497 Si / 1000 Ang^3
#
#
#
# Elastic Constant Matrix: (Units=GPa)
#
#
# Indices 1 2 3 4 5 6 
#
# 1 49.6471 37.9706 32.7029 0.0000 14.8275 0.0000
# 2 37.9706 130.9337 68.6740 0.0000 11.8013 0.0000
# 3 32.7029 68.6740 145.0060 0.0000 9.8972 0.0000
# 4 0.0000 0.0000 0.0000 33.6796 0.0000 7.2223
# 5 14.8275 11.8013 9.8972 0.0000 34.9502 0.0000
# 6 0.0000 0.0000 0.0000 7.2223 0.0000 11.1959
#
#
#
# Elastic Compliance Matrix: (Units=1/GPa)
#
#
# Indices 1 2 3 4 5 6 
#
# 1 0.029788 -0.006106 -0.003166 0.000000 -0.009679 0.000000
# 2 -0.006106 0.011568 -0.004091 0.000000 -0.000157 0.000000
# 3 -0.003166 -0.004091 0.009546 0.000000 0.000021 0.000000
# 4 0.000000 0.000000 0.000000 0.034458 0.000000 -0.022229
# 5 -0.009679 -0.000157 0.000021 0.000000 0.032766 0.000000
# 6 0.000000 0.000000 0.000000 -0.022229 0.000000 0.103657
#
#
# Mechanical properties :
#
#
# Convention : Reuss Voigt Hill
#
# Bulk Modulus (GPa) = 41.36051 67.14240 54.25145
# Shear Modulus (GPa) = 19.48811 28.38110 23.93460
#
# Velocity S-wave (km/s) = 3.04365 3.67303 3.37305
# Velocity P-wave (km/s) = 5.65798 7.06433 6.39990
#
# Compressibility (1/GPa) = 0.02417765
#
# Stress axis : x y z
#
# Youngs Moduli (GPa) = 33.57066 86.44678 104.75443
#
# Poissons Ratio (x) = 0.52781 0.33163
# Poissons Ratio (y) = 0.20497 0.42852
# Poissons Ratio (z) = 0.10628 0.35363
#
# Static dielectric constant tensor:
#      x y z
#    x 3.602150 0.000000 0.171630 
#    y 0.000000 4.415520 0.000000 
#    z 0.171630 0.000000 3.808860 
# 
# 
# High freq. dielectric constant tensor:
#      x y z
#    x 1.804300 0.000000 0.016850 
#    y 0.000000 1.830810 0.000000 
#    z 0.016850 0.000000 1.816950 
# 
# From -- ./inp_files/215204.got.cif
#   From: 2010.06.25/outbox.cif.g09.slc.cpg/sg15_108_cif.got.tgz:215204.got - 2010.06.28 07:06:18.
