data_PCOD8138883
_publ_section_title
;
Structure prediction by ZEFSAII (Michael W. Deem and Ramdas Pophale) SiO2 
 PCOD8138883
Probable space group: C 2/C
;
_chemical_formula_sum "Si O2"
_cell_formula_units_Z 52
_cell_length_a 19.610921
_cell_length_b 17.302318
_cell_length_c 8.903122
_cell_angle_alpha 90.000000
_cell_angle_beta 127.710497
_cell_angle_gamma 90.000000
_cell_volume 2389.914109
_symmetry_space_group_name_H-M "C 2/C"
_symmetry_group_IT_number 15
_symmetry_cell_setting 'monoclinic'
loop_
_space_group_symop_operation_xyz
x,y,z
-x,y,1/2-z
-x,-y,-z
x,-y,1/2+z
1/2+x,1/2+y,z
1/2-x,1/2+y,1/2-z
1/2-x,1/2-y,-z
1/2+x,1/2-y,1/2+z
loop_
_atom_site_type_symbol
_atom_site_label
_atom_site_fract_x
_atom_site_fract_y
_atom_site_fract_z
Si Si1 0.500000 0.601049 0.250000
Si Si2 0.157340 0.832747 0.435443
Si Si3 0.350187 0.626375 0.229302
Si Si4 0.154771 0.339341 0.939576
Si Si5 0.216577 0.599584 0.820608
Si Si6 0.435432 0.007267 0.281211
Si Si7 0.875723 0.044989 0.843025
O O1 0.430687 0.658020 0.238377
O O2 0.544570 0.545843 0.434670
O O3 0.148217 0.845262 0.600148
O O4 0.121323 0.746602 0.355181
O O5 0.256268 0.847948 0.529000
O O6 0.104013 0.890374 0.257436
O O7 0.365216 0.534359 0.240915
O O8 0.261809 0.646433 0.019269
O O9 0.088220 0.404166 0.793377
O O10 0.166718 0.344175 0.137664
O O11 0.152401 0.538883 0.811416
O O12 0.287319 0.555758 0.816193
O O13 0.500000 0.968502 0.250000
O O14 0.500000 0.000000 0.500000
#
# Coordination Sequence:
#
# PCOD8138883 Si02
#       7
#     4   8   8   8   8   8   8
#     4  10  22  36  52  84 124 152 196 258 296 368
#     4  10  22  39  68  90 123 178 206 265 323 388
#     4  11  21  36  63  91 123 163 213 257 317 383
#     4  10  22  43  61  92 128 160 223 260 326 388
#     4  10  21  39  62  89 126 161 210 267 319 386
#     4  12  24  40  67  96 128 169 217 280 325 385
#     4  10  20  38  62  90 123 162 212 259 312 383
#
# _framework density 21.758103999999999
#
# number of rings (size 3 to 8) (size 9 to 14) (size 15 to 20)
#    0.000    1.538    1.538    5.077    2.154    1.231 
#    2.769    0.000    3.385    0.000    0.000    0.000 
#    0.000    0.000    0.000    0.000    0.000    0.000 
#
# Total GULP energy -322143.963672 kJ/mol
# GULP energy per Si atom -12390.152449 kJ/mol
# Density = 2.170858 g / cm^3
# Si number density = 21.758104 Si / 1000 Ang^3
#
#
#
# Elastic Constant Matrix: (Units=GPa)
#
#
# Indices 1 2 3 4 5 6 
#
# 1 114.5961 25.7329 45.3749 0.0000 -16.2581 0.0000
# 2 25.7329 76.0763 31.9255 0.0000 -1.2974 0.0000
# 3 45.3749 31.9255 150.9470 0.0000 -13.6280 0.0000
# 4 0.0000 0.0000 0.0000 26.0009 0.0000 -3.8579
# 5 -16.2581 -1.2974 -13.6280 0.0000 38.5140 0.0000
# 6 0.0000 0.0000 0.0000 -3.8579 0.0000 16.4357
#
#
#
# Elastic Compliance Matrix: (Units=1/GPa)
#
#
# Indices 1 2 3 4 5 6 
#
# 1 0.010754 -0.002586 -0.002359 0.000000 0.003618 0.000000
# 2 -0.002586 0.015061 -0.002542 0.000000 -0.001484 0.000000
# 3 -0.002359 -0.002542 0.008031 0.000000 0.001760 0.000000
# 4 0.000000 0.000000 0.000000 0.039848 0.000000 0.009353
# 5 0.003618 -0.001484 0.001760 0.000000 0.028065 0.000000
# 6 0.000000 0.000000 0.000000 0.009353 0.000000 0.063039
#
#
# Mechanical properties :
#
#
# Convention : Reuss Voigt Hill
#
# Bulk Modulus (GPa) = 52.99005 60.85400 56.92202
# Shear Modulus (GPa) = 26.87274 32.09586 29.48430
#
# Velocity S-wave (km/s) = 3.51817 3.84490 3.68516
# Velocity P-wave (km/s) = 6.39612 6.90942 6.65772
#
# Compressibility (1/GPa) = 0.01887147
#
# Stress axis : x y z
#
# Youngs Moduli (GPa) = 92.98511 66.39733 124.52420
#
# Poissons Ratio (x) = 0.17170 0.29378
# Poissons Ratio (y) = 0.24045 0.31654
# Poissons Ratio (z) = 0.21937 0.16878
#
# Static dielectric constant tensor:
#      x y z
#    x 4.103350 0.000000 -0.113780 
#    y 0.000000 3.665930 0.000000 
#    z -0.113780 0.000000 4.096470 
# 
# 
# High freq. dielectric constant tensor:
#      x y z
#    x 1.873210 0.000000 -0.011560 
#    y 0.000000 1.814890 0.000000 
#    z -0.011560 0.000000 1.869420 
# 
# From -- ./inp_files/57056.got.cif
#   From: 2010.06.25/outbox.cif.g09.slc.cpg/sg15_29_cif.got.tgz:57056.got - 2010.06.28 07:06:18.
