data_PCOD8138214
_publ_section_title
;
Structure prediction by ZEFSAII (Michael W. Deem and Ramdas Pophale) SiO2 
 PCOD8138214
Probable space group: C 2/C
;
_chemical_formula_sum "Si O2"
_cell_formula_units_Z 52
_cell_length_a 16.440757
_cell_length_b 8.627042
_cell_length_c 18.175039
_cell_angle_alpha 90.000000
_cell_angle_beta 97.270145
_cell_angle_gamma 90.000000
_cell_volume 2557.133846
_symmetry_space_group_name_H-M "C 2/C"
_symmetry_group_IT_number 15
_symmetry_cell_setting 'monoclinic'
loop_
_space_group_symop_operation_xyz
x,y,z
-x,y,1/2-z
-x,-y,-z
x,-y,1/2+z
1/2+x,1/2+y,z
1/2-x,1/2+y,1/2-z
1/2-x,1/2-y,-z
1/2+x,1/2-y,1/2+z
loop_
_atom_site_type_symbol
_atom_site_label
_atom_site_fract_x
_atom_site_fract_y
_atom_site_fract_z
Si Si1 0.343447 0.168146 0.235674
Si Si2 0.839027 0.859648 0.941721
Si Si3 0.635218 0.641625 0.313131
Si Si4 0.466741 0.306465 0.840947
Si Si5 0.760697 0.907940 0.326638
Si Si6 0.500000 0.026816 0.750000
Si Si7 0.193291 0.141011 0.898572
O O1 0.328056 0.304679 0.292387
O O2 0.425290 0.080535 0.262789
O O3 0.355457 0.231260 0.154229
O O4 0.265570 0.051225 0.229505
O O5 0.927503 0.818950 0.916890
O O6 0.784688 0.705766 0.922759
O O7 0.799784 0.018638 0.904756
O O8 0.852191 0.889085 0.029591
O O9 0.605238 0.636269 0.223918
O O10 0.552050 0.598773 0.349683
O O11 0.678649 0.807526 0.334595
O O12 0.699495 0.512173 0.348298
O O13 0.503274 0.137751 0.821968
#
# Coordination Sequence:
#
# PCOD8138214 Si02
#       7
#     8   8   8   8   8   4   8
#     4  11  21  37  60  88 114 146 195 239 289 336
#     4  10  23  39  58  84 122 156 193 231 289 337
#     4  10  20  37  61  85 116 148 192 239 287 337
#     4  10  20  38  59  86 115 152 184 247 290 334
#     4  11  21  35  62  89 109 152 195 240 283 345
#     4  10  22  36  58  90 114 140 192 252 288 336
#     4  10  22  38  59  84 121 156 193 235 277 347
#
# _framework density 20.335266000000001
#
# number of rings (size 3 to 8) (size 9 to 14) (size 15 to 20)
#    0.000    1.846    3.077    3.692    2.154    3.692 
#    0.000    0.769    0.000    0.000    0.000    0.000 
#    0.000    0.000    0.000    0.000    0.000    0.000 
#
# Total GULP energy -322114.314412 kJ/mol
# GULP energy per Si atom -12389.012093 kJ/mol
# Density = 2.028898 g / cm^3
# Si number density = 20.335266 Si / 1000 Ang^3
#
#
#
# Elastic Constant Matrix: (Units=GPa)
#
#
# Indices 1 2 3 4 5 6 
#
# 1 61.7037 15.2420 32.0897 0.0000 -12.8062 0.0000
# 2 15.2420 103.7279 37.3017 0.0000 -0.0734 0.0000
# 3 32.0897 37.3017 91.0746 0.0000 -19.9842 0.0000
# 4 0.0000 0.0000 0.0000 16.1158 0.0000 -10.0194
# 5 -12.8062 -0.0734 -19.9842 0.0000 29.4887 0.0000
# 6 0.0000 0.0000 0.0000 -10.0194 0.0000 16.5400
#
#
#
# Elastic Compliance Matrix: (Units=1/GPa)
#
#
# Indices 1 2 3 4 5 6 
#
# 1 0.020454 -0.000944 -0.005723 0.000000 0.005002 0.000000
# 2 -0.000944 0.011695 -0.005334 0.000000 -0.003996 0.000000
# 3 -0.005723 -0.005334 0.017189 0.000000 0.009150 0.000000
# 4 0.000000 0.000000 0.000000 0.099539 0.000000 0.060297
# 5 0.005002 -0.003996 0.009150 0.000000 0.042275 0.000000
# 6 0.000000 0.000000 0.000000 0.060297 0.000000 0.096986
#
#
# Mechanical properties :
#
#
# Convention : Reuss Voigt Hill
#
# Bulk Modulus (GPa) = 39.46925 47.30811 43.38868
# Shear Modulus (GPa) = 15.59658 23.88707 19.74182
#
# Velocity S-wave (km/s) = 2.77243 3.43105 3.11917
# Velocity P-wave (km/s) = 5.44976 6.24586 5.86134
#
# Compressibility (1/GPa) = 0.02533618
#
# Stress axis : x y z
#
# Youngs Moduli (GPa) = 48.89031 85.50932 58.17761
#
# Poissons Ratio (x) = 0.08073 0.33293
# Poissons Ratio (y) = 0.04616 0.31031
# Poissons Ratio (z) = 0.27978 0.45610
#
# Static dielectric constant tensor:
#      x y z
#    x 3.800740 0.000000 -0.059550 
#    y 0.000000 3.819410 0.000000 
#    z -0.059550 0.000000 3.454100 
# 
# 
# High freq. dielectric constant tensor:
#      x y z
#    x 1.798900 0.000000 -0.013530 
#    y 0.000000 1.799940 0.000000 
#    z -0.013530 0.000000 1.763540 
# 
# From -- ./inp_files/209208.got.cif
#   From: 2010.06.25/outbox.cif.g09.slc.cpg/sg15_105_cif.got.tgz:209208.got - 2010.06.28 07:06:18.
