data_PCOD8138314
_publ_section_title
;
Structure prediction by ZEFSAII (Michael W. Deem and Ramdas Pophale) SiO2 
 PCOD8138314
Probable space group: C 2/C
;
_chemical_formula_sum "Si O2"
_cell_formula_units_Z 48
_cell_length_a 20.999829
_cell_length_b 6.580995
_cell_length_c 17.178034
_cell_angle_alpha 90.000000
_cell_angle_beta 87.944252
_cell_angle_gamma 90.000000
_cell_volume 2372.472429
_symmetry_space_group_name_H-M "C 2/C"
_symmetry_group_IT_number 15
_symmetry_cell_setting 'monoclinic'
loop_
_space_group_symop_operation_xyz
x,y,z
-x,y,1/2-z
-x,-y,-z
x,-y,1/2+z
1/2+x,1/2+y,z
1/2-x,1/2+y,1/2-z
1/2-x,1/2-y,-z
1/2+x,1/2-y,1/2+z
loop_
_atom_site_type_symbol
_atom_site_label
_atom_site_fract_x
_atom_site_fract_y
_atom_site_fract_z
Si Si1 0.850309 0.704673 0.135554
Si Si2 0.343237 0.954907 0.278258
Si Si3 0.078598 0.533806 0.075491
Si Si4 0.292480 0.399280 0.689140
Si Si5 0.970271 0.201953 0.536247
Si Si6 0.689965 0.848541 0.459894
O O1 0.875885 0.543451 0.198320
O O2 0.907056 0.825716 0.090583
O O3 0.804751 0.580315 0.075598
O O4 0.811162 0.865812 0.187504
O O5 0.319980 0.723014 0.262617
O O6 0.394452 0.954393 0.344307
O O7 0.284245 0.100406 0.305195
O O8 0.022548 0.696117 0.090609
O O9 0.047776 0.340360 0.035910
O O10 0.131193 0.649418 0.021381
O O11 0.322387 0.299808 0.611109
O O12 0.000000 0.000000 0.500000
O O13 0.750000 0.750000 0.500000
#
# Coordination Sequence:
#
# PCOD8138314 Si02
#       6
#     8   8   8   8   8   8
#     4  10  23  39  60  91 129 165 208 259 312 385
#     4  11  22  38  61  91 126 167 198 259 325 383
#     4  10  22  41  64  91 122 159 213 265 311 374
#     4  11  21  38  58  91 132 161 200 256 320 384
#     4  10  22  44  64  88 122 166 216 265 307 371
#     4  10  20  37  62  94 120 158 210 261 318 371
#
# _framework density 20.232059
#
# number of rings (size 3 to 8) (size 9 to 14) (size 15 to 20)
#    0.000    1.667    3.333    1.000    0.000    4.000 
#    3.000    0.000    0.000    0.000    0.000    0.000 
#    0.000    0.000    0.000    0.000    0.000    0.000 
#
# Total GULP energy -297374.678878 kJ/mol
# GULP energy per Si atom -12390.611620 kJ/mol
# Density = 2.018601 g / cm^3
# Si number density = 20.232059 Si / 1000 Ang^3
#
#
#
# Elastic Constant Matrix: (Units=GPa)
#
#
# Indices 1 2 3 4 5 6 
#
# 1 98.1919 59.2851 46.3383 0.0000 14.6649 0.0000
# 2 59.2851 105.8507 41.9208 0.0000 6.6706 0.0000
# 3 46.3383 41.9208 107.3963 0.0000 21.4676 0.0000
# 4 0.0000 0.0000 0.0000 33.1415 0.0000 -5.3700
# 5 14.6649 6.6706 21.4676 0.0000 40.2308 0.0000
# 6 0.0000 0.0000 0.0000 -5.3700 0.0000 38.2088
#
#
#
# Elastic Compliance Matrix: (Units=1/GPa)
#
#
# Indices 1 2 3 4 5 6 
#
# 1 0.017192 -0.007971 -0.003714 0.000000 -0.002963 0.000000
# 2 -0.007971 0.014881 -0.002750 0.000000 0.001906 0.000000
# 3 -0.003714 -0.002750 0.013014 0.000000 -0.005134 0.000000
# 4 0.000000 0.000000 0.000000 0.030877 0.000000 0.004340
# 5 -0.002963 0.001906 -0.005134 0.000000 0.028361 0.000000
# 6 0.000000 0.000000 0.000000 0.004340 0.000000 0.026782
#
#
# Mechanical properties :
#
#
# Convention : Reuss Voigt Hill
#
# Bulk Modulus (GPa) = 61.66893 67.39192 64.53043
# Shear Modulus (GPa) = 30.23292 33.24256 31.73774
#
# Velocity S-wave (km/s) = 3.86982 4.05787 3.96496
# Velocity P-wave (km/s) = 7.10734 7.43887 7.27500
#
# Compressibility (1/GPa) = 0.01621562
#
# Stress axis : x y z
#
# Youngs Moduli (GPa) = 58.16538 67.19979 76.84261
#
# Poissons Ratio (x) = 0.53568 0.28540
# Poissons Ratio (y) = 0.46366 0.21133
# Poissons Ratio (z) = 0.21603 0.18481
#
# Static dielectric constant tensor:
#      x y z
#    x 3.678940 0.000000 -0.073510 
#    y 0.000000 3.727570 0.000000 
#    z -0.073510 0.000000 3.678470 
# 
# 
# High freq. dielectric constant tensor:
#      x y z
#    x 1.780080 0.000000 -0.012520 
#    y 0.000000 1.795640 0.000000 
#    z -0.012520 0.000000 1.788510 
# 
# From -- ./inp_files/217531.got.cif
#   From: 2010.06.25/outbox.cif.g09.slc.cpg/sg15_109_cif.got.tgz:217531.got - 2010.06.28 07:06:18.
