data_PCOD8138199
_publ_section_title
;
Structure prediction by ZEFSAII (Michael W. Deem and Ramdas Pophale) SiO2 
 PCOD8138199
Probable space group: C 2/C
;
_chemical_formula_sum "Si O2"
_cell_formula_units_Z 60
_cell_length_a 17.891737
_cell_length_b 11.440414
_cell_length_c 20.768537
_cell_angle_alpha 90.000000
_cell_angle_beta 41.160404
_cell_angle_gamma 90.000000
_cell_volume 2797.936072
_symmetry_space_group_name_H-M "C 2/C"
_symmetry_group_IT_number 15
_symmetry_cell_setting 'monoclinic'
loop_
_space_group_symop_operation_xyz
x,y,z
-x,y,1/2-z
-x,-y,-z
x,-y,1/2+z
1/2+x,1/2+y,z
1/2-x,1/2+y,1/2-z
1/2-x,1/2-y,-z
1/2+x,1/2-y,1/2+z
loop_
_atom_site_type_symbol
_atom_site_label
_atom_site_fract_x
_atom_site_fract_y
_atom_site_fract_z
Si Si1 0.016377 0.163946 0.018391
Si Si2 0.375600 0.737133 0.728132
Si Si3 0.884757 0.549736 0.146352
Si Si4 0.682026 0.291699 0.949832
Si Si5 0.227893 0.066530 0.543142
Si Si6 0.500000 0.625617 0.750000
Si Si7 0.399235 0.092286 0.992007
Si Si8 0.350115 0.520276 0.662463
O O1 0.939778 0.203042 0.006596
O O2 0.938199 0.087318 0.118080
O O3 0.076540 0.268952 0.018687
O O4 0.116979 0.082103 0.926099
O O5 0.415118 0.815474 0.642240
O O6 0.275905 0.797534 0.833293
O O7 0.485642 0.715713 0.700349
O O8 0.342206 0.608239 0.726920
O O9 0.862389 0.538537 0.084849
O O10 0.776781 0.525789 0.260961
O O11 0.982603 0.463852 0.106977
O O12 0.692728 0.169921 0.980750
O O13 0.698098 0.402691 0.988104
O O14 0.112397 0.050406 0.660408
O O15 0.300365 0.945402 0.505191
#
# Coordination Sequence:
#
# PCOD8138199 Si02
#       8
#     8   8   8   8   8   4   8   8
#     4  11  22  40  63  94 130 173 221 276 330 404
#     4  11  21  38  62  94 125 165 219 275 324 394
#     4  11  22  37  60  91 131 167 213 280 340 388
#     4  10  20  37  60  94 133 166 220 270 335 393
#     4  10  22  36  62  95 133 170 216 276 335 406
#     4  10  22  38  62  90 130 170 212 268 342 394
#     4  11  23  37  61  96 133 166 217 283 343 387
#     4  11  23  38  62  92 129 175 220 271 329 401
#
# _framework density 21.444379999999999
#
# number of rings (size 3 to 8) (size 9 to 14) (size 15 to 20)
#    0.000    1.333    2.667    4.800    5.600    0.000 
#    0.000    0.000    0.000    7.200    3.467    0.933 
#    0.000    0.000    0.000    0.000    0.000    0.000 
#
# Total GULP energy -371787.932114 kJ/mol
# GULP energy per Si atom -12392.931070 kJ/mol
# Density = 2.139557 g / cm^3
# Si number density = 21.444380 Si / 1000 Ang^3
#
#
#
# Elastic Constant Matrix: (Units=GPa)
#
#
# Indices 1 2 3 4 5 6 
#
# 1 66.8090 41.6270 21.5483 0.0000 6.3529 0.0000
# 2 41.6270 117.0974 49.1324 0.0000 -8.5367 0.0000
# 3 21.5483 49.1324 126.5148 0.0000 -18.6209 0.0000
# 4 0.0000 0.0000 0.0000 28.6199 0.0000 3.6729
# 5 6.3529 -8.5367 -18.6209 0.0000 28.1880 0.0000
# 6 0.0000 0.0000 0.0000 3.6729 0.0000 39.6228
#
#
#
# Elastic Compliance Matrix: (Units=1/GPa)
#
#
# Indices 1 2 3 4 5 6 
#
# 1 0.020856 -0.007186 -0.001965 0.000000 -0.008175 0.000000
# 2 -0.007186 0.012685 -0.003211 0.000000 0.003340 0.000000
# 3 -0.001965 -0.003211 0.010421 0.000000 0.006355 0.000000
# 4 0.000000 0.000000 0.000000 0.035361 0.000000 -0.003278
# 5 -0.008175 0.003340 0.006355 0.000000 0.042528 0.000000
# 6 0.000000 0.000000 0.000000 -0.003278 0.000000 0.025542
#
#
# Mechanical properties :
#
#
# Convention : Reuss Voigt Hill
#
# Bulk Modulus (GPa) = 51.97587 59.44851 55.71219
# Shear Modulus (GPa) = 28.00652 32.49369 30.25011
#
# Velocity S-wave (km/s) = 3.61779 3.89685 3.75991
# Velocity P-wave (km/s) = 6.46076 6.93034 6.69966
#
# Compressibility (1/GPa) = 0.01923970
#
# Stress axis : x y z
#
# Youngs Moduli (GPa) = 47.94691 78.83286 95.95934
#
# Poissons Ratio (x) = 0.56647 0.18855
# Poissons Ratio (y) = 0.34454 0.30810
# Poissons Ratio (z) = 0.09421 0.25311
#
# Static dielectric constant tensor:
#      x y z
#    x 3.789960 0.000000 -0.000540 
#    y 0.000000 3.867260 0.000000 
#    z -0.000540 0.000000 3.940620 
# 
# 
# High freq. dielectric constant tensor:
#      x y z
#    x 1.814110 0.000000 -0.011160 
#    y 0.000000 1.828660 0.000000 
#    z -0.011160 0.000000 1.859790 
# 
# From -- ./inp_files/248768.got.cif
#   From: 2010.06.25/outbox.cif.g09.slc.cpg/sg15_125_cif.got.tgz:248768.got - 2010.06.28 07:06:18.
