data_PCOD8138919
_publ_section_title
;
Structure prediction by ZEFSAII (Michael W. Deem and Ramdas Pophale) SiO2 
 PCOD8138919
Probable space group: C 2/C
;
_chemical_formula_sum "Si O2"
_cell_formula_units_Z 60
_cell_length_a 16.980660
_cell_length_b 27.884673
_cell_length_c 10.992325
_cell_angle_alpha 90.000000
_cell_angle_beta 32.090763
_cell_angle_gamma 90.000000
_cell_volume 2765.148361
_symmetry_space_group_name_H-M "C 2/C"
_symmetry_group_IT_number 15
_symmetry_cell_setting 'monoclinic'
loop_
_space_group_symop_operation_xyz
x,y,z
-x,y,1/2-z
-x,-y,-z
x,-y,1/2+z
1/2+x,1/2+y,z
1/2-x,1/2+y,1/2-z
1/2-x,1/2-y,-z
1/2+x,1/2-y,1/2+z
loop_
_atom_site_type_symbol
_atom_site_label
_atom_site_fract_x
_atom_site_fract_y
_atom_site_fract_z
Si Si1 0.758697 0.987985 0.792015
Si Si2 0.680769 0.601390 0.157035
Si Si3 0.791221 0.354578 0.278934
Si Si4 0.880036 0.087754 0.668305
Si Si5 0.371767 0.157264 0.085856
Si Si6 0.748908 0.914918 0.583046
Si Si7 0.839264 0.242443 0.505866
Si Si8 0.000000 0.462008 0.750000
O O1 0.797981 0.955858 0.859302
O O2 0.778591 0.954941 0.646986
O O3 0.872292 0.032418 0.634575
O O4 0.591133 0.005790 0.033660
O O5 0.525621 0.614509 0.426646
O O6 0.820852 0.628280 0.034083
O O7 0.681126 0.618255 0.017630
O O8 0.768443 0.384577 0.184699
O O9 0.736056 0.300943 0.323377
O O10 0.957551 0.354179 0.110144
O O11 0.884939 0.089470 0.809454
O O12 0.276793 0.137593 0.324223
O O13 0.343319 0.213071 0.094386
O O14 0.607581 0.929500 0.688781
O O15 0.750000 0.250000 0.500000
O O16 0.000000 0.227816 0.250000
#
# Coordination Sequence:
#
# PCOD8138919 Si02
#       8
#     8   8   8   8   8   8   8   4
#     4  10  23  36  64  90 130 171 224 269 320 381
#     4  11  23  40  63  97 129 170 221 269 328 380
#     4  12  25  41  69  99 133 164 223 274 325 386
#     4  11  25  43  62  94 132 181 214 269 321 389
#     4  11  23  41  68  98 129 168 207 275 334 389
#     4  10  23  42  63  91 134 175 220 263 328 392
#     4  12  22  42  68 102 133 162 211 276 334 385
#     4  10  20  38  62  96 126 174 224 272 316 376
#
# _framework density 21.698654000000001
#
# number of rings (size 3 to 8) (size 9 to 14) (size 15 to 20)
#    0.000    1.067    2.667    4.000    7.467    2.133 
#    2.400    0.667    0.000    1.600    0.000    0.000 
#    0.000    0.000    0.000    0.000    0.000    0.000 
#
# Total GULP energy -371873.936272 kJ/mol
# GULP energy per Si atom -12395.797876 kJ/mol
# Density = 2.164927 g / cm^3
# Si number density = 21.698654 Si / 1000 Ang^3
#
#
#
# Elastic Constant Matrix: (Units=GPa)
#
#
# Indices 1 2 3 4 5 6 
#
# 1 81.8176 41.7210 26.0299 0.0002 11.9080 -0.0005
# 2 41.7210 128.6675 18.3117 0.0000 8.8623 -0.0003
# 3 26.0299 18.3117 82.0226 0.0003 10.4562 -0.0008
# 4 0.0002 0.0000 0.0003 26.6630 -0.0001 -3.3899
# 5 11.9080 8.8623 10.4562 -0.0001 39.7421 0.0004
# 6 -0.0005 -0.0003 -0.0008 -3.3899 0.0004 38.8177
#
#
#
# Elastic Compliance Matrix: (Units=1/GPa)
#
#
# Indices 1 2 3 4 5 6 
#
# 1 0.016123 -0.004498 -0.003750 0.000000 -0.002841 0.000000
# 2 -0.004498 0.009354 -0.000586 0.000000 -0.000584 0.000000
# 3 -0.003750 -0.000586 0.013816 0.000000 -0.002381 0.000000
# 4 0.000000 0.000000 0.000000 0.037926 0.000000 0.003312
# 5 -0.002841 -0.000584 -0.002381 0.000000 0.026770 0.000000
# 6 0.000000 0.000000 0.000000 0.003312 0.000000 0.026051
#
#
# Mechanical properties :
#
#
# Convention : Reuss Voigt Hill
#
# Bulk Modulus (GPa) = 46.24608 51.62588 48.93598
# Shear Modulus (GPa) = 32.27515 34.80757 33.54136
#
# Velocity S-wave (km/s) = 3.86090 4.00951 3.93591
# Velocity P-wave (km/s) = 6.42141 6.72895 6.57698
#
# Compressibility (1/GPa) = 0.02162345
#
# Stress axis : x y z
#
# Youngs Moduli (GPa) = 62.02404 106.90288 72.37857
#
# Poissons Ratio (x) = 0.48090 0.27143
# Poissons Ratio (y) = 0.27901 0.04244
# Poissons Ratio (z) = 0.23260 0.06268
#
# Static dielectric constant tensor:
#      x y z
#    x 4.074440 0.000000 0.044300 
#    y 0.000000 4.198370 0.000000 
#    z 0.044300 0.000000 4.036980 
# 
# 
# High freq. dielectric constant tensor:
#      x y z
#    x 1.859890 0.000000 -0.014230 
#    y 0.000000 1.846600 0.000000 
#    z -0.014230 0.000000 1.850180 
# 
# From -- ./inp_files/108397.got.cif
#   From: 2010.06.25/outbox.cif.g09.slc.cpg/sg15_55_cif.got.tgz:108397.got - 2010.06.28 07:06:18.
