data_PCOD8138299
_publ_section_title
;
Structure prediction by ZEFSAII (Michael W. Deem and Ramdas Pophale) SiO2 
 PCOD8138299
Probable space group: C 2/C
;
_chemical_formula_sum "Si O2"
_cell_formula_units_Z 60
_cell_length_a 19.764558
_cell_length_b 8.652567
_cell_length_c 19.570818
_cell_angle_alpha 90.000000
_cell_angle_beta 124.575770
_cell_angle_gamma 90.000000
_cell_volume 2755.747915
_symmetry_space_group_name_H-M "C 2/C"
_symmetry_group_IT_number 15
_symmetry_cell_setting 'monoclinic'
loop_
_space_group_symop_operation_xyz
x,y,z
-x,y,1/2-z
-x,-y,-z
x,-y,1/2+z
1/2+x,1/2+y,z
1/2-x,1/2+y,1/2-z
1/2-x,1/2-y,-z
1/2+x,1/2-y,1/2+z
loop_
_atom_site_type_symbol
_atom_site_label
_atom_site_fract_x
_atom_site_fract_y
_atom_site_fract_z
Si Si1 0.500000 0.903351 0.750000
Si Si2 0.585985 0.206722 0.647406
Si Si3 0.868017 0.598704 0.379494
Si Si4 0.437297 0.671095 0.820669
Si Si5 0.701020 0.473810 0.708444
Si Si6 0.202535 0.167473 0.572273
Si Si7 0.888002 0.668965 0.677128
Si Si8 0.058986 0.902728 0.897157
O O1 0.443064 0.797308 0.764706
O O2 0.435414 0.017760 0.673918
O O3 0.661173 0.311124 0.664416
O O4 0.603168 0.163120 0.736249
O O5 0.500800 0.298149 0.590225
O O6 0.580428 0.060690 0.592387
O O7 0.926925 0.734264 0.384863
O O8 0.790986 0.561514 0.286540
O O9 0.833155 0.658545 0.432657
O O10 0.358073 0.556508 0.768157
O O11 0.521423 0.573212 0.867747
O O12 0.706934 0.580253 0.646257
O O13 0.294767 0.172494 0.596102
O O14 0.145876 0.080662 0.485246
O O15 0.930204 0.823383 0.670838
#
# Coordination Sequence:
#
# PCOD8138299 Si02
#       8
#     4   8   8   8   8   8   8   8
#     4  12  22  38  66  90 116 160 210 260 290 356
#     4  11  20  37  65  91 118 160 207 259 301 356
#     4  11  19  39  63  93 116 158 210 256 300 356
#     4  10  23  35  60  91 123 154 206 248 307 354
#     4  10  20  37  62  91 120 153 211 255 300 359
#     4  11  24  40  63  87 130 162 200 255 314 364
#     4  12  21  41  64  89 124 162 212 254 294 370
#     4  11  25  40  58  93 127 167 197 248 316 374
#
# _framework density 21.772673000000001
#
# number of rings (size 3 to 8) (size 9 to 14) (size 15 to 20)
#    0.000    1.067    5.333    1.200    3.733    5.333 
#    0.000    2.000    0.000    0.000    0.000    0.000 
#    0.000    0.000    0.000    0.000    0.000    0.000 
#
# Total GULP energy -371848.281486 kJ/mol
# GULP energy per Si atom -12394.942716 kJ/mol
# Density = 2.172312 g / cm^3
# Si number density = 21.772673 Si / 1000 Ang^3
#
#
#
# Elastic Constant Matrix: (Units=GPa)
#
#
# Indices 1 2 3 4 5 6 
#
# 1 88.9715 37.4294 10.0485 0.0000 16.0511 0.0000
# 2 37.4294 111.8441 0.6911 0.0000 9.6414 0.0000
# 3 10.0485 0.6911 47.7230 0.0000 18.6239 0.0000
# 4 0.0000 0.0000 0.0000 15.8708 0.0000 -15.9095
# 5 16.0511 9.6414 18.6239 0.0000 25.4487 0.0000
# 6 0.0000 0.0000 0.0000 -15.9095 0.0000 -90.0564
#
#
#
# Elastic Compliance Matrix: (Units=1/GPa)
#
#
# Indices 1 2 3 4 5 6 
#
# 1 0.014334 -0.004157 -0.000062 0.000000 -0.007421 0.000000
# 2 -0.004157 0.010551 0.001763 0.000000 -0.002665 0.000000
# 3 -0.000062 0.001763 0.029657 0.000000 -0.022332 0.000000
# 4 0.000000 0.000000 0.000000 0.053529 0.000000 -0.009457
# 5 -0.007421 -0.002665 -0.022332 0.000000 0.061328 0.000000
# 6 0.000000 0.000000 0.000000 -0.009457 0.000000 -0.009434
#
#
# Mechanical properties :
#
#
# Convention : Reuss Voigt Hill
#
# Bulk Modulus (GPa) = 20.14938 38.31962 29.23450
# Shear Modulus (GPa) = 27.56010 3.61060 15.58535
#
# Velocity S-wave (km/s) = 3.56168 1.28915 2.67839
# Velocity P-wave (km/s) = 5.11748 4.45578 4.79805
#
# Compressibility (1/GPa) = 0.04962931
#
# Stress axis : x y z
#
# Youngs Moduli (GPa) = 69.76385 94.77736 33.71888
#
# Poissons Ratio (x) = 0.39398 0.00209
# Poissons Ratio (y) = 0.29000 -0.05943
# Poissons Ratio (z) = 0.00433 -0.16706
#
# Static dielectric constant tensor:
#      x y z
#    x 4.373860 0.000000 0.274230 
#    y 0.000000 4.328090 0.000000 
#    z 0.274230 0.000000 3.457880 
# 
# 
# High freq. dielectric constant tensor:
#      x y z
#    x 1.871650 0.000000 0.022850 
#    y 0.000000 1.864980 0.000000 
#    z 0.022850 0.000000 1.810090 
# 
# From -- ./inp_files/214309.got.cif
#   From: 2010.06.25/outbox.cif.g09.slc.cpg/sg15_108_cif.got.tgz:214309.got - 2010.06.28 07:06:18.
