data_PCOD8138561
_publ_section_title
;
Structure prediction by ZEFSAII (Michael W. Deem and Ramdas Pophale) SiO2 
 PCOD8138561
Probable space group: C 2/C
;
_chemical_formula_sum "Si O2"
_cell_formula_units_Z 56
_cell_length_a 25.808857
_cell_length_b 18.281282
_cell_length_c 13.024084
_cell_angle_alpha 90.000000
_cell_angle_beta 150.623607
_cell_angle_gamma 90.000000
_cell_volume 3014.402519
_symmetry_space_group_name_H-M "C 2/C"
_symmetry_group_IT_number 15
_symmetry_cell_setting 'monoclinic'
loop_
_space_group_symop_operation_xyz
x,y,z
-x,y,1/2-z
-x,-y,-z
x,-y,1/2+z
1/2+x,1/2+y,z
1/2-x,1/2+y,1/2-z
1/2-x,1/2-y,-z
1/2+x,1/2-y,1/2+z
loop_
_atom_site_type_symbol
_atom_site_label
_atom_site_fract_x
_atom_site_fract_y
_atom_site_fract_z
Si Si1 0.335677 0.191921 0.687817
Si Si2 0.382645 0.614024 0.466401
Si Si3 0.505419 0.718604 0.138022
Si Si4 0.836178 0.096018 0.166930
Si Si5 0.382495 0.435430 0.176851
Si Si6 0.291542 0.691261 0.652503
Si Si7 0.389131 0.781099 0.513305
O O1 0.250000 0.250000 0.500000
O O2 0.437200 0.204078 0.789567
O O3 0.277536 0.113177 0.581966
O O4 0.377786 0.202190 0.874534
O O5 0.308376 0.605237 0.239763
O O6 0.498227 0.593255 0.623860
O O7 0.340661 0.562603 0.486570
O O8 0.380454 0.694190 0.512813
O O9 0.500000 0.708494 0.250000
O O10 0.571669 0.651444 0.206324
O O11 0.391976 0.720791 0.888612
O O12 0.877494 0.016156 0.212859
O O13 0.314744 0.384092 0.134281
O O14 0.250000 0.750000 0.500000
O O15 0.201180 0.676607 0.580169
O O16 0.500000 0.809281 0.750000
#
# Coordination Sequence:
#
# PCOD8138561 Si02
#       7
#     8   8   8   8   8   8   8
#     4  10  20  38  57  85 121 162 196 245 303 359
#     4  11  20  37  59  85 126 158 189 245 315 350
#     4  11  23  35  59  91 120 153 203 249 297 359
#     4  11  23  38  60  88 129 158 192 242 313 375
#     4  11  23  37  59  93 123 159 195 248 307 366
#     4  12  22  36  60  90 116 152 211 248 290 357
#     4  12  21  39  62  86 119 161 206 254 304 354
#
# _framework density 18.577479
#
# number of rings (size 3 to 8) (size 9 to 14) (size 15 to 20)
#    0.000    0.857    7.143    3.000    2.000    1.143 
#    0.000    0.000    0.000    4.286    0.000    0.000 
#    0.000    0.000    0.000    0.000    0.000    0.000 
#
# Total GULP energy -347061.384094 kJ/mol
# GULP energy per Si atom -12395.049432 kJ/mol
# Density = 1.853520 g / cm^3
# Si number density = 18.577479 Si / 1000 Ang^3
#
#
#
# Elastic Constant Matrix: (Units=GPa)
#
#
# Indices 1 2 3 4 5 6 
#
# 1 117.3172 28.3547 49.5791 0.0000 -7.7595 0.0000
# 2 28.3547 68.3506 23.4170 0.0000 9.2437 0.0000
# 3 49.5791 23.4170 134.1457 0.0000 -10.8784 0.0000
# 4 0.0000 0.0000 0.0000 16.6857 0.0000 -3.4565
# 5 -7.7595 9.2437 -10.8784 0.0000 41.2185 0.0000
# 6 0.0000 0.0000 0.0000 -3.4565 0.0000 20.3664
#
#
#
# Elastic Compliance Matrix: (Units=1/GPa)
#
#
# Indices 1 2 3 4 5 6 
#
# 1 0.010915 -0.003698 -0.003223 0.000000 0.002033 0.000000
# 2 -0.003698 0.017597 -0.002127 0.000000 -0.005204 0.000000
# 3 -0.003223 -0.002127 0.009204 0.000000 0.002299 0.000000
# 4 0.000000 0.000000 0.000000 0.062115 0.000000 0.010542
# 5 0.002033 -0.005204 0.002299 0.000000 0.026418 0.000000
# 6 0.000000 0.000000 0.000000 0.010542 0.000000 0.050890
#
#
# Mechanical properties :
#
#
# Convention : Reuss Voigt Hill
#
# Bulk Modulus (GPa) = 50.97410 58.05721 54.51565
# Shear Modulus (GPa) = 24.78012 30.21831 27.49921
#
# Velocity S-wave (km/s) = 3.65619 4.03750 3.85157
# Velocity P-wave (km/s) = 6.73215 7.28385 7.01343
#
# Compressibility (1/GPa) = 0.01961781
#
# Stress axis : x y z
#
# Youngs Moduli (GPa) = 91.62110 56.82729 108.65246
#
# Poissons Ratio (x) = 0.21017 0.35023
# Poissons Ratio (y) = 0.33886 0.23109
# Poissons Ratio (z) = 0.29533 0.12087
#
# Static dielectric constant tensor:
#      x y z
#    x 3.783720 0.000000 -0.088790 
#    y 0.000000 3.366240 0.000000 
#    z -0.088790 0.000000 3.784110 
# 
# 
# High freq. dielectric constant tensor:
#      x y z
#    x 1.736120 0.000000 -0.020440 
#    y 0.000000 1.687420 0.000000 
#    z -0.020440 0.000000 1.726660 
# 
# From -- ./inp_files/119855.got.cif
#   From: 2010.06.25/outbox.cif.g09.slc.cpg/sg15_60_cif.got.tgz:119855.got - 2010.06.28 07:06:18.
