data_PCOD8138386
_publ_section_title
;
Structure prediction by ZEFSAII (Michael W. Deem and Ramdas Pophale) SiO2 
 PCOD8138386
Probable space group: C 2/C
;
_chemical_formula_sum "Si O2"
_cell_formula_units_Z 60
_cell_length_a 5.640038
_cell_length_b 20.670605
_cell_length_c 25.559874
_cell_angle_alpha 90.000000
_cell_angle_beta 104.059364
_cell_angle_gamma 90.000000
_cell_volume 2890.584084
_symmetry_space_group_name_H-M "C 2/C"
_symmetry_group_IT_number 15
_symmetry_cell_setting 'monoclinic'
loop_
_space_group_symop_operation_xyz
x,y,z
-x,y,1/2-z
-x,-y,-z
x,-y,1/2+z
1/2+x,1/2+y,z
1/2-x,1/2+y,1/2-z
1/2-x,1/2-y,-z
1/2+x,1/2-y,1/2+z
loop_
_atom_site_type_symbol
_atom_site_label
_atom_site_fract_x
_atom_site_fract_y
_atom_site_fract_z
Si Si1 0.747040 0.713042 0.115679
Si Si2 0.431117 0.521383 0.685465
Si Si3 0.445588 0.190773 0.455876
Si Si4 0.500000 0.806523 0.250000
Si Si5 0.401149 0.908125 0.158404
Si Si6 0.128841 0.685966 0.931930
Si Si7 0.151610 0.300948 0.712431
Si Si8 0.602521 0.619647 0.356860
O O1 0.574288 0.774510 0.111330
O O2 0.657866 0.649009 0.141225
O O3 0.786584 0.694502 0.056471
O O4 0.003193 0.730408 0.156051
O O5 0.500000 0.511273 0.750000
O O6 0.661516 0.557950 0.670710
O O7 0.412835 0.456595 0.650446
O O8 0.156299 0.551619 0.666795
O O9 0.355151 0.265420 0.450537
O O10 0.463954 0.164028 0.515623
O O11 0.285427 0.140696 0.413121
O O12 0.469174 0.847827 0.197142
O O13 0.728299 0.759707 0.251772
O O14 0.317095 0.879624 0.097447
O O15 0.336116 0.352138 0.697194
O O16 0.000000 0.337172 0.750000
#
# Coordination Sequence:
#
# PCOD8138386 Si02
#       8
#     8   8   8   4   8   8   8   8
#     4  10  20  37  63  98 129 166 208 279 336 405
#     4  12  28  48  67  91 132 190 230 273 323 392
#     4   9  20  41  67 101 128 168 208 287 336 402
#     4  12  24  42  58  98 132 162 222 274 342 410
#     4  12  27  45  67  96 132 183 222 273 327 406
#     4  10  21  39  68  99 134 165 219 265 353 399
#     4  11  23  35  63  94 128 165 208 287 336 399
#     4  10  24  42  63  94 127 167 233 268 331 387
#
# _framework density 20.757052000000002
#
# number of rings (size 3 to 8) (size 9 to 14) (size 15 to 20)
#    0.000    1.333    1.333    4.400   12.133    0.000 
#    0.000    1.333    0.000    0.000    0.000    0.000 
#    0.000    0.000    0.000    0.000    0.000    0.000 
#
# Total GULP energy -371699.475067 kJ/mol
# GULP energy per Si atom -12389.982502 kJ/mol
# Density = 2.070981 g / cm^3
# Si number density = 20.757052 Si / 1000 Ang^3
#
#
#
# Elastic Constant Matrix: (Units=GPa)
#
#
# Indices 1 2 3 4 5 6 
#
# 1 112.5601 41.8293 32.5466 0.0000 -25.4442 0.0000
# 2 41.8293 100.8820 50.9130 0.0000 -8.1936 0.0000
# 3 32.5466 50.9130 113.3872 0.0000 -30.8428 0.0000
# 4 0.0000 0.0000 0.0000 23.6621 0.0000 5.7353
# 5 -25.4442 -8.1936 -30.8428 0.0000 38.5753 0.0000
# 6 0.0000 0.0000 0.0000 5.7353 0.0000 -5.1038
#
#
#
# Elastic Compliance Matrix: (Units=1/GPa)
#
#
# Indices 1 2 3 4 5 6 
#
# 1 0.012173 -0.004796 0.000724 0.000000 0.007589 0.000000
# 2 -0.004796 0.014883 -0.006782 0.000000 -0.005425 0.000000
# 3 0.000724 -0.006782 0.014562 0.000000 0.010680 0.000000
# 4 0.000000 0.000000 0.000000 0.033215 0.000000 0.037325
# 5 0.007589 -0.005425 0.010680 0.000000 0.038316 0.000000
# 6 0.000000 0.000000 0.000000 0.037325 0.000000 -0.153990
#
#
# Mechanical properties :
#
#
# Convention : Reuss Voigt Hill
#
# Bulk Modulus (GPa) = 50.22704 64.15636 57.19170
# Shear Modulus (GPa) = -400.09726 24.86275 -187.61725
#
# Velocity S-wave (km/s) = -13.89859 3.46468 -9.51753
# Velocity P-wave (km/s) = 15.27452 6.85424 9.65221
#
# Compressibility (1/GPa) = 0.01990960
#
# Stress axis : x y z
#
# Youngs Moduli (GPa) = 82.15105 67.18964 68.67322
#
# Poissons Ratio (x) = 0.32225 -0.04971
# Poissons Ratio (y) = 0.39401 0.46572
# Poissons Ratio (z) = -0.05947 0.45566
#
# Static dielectric constant tensor:
#      x y z
#    x 4.120310 0.000000 -0.160130 
#    y 0.000000 3.530890 0.000000 
#    z -0.160130 0.000000 3.998070 
# 
# 
# High freq. dielectric constant tensor:
#      x y z
#    x 1.825650 0.000000 -0.012270 
#    y 0.000000 1.779380 0.000000 
#    z -0.012270 0.000000 1.829630 
# 
# From -- ./inp_files/261382.got.cif
#   From: 2010.06.25/outbox.cif.g09.slc.cpg/sg15_131_cif.got.tgz:261382.got - 2010.06.28 07:06:18.
