data_PCOD8138347
_publ_section_title
;
Structure prediction by ZEFSAII (Michael W. Deem and Ramdas Pophale) SiO2 
 PCOD8138347
Probable space group: C 2/C
;
_chemical_formula_sum "Si O2"
_cell_formula_units_Z 64
_cell_length_a 18.917827
_cell_length_b 8.696653
_cell_length_c 19.214368
_cell_angle_alpha 90.000000
_cell_angle_beta 64.531740
_cell_angle_gamma 90.000000
_cell_volume 2853.989793
_symmetry_space_group_name_H-M "C 2/C"
_symmetry_group_IT_number 15
_symmetry_cell_setting 'monoclinic'
loop_
_space_group_symop_operation_xyz
x,y,z
-x,y,1/2-z
-x,-y,-z
x,-y,1/2+z
1/2+x,1/2+y,z
1/2-x,1/2+y,1/2-z
1/2-x,1/2-y,-z
1/2+x,1/2-y,1/2+z
loop_
_atom_site_type_symbol
_atom_site_label
_atom_site_fract_x
_atom_site_fract_y
_atom_site_fract_z
Si Si1 0.808301 0.213491 0.538637
Si Si2 0.931411 0.877834 0.893714
Si Si3 0.305332 0.618062 0.326152
Si Si4 0.324737 0.368291 0.586717
Si Si5 0.037159 0.585349 0.309514
Si Si6 0.904913 0.784237 0.421997
Si Si7 0.827771 0.220159 0.807096
Si Si8 0.909813 0.738649 0.675013
O O1 0.750000 0.250000 0.500000
O O2 0.897001 0.231653 0.471097
O O3 0.781936 0.328927 0.611822
O O4 0.806570 0.040230 0.569076
O O5 0.865472 0.883858 0.863660
O O6 0.010310 0.810668 0.828008
O O7 0.946919 0.050559 0.914590
O O8 0.303375 0.450154 0.291846
O O9 0.336513 0.739305 0.257014
O O10 0.344975 0.259589 0.511678
O O11 0.249446 0.321706 0.663416
O O12 0.396893 0.330714 0.608202
O O13 0.103887 0.714396 0.270647
O O14 0.075793 0.444037 0.334703
O O15 0.000000 0.538359 0.250000
O O16 0.971051 0.653344 0.388709
O O17 0.853158 0.782198 0.375717
#
# Coordination Sequence:
#
# PCOD8138347 Si02
#       8
#     8   8   8   8   8   8   8   8
#     4   9  20  39  64  90 115 152 206 257 300 354
#     4   9  19  38  61  87 117 156 205 254 302 359
#     4  10  20  37  63  89 115 159 208 253 305 361
#     4  11  24  39  57  89 127 160 194 246 314 372
#     4  10  21  38  62  88 115 158 212 262 304 357
#     4   9  20  39  62  84 112 153 204 257 306 357
#     4  10  21  39  63  86 115 154 204 259 303 356
#     4  12  24  36  56  88 127 162 196 246 306 372
#
# _framework density 22.424745999999999
#
# number of rings (size 3 to 8) (size 9 to 14) (size 15 to 20)
#    0.000    2.000    0.000    3.750    0.000   10.500 
#    0.000    2.500    0.000    0.000    0.000    0.000 
#    0.000    0.000    0.000    0.000    0.000    0.000 
#
# Total GULP energy -396478.752054 kJ/mol
# GULP energy per Si atom -12389.961002 kJ/mol
# Density = 2.237371 g / cm^3
# Si number density = 22.424746 Si / 1000 Ang^3
#
#
#
# Elastic Constant Matrix: (Units=GPa)
#
#
# Indices 1 2 3 4 5 6 
#
# 1 46.7316 39.2942 21.1516 0.0000 -3.1714 -0.0001
# 2 39.2942 121.6743 24.9889 -0.0001 8.0293 -0.0002
# 3 21.1516 24.9889 62.2905 0.0000 -9.9299 0.0000
# 4 0.0000 -0.0001 0.0000 37.8175 0.0000 -6.1523
# 5 -3.1714 8.0293 -9.9299 0.0000 14.6544 0.0000
# 6 -0.0001 -0.0002 0.0000 -6.1523 0.0000 29.0323
#
#
#
# Elastic Compliance Matrix: (Units=1/GPa)
#
#
# Indices 1 2 3 4 5 6 
#
# 1 0.033086 -0.010071 -0.005800 0.000000 0.008748 0.000000
# 2 -0.010071 0.013005 -0.003678 0.000000 -0.011797 0.000000
# 3 -0.005800 -0.003678 0.021996 0.000000 0.015665 0.000000
# 4 0.000000 0.000000 0.000000 0.027387 0.000000 0.005804
# 5 0.008748 -0.011797 0.015665 0.000000 0.087211 0.000000
# 6 0.000000 0.000000 0.000000 0.005804 0.000000 0.035674
#
#
# Mechanical properties :
#
#
# Convention : Reuss Voigt Hill
#
# Bulk Modulus (GPa) = 34.49636 44.61841 39.55738
# Shear Modulus (GPa) = 18.71820 25.98494 22.35157
#
# Velocity S-wave (km/s) = 2.89227 3.40775 3.16054
# Velocity P-wave (km/s) = 5.15463 5.95179 5.56750
#
# Compressibility (1/GPa) = 0.02898857
#
# Stress axis : x y z
#
# Youngs Moduli (GPa) = 30.22435 76.89379 45.46297
#
# Poissons Ratio (x) = 0.77440 0.26369
# Poissons Ratio (y) = 0.30439 0.16721
# Poissons Ratio (z) = 0.17530 0.28282
#
# Static dielectric constant tensor:
#      x y z
#    x 3.884920 0.000000 -0.148080 
#    y 0.000000 4.157860 0.000000 
#    z -0.148080 0.000000 4.296580 
# 
# 
# High freq. dielectric constant tensor:
#      x y z
#    x 1.863690 0.000000 -0.015820 
#    y 0.000000 1.876510 0.000000 
#    z -0.015820 0.000000 1.891970 
# 
# From -- ./inp_files/251886.got.cif
#   From: 2010.06.25/outbox.cif.g09.slc.cpg/sg15_126_cif.got.tgz:251886.got - 2010.06.28 07:06:18.
