data_PCOD8138310
_publ_section_title
;
Structure prediction by ZEFSAII (Michael W. Deem and Ramdas Pophale) SiO2 
 PCOD8138310
Probable space group: C 2/C
;
_chemical_formula_sum "Si O2"
_cell_formula_units_Z 48
_cell_length_a 7.254129
_cell_length_b 15.373973
_cell_length_c 25.565004
_cell_angle_alpha 90.000000
_cell_angle_beta 134.106611
_cell_angle_gamma 90.000000
_cell_volume 2047.243582
_symmetry_space_group_name_H-M "C 2/C"
_symmetry_group_IT_number 15
_symmetry_cell_setting 'monoclinic'
loop_
_space_group_symop_operation_xyz
x,y,z
-x,y,1/2-z
-x,-y,-z
x,-y,1/2+z
1/2+x,1/2+y,z
1/2-x,1/2+y,1/2-z
1/2-x,1/2-y,-z
1/2+x,1/2-y,1/2+z
loop_
_atom_site_type_symbol
_atom_site_label
_atom_site_fract_x
_atom_site_fract_y
_atom_site_fract_z
Si Si1 0.564576 0.038977 0.583665
Si Si2 0.317964 0.107060 0.167758
Si Si3 0.097106 0.968896 0.445452
Si Si4 0.255628 0.872249 0.832807
Si Si5 0.477994 0.283989 0.081042
Si Si6 0.197425 0.797991 0.334482
O O1 0.261540 0.009989 0.526407
O O2 0.586614 0.126129 0.623472
O O3 0.668238 0.061191 0.546280
O O4 0.761619 0.962880 0.640016
O O5 0.500000 0.072858 0.250000
O O6 0.487087 0.117654 0.150015
O O7 0.192512 0.201383 0.157071
O O8 0.092021 0.039237 0.115709
O O9 0.945016 0.878992 0.427673
O O10 0.294285 0.787977 0.878195
O O11 0.000000 0.856515 0.750000
O O12 0.430529 0.295856 0.133661
O O13 0.250000 0.250000 0.000000
O O14 0.000000 0.824199 0.250000
#
# Coordination Sequence:
#
# PCOD8138310 Si02
#       6
#     8   8   8   8   8   8
#     4  10  20  37  62  92 121 163 207 249 308 378
#     4  10  22  40  58  86 126 160 203 260 307 367
#     4  10  21  38  63  90 127 159 203 258 312 365
#     4  11  22  38  63  88 119 164 209 255 311 370
#     4  10  20  40  62  90 125 161 207 256 307 372
#     4   9  20  38  60  85 128 164 203 256 308 370
#
# _framework density 23.446161
#
# number of rings (size 3 to 8) (size 9 to 14) (size 15 to 20)
#    0.000    2.000    1.667    1.500    0.000    3.333 
#    0.000    6.667    0.000    0.000    0.000    0.000 
#    0.000    0.000    0.000    0.000    0.000    0.000 
#
# Total GULP energy -297326.060887 kJ/mol
# GULP energy per Si atom -12388.585870 kJ/mol
# Density = 2.339280 g / cm^3
# Si number density = 23.446161 Si / 1000 Ang^3
#
#
#
# Elastic Constant Matrix: (Units=GPa)
#
#
# Indices 1 2 3 4 5 6 
#
# 1 29.2110 -0.3441 6.0399 0.0001 5.4772 0.0001
# 2 -0.3441 207.0285 95.0814 0.0000 28.0136 0.0000
# 3 6.0399 95.0814 178.8039 0.0001 16.8002 0.0002
# 4 0.0001 0.0000 0.0001 54.8497 0.0001 6.6288
# 5 5.4772 28.0136 16.8002 0.0001 35.6398 0.0001
# 6 0.0001 0.0000 0.0002 6.6288 0.0001 16.2904
#
#
#
# Elastic Compliance Matrix: (Units=1/GPa)
#
#
# Indices 1 2 3 4 5 6 
#
# 1 0.035680 0.001543 -0.001462 0.000000 -0.006008 0.000000
# 2 0.001543 0.006926 -0.003350 0.000000 -0.004102 0.000000
# 3 -0.001462 -0.003350 0.007487 0.000000 -0.000671 0.000000
# 4 0.000000 0.000000 0.000000 0.019175 0.000000 -0.007802
# 5 -0.006008 -0.004102 -0.000671 0.000000 0.032523 0.000000
# 6 0.000000 0.000000 0.000000 -0.007802 0.000000 0.064561
#
#
# Mechanical properties :
#
#
# Convention : Reuss Voigt Hill
#
# Bulk Modulus (GPa) = 22.95816 68.51088 45.73452
# Shear Modulus (GPa) = 26.67996 42.30706 34.49351
#
# Velocity S-wave (km/s) = 3.37697 4.25247 3.83976
# Velocity P-wave (km/s) = 5.00184 7.30721 6.26154
#
# Compressibility (1/GPa) = 0.04355749
#
# Stress axis : x y z
#
# Youngs Moduli (GPa) = 28.02652 144.37462 133.57335
#
# Poissons Ratio (x) = -0.22284 0.19522
# Poissons Ratio (y) = -0.04326 0.44746
# Poissons Ratio (z) = 0.04096 0.48364
#
# Static dielectric constant tensor:
#      x y z
#    x 3.867110 0.000000 -0.121480 
#    y 0.000000 5.097520 0.000000 
#    z -0.121480 0.000000 4.317230 
# 
# 
# High freq. dielectric constant tensor:
#      x y z
#    x 1.885140 0.000000 -0.010570 
#    y 0.000000 1.955520 0.000000 
#    z -0.010570 0.000000 1.938670 
# 
# From -- ./inp_files/289086.got.cif
#   From: 2010.06.25/outbox.cif.g09.slc.cpg/sg15_145_cif.got.tgz:289086.got - 2010.06.28 07:06:18.
