data_PCOD8138262
_publ_section_title
;
Structure prediction by ZEFSAII (Michael W. Deem and Ramdas Pophale) SiO2 
 PCOD8138262
Probable space group: C 2/C
;
_chemical_formula_sum "Si O2"
_cell_formula_units_Z 32
_cell_length_a 8.860522
_cell_length_b 10.563247
_cell_length_c 22.198124
_cell_angle_alpha 90.000000
_cell_angle_beta 133.037989
_cell_angle_gamma 90.000000
_cell_volume 1518.559393
_symmetry_space_group_name_H-M "C 2/C"
_symmetry_group_IT_number 15
_symmetry_cell_setting 'monoclinic'
loop_
_space_group_symop_operation_xyz
x,y,z
-x,y,1/2-z
-x,-y,-z
x,-y,1/2+z
1/2+x,1/2+y,z
1/2-x,1/2+y,1/2-z
1/2-x,1/2-y,-z
1/2+x,1/2-y,1/2+z
loop_
_atom_site_type_symbol
_atom_site_label
_atom_site_fract_x
_atom_site_fract_y
_atom_site_fract_z
Si Si1 0.075662 0.017822 0.838834
Si Si2 0.155331 0.242517 0.408493
Si Si3 0.722977 0.238728 0.341053
Si Si4 0.278071 0.961295 0.160996
O O1 0.228023 0.140389 0.887215
O O2 0.000000 0.997123 0.750000
O O3 0.883037 0.045493 0.829005
O O4 0.205412 0.894084 0.893266
O O5 0.250000 0.250000 0.500000
O O6 0.262854 0.352651 0.399018
O O7 0.906648 0.257913 0.342620
O O8 0.500000 0.245393 0.250000
O O9 0.743051 0.099818 0.377268
O O10 0.500000 0.940332 0.250000
#
# Coordination Sequence:
#
# PCOD8138262 Si02
#       4
#     8   8   8   8
#     4  10  21  37  60  88 114 150 201 243 285 346
#     4  11  24  39  58  89 124 155 190 238 296 350
#     4   9  20  38  59  85 114 150 197 239 283 342
#     4  10  20  37  62  85 114 153 196 243 288 342
#
# _framework density 21.072603999999998
#
# number of rings (size 3 to 8) (size 9 to 14) (size 15 to 20)
#    0.000    2.000    0.000    3.750    0.000   13.000 
#    0.000    2.500    0.000    0.000    0.000    0.000 
#    0.000    0.000    0.000    0.000    0.000    0.000 
#
# Total GULP energy -198269.894959 kJ/mol
# GULP energy per Si atom -12391.868435 kJ/mol
# Density = 2.102464 g / cm^3
# Si number density = 21.072604 Si / 1000 Ang^3
#
#
#
# Elastic Constant Matrix: (Units=GPa)
#
#
# Indices 1 2 3 4 5 6 
#
# 1 102.9818 76.5363 32.7889 0.0000 -15.9997 0.0000
# 2 76.5363 235.6227 45.8236 0.0000 -34.8726 0.0000
# 3 32.7889 45.8236 69.5767 0.0000 -27.5341 0.0000
# 4 0.0000 0.0000 0.0000 9.6080 0.0000 -12.2142
# 5 -15.9997 -34.8726 -27.5341 0.0000 30.0025 0.0000
# 6 0.0000 0.0000 0.0000 -12.2142 0.0000 40.3725
#
#
#
# Elastic Compliance Matrix: (Units=1/GPa)
#
#
# Indices 1 2 3 4 5 6 
#
# 1 0.013752 -0.003769 -0.004444 0.000000 -0.001126 0.000000
# 2 -0.003769 0.006275 -0.000417 0.000000 0.004901 0.000000
# 3 -0.004444 -0.000417 0.024515 0.000000 0.019644 0.000000
# 4 0.000000 0.000000 0.000000 0.169125 0.000000 0.051167
# 5 -0.001126 0.004901 0.019644 0.000000 0.056454 0.000000
# 6 0.000000 0.000000 0.000000 0.051167 0.000000 0.040249
#
#
# Mechanical properties :
#
#
# Convention : Reuss Voigt Hill
#
# Bulk Modulus (GPa) = 36.65429 79.83096 58.24262
# Shear Modulus (GPa) = 14.84895 32.86543 23.85719
#
# Velocity S-wave (km/s) = 2.65742 3.95350 3.36838
# Velocity P-wave (km/s) = 5.18149 7.66852 6.54424
#
# Compressibility (1/GPa) = 0.02728194
#
# Stress axis : x y z
#
# Youngs Moduli (GPa) = 72.71781 159.36656 40.79103
#
# Poissons Ratio (x) = 0.60071 0.18126
# Poissons Ratio (y) = 0.27410 0.01701
# Poissons Ratio (z) = 0.32313 0.06644
#
# Static dielectric constant tensor:
#      x y z
#    x 4.019550 0.000000 0.044190 
#    y 0.000000 4.893380 0.000000 
#    z 0.044190 0.000000 3.329080 
# 
# 
# High freq. dielectric constant tensor:
#      x y z
#    x 1.827720 0.000000 0.008670 
#    y 0.000000 1.862480 0.000000 
#    z 0.008670 0.000000 1.778830 
# 
# From -- ./inp_files/131736.got.cif
#   From: 2010.06.25/outbox.cif.g09.slc.cpg/sg15_66_cif.got.tgz:131736.got - 2010.06.28 07:06:18.
