data_PCOD8138849
_publ_section_title
;
Structure prediction by ZEFSAII (Michael W. Deem and Ramdas Pophale) SiO2 
 PCOD8138849
Probable space group: C 2/C
;
_chemical_formula_sum "Si O2"
_cell_formula_units_Z 56
_cell_length_a 14.244103
_cell_length_b 11.431803
_cell_length_c 31.430140
_cell_angle_alpha 90.000000
_cell_angle_beta 32.718677
_cell_angle_gamma 90.000000
_cell_volume 2766.327441
_symmetry_space_group_name_H-M "C 2/C"
_symmetry_group_IT_number 15
_symmetry_cell_setting 'monoclinic'
loop_
_space_group_symop_operation_xyz
x,y,z
-x,y,1/2-z
-x,-y,-z
x,-y,1/2+z
1/2+x,1/2+y,z
1/2-x,1/2+y,1/2-z
1/2-x,1/2-y,-z
1/2+x,1/2-y,1/2+z
loop_
_atom_site_type_symbol
_atom_site_label
_atom_site_fract_x
_atom_site_fract_y
_atom_site_fract_z
Si Si1 0.654382 0.673153 0.942913
Si Si2 0.635869 0.344087 0.066893
Si Si3 0.885506 0.474457 0.753821
Si Si4 0.469944 0.898174 0.977553
Si Si5 0.464992 0.238329 0.716932
Si Si6 0.619519 0.850651 0.829430
Si Si7 0.043594 0.977222 0.921200
O O1 0.544242 0.775449 0.964328
O O2 0.649024 0.557059 0.915402
O O3 0.850726 0.718640 0.877485
O O4 0.559723 0.634913 0.022059
O O5 0.461015 0.278737 0.147932
O O6 0.598347 0.449227 0.049549
O O7 0.750000 0.250000 0.000000
O O8 0.759237 0.393237 0.057201
O O9 0.872282 0.614180 0.757996
O O10 0.948938 0.428752 0.683758
O O11 0.690717 0.425530 0.834243
O O12 0.000000 0.428984 0.750000
O O13 0.555510 0.915159 0.897574
O O14 0.500000 0.000000 0.000000
O O15 0.500000 0.292284 0.750000
O O16 0.329016 0.329698 0.747630
#
# Coordination Sequence:
#
# PCOD8138849 Si02
#       7
#     8   8   8   8   8   8   8
#     4  11  22  38  69  94 124 170 219 268 316 384
#     4  10  20  38  62  87 125 168 208 250 325 394
#     4  11  23  39  65  95 124 165 220 274 314 376
#     4  11  24  42  62  95 134 170 208 256 337 396
#     4  11  19  42  64  89 126 170 218 253 320 396
#     4  11  23  42  65  89 128 177 212 261 326 391
#     4  11  21  39  65  99 119 164 228 272 310 376
#
# _framework density 20.243445999999999
#
# number of rings (size 3 to 8) (size 9 to 14) (size 15 to 20)
#    0.000    1.143    8.571    0.000    6.000    1.143 
#    2.571    1.429    0.000    0.000    0.000    0.000 
#    0.000    0.000    0.000    0.000    0.000    0.000 
#
# Total GULP energy -346938.784115 kJ/mol
# GULP energy per Si atom -12390.670861 kJ/mol
# Density = 2.019737 g / cm^3
# Si number density = 20.243446 Si / 1000 Ang^3
#
#
#
# Elastic Constant Matrix: (Units=GPa)
#
#
# Indices 1 2 3 4 5 6 
#
# 1 121.4200 36.5211 45.4993 -0.0003 -2.9488 0.0001
# 2 36.5211 35.0420 21.5337 -0.0013 13.4019 0.0004
# 3 45.4993 21.5337 100.7497 -0.0028 -3.8552 -0.0004
# 4 -0.0003 -0.0013 -0.0028 23.6709 -0.0002 2.5067
# 5 -2.9488 13.4019 -3.8552 -0.0002 37.6292 0.0000
# 6 0.0001 0.0004 -0.0004 2.5067 0.0000 30.0497
#
#
#
# Elastic Compliance Matrix: (Units=1/GPa)
#
#
# Indices 1 2 3 4 5 6 
#
# 1 0.014051 -0.015294 -0.002837 -0.000001 0.006257 0.000000
# 2 -0.015294 0.056582 -0.006027 0.000002 -0.021968 -0.000001
# 3 -0.002837 -0.006027 0.012618 0.000001 0.003217 0.000000
# 4 -0.000001 0.000002 0.000001 0.042623 -0.000001 -0.003555
# 5 0.006257 -0.021968 0.003217 -0.000001 0.035219 0.000000
# 6 0.000000 -0.000001 0.000000 -0.003555 0.000000 0.033575
#
#
# Mechanical properties :
#
#
# Convention : Reuss Voigt Hill
#
# Bulk Modulus (GPa) = 28.62490 51.59109 40.10799
# Shear Modulus (GPa) = 19.63629 28.51379 24.07504
#
# Velocity S-wave (km/s) = 3.11787 3.75713 3.45233
# Velocity P-wave (km/s) = 5.20889 6.66048 5.97890
#
# Compressibility (1/GPa) = 0.03493462
#
# Stress axis : x y z
#
# Youngs Moduli (GPa) = 71.16810 17.67335 79.24985
#
# Poissons Ratio (x) = 0.27030 0.22486
# Poissons Ratio (y) = 1.08844 0.47767
# Poissons Ratio (z) = 0.20193 0.10652
#
# Static dielectric constant tensor:
#      x y z
#    x 4.431810 -0.000030 -0.590240 
#    y -0.000030 3.527500 0.000020 
#    z -0.590240 0.000020 4.167610 
# 
# 
# High freq. dielectric constant tensor:
#      x y z
#    x 1.793420 0.000000 -0.022590 
#    y 0.000000 1.761700 0.000000 
#    z -0.022590 0.000000 1.790670 
# 
# From -- ./inp_files/313701.got.cif
#   From: 2010.06.25/outbox.cif.g09.slc.cpg/sg15_157_cif.got.tgz:313701.got - 2010.06.28 07:06:18.
