data_PCOD8138261
_publ_section_title
;
Structure prediction by ZEFSAII (Michael W. Deem and Ramdas Pophale) SiO2 
 PCOD8138261
Probable space group: C 2/C
;
_chemical_formula_sum "Si O2"
_cell_formula_units_Z 64
_cell_length_a 8.748162
_cell_length_b 21.690474
_cell_length_c 16.070112
_cell_angle_alpha 90.000000
_cell_angle_beta 89.158699
_cell_angle_gamma 90.000000
_cell_volume 3049.003645
_symmetry_space_group_name_H-M "C 2/C"
_symmetry_group_IT_number 15
_symmetry_cell_setting 'monoclinic'
loop_
_space_group_symop_operation_xyz
x,y,z
-x,y,1/2-z
-x,-y,-z
x,-y,1/2+z
1/2+x,1/2+y,z
1/2-x,1/2+y,1/2-z
1/2-x,1/2-y,-z
1/2+x,1/2-y,1/2+z
loop_
_atom_site_type_symbol
_atom_site_label
_atom_site_fract_x
_atom_site_fract_y
_atom_site_fract_z
Si Si1 0.862334 0.079620 0.935165
Si Si2 0.307828 0.594102 0.618254
Si Si3 0.819355 0.215250 0.241181
Si Si4 0.150459 0.594902 0.207265
Si Si5 0.315635 0.267667 0.090279
Si Si6 0.860032 0.517860 0.445105
Si Si7 0.661908 0.484816 0.231315
Si Si8 0.821833 0.219929 0.917135
O O1 0.808938 0.036192 0.861341
O O2 0.791989 0.147365 0.925289
O O3 0.045018 0.083938 0.942201
O O4 0.794862 0.043981 0.013777
O O5 0.252981 0.664087 0.611058
O O6 0.174044 0.547637 0.595933
O O7 0.346414 0.577771 0.713221
O O8 0.782093 0.146270 0.209489
O O9 0.743955 0.225490 0.333024
O O10 0.757329 0.259952 0.168862
O O11 0.000000 0.223527 0.250000
O O12 0.097041 0.573893 0.116296
O O13 0.204116 0.532381 0.251136
O O14 0.000000 0.623472 0.250000
O O15 0.498837 0.263652 0.087875
O O16 0.250000 0.250000 0.000000
O O17 0.000000 0.500000 0.500000
O O18 0.500000 0.519166 0.250000
O O19 0.750000 0.250000 0.000000
#
# Coordination Sequence:
#
# PCOD8138261 Si02
#       8
#     8   8   8   8   8   8   8   8
#     4  10  20  37  62  85 113 153 195 241 300 366
#     4   9  21  39  59  84 117 154 196 240 297 371
#     4  12  26  43  64  92 126 170 218 267 321 383
#     4  11  23  40  59  85 121 158 199 252 312 372
#     4  11  24  42  65  93 125 168 213 261 318 381
#     4  11  23  37  59  91 123 155 198 254 313 369
#     4   9  18  36  60  84 110 147 191 238 293 360
#     4  11  23  42  65  92 126 165 210 261 318 382
#
# _framework density 20.990462999999998
#
# number of rings (size 3 to 8) (size 9 to 14) (size 15 to 20)
#    0.000    1.500    0.000    4.875    0.000    8.000 
#    0.000    3.125    0.000    0.000    0.000    0.000 
#    0.000    0.000    0.000    0.000    0.000    0.000 
#
# Total GULP energy -396637.590713 kJ/mol
# GULP energy per Si atom -12394.924710 kJ/mol
# Density = 2.094269 g / cm^3
# Si number density = 20.990463 Si / 1000 Ang^3
#
#
#
# Elastic Constant Matrix: (Units=GPa)
#
#
# Indices 1 2 3 4 5 6 
#
# 1 94.9005 19.6014 30.8511 0.0000 8.7721 0.0000
# 2 19.6014 96.3357 16.9371 0.0000 8.1974 0.0000
# 3 30.8511 16.9371 103.1856 0.0000 7.8441 0.0000
# 4 0.0000 0.0000 0.0000 6.3155 0.0000 8.8173
# 5 8.7721 8.1974 7.8441 0.0000 39.2464 0.0000
# 6 0.0000 0.0000 0.0000 8.8173 0.0000 26.1902
#
#
#
# Elastic Compliance Matrix: (Units=1/GPa)
#
#
# Indices 1 2 3 4 5 6 
#
# 1 0.012097 -0.001754 -0.003200 0.000000 -0.001698 0.000000
# 2 -0.001754 0.011086 -0.001167 0.000000 -0.001690 0.000000
# 3 -0.003200 -0.001167 0.010933 0.000000 -0.001226 0.000000
# 4 0.000000 0.000000 0.000000 0.298775 0.000000 -0.100587
# 5 -0.001698 -0.001690 -0.001226 0.000000 0.026458 0.000000
# 6 0.000000 0.000000 0.000000 -0.100587 0.000000 0.072046
#
#
# Mechanical properties :
#
#
# Convention : Reuss Voigt Hill
#
# Bulk Modulus (GPa) = 45.71590 47.68899 46.70245
# Shear Modulus (GPa) = 11.08827 29.48590 20.28708
#
# Velocity S-wave (km/s) = 2.30087 3.75204 3.11222
# Velocity P-wave (km/s) = 5.37451 6.44508 5.93399
#
# Compressibility (1/GPa) = 0.02187423
#
# Stress axis : x y z
#
# Youngs Moduli (GPa) = 82.66618 90.20166 91.46880
#
# Poissons Ratio (x) = 0.15824 0.29268
# Poissons Ratio (y) = 0.14502 0.10672
# Poissons Ratio (z) = 0.26451 0.10524
#
# Static dielectric constant tensor:
#      x y z
#    x 3.793990 0.000000 0.018960 
#    y 0.000000 3.824120 0.000000 
#    z 0.018960 0.000000 3.963400 
# 
# 
# High freq. dielectric constant tensor:
#      x y z
#    x 1.824040 0.000000 -0.000630 
#    y 0.000000 1.829130 0.000000 
#    z -0.000630 0.000000 1.831430 
# 
# From -- ./inp_files/137838.got.cif
#   From: 2010.06.25/outbox.cif.g09.slc.cpg/sg15_69_cif.got.tgz:137838.got - 2010.06.28 07:06:18.
