data_PCOD8138064
_publ_section_title
;
Structure prediction by ZEFSAII (Michael W. Deem and Ramdas Pophale) SiO2 
 PCOD8138064
Probable space group: C 2/C
;
_chemical_formula_sum "Si O2"
_cell_formula_units_Z 56
_cell_length_a 12.166606
_cell_length_b 29.361580
_cell_length_c 9.214097
_cell_angle_alpha 90.000000
_cell_angle_beta 58.167260
_cell_angle_gamma 90.000000
_cell_volume 2796.480367
_symmetry_space_group_name_H-M "C 2/C"
_symmetry_group_IT_number 15
_symmetry_cell_setting 'monoclinic'
loop_
_space_group_symop_operation_xyz
x,y,z
-x,y,1/2-z
-x,-y,-z
x,-y,1/2+z
1/2+x,1/2+y,z
1/2-x,1/2+y,1/2-z
1/2-x,1/2-y,-z
1/2+x,1/2-y,1/2+z
loop_
_atom_site_type_symbol
_atom_site_label
_atom_site_fract_x
_atom_site_fract_y
_atom_site_fract_z
Si Si1 0.012706 0.547005 0.905877
Si Si2 0.255108 0.576088 0.373072
Si Si3 0.219823 0.910894 0.314297
Si Si4 0.907828 0.994429 0.192281
Si Si5 0.650136 0.237626 0.199377
Si Si6 0.882925 0.185522 0.541678
Si Si7 0.826870 0.173842 0.251244
O O1 0.135738 0.579629 0.844063
O O2 0.000000 0.531020 0.750000
O O3 0.000000 0.500000 0.000000
O O4 0.898674 0.581656 0.029549
O O5 0.299647 0.571354 0.508661
O O6 0.287880 0.529344 0.265860
O O7 0.321904 0.619183 0.251585
O O8 0.135317 0.941993 0.265026
O O9 0.174325 0.858907 0.337433
O O10 0.000000 0.012008 0.250000
O O11 0.000000 0.000000 0.000000
O O12 0.500000 0.230676 0.250000
O O13 0.657716 0.274897 0.321015
O O14 0.707055 0.192825 0.239928
O O15 0.750000 0.250000 0.000000
O O16 0.820269 0.191120 0.424210
O O17 0.037877 0.186336 0.418903
#
# Coordination Sequence:
#
# PCOD8138064 Si02
#       7
#     8   8   8   8   8   8   8
#     4  10  20  37  58  83 122 165 207 257 310 363
#     4  10  21  39  62  88 122 163 213 266 308 372
#     4  10  21  39  62  90 124 166 214 264 312 372
#     4  12  22  34  57  89 125 165 210 257 314 377
#     4  12  25  46  69  99 141 170 208 276 347 404
#     4  10  22  43  70  99 128 171 223 272 324 398
#     4  10  22  43  71  95 127 174 224 268 324 399
#
# _framework density 20.025172000000001
#
# number of rings (size 3 to 8) (size 9 to 14) (size 15 to 20)
#    0.000    1.429    4.286    1.286    2.000    1.714 
#    2.571    2.143    0.000    0.000    0.000    0.000 
#    0.000    0.000    0.000    0.000    0.000    0.000 
#
# Total GULP energy -346867.374927 kJ/mol
# GULP energy per Si atom -12388.120533 kJ/mol
# Density = 1.997959 g / cm^3
# Si number density = 20.025172 Si / 1000 Ang^3
#
#
#
# Elastic Constant Matrix: (Units=GPa)
#
#
# Indices 1 2 3 4 5 6 
#
# 1 110.2842 34.5785 36.0218 0.0000 -11.2839 0.0000
# 2 34.5785 92.8532 35.6576 0.0000 -0.0962 0.0000
# 3 36.0218 35.6576 101.2128 0.0000 -11.2720 0.0000
# 4 0.0000 0.0000 0.0000 39.8528 0.0000 -1.8632
# 5 -11.2839 -0.0962 -11.2720 0.0000 25.0510 0.0000
# 6 0.0000 0.0000 0.0000 -1.8632 0.0000 32.3989
#
#
#
# Elastic Compliance Matrix: (Units=1/GPa)
#
#
# Indices 1 2 3 4 5 6 
#
# 1 0.011292 -0.003271 -0.002423 0.000000 0.003983 0.000000
# 2 -0.003271 0.013501 -0.003948 0.000000 -0.003198 0.000000
# 3 -0.002423 -0.003948 0.012644 0.000000 0.004583 0.000000
# 4 0.000000 0.000000 0.000000 0.025160 0.000000 0.001447
# 5 0.003983 -0.003198 0.004583 0.000000 0.043763 0.000000
# 6 0.000000 0.000000 0.000000 0.001447 0.000000 0.030948
#
#
# Mechanical properties :
#
#
# Convention : Reuss Voigt Hill
#
# Bulk Modulus (GPa) = 55.08864 57.42956 56.25910
# Shear Modulus (GPa) = 30.74230 32.66668 31.70449
#
# Velocity S-wave (km/s) = 3.92239 4.04329 3.98330
# Velocity P-wave (km/s) = 6.93419 7.10905 7.02216
#
# Compressibility (1/GPa) = 0.01815256
#
# Stress axis : x y z
#
# Youngs Moduli (GPa) = 88.55905 74.07066 79.08917
#
# Poissons Ratio (x) = 0.24225 0.19163
# Poissons Ratio (y) = 0.28963 0.31228
# Poissons Ratio (z) = 0.21457 0.29247
#
# Static dielectric constant tensor:
#      x y z
#    x 3.761620 0.000000 -0.163290 
#    y 0.000000 3.943810 0.000000 
#    z -0.163290 0.000000 3.801850 
# 
# 
# High freq. dielectric constant tensor:
#      x y z
#    x 1.784580 0.000000 -0.013400 
#    y 0.000000 1.773110 0.000000 
#    z -0.013400 0.000000 1.790350 
# 
# From -- ./inp_files/35579.got.cif
#   From: 2010.06.25/outbox.cif.g09.slc.cpg/sg15_18_cif.got.tgz:35579.got - 2010.06.28 07:06:18.
