data_PCOD8138628
_publ_section_title
;
Structure prediction by ZEFSAII (Michael W. Deem and Ramdas Pophale) SiO2 
 PCOD8138628
Probable space group: C 2/C
;
_chemical_formula_sum "Si O2"
_cell_formula_units_Z 60
_cell_length_a 27.033177
_cell_length_b 6.752704
_cell_length_c 23.948067
_cell_angle_alpha 90.000000
_cell_angle_beta 131.817767
_cell_angle_gamma 90.000000
_cell_volume 3258.055543
_symmetry_space_group_name_H-M "C 2/C"
_symmetry_group_IT_number 15
_symmetry_cell_setting 'monoclinic'
loop_
_space_group_symop_operation_xyz
x,y,z
-x,y,1/2-z
-x,-y,-z
x,-y,1/2+z
1/2+x,1/2+y,z
1/2-x,1/2+y,1/2-z
1/2-x,1/2-y,-z
1/2+x,1/2-y,1/2+z
loop_
_atom_site_type_symbol
_atom_site_label
_atom_site_fract_x
_atom_site_fract_y
_atom_site_fract_z
Si Si1 0.998350 0.498877 0.895221
Si Si2 0.000000 0.957434 0.750000
Si Si3 0.675978 0.156514 0.386702
Si Si4 0.101411 0.691297 0.889330
Si Si5 0.068270 0.148393 0.997070
Si Si6 0.441537 0.397994 0.886228
Si Si7 0.414746 0.323106 0.272911
Si Si8 0.677173 0.449434 0.490572
O O1 0.055298 0.589101 0.899832
O O2 0.034870 0.367338 0.970382
O O3 0.950751 0.666146 0.883958
O O4 0.945523 0.371505 0.822093
O O5 0.026571 0.093628 0.720974
O O6 0.060030 0.828122 0.817232
O O7 0.650215 0.259082 0.310471
O O8 0.672403 0.324531 0.430664
O O9 0.748762 0.068965 0.429885
O O10 0.631767 0.973358 0.372231
O O11 0.158053 0.822318 0.963011
O O12 0.090207 0.083626 0.075935
O O13 0.130357 0.142729 0.002662
O O14 0.014398 0.992003 0.935208
O O15 0.395497 0.511151 0.805747
#
# Coordination Sequence:
#
# PCOD8138628 Si02
#       8
#     8   4   8   8   8   8   8   8
#     4  11  19  34  59  87 115 144 186 241 298 342
#     4  12  20  34  56  82 124 148 174 248 292 348
#     4  11  24  37  57  82 120 156 193 232 279 351
#     4  12  20  35  56  87 116 150 189 231 300 343
#     4  10  20  38  59  86 116 145 191 240 288 337
#     4  10  21  36  60  86 116 148 183 244 292 340
#     4  11  22  36  53  86 119 151 189 233 294 340
#     4  11  22  40  58  82 117 156 193 235 279 342
#
# _framework density 18.415893000000001
#
# number of rings (size 3 to 8) (size 9 to 14) (size 15 to 20)
#    0.000    1.067    5.333    3.200    0.000    0.000 
#    0.000    0.000    2.933    0.000    0.000    0.000 
#    0.000    0.000    0.000    0.000    0.000    0.000 
#
# Total GULP energy -371968.682246 kJ/mol
# GULP energy per Si atom -12398.956075 kJ/mol
# Density = 1.837398 g / cm^3
# Si number density = 18.415893 Si / 1000 Ang^3
#
#
#
# Elastic Constant Matrix: (Units=GPa)
#
#
# Indices 1 2 3 4 5 6 
#
# 1 26.4357 -13.7030 21.6586 0.0003 -6.0421 0.0024
# 2 -13.7030 65.9781 11.1306 0.0065 -7.4054 -0.0021
# 3 21.6586 11.1306 86.8925 0.0015 -12.0473 0.0022
# 4 0.0003 0.0065 0.0015 28.7200 -0.0009 -3.3923
# 5 -6.0421 -7.4054 -12.0473 -0.0009 24.7712 0.0014
# 6 0.0024 -0.0021 0.0022 -3.3923 0.0014 23.4979
#
#
#
# Elastic Compliance Matrix: (Units=1/GPa)
#
#
# Indices 1 2 3 4 5 6 
#
# 1 0.062815 0.017180 -0.016108 -0.000004 0.012624 -0.000005
# 2 0.017180 0.020556 -0.005879 -0.000004 0.007477 0.000000
# 3 -0.016108 -0.005879 0.016608 0.000001 0.002391 0.000000
# 4 -0.000004 -0.000004 0.000001 0.035423 -0.000001 0.005114
# 5 0.012624 0.007477 0.002391 -0.000001 0.046847 -0.000004
# 6 -0.000005 0.000000 0.000000 0.005114 -0.000004 0.043295
#
#
# Mechanical properties :
#
#
# Convention : Reuss Voigt Hill
#
# Bulk Modulus (GPa) = 11.06600 24.16430 17.61515
# Shear Modulus (GPa) = 18.84812 26.07915 22.46364
#
# Velocity S-wave (km/s) = 3.20264 3.76722 3.49635
# Velocity P-wave (km/s) = 4.43823 5.66326 5.08775
#
# Compressibility (1/GPa) = 0.09036685
#
# Stress axis : x y z
#
# Youngs Moduli (GPa) = 15.91967 48.64829 60.21209
#
# Poissons Ratio (x) = -0.83580 0.96988
# Poissons Ratio (y) = -0.27351 0.35398
# Poissons Ratio (z) = 0.25643 0.28600
#
# Static dielectric constant tensor:
#      x y z
#    x 3.228430 0.000000 -0.094060 
#    y 0.000000 3.749100 0.000000 
#    z -0.094060 0.000000 3.474010 
# 
# 
# High freq. dielectric constant tensor:
#      x y z
#    x 1.692160 0.000000 -0.014540 
#    y 0.000000 1.735630 0.000000 
#    z -0.014540 0.000000 1.707930 
# 
# From -- ./inp_files/256759.got.cif
#   From: 2010.06.25/outbox.cif.g09.slc.cpg/sg15_129_cif.got.tgz:256759.got - 2010.06.28 07:06:18.
