data_PCOD8138706
_publ_section_title
;
Structure prediction by ZEFSAII (Michael W. Deem and Ramdas Pophale) SiO2 
 PCOD8138706
Probable space group: C 2/C
;
_chemical_formula_sum "Si O2"
_cell_formula_units_Z 56
_cell_length_a 9.170300
_cell_length_b 10.440632
_cell_length_c 29.437520
_cell_angle_alpha 90.000000
_cell_angle_beta 105.457044
_cell_angle_gamma 90.000000
_cell_volume 2716.515789
_symmetry_space_group_name_H-M "C 2/C"
_symmetry_group_IT_number 15
_symmetry_cell_setting 'monoclinic'
loop_
_space_group_symop_operation_xyz
x,y,z
-x,y,1/2-z
-x,-y,-z
x,-y,1/2+z
1/2+x,1/2+y,z
1/2-x,1/2+y,1/2-z
1/2-x,1/2-y,-z
1/2+x,1/2-y,1/2+z
loop_
_atom_site_type_symbol
_atom_site_label
_atom_site_fract_x
_atom_site_fract_y
_atom_site_fract_z
Si Si1 0.000000 0.675321 0.250000
Si Si2 0.770344 0.623023 0.472631
Si Si3 0.959161 0.274291 0.909239
Si Si4 0.763621 0.622732 0.031385
Si Si5 0.289654 0.466344 0.812321
Si Si6 0.040344 0.033474 0.085060
Si Si7 0.714289 0.250484 0.190751
Si Si8 0.500000 0.394187 0.750000
O O1 0.870475 0.596692 0.212986
O O2 0.907142 0.758795 0.278391
O O3 0.750000 0.750000 0.500000
O O4 0.904828 0.657365 0.450262
O O5 0.816667 0.499817 0.506407
O O6 0.626934 0.590978 0.428920
O O7 0.861991 0.321305 0.858097
O O8 0.123985 0.338723 0.918102
O O9 0.966022 0.120700 0.914200
O O10 0.609414 0.581560 0.043190
O O11 0.750000 0.750000 0.000000
O O12 0.371084 0.407821 0.863798
O O13 0.243637 0.608679 0.821387
O O14 0.410030 0.473511 0.780721
O O15 0.873776 0.189568 0.215201
#
# Coordination Sequence:
#
# PCOD8138706 Si02
#       8
#     4   8   8   8   8   8   8   4
#     4  10  20  38  60  90 114 156 200 234 298 358
#     4  12  23  41  65  87 123 162 203 250 303 356
#     4  11  23  40  60  91 122 159 203 253 300 357
#     4  12  23  41  65  87 123 162 203 250 303 356
#     4  10  21  37  62  85 123 154 192 246 299 353
#     4  11  23  41  59  91 124 160 199 254 304 353
#     4  10  21  37  61  86 121 153 196 245 295 356
#     4  10  20  38  60  90 114 156 200 234 298 358
#
# _framework density 20.614642
#
# number of rings (size 3 to 8) (size 9 to 14) (size 15 to 20)
#    0.000    1.143    2.857    4.286    0.000    0.000 
#    0.000    0.000   12.571    0.000    0.000    0.000 
#    0.000    0.000    0.000    0.000    0.000    0.000 
#
# Total GULP energy -346967.389816 kJ/mol
# GULP energy per Si atom -12391.692493 kJ/mol
# Density = 2.056772 g / cm^3
# Si number density = 20.614642 Si / 1000 Ang^3
#
#
#
# Elastic Constant Matrix: (Units=GPa)
#
#
# Indices 1 2 3 4 5 6 
#
# 1 67.4667 16.0174 17.3597 0.0000 21.9424 0.0000
# 2 16.0174 98.1609 39.7470 0.0000 16.3011 0.0000
# 3 17.3597 39.7470 117.2420 0.0000 31.1205 0.0000
# 4 0.0000 0.0000 0.0000 29.7599 0.0000 -0.0192
# 5 21.9424 16.3011 31.1205 0.0000 46.0164 0.0000
# 6 0.0000 0.0000 0.0000 -0.0192 0.0000 13.8496
#
#
#
# Elastic Compliance Matrix: (Units=1/GPa)
#
#
# Indices 1 2 3 4 5 6 
#
# 1 0.017772 -0.001589 0.000009 0.000000 -0.007918 0.000000
# 2 -0.001589 0.012074 -0.003563 0.000000 -0.001110 0.000000
# 3 0.000009 -0.003563 0.011459 0.000000 -0.006492 0.000000
# 4 0.000000 0.000000 0.000000 0.033602 0.000000 0.000047
# 5 -0.007918 -0.001110 -0.006492 0.000000 0.030290 0.000000
# 6 0.000000 0.000000 0.000000 0.000047 0.000000 0.072205
#
#
# Mechanical properties :
#
#
# Convention : Reuss Voigt Hill
#
# Bulk Modulus (GPa) = 32.23896 47.67977 39.95936
# Shear Modulus (GPa) = 25.24892 31.90820 28.57856
#
# Velocity S-wave (km/s) = 3.50352 3.93853 3.72738
# Velocity P-wave (km/s) = 5.66030 6.62284 6.16040
#
# Compressibility (1/GPa) = 0.03101837
#
# Stress axis : x y z
#
# Youngs Moduli (GPa) = 56.26798 82.82434 87.26563
#
# Poissons Ratio (x) = 0.13158 -0.00076
# Poissons Ratio (y) = 0.08939 0.31097
# Poissons Ratio (z) = -0.00049 0.29514
#
# Static dielectric constant tensor:
#      x y z
#    x 3.604160 0.000000 0.242440 
#    y 0.000000 3.610580 0.000000 
#    z 0.242440 0.000000 4.002010 
# 
# 
# High freq. dielectric constant tensor:
#      x y z
#    x 1.814540 0.000000 0.010590 
#    y 0.000000 1.799230 0.000000 
#    z 0.010590 0.000000 1.822890 
# 
# From -- ./inp_files/307098.got.cif
#   From: 2010.06.25/outbox.cif.g09.slc.cpg/sg15_154_cif.got.tgz:307098.got - 2010.06.28 07:06:18.
