data_PCOD8138031
_publ_section_title
;
Structure prediction by ZEFSAII (Michael W. Deem and Ramdas Pophale) SiO2 
 PCOD8138031
Probable space group: C 2/C
;
_chemical_formula_sum "Si O2"
_cell_formula_units_Z 40
_cell_length_a 13.703446
_cell_length_b 20.972028
_cell_length_c 13.338002
_cell_angle_alpha 90.000000
_cell_angle_beta 146.329141
_cell_angle_gamma 90.000000
_cell_volume 2125.205068
_symmetry_space_group_name_H-M "C 2/C"
_symmetry_group_IT_number 15
_symmetry_cell_setting 'monoclinic'
loop_
_space_group_symop_operation_xyz
x,y,z
-x,y,1/2-z
-x,-y,-z
x,-y,1/2+z
1/2+x,1/2+y,z
1/2-x,1/2+y,1/2-z
1/2-x,1/2-y,-z
1/2+x,1/2-y,1/2+z
loop_
_atom_site_type_symbol
_atom_site_label
_atom_site_fract_x
_atom_site_fract_y
_atom_site_fract_z
Si Si1 0.091095 0.465301 0.224135
Si Si2 0.088932 0.165659 0.724237
Si Si3 0.461577 0.570609 0.999729
Si Si4 0.017668 0.307208 0.882117
Si Si5 0.160387 0.411456 0.648394
O O1 0.276827 0.428331 0.402513
O O2 0.123144 0.530022 0.191250
O O3 0.000000 0.483574 0.250000
O O4 0.961917 0.417836 0.053510
O O5 0.054517 0.113081 0.612433
O O6 0.000000 0.141052 0.750000
O O7 0.005303 0.232348 0.617786
O O8 0.294541 0.171989 0.917552
O O9 0.633952 0.592171 0.210424
O O10 0.500000 0.500000 0.000000
O O11 0.000000 0.323075 0.750000
O O12 0.874068 0.346009 0.822110
#
# Coordination Sequence:
#
# PCOD8138031 Si02
#       5
#     8   8   8   8   8
#     4  10  21  37  58  82 115 156 196 237 286 339
#     4  11  21  35  57  90 120 154 191 238 297 356
#     4  10  21  39  54  84 117 153 195 233 287 344
#     4  11  20  34  58  90 121 153 188 237 301 358
#     4  10  20  37  57  85 117 148 192 241 290 344
#
# _framework density 18.821712999999999
#
# number of rings (size 3 to 8) (size 9 to 14) (size 15 to 20)
#    0.000    1.600    2.000    5.400    0.000    2.400 
#    0.000    0.000    0.000    1.200    0.000    0.000 
#    0.000    0.000    0.000    0.000    0.000    0.000 
#
# Total GULP energy -247949.308584 kJ/mol
# GULP energy per Si atom -12397.465429 kJ/mol
# Density = 1.877887 g / cm^3
# Si number density = 18.821713 Si / 1000 Ang^3
#
#
#
# Elastic Constant Matrix: (Units=GPa)
#
#
# Indices 1 2 3 4 5 6 
#
# 1 81.1277 15.6598 40.5633 0.0000 20.2178 0.0000
# 2 15.6598 63.4777 24.9493 0.0000 -5.0143 0.0000
# 3 40.5633 24.9493 126.1264 0.0000 31.1417 0.0000
# 4 0.0000 0.0000 0.0000 30.5317 0.0000 -2.2660
# 5 20.2178 -5.0143 31.1417 0.0000 35.7882 0.0000
# 6 0.0000 0.0000 0.0000 -2.2660 0.0000 24.2884
#
#
#
# Elastic Compliance Matrix: (Units=1/GPa)
#
#
# Indices 1 2 3 4 5 6 
#
# 1 0.016168 -0.003495 -0.002716 0.000000 -0.007260 0.000000
# 2 -0.003495 0.019240 -0.004885 0.000000 0.008920 0.000000
# 3 -0.002716 -0.004885 0.012174 0.000000 -0.009743 0.000000
# 4 0.000000 0.000000 0.000000 0.032981 0.000000 0.003077
# 5 -0.007260 0.008920 -0.009743 0.000000 0.041772 0.000000
# 6 0.000000 0.000000 0.000000 0.003077 0.000000 0.041459
#
#
# Mechanical properties :
#
#
# Convention : Reuss Voigt Hill
#
# Bulk Modulus (GPa) = 39.38247 48.11961 43.75104
# Shear Modulus (GPa) = 25.71379 30.75896 28.23638
#
# Velocity S-wave (km/s) = 3.70019 4.04694 3.87745
# Velocity P-wave (km/s) = 6.26296 6.88901 6.58343
#
# Compressibility (1/GPa) = 0.02539201
#
# Stress axis : x y z
#
# Youngs Moduli (GPa) = 61.85040 51.97470 82.14251
#
# Poissons Ratio (x) = 0.18163 0.22309
# Poissons Ratio (y) = 0.21614 0.40123
# Poissons Ratio (z) = 0.16798 0.25387
#
# Static dielectric constant tensor:
#      x y z
#    x 3.486280 0.000000 0.470940 
#    y 0.000000 3.304170 0.000000 
#    z 0.470940 0.000000 3.944570 
# 
# 
# High freq. dielectric constant tensor:
#      x y z
#    x 1.708680 0.000000 0.029430 
#    y 0.000000 1.723370 0.000000 
#    z 0.029430 0.000000 1.752190 
# 
# From -- ./inp_files/30527.got.cif
#   From: 2010.06.25/outbox.cif.g09.slc.cpg/sg15_16_cif.got.tgz:30527.got - 2010.06.28 07:06:18.
