data_PCOD8138713
_publ_section_title
;
Structure prediction by ZEFSAII (Michael W. Deem and Ramdas Pophale) SiO2 
 PCOD8138713
Probable space group: C 2/C
;
_chemical_formula_sum "Si O2"
_cell_formula_units_Z 36
_cell_length_a 9.753763
_cell_length_b 13.826394
_cell_length_c 22.793264
_cell_angle_alpha 90.000000
_cell_angle_beta 145.809762
_cell_angle_gamma 90.000000
_cell_volume 1727.346604
_symmetry_space_group_name_H-M "C 2/C"
_symmetry_group_IT_number 15
_symmetry_cell_setting 'monoclinic'
loop_
_space_group_symop_operation_xyz
x,y,z
-x,y,1/2-z
-x,-y,-z
x,-y,1/2+z
1/2+x,1/2+y,z
1/2-x,1/2+y,1/2-z
1/2-x,1/2-y,-z
1/2+x,1/2-y,1/2+z
loop_
_atom_site_type_symbol
_atom_site_label
_atom_site_fract_x
_atom_site_fract_y
_atom_site_fract_z
Si Si1 0.028397 0.962124 0.384463
Si Si2 0.234731 0.331288 0.363065
Si Si3 0.207210 0.363403 0.481403
Si Si4 0.500000 0.473161 0.750000
Si Si5 0.524670 0.864430 0.537626
O O1 0.281263 0.902368 0.482210
O O2 0.824286 0.915073 0.352118
O O3 0.056358 0.072566 0.417434
O O4 0.941782 0.960467 0.286135
O O5 0.144080 0.383459 0.391305
O O6 0.446908 0.251751 0.447298
O O7 0.000000 0.281501 0.250000
O O8 0.250000 0.250000 0.500000
O O9 0.008838 0.392297 0.461884
O O10 0.262154 0.409495 0.652009
#
# Coordination Sequence:
#
# PCOD8138713 Si02
#       5
#     8   8   8   4   8
#     4  11  23  37  65  89 121 155 204 247 287 362
#     4  11  23  38  61  90 123 158 195 248 304 351
#     4   9  20  39  60  85 117 156 188 243 304 342
#     4  10  20  38  60  92 112 162 204 234 296 352
#     4  10  21  41  63  84 124 156 202 244 291 359
#
# _framework density 20.841214000000001
#
# number of rings (size 3 to 8) (size 9 to 14) (size 15 to 20)
#    0.000    1.778    1.111    4.000    6.222    0.000 
#    0.000    0.000    0.000    0.000    0.000    0.000 
#    0.000    0.000    0.000    0.000    0.000    0.000 
#
# Total GULP energy -223022.013500 kJ/mol
# GULP energy per Si atom -12390.111861 kJ/mol
# Density = 2.079378 g / cm^3
# Si number density = 20.841214 Si / 1000 Ang^3
#
#
#
# Elastic Constant Matrix: (Units=GPa)
#
#
# Indices 1 2 3 4 5 6 
#
# 1 116.3847 34.7566 55.8026 0.0000 -26.3072 0.0000
# 2 34.7566 91.0756 25.5773 -0.0001 -8.6308 -0.0001
# 3 55.8026 25.5773 95.2952 0.0001 -27.4273 -0.0004
# 4 0.0000 -0.0001 0.0001 27.2590 -0.0001 -3.3526
# 5 -26.3072 -8.6308 -27.4273 -0.0001 37.6982 -0.0001
# 6 0.0000 -0.0001 -0.0004 -3.3526 -0.0001 31.0014
#
#
#
# Elastic Compliance Matrix: (Units=1/GPa)
#
#
# Indices 1 2 3 4 5 6 
#
# 1 0.013203 -0.003035 -0.005648 0.000000 0.004410 0.000000
# 2 -0.003035 0.012580 -0.001746 0.000000 -0.000508 0.000000
# 3 -0.005648 -0.001746 0.016469 0.000000 0.007641 0.000000
# 4 0.000000 0.000000 0.000000 0.037180 0.000000 0.004021
# 5 0.004410 -0.000508 0.007641 0.000000 0.035047 0.000000
# 6 0.000000 0.000000 0.000000 0.004021 0.000000 0.032691
#
#
# Mechanical properties :
#
#
# Convention : Reuss Voigt Hill
#
# Bulk Modulus (GPa) = 46.73788 59.44762 53.09275
# Shear Modulus (GPa) = 28.54574 31.63298 30.08936
#
# Velocity S-wave (km/s) = 3.70493 3.90013 3.80378
# Velocity P-wave (km/s) = 6.38564 6.99052 6.69491
#
# Compressibility (1/GPa) = 0.02139592
#
# Stress axis : x y z
#
# Youngs Moduli (GPa) = 75.73957 79.49058 60.72182
#
# Poissons Ratio (x) = 0.24123 0.34294
# Poissons Ratio (y) = 0.22984 0.10599
# Poissons Ratio (z) = 0.42776 0.13876
#
# Static dielectric constant tensor:
#      x y z
#    x 4.073280 0.000000 -0.557980 
#    y 0.000000 3.754650 0.000000 
#    z -0.557980 0.000000 3.794040 
# 
# 
# High freq. dielectric constant tensor:
#      x y z
#    x 1.817630 0.000000 -0.025080 
#    y 0.000000 1.817940 0.000000 
#    z -0.025080 0.000000 1.799800 
# 
# From -- ./inp_files/132603.got.cif
#   From: 2010.06.25/outbox.cif.g09.slc.cpg/sg15_67_cif.got.tgz:132603.got - 2010.06.28 07:06:18.
