data_PCOD8138429
_publ_section_title
;
Structure prediction by ZEFSAII (Michael W. Deem and Ramdas Pophale) SiO2 
 PCOD8138429
Probable space group: C 2/C
;
_chemical_formula_sum "Si O2"
_cell_formula_units_Z 36
_cell_length_a 10.498044
_cell_length_b 9.289811
_cell_length_c 17.504978
_cell_angle_alpha 90.000000
_cell_angle_beta 53.073071
_cell_angle_gamma 90.000000
_cell_volume 1364.715956
_symmetry_space_group_name_H-M "C 2/C"
_symmetry_group_IT_number 15
_symmetry_cell_setting 'monoclinic'
loop_
_space_group_symop_operation_xyz
x,y,z
-x,y,1/2-z
-x,-y,-z
x,-y,1/2+z
1/2+x,1/2+y,z
1/2-x,1/2+y,1/2-z
1/2-x,1/2-y,-z
1/2+x,1/2-y,1/2+z
loop_
_atom_site_type_symbol
_atom_site_label
_atom_site_fract_x
_atom_site_fract_y
_atom_site_fract_z
Si Si1 0.538474 0.162129 0.509741
Si Si2 0.685184 0.896122 0.286323
Si Si3 0.000000 0.396176 0.750000
Si Si4 0.007438 0.186818 0.621221
Si Si5 0.860793 0.081541 0.349673
O O1 0.465873 0.191589 0.620978
O O2 0.451677 0.266433 0.479749
O O3 0.731866 0.184519 0.438101
O O4 0.500000 0.000000 0.500000
O O5 0.815171 0.789585 0.202288
O O6 0.633225 0.004727 0.239500
O O7 0.770019 0.978271 0.324306
O O8 0.913675 0.295822 0.845381
O O9 0.059803 0.022207 0.614768
O O10 0.000000 0.165222 0.250000
#
# Coordination Sequence:
#
# PCOD8138429 Si02
#       5
#     8   8   4   8   8
#     4  10  20  37  64  95 121 157 210 252 299 367
#     4  10  22  37  59  98 119 161 211 243 310 366
#     4  12  20  38  62  86 130 162 198 256 294 362
#     4  11  21  39  66  89 124 166 199 252 309 358
#     4   9  18  34  60  93 118 160 204 240 307 359
#
# _framework density 26.379114000000001
#
# number of rings (size 3 to 8) (size 9 to 14) (size 15 to 20)
#    0.000    1.778    7.778    0.000    0.000    5.333 
#    2.000    1.111    0.000    4.000    0.000    0.000 
#    0.000    0.000    0.000    0.000    0.000    0.000 
#
# Total GULP energy -223087.580629 kJ/mol
# GULP energy per Si atom -12393.754479 kJ/mol
# Density = 2.631907 g / cm^3
# Si number density = 26.379114 Si / 1000 Ang^3
#
#
#
# Elastic Constant Matrix: (Units=GPa)
#
#
# Indices 1 2 3 4 5 6 
#
# 1 61.0342 8.5410 33.1970 0.0000 -5.5370 0.0000
# 2 8.5410 31.7429 13.2095 0.0000 21.2283 0.0000
# 3 33.1970 13.2095 120.1033 0.0000 -0.3090 0.0000
# 4 0.0000 0.0000 0.0000 37.2752 0.0000 8.0625
# 5 -5.5370 21.2283 -0.3090 0.0000 37.6258 0.0000
# 6 0.0000 0.0000 0.0000 8.0625 0.0000 21.5284
#
#
#
# Elastic Compliance Matrix: (Units=1/GPa)
#
#
# Indices 1 2 3 4 5 6 
#
# 1 0.021012 -0.009165 -0.004779 0.000000 0.008223 0.000000
# 2 -0.009165 0.058718 -0.004014 0.000000 -0.034510 0.000000
# 3 -0.004779 -0.004014 0.010093 0.000000 0.001644 0.000000
# 4 0.000000 0.000000 0.000000 0.029192 0.000000 -0.010933
# 5 0.008223 -0.034510 0.001644 0.000000 0.047272 0.000000
# 6 0.000000 0.000000 0.000000 -0.010933 0.000000 0.050545
#
#
# Mechanical properties :
#
#
# Convention : Reuss Voigt Hill
#
# Bulk Modulus (GPa) = 18.54979 35.86393 27.20686
# Shear Modulus (GPa) = 18.46960 29.81474 24.14217
#
# Velocity S-wave (km/s) = 2.64892 3.36555 3.02851
# Velocity P-wave (km/s) = 4.05006 5.35982 4.75030
#
# Compressibility (1/GPa) = 0.05390896
#
# Stress axis : x y z
#
# Youngs Moduli (GPa) = 47.59211 17.03046 99.08169
#
# Poissons Ratio (x) = 0.15608 0.47348
# Poissons Ratio (y) = 0.43616 0.39769
# Poissons Ratio (z) = 0.22743 0.06836
#
# Static dielectric constant tensor:
#      x y z
#    x 5.390070 0.000000 -1.291470 
#    y 0.000000 4.261810 0.000000 
#    z -1.291470 0.000000 7.219550 
# 
# 
# High freq. dielectric constant tensor:
#      x y z
#    x 2.062920 0.000000 -0.003320 
#    y 0.000000 2.026610 0.000000 
#    z -0.003320 0.000000 2.059530 
# 
# From -- ./inp_files/195880.got.cif
#   From: 2010.06.25/outbox.cif.g09.slc.cpg/sg15_98_cif.got.tgz:195880.got - 2010.06.28 07:06:18.
