data_PCOD8138707
_publ_section_title
;
Structure prediction by ZEFSAII (Michael W. Deem and Ramdas Pophale) SiO2 
 PCOD8138707
Probable space group: C 2/C
;
_chemical_formula_sum "Si O2"
_cell_formula_units_Z 36
_cell_length_a 9.071961
_cell_length_b 16.326249
_cell_length_c 21.177286
_cell_angle_alpha 90.000000
_cell_angle_beta 147.502309
_cell_angle_gamma 90.000000
_cell_volume 1685.182508
_symmetry_space_group_name_H-M "C 2/C"
_symmetry_group_IT_number 15
_symmetry_cell_setting 'monoclinic'
loop_
_space_group_symop_operation_xyz
x,y,z
-x,y,1/2-z
-x,-y,-z
x,-y,1/2+z
1/2+x,1/2+y,z
1/2-x,1/2+y,1/2-z
1/2-x,1/2-y,-z
1/2+x,1/2-y,1/2+z
loop_
_atom_site_type_symbol
_atom_site_label
_atom_site_fract_x
_atom_site_fract_y
_atom_site_fract_z
Si Si1 0.894796 0.948145 0.039693
Si Si2 0.745900 0.182175 0.382011
Si Si3 0.734699 0.633813 0.881342
Si Si4 0.798590 0.627971 0.547830
Si Si5 0.500000 0.901673 0.250000
O O1 0.758595 0.928506 0.058045
O O2 0.225288 0.954313 0.163846
O O3 0.792463 0.875671 0.958060
O O4 0.789958 0.033431 0.974503
O O5 0.500000 0.148233 0.250000
O O6 0.670451 0.273060 0.379640
O O7 0.026803 0.183915 0.441655
O O8 0.500000 0.601185 0.750000
O O9 0.025472 0.635198 0.951367
O O10 0.955813 0.652739 0.670074
#
# Coordination Sequence:
#
# PCOD8138707 Si02
#       5
#     8   8   8   8   4
#     4  11  23  38  66  87 123 154 205 247 293 357
#     4  10  23  39  64  88 124 158 200 238 297 359
#     4  11  22  42  60  90 125 157 194 250 304 352
#     4  11  23  38  66  87 123 154 205 247 293 357
#     4  10  20  38  60  90 114 160 200 238 302 342
#
# _framework density 21.362670000000001
#
# number of rings (size 3 to 8) (size 9 to 14) (size 15 to 20)
#    0.000    1.333    2.222    4.667    6.222    0.000 
#    0.000    1.111    0.000    0.000    0.000    0.000 
#    0.000    0.000    0.000    0.000    0.000    0.000 
#
# Total GULP energy -223177.838573 kJ/mol
# GULP energy per Si atom -12398.768810 kJ/mol
# Density = 2.131405 g / cm^3
# Si number density = 21.362670 Si / 1000 Ang^3
#
#
#
# Elastic Constant Matrix: (Units=GPa)
#
#
# Indices 1 2 3 4 5 6 
#
# 1 115.1062 -11.4492 40.3465 0.0004 4.6176 0.0005
# 2 -11.4492 30.0380 12.0809 0.0008 -3.0815 0.0011
# 3 40.3465 12.0809 131.6174 0.0028 1.3538 0.0027
# 4 0.0004 0.0008 0.0028 15.1076 0.0016 3.1824
# 5 4.6176 -3.0815 1.3538 0.0016 27.2478 0.0022
# 6 0.0005 0.0011 0.0027 3.1824 0.0022 25.9638
#
#
#
# Elastic Compliance Matrix: (Units=1/GPa)
#
#
# Indices 1 2 3 4 5 6 
#
# 1 0.010575 0.005429 -0.003730 0.000000 -0.000993 0.000000
# 2 0.005429 0.037811 -0.005172 -0.000001 0.003613 -0.000001
# 3 -0.003730 -0.005172 0.009220 -0.000001 -0.000411 0.000000
# 4 0.000000 -0.000001 -0.000001 0.067946 -0.000003 -0.008328
# 5 -0.000993 0.003613 -0.000411 -0.000003 0.037298 -0.000003
# 6 0.000000 -0.000001 0.000000 -0.008328 -0.000003 0.039536
#
#
# Mechanical properties :
#
#
# Convention : Reuss Voigt Hill
#
# Bulk Modulus (GPa) = 19.73933 39.85755 29.79844
# Shear Modulus (GPa) = 22.10256 29.38272 25.74264
#
# Velocity S-wave (km/s) = 3.22006 3.71269 3.47512
# Velocity P-wave (km/s) = 4.80471 6.08908 5.48462
#
# Compressibility (1/GPa) = 0.05066028
#
# Stress axis : x y z
#
# Youngs Moduli (GPa) = 94.56478 26.44725 108.45933
#
# Poissons Ratio (x) = -0.14358 0.40452
# Poissons Ratio (y) = -0.51338 0.56094
# Poissons Ratio (z) = 0.35270 0.13678
#
# Static dielectric constant tensor:
#      x y z
#    x 4.013180 0.000000 0.117590 
#    y 0.000000 3.629000 0.000000 
#    z 0.117590 0.000000 4.033510 
# 
# 
# High freq. dielectric constant tensor:
#      x y z
#    x 1.846630 0.000000 0.004740 
#    y 0.000000 1.819000 0.000000 
#    z 0.004740 0.000000 1.845710 
# 
# From -- ./inp_files/76323.got.cif
#   From: 2010.06.25/outbox.cif.g09.slc.cpg/sg15_39_cif.got.tgz:76323.got - 2010.06.28 07:06:18.
