data_PCOD8138143
_publ_section_title
;
Structure prediction by ZEFSAII (Michael W. Deem and Ramdas Pophale) SiO2 
 PCOD8138143
Probable space group: C 2/C
;
_chemical_formula_sum "Si O2"
_cell_formula_units_Z 48
_cell_length_a 16.343898
_cell_length_b 13.042465
_cell_length_c 13.376480
_cell_angle_alpha 90.000000
_cell_angle_beta 71.667020
_cell_angle_gamma 90.000000
_cell_volume 2706.669913
_symmetry_space_group_name_H-M "C 2/C"
_symmetry_group_IT_number 15
_symmetry_cell_setting 'monoclinic'
loop_
_space_group_symop_operation_xyz
x,y,z
-x,y,1/2-z
-x,-y,-z
x,-y,1/2+z
1/2+x,1/2+y,z
1/2-x,1/2+y,1/2-z
1/2-x,1/2-y,-z
1/2+x,1/2-y,1/2+z
loop_
_atom_site_type_symbol
_atom_site_label
_atom_site_fract_x
_atom_site_fract_y
_atom_site_fract_z
Si Si1 0.118925 0.372006 0.689770
Si Si2 0.797665 0.184043 0.063301
Si Si3 0.442892 0.227540 0.625553
Si Si4 0.500000 0.396938 0.750000
Si Si5 0.047418 0.050398 0.574925
Si Si6 0.000000 0.555347 0.750000
Si Si7 0.988645 0.738490 0.110543
O O1 0.222162 0.376172 0.652128
O O2 0.080215 0.485122 0.685279
O O3 0.087520 0.325982 0.808914
O O4 0.081813 0.300719 0.615123
O O5 0.846974 0.264201 0.116946
O O6 0.750000 0.250000 0.000000
O O7 0.861580 0.098310 0.994202
O O8 0.445828 0.325511 0.697071
O O9 0.461610 0.122820 0.675422
O O10 0.513469 0.229796 0.509104
O O11 0.562254 0.468367 0.658037
O O12 0.984296 0.140947 0.639564
O O13 0.000000 0.000000 0.500000
#
# Coordination Sequence:
#
# PCOD8138143 Si02
#       7
#     8   8   8   4   8   4   8
#     4  10  20  37  60  85 115 149 205 239 286 347
#     4  11  21  40  57  88 119 146 197 256 287 332
#     4  10  20  39  60  84 120 154 193 244 294 347
#     4  11  20  37  60  88 118 159 200 233 294 366
#     4  11  20  36  61  86 116 162 197 233 297 366
#     4   9  22  39  60  82 114 165 196 227 298 362
#     4   9  18  36  58  82 114 157 191 234 289 357
#
# _framework density 17.733968999999998
#
# number of rings (size 3 to 8) (size 9 to 14) (size 15 to 20)
#    0.000    2.000    6.667    1.000    0.000    2.667 
#    6.000    0.000    0.000    4.000    0.000    0.000 
#    0.000    0.000    0.000    0.000    0.000    0.000 
#
# Total GULP energy -297362.417935 kJ/mol
# GULP energy per Si atom -12390.100747 kJ/mol
# Density = 1.769361 g / cm^3
# Si number density = 17.733969 Si / 1000 Ang^3
#
#
#
# Elastic Constant Matrix: (Units=GPa)
#
#
# Indices 1 2 3 4 5 6 
#
# 1 117.4696 55.2182 57.5767 0.0000 -9.9345 0.0000
# 2 55.2182 134.9144 57.1203 0.0000 7.0578 0.0000
# 3 57.5767 57.1203 105.4870 0.0000 9.2957 0.0000
# 4 0.0000 0.0000 0.0000 34.5412 0.0000 5.7069
# 5 -9.9345 7.0578 9.2957 0.0000 35.3773 0.0000
# 6 0.0000 0.0000 0.0000 5.7069 0.0000 27.1629
#
#
#
# Elastic Compliance Matrix: (Units=1/GPa)
#
#
# Indices 1 2 3 4 5 6 
#
# 1 0.013597 -0.003262 -0.006192 0.000000 0.006096 0.000000
# 2 -0.003262 0.010411 -0.003678 0.000000 -0.002027 0.000000
# 3 -0.006192 -0.003678 0.015294 0.000000 -0.005024 0.000000
# 4 0.000000 0.000000 0.000000 0.029992 0.000000 -0.006301
# 5 0.006096 -0.002027 -0.005024 0.000000 0.031703 0.000000
# 6 0.000000 0.000000 0.000000 -0.006301 0.000000 0.038139
#
#
# Mechanical properties :
#
#
# Convention : Reuss Voigt Hill
#
# Bulk Modulus (GPa) = 76.70766 77.52239 77.11502
# Shear Modulus (GPa) = 29.45589 31.94667 30.70128
#
# Velocity S-wave (km/s) = 4.07994 4.24894 4.16530
# Velocity P-wave (km/s) = 8.09587 8.23895 8.16772
#
# Compressibility (1/GPa) = 0.01303651
#
# Stress axis : x y z
#
# Youngs Moduli (GPa) = 73.54636 96.05669 65.38534
#
# Poissons Ratio (x) = 0.31336 0.40487
# Poissons Ratio (y) = 0.23993 0.24049
# Poissons Ratio (z) = 0.45541 0.35330
#
# Static dielectric constant tensor:
#      x y z
#    x 3.411470 0.000000 -0.234320 
#    y 0.000000 3.578080 0.000000 
#    z -0.234320 0.000000 3.792190 
# 
# 
# High freq. dielectric constant tensor:
#      x y z
#    x 1.656950 0.000000 0.008300 
#    y 0.000000 1.696120 0.000000 
#    z 0.008300 0.000000 1.694760 
# 
# From -- ./inp_files/151991.got.cif
#   From: 2010.06.25/outbox.cif.g09.slc.cpg/sg15_76_cif.got.tgz:151991.got - 2010.06.28 07:06:18.
