data_PCOD8138766
_publ_section_title
;
Structure prediction by ZEFSAII (Michael W. Deem and Ramdas Pophale) SiO2 
 PCOD8138766
Probable space group: C 2/C
;
_chemical_formula_sum "Si O2"
_cell_formula_units_Z 44
_cell_length_a 5.338627
_cell_length_b 11.501918
_cell_length_c 25.948461
_cell_angle_alpha 90.000000
_cell_angle_beta 74.474435
_cell_angle_gamma 90.000000
_cell_volume 1535.211379
_symmetry_space_group_name_H-M "C 2/C"
_symmetry_group_IT_number 15
_symmetry_cell_setting 'monoclinic'
loop_
_space_group_symop_operation_xyz
x,y,z
-x,y,1/2-z
-x,-y,-z
x,-y,1/2+z
1/2+x,1/2+y,z
1/2-x,1/2+y,1/2-z
1/2-x,1/2-y,-z
1/2+x,1/2-y,1/2+z
loop_
_atom_site_type_symbol
_atom_site_label
_atom_site_fract_x
_atom_site_fract_y
_atom_site_fract_z
Si Si1 0.872069 0.043141 0.606651
Si Si2 0.500000 0.128019 0.250000
Si Si3 0.027303 0.671660 0.944798
Si Si4 0.218906 0.903200 0.277100
Si Si5 0.576571 0.809031 0.634519
Si Si6 0.288162 0.112687 0.054764
O O1 0.781672 0.914028 0.627375
O O2 0.167787 0.019517 0.567482
O O3 0.677258 0.092968 0.575221
O O4 0.861329 0.123763 0.658811
O O5 0.528072 0.208694 0.300505
O O6 0.249306 0.042929 0.267186
O O7 0.926458 0.803303 0.958300
O O8 0.298901 0.691032 0.898460
O O9 0.038176 0.615925 0.002352
O O10 0.500000 0.842154 0.250000
O O11 0.000000 0.857188 0.250000
O O12 0.346031 0.844701 0.609243
#
# Coordination Sequence:
#
# PCOD8138766 Si02
#       6
#     8   4   8   8   8   8
#     4  10  21  36  61  88 123 166 223 275 343 411
#     4   8  18  34  60  88 118 168 216 266 338 410
#     4  10  22  38  57  92 125 163 219 276 332 417
#     4   9  18  35  60  91 121 166 219 270 335 408
#     4  10  20  38  61  87 123 171 215 275 346 409
#     4  10  21  38  60  86 127 169 211 275 345 407
#
# _framework density 28.660546
#
# number of rings (size 3 to 8) (size 9 to 14) (size 15 to 20)
#    0.545    1.818    0.000    2.182    0.000    2.182 
#    0.000    1.818    0.000    0.000    0.000    0.000 
#    0.000    0.000    0.000    0.000    0.000    0.000 
#
# Total GULP energy -272733.169526 kJ/mol
# GULP energy per Si atom -12396.962251 kJ/mol
# Density = 2.859531 g / cm^3
# Si number density = 28.660546 Si / 1000 Ang^3
#
#
#
# Elastic Constant Matrix: (Units=GPa)
#
#
# Indices 1 2 3 4 5 6 
#
# 1 126.6563 3.7392 59.2601 0.0000 -3.3496 0.0000
# 2 3.7392 100.5919 42.9750 0.0000 -0.0242 0.0000
# 3 59.2601 42.9750 224.4638 0.0000 -0.5870 0.0000
# 4 0.0000 0.0000 0.0000 50.2350 0.0000 1.4984
# 5 -3.3496 -0.0242 -0.5870 0.0000 56.6953 0.0000
# 6 0.0000 0.0000 0.0000 1.4984 0.0000 39.5446
#
#
#
# Elastic Compliance Matrix: (Units=1/GPa)
#
#
# Indices 1 2 3 4 5 6 
#
# 1 0.009074 0.000747 -0.002537 0.000000 0.000510 0.000000
# 2 0.000747 0.010888 -0.002282 0.000000 0.000025 0.000000
# 3 -0.002537 -0.002282 0.005562 0.000000 -0.000093 0.000000
# 4 0.000000 0.000000 0.000000 0.019929 0.000000 -0.000755
# 5 0.000510 0.000025 -0.000093 0.000000 0.017667 0.000000
# 6 0.000000 0.000000 0.000000 -0.000755 0.000000 0.025316
#
#
# Mechanical properties :
#
#
# Convention : Reuss Voigt Hill
#
# Bulk Modulus (GPa) = 57.53950 73.74006 65.63978
# Shear Modulus (GPa) = 48.84058 52.34416 50.59237
#
# Velocity S-wave (km/s) = 4.13256 4.27822 4.20602
# Velocity P-wave (km/s) = 6.54909 7.08441 6.82200
#
# Compressibility (1/GPa) = 0.01737937
#
# Stress axis : x y z
#
# Youngs Moduli (GPa) = 110.20555 91.84251 179.80717
#
# Poissons Ratio (x) = -0.06859 0.45621
# Poissons Ratio (y) = -0.08230 0.41027
# Poissons Ratio (z) = 0.27962 0.20956
#
# Static dielectric constant tensor:
#      x y z
#    x 4.788920 0.000000 -0.434310 
#    y 0.000000 5.660270 0.000000 
#    z -0.434310 0.000000 5.757610 
# 
# 
# High freq. dielectric constant tensor:
#      x y z
#    x 2.138330 0.000000 -0.016970 
#    y 0.000000 2.224870 0.000000 
#    z -0.016970 0.000000 2.189770 
# 
# From -- ./inp_files/285394.got.cif
#   From: 2010.06.25/outbox.cif.g09.slc.cpg/sg15_143_cif.got.tgz:285394.got - 2010.06.28 07:06:18.
