data_PCOD8138482
_publ_section_title
;
Structure prediction by ZEFSAII (Michael W. Deem and Ramdas Pophale) SiO2 
 PCOD8138482
Probable space group: C 2/C
;
_chemical_formula_sum "Si O2"
_cell_formula_units_Z 56
_cell_length_a 14.280000
_cell_length_b 17.380246
_cell_length_c 13.374034
_cell_angle_alpha 90.000000
_cell_angle_beta 56.333027
_cell_angle_gamma 90.000000
_cell_volume 2762.566744
_symmetry_space_group_name_H-M "C 2/C"
_symmetry_group_IT_number 15
_symmetry_cell_setting 'monoclinic'
loop_
_space_group_symop_operation_xyz
x,y,z
-x,y,1/2-z
-x,-y,-z
x,-y,1/2+z
1/2+x,1/2+y,z
1/2-x,1/2+y,1/2-z
1/2-x,1/2-y,-z
1/2+x,1/2-y,1/2+z
loop_
_atom_site_type_symbol
_atom_site_label
_atom_site_fract_x
_atom_site_fract_y
_atom_site_fract_z
Si Si1 0.994352 0.156567 0.034424
Si Si2 0.788267 0.366703 0.603352
Si Si3 0.710887 0.440677 0.848907
Si Si4 0.544835 0.219064 0.369796
Si Si5 0.113291 0.258365 0.241106
Si Si6 0.674242 0.810151 0.603741
Si Si7 0.739883 0.607221 0.915823
O O1 0.922297 0.078256 0.073804
O O2 0.920858 0.224161 0.131183
O O3 0.011718 0.192784 0.914185
O O4 0.114431 0.138850 0.012662
O O5 0.762421 0.426108 0.708213
O O6 0.904252 0.322829 0.562166
O O7 0.688031 0.306434 0.643429
O O8 0.801220 0.406856 0.486983
O O9 0.764450 0.389896 0.906572
O O10 0.731756 0.528820 0.859757
O O11 0.437689 0.171059 0.393836
O O12 0.641191 0.227533 0.229338
O O13 0.188447 0.335800 0.198020
O O14 0.000000 0.276116 0.250000
O O15 0.750000 0.750000 0.500000
#
# Coordination Sequence:
#
# PCOD8138482 Si02
#       7
#     8   8   8   8   8   8   8
#     4  11  21  39  66  96 123 165 215 263 315 385
#     4  10  21  42  62  89 126 168 208 261 317 378
#     4  10  24  41  61  96 133 164 210 267 330 380
#     4  10  20  37  66  90 118 165 216 264 300 366
#     4  11  21  37  66  92 121 163 217 257 311 385
#     4  10  20  40  64  89 125 168 218 258 304 381
#     4  12  23  42  63  95 136 167 203 277 328 377
#
# _framework density 20.271004000000001
#
# number of rings (size 3 to 8) (size 9 to 14) (size 15 to 20)
#    0.000    1.429    4.286    1.714    0.000    0.000 
#   10.286    0.714    0.000    0.000    0.000    0.000 
#    0.000    0.000    0.000    0.000    0.000    0.000 
#
# Total GULP energy -347050.095079 kJ/mol
# GULP energy per Si atom -12394.646253 kJ/mol
# Density = 2.022487 g / cm^3
# Si number density = 20.271004 Si / 1000 Ang^3
#
#
#
# Elastic Constant Matrix: (Units=GPa)
#
#
# Indices 1 2 3 4 5 6 
#
# 1 97.3110 42.8021 31.1807 0.0000 -4.2453 0.0000
# 2 42.8021 128.8089 55.5596 0.0000 3.5531 0.0000
# 3 31.1807 55.5596 71.2999 0.0000 -2.3981 0.0000
# 4 0.0000 0.0000 0.0000 25.6742 0.0000 2.9445
# 5 -4.2453 3.5531 -2.3981 0.0000 31.6826 0.0000
# 6 0.0000 0.0000 0.0000 2.9445 0.0000 29.1790
#
#
#
# Elastic Compliance Matrix: (Units=1/GPa)
#
#
# Indices 1 2 3 4 5 6 
#
# 1 0.012649 -0.002849 -0.003252 0.000000 0.001768 0.000000
# 2 -0.002849 0.012464 -0.008548 0.000000 -0.002427 0.000000
# 3 -0.003252 -0.008548 0.022183 0.000000 0.002202 0.000000
# 4 0.000000 0.000000 0.000000 0.039406 0.000000 -0.003977
# 5 0.001768 -0.002427 0.002202 0.000000 0.032239 0.000000
# 6 0.000000 0.000000 0.000000 -0.003977 0.000000 0.034673
#
#
# Mechanical properties :
#
#
# Convention : Reuss Voigt Hill
#
# Bulk Modulus (GPa) = 55.56500 61.83385 58.69943
# Shear Modulus (GPa) = 26.46763 28.49898 27.48331
#
# Velocity S-wave (km/s) = 3.61735 3.75360 3.68611
# Velocity P-wave (km/s) = 6.70206 7.02537 6.86562
#
# Compressibility (1/GPa) = 0.01799694
#
# Stress axis : x y z
#
# Youngs Moduli (GPa) = 79.05991 80.22914 45.08048
#
# Poissons Ratio (x) = 0.22859 0.14659
# Poissons Ratio (y) = 0.22526 0.38536
# Poissons Ratio (z) = 0.25709 0.68582
#
# Static dielectric constant tensor:
#      x y z
#    x 3.992290 0.000000 -0.161150 
#    y 0.000000 3.361020 0.000000 
#    z -0.161150 0.000000 3.770060 
# 
# 
# High freq. dielectric constant tensor:
#      x y z
#    x 1.808980 0.000000 -0.008340 
#    y 0.000000 1.758180 0.000000 
#    z -0.008340 0.000000 1.793150 
# 
# From -- ./inp_files/155146.got.cif
#   From: 2010.06.25/outbox.cif.g09.slc.cpg/sg15_78_cif.got.tgz:155146.got - 2010.06.28 07:06:18.
