data_PCOD8138458
_publ_section_title
;
Structure prediction by ZEFSAII (Michael W. Deem and Ramdas Pophale) SiO2 
 PCOD8138458
Probable space group: C 2/C
;
_chemical_formula_sum "Si O2"
_cell_formula_units_Z 48
_cell_length_a 19.236262
_cell_length_b 7.451461
_cell_length_c 25.661028
_cell_angle_alpha 90.000000
_cell_angle_beta 138.537065
_cell_angle_gamma 90.000000
_cell_volume 2435.471085
_symmetry_space_group_name_H-M "C 2/C"
_symmetry_group_IT_number 15
_symmetry_cell_setting 'monoclinic'
loop_
_space_group_symop_operation_xyz
x,y,z
-x,y,1/2-z
-x,-y,-z
x,-y,1/2+z
1/2+x,1/2+y,z
1/2-x,1/2+y,1/2-z
1/2-x,1/2-y,-z
1/2+x,1/2-y,1/2+z
loop_
_atom_site_type_symbol
_atom_site_label
_atom_site_fract_x
_atom_site_fract_y
_atom_site_fract_z
Si Si1 0.330030 0.502048 0.407112
Si Si2 0.081090 0.320799 0.907484
Si Si3 0.332024 0.294420 0.659019
Si Si4 0.514681 0.500055 0.592311
Si Si5 0.984964 0.295802 0.158560
Si Si6 0.765725 0.822136 0.092291
O O1 0.270741 0.318760 0.386197
O O2 0.427463 0.516781 0.499765
O O3 0.370463 0.502123 0.370062
O O4 0.256450 0.673768 0.375969
O O5 0.138855 0.249177 0.888762
O O6 0.013876 0.496132 0.856232
O O7 0.164792 0.364642 0.999824
O O8 0.995851 0.171935 0.876085
O O9 0.418473 0.251206 0.750440
O O10 0.375095 0.248061 0.625571
O O11 0.300444 0.502083 0.643100
O O12 0.495074 0.316991 0.611869
#
# Coordination Sequence:
#
# PCOD8138458 Si02
#       6
#     8   8   8   8   8   8
#     4  10  22  41  63  91 122 154 201 255 299 350
#     4  10  20  37  65  91 114 155 205 250 293 347
#     4  11  23  39  59  90 122 164 202 243 298 358
#     4  10  22  41  63  91 122 154 201 255 299 350
#     4  11  23  39  59  90 122 164 202 243 298 358
#     4  10  20  37  65  91 114 155 205 250 293 347
#
# _framework density 19.708711999999998
#
# number of rings (size 3 to 8) (size 9 to 14) (size 15 to 20)
#    0.000    1.667    3.333    1.000    0.000    4.000 
#    6.000    5.000    0.000    0.000    0.000    0.000 
#    0.000    0.000    0.000    0.000    0.000    0.000 
#
# Total GULP energy -297687.430340 kJ/mol
# GULP energy per Si atom -12403.642931 kJ/mol
# Density = 1.966385 g / cm^3
# Si number density = 19.708712 Si / 1000 Ang^3
#
#
#
# Elastic Constant Matrix: (Units=GPa)
#
#
# Indices 1 2 3 4 5 6 
#
# 1 169.7588 79.9601 20.2688 0.0000 8.8936 0.0000
# 2 79.9601 189.0364 41.1840 0.0000 4.9908 -0.0003
# 3 20.2688 41.1840 29.6004 0.0000 0.9926 -0.0002
# 4 0.0000 0.0000 0.0000 31.9357 0.0000 3.9979
# 5 8.8936 4.9908 0.9926 0.0000 11.8538 0.0000
# 6 0.0000 -0.0003 -0.0002 3.9979 0.0000 66.4161
#
#
#
# Elastic Compliance Matrix: (Units=1/GPa)
#
#
# Indices 1 2 3 4 5 6 
#
# 1 0.007599 -0.002865 -0.001070 0.000000 -0.004405 0.000000
# 2 -0.002865 0.008735 -0.010169 0.000000 -0.000677 0.000000
# 3 -0.001070 -0.010169 0.048630 0.000000 0.001012 0.000000
# 4 0.000000 0.000000 0.000000 0.031551 0.000000 -0.001899
# 5 -0.004405 -0.000677 0.001012 0.000000 0.087867 0.000000
# 6 0.000000 0.000000 0.000000 -0.001899 0.000000 0.015171
#
#
# Mechanical properties :
#
#
# Convention : Reuss Voigt Hill
#
# Bulk Modulus (GPa) = 27.20552 74.58016 50.89284
# Shear Modulus (GPa) = 20.83236 38.50664 29.66950
#
# Velocity S-wave (km/s) = 3.25470 4.42496 3.88416
# Velocity P-wave (km/s) = 5.28752 8.00190 6.78190
#
# Compressibility (1/GPa) = 0.03675725
#
# Stress axis : x y z
#
# Youngs Moduli (GPa) = 131.60359 114.48092 20.56331
#
# Poissons Ratio (x) = 0.32796 0.02199
# Poissons Ratio (y) = 0.37702 0.20911
# Poissons Ratio (z) = 0.14075 1.16416
#
# Static dielectric constant tensor:
#      x y z
#    x 3.994200 0.000000 0.035040 
#    y 0.000000 3.824380 0.000000 
#    z 0.035040 0.000000 3.308570 
# 
# 
# High freq. dielectric constant tensor:
#      x y z
#    x 1.773030 0.000000 0.001230 
#    y 0.000000 1.781090 0.000000 
#    z 0.001230 0.000000 1.748260 
# 
# From -- ./inp_files/261090.got.cif
#   From: 2010.06.25/outbox.cif.g09.slc.cpg/sg15_131_cif.got.tgz:261090.got - 2010.06.28 07:06:18.
