data_PCOD8138804
_publ_section_title
;
Structure prediction by ZEFSAII (Michael W. Deem and Ramdas Pophale) SiO2 
 PCOD8138804
Probable space group: C 2/C
;
_chemical_formula_sum "Si O2"
_cell_formula_units_Z 52
_cell_length_a 16.663035
_cell_length_b 9.151820
_cell_length_c 24.942059
_cell_angle_alpha 90.000000
_cell_angle_beta 41.758886
_cell_angle_gamma 90.000000
_cell_volume 2533.181973
_symmetry_space_group_name_H-M "C 2/C"
_symmetry_group_IT_number 15
_symmetry_cell_setting 'monoclinic'
loop_
_space_group_symop_operation_xyz
x,y,z
-x,y,1/2-z
-x,-y,-z
x,-y,1/2+z
1/2+x,1/2+y,z
1/2-x,1/2+y,1/2-z
1/2-x,1/2-y,-z
1/2+x,1/2-y,1/2+z
loop_
_atom_site_type_symbol
_atom_site_label
_atom_site_fract_x
_atom_site_fract_y
_atom_site_fract_z
Si Si1 0.515390 0.562121 0.432990
Si Si2 0.182321 0.287300 0.303913
Si Si3 0.122021 0.794616 0.713357
Si Si4 0.513848 0.051149 0.419709
Si Si5 0.867057 0.317109 0.539086
Si Si6 0.000000 0.927131 0.250000
Si Si7 0.533084 0.690388 0.840515
O O1 0.500000 0.500000 0.500000
O O2 0.643489 0.642901 0.357335
O O3 0.416468 0.689518 0.475876
O O4 0.492085 0.436482 0.401482
O O5 0.147075 0.267039 0.259395
O O6 0.118815 0.432539 0.358058
O O7 0.323759 0.307041 0.238987
O O8 0.231439 0.768067 0.618164
O O9 0.000000 0.720729 0.750000
O O10 0.106464 0.970924 0.721418
O O11 0.558359 0.166455 0.442661
O O12 0.488422 0.150296 0.381032
O O13 0.387983 0.971732 0.498038
O O14 0.962550 0.828933 0.319347
#
# Coordination Sequence:
#
# PCOD8138804 Si02
#       7
#     8   8   8   8   8   4   8
#     4  11  20  36  64  99 124 162 221 264 314 385
#     4  11  21  38  66  92 123 174 217 259 309 394
#     4  10  20  41  65  88 124 171 219 257 315 380
#     4  10  21  34  62  94 128 160 213 260 332 371
#     4  10  20  38  61  95 128 163 205 277 317 384
#     4  10  24  40  64  90 134 158 218 266 318 366
#     4  12  21  41  64  95 127 172 217 262 321 389
#
# _framework density 20.527542
#
# number of rings (size 3 to 8) (size 9 to 14) (size 15 to 20)
#    0.462    0.923    4.615    1.846    0.000    0.000 
#    1.385    7.692    3.385    0.000    0.000    0.000 
#    0.000    0.000    0.000    0.000    0.000    0.000 
#
# Total GULP energy -322188.190328 kJ/mol
# GULP energy per Si atom -12391.853474 kJ/mol
# Density = 2.048082 g / cm^3
# Si number density = 20.527542 Si / 1000 Ang^3
#
#
#
# Elastic Constant Matrix: (Units=GPa)
#
#
# Indices 1 2 3 4 5 6 
#
# 1 65.8984 21.0430 32.3909 0.0000 17.0103 0.0002
# 2 21.0430 86.5626 31.8340 0.0000 16.5830 0.0005
# 3 32.3909 31.8340 126.0593 0.0000 5.0867 0.0000
# 4 0.0000 0.0000 0.0000 42.3689 0.0000 15.7001
# 5 17.0103 16.5830 5.0867 0.0000 37.8455 0.0000
# 6 0.0002 0.0005 0.0000 15.7001 0.0000 21.8404
#
#
#
# Elastic Compliance Matrix: (Units=1/GPa)
#
#
# Indices 1 2 3 4 5 6 
#
# 1 0.019824 -0.001777 -0.004341 0.000000 -0.007548 0.000000
# 2 -0.001777 0.013989 -0.002877 0.000000 -0.004945 0.000000
# 3 -0.004341 -0.002877 0.009698 0.000000 0.001908 0.000000
# 4 0.000000 0.000000 0.000000 0.032172 0.000000 -0.023127
# 5 -0.007548 -0.004945 0.001908 0.000000 0.031726 0.000000
# 6 0.000000 0.000000 0.000000 -0.023127 0.000000 0.062412
#
#
# Mechanical properties :
#
#
# Convention : Reuss Voigt Hill
#
# Bulk Modulus (GPa) = 39.18032 49.89513 44.53773
# Shear Modulus (GPa) = 25.46900 33.29445 29.38172
#
# Velocity S-wave (km/s) = 3.52621 4.03170 3.78740
# Velocity P-wave (km/s) = 5.97554 6.78469 6.39293
#
# Compressibility (1/GPa) = 0.02552302
#
# Stress axis : x y z
#
# Youngs Moduli (GPa) = 50.44334 71.48252 103.11897
#
# Poissons Ratio (x) = 0.12702 0.44759
# Poissons Ratio (y) = 0.08963 0.29664
# Poissons Ratio (z) = 0.21895 0.20563
#
# Static dielectric constant tensor:
#      x y z
#    x 3.281510 0.000000 0.209590 
#    y 0.000000 3.918570 0.000000 
#    z 0.209590 0.000000 4.027970 
# 
# 
# High freq. dielectric constant tensor:
#      x y z
#    x 1.758830 0.000000 0.021250 
#    y 0.000000 1.810170 0.000000 
#    z 0.021250 0.000000 1.819930 
# 
# From -- ./inp_files/298338.got.cif
#   From: 2010.06.25/outbox.cif.g09.slc.cpg/sg15_150_cif.got.tgz:298338.got - 2010.06.28 07:06:18.
