data_PCOD8138609
_publ_section_title
;
Structure prediction by ZEFSAII (Michael W. Deem and Ramdas Pophale) SiO2 
 PCOD8138609
Probable space group: C 2/C
;
_chemical_formula_sum "Si O2"
_cell_formula_units_Z 60
_cell_length_a 8.783595
_cell_length_b 13.087807
_cell_length_c 23.151997
_cell_angle_alpha 90.000000
_cell_angle_beta 84.417760
_cell_angle_gamma 90.000000
_cell_volume 2648.885250
_symmetry_space_group_name_H-M "C 2/C"
_symmetry_group_IT_number 15
_symmetry_cell_setting 'monoclinic'
loop_
_space_group_symop_operation_xyz
x,y,z
-x,y,1/2-z
-x,-y,-z
x,-y,1/2+z
1/2+x,1/2+y,z
1/2-x,1/2+y,1/2-z
1/2-x,1/2-y,-z
1/2+x,1/2-y,1/2+z
loop_
_atom_site_type_symbol
_atom_site_label
_atom_site_fract_x
_atom_site_fract_y
_atom_site_fract_z
Si Si1 0.000000 0.844386 0.750000
Si Si2 0.161643 0.170901 0.431871
Si Si3 0.654916 0.634116 0.556556
Si Si4 0.588201 0.889875 0.658045
Si Si5 0.410752 0.684487 0.652483
Si Si6 0.300355 0.992455 0.632551
Si Si7 0.881227 0.794130 0.868870
Si Si8 0.239957 0.014351 0.762865
O O1 0.952547 0.768307 0.803486
O O2 0.862386 0.913550 0.733590
O O3 0.295224 0.248706 0.444547
O O4 0.121542 0.104240 0.490821
O O5 0.244561 0.106572 0.378560
O O6 0.005942 0.224233 0.414549
O O7 0.507576 0.618398 0.603057
O O8 0.792614 0.569983 0.579465
O O9 0.515750 0.776966 0.676226
O O10 0.464606 0.940054 0.620005
O O11 0.608970 0.968583 0.710912
O O12 0.269064 0.725089 0.619051
O O13 0.347440 0.610375 0.705052
O O14 0.280791 0.047622 0.695775
O O15 0.161898 0.913216 0.629345
#
# Coordination Sequence:
#
# PCOD8138609 Si02
#       8
#     4   8   8   8   8   8   8   8
#     4  10  20  38  58  92 126 152 214 266 316 390
#     4  10  22  42  66  88 128 168 217 267 329 379
#     4  10  23  42  62  93 124 169 218 273 315 392
#     4  10  22  43  65  94 130 170 210 271 329 392
#     4  10  23  41  63  95 127 173 216 260 343 382
#     4  10  23  41  60  92 129 157 220 263 321 397
#     4  10  21  39  60  91 124 164 208 267 319 399
#     4  11  21  41  64  92 131 166 211 273 321 399
#
# _framework density 22.651039000000001
#
# number of rings (size 3 to 8) (size 9 to 14) (size 15 to 20)
#    0.000    1.867    1.333    2.000    1.867    2.667 
#   24.000    0.000    0.000    0.000    0.000    0.000 
#    0.000    0.000    0.000    0.000    0.000    0.000 
#
# Total GULP energy -371757.469279 kJ/mol
# GULP energy per Si atom -12391.915643 kJ/mol
# Density = 2.259948 g / cm^3
# Si number density = 22.651039 Si / 1000 Ang^3
#
#
#
# Elastic Constant Matrix: (Units=GPa)
#
#
# Indices 1 2 3 4 5 6 
#
# 1 86.0061 9.0082 20.0110 0.0000 14.7566 0.0000
# 2 9.0082 50.3536 21.6716 0.0000 -0.5756 0.0000
# 3 20.0110 21.6716 86.3593 0.0000 17.8244 0.0000
# 4 0.0000 0.0000 0.0000 20.7082 0.0000 2.7261
# 5 14.7566 -0.5756 17.8244 0.0000 25.9494 0.0000
# 6 0.0000 0.0000 0.0000 2.7261 0.0000 29.4236
#
#
#
# Elastic Compliance Matrix: (Units=1/GPa)
#
#
# Indices 1 2 3 4 5 6 
#
# 1 0.013269 -0.001939 -0.001191 0.000000 -0.006771 0.000000
# 2 -0.001939 0.023130 -0.006628 0.000000 0.006168 0.000000
# 3 -0.001191 -0.006628 0.015624 0.000000 -0.010202 0.000000
# 4 0.000000 0.000000 0.000000 0.048886 0.000000 -0.004529
# 5 -0.006771 0.006168 -0.010202 0.000000 0.049531 0.000000
# 6 0.000000 0.000000 0.000000 -0.004529 0.000000 0.034406
#
#
# Mechanical properties :
#
#
# Convention : Reuss Voigt Hill
#
# Bulk Modulus (GPa) = 30.76188 36.01117 33.38652
# Shear Modulus (GPa) = 23.23445 26.68480 24.95962
#
# Velocity S-wave (km/s) = 3.20622 3.43604 3.32312
# Velocity P-wave (km/s) = 5.22654 5.62802 5.43099
#
# Compressibility (1/GPa) = 0.03250776
#
# Stress axis : x y z
#
# Youngs Moduli (GPa) = 75.36436 43.23463 64.00222
#
# Poissons Ratio (x) = 0.08382 0.07620
# Poissons Ratio (y) = 0.14611 0.42422
# Poissons Ratio (z) = 0.08973 0.28657
#
# Static dielectric constant tensor:
#      x y z
#    x 4.204380 0.000000 -0.075870 
#    y 0.000000 3.779060 0.000000 
#    z -0.075870 0.000000 4.198630 
# 
# 
# High freq. dielectric constant tensor:
#      x y z
#    x 1.906700 0.000000 0.001490 
#    y 0.000000 1.868860 0.000000 
#    z 0.001490 0.000000 1.880850 
# 
# From -- ./inp_files/264291.got.cif
#   From: 2010.06.25/outbox.cif.g09.slc.cpg/sg15_133_cif.got.tgz:264291.got - 2010.06.28 07:06:18.
