data_PCOD8138121
_publ_section_title
;
Structure prediction by ZEFSAII (Michael W. Deem and Ramdas Pophale) SiO2 
 PCOD8138121
Probable space group: C 2/C
;
_chemical_formula_sum "Si O2"
_cell_formula_units_Z 64
_cell_length_a 12.046055
_cell_length_b 18.379155
_cell_length_c 19.726432
_cell_angle_alpha 90.000000
_cell_angle_beta 48.923407
_cell_angle_gamma 90.000000
_cell_volume 3292.254695
_symmetry_space_group_name_H-M "C 2/C"
_symmetry_group_IT_number 15
_symmetry_cell_setting 'monoclinic'
loop_
_space_group_symop_operation_xyz
x,y,z
-x,y,1/2-z
-x,-y,-z
x,-y,1/2+z
1/2+x,1/2+y,z
1/2-x,1/2+y,1/2-z
1/2-x,1/2-y,-z
1/2+x,1/2-y,1/2+z
loop_
_atom_site_type_symbol
_atom_site_label
_atom_site_fract_x
_atom_site_fract_y
_atom_site_fract_z
Si Si1 0.065409 0.024445 0.566637
Si Si2 0.300183 0.160613 0.144634
Si Si3 0.094363 0.741249 0.524937
Si Si4 0.759412 0.553543 0.754120
Si Si5 0.833670 0.989140 0.837014
Si Si6 0.869932 0.593830 0.251519
Si Si7 0.105282 0.295317 0.269784
Si Si8 0.435017 0.386511 0.557504
O O1 0.120812 0.088531 0.494646
O O2 0.907724 0.043391 0.658836
O O3 0.187402 0.015191 0.576916
O O4 0.051312 0.947001 0.535403
O O5 0.195133 0.096519 0.160288
O O6 0.402046 0.130432 0.165245
O O7 0.202022 0.225854 0.212758
O O8 0.396667 0.185480 0.041569
O O9 0.250000 0.750000 0.500000
O O10 0.980419 0.713667 0.625986
O O11 0.033220 0.814741 0.516303
O O12 0.772878 0.537786 0.667853
O O13 0.862281 0.494074 0.750682
O O14 0.794932 0.634588 0.760492
O O15 0.000000 0.003408 0.750000
O O16 0.709952 0.624100 0.338548
O O17 0.000000 0.617252 0.250000
O O18 0.000000 0.312303 0.250000
#
# Coordination Sequence:
#
# PCOD8138121 Si02
#       8
#     8   8   8   8   8   8   8   8
#     4   9  18  34  62  89 115 155 200 254 299 356
#     4  11  22  40  62  88 124 158 202 255 300 368
#     4  12  24  37  61  95 122 158 203 251 318 365
#     4   9  20  37  59  88 121 152 200 252 304 359
#     4   9  18  36  62  85 116 161 200 240 306 362
#     4  10  21  43  63  81 117 171 207 241 306 367
#     4  12  23  38  60  89 125 158 194 258 310 359
#     4  10  20  37  59  89 121 150 207 253 295 371
#
# _framework density 19.439565000000002
#
# number of rings (size 3 to 8) (size 9 to 14) (size 15 to 20)
#    0.000    1.750    2.500    3.000    0.000    0.000 
#    9.000    5.000    0.000    0.000    0.000    0.000 
#    0.000    0.000    0.000    0.000    0.000    0.000 
#
# Total GULP energy -396658.019683 kJ/mol
# GULP energy per Si atom -12395.563115 kJ/mol
# Density = 1.939532 g / cm^3
# Si number density = 19.439565 Si / 1000 Ang^3
#
#
#
# Elastic Constant Matrix: (Units=GPa)
#
#
# Indices 1 2 3 4 5 6 
#
# 1 106.5804 50.5991 28.0324 -0.0008 26.4793 0.0001
# 2 50.5991 97.6831 15.7861 -0.0001 17.6331 0.0000
# 3 28.0324 15.7861 67.6588 -0.0012 31.9695 0.0006
# 4 -0.0008 -0.0001 -0.0012 26.9221 0.0007 4.3676
# 5 26.4793 17.6331 31.9695 0.0007 31.9239 -0.0003
# 6 0.0001 0.0000 0.0006 4.3676 -0.0003 28.3538
#
#
#
# Elastic Compliance Matrix: (Units=1/GPa)
#
#
# Indices 1 2 3 4 5 6 
#
# 1 0.014336 -0.005884 -0.000918 0.000001 -0.007721 0.000000
# 2 -0.005884 0.013798 0.000975 0.000000 -0.003718 0.000000
# 3 -0.000918 0.000975 0.028146 0.000002 -0.027963 -0.000001
# 4 0.000001 0.000000 0.000002 0.038096 -0.000004 -0.005868
# 5 -0.007721 -0.003718 -0.027963 -0.000004 0.067785 0.000002
# 6 0.000000 0.000000 -0.000001 -0.005868 0.000002 0.036173
#
#
# Mechanical properties :
#
#
# Convention : Reuss Voigt Hill
#
# Bulk Modulus (GPa) = 22.40878 51.19528 36.80203
# Shear Modulus (GPa) = 22.23580 29.27362 25.75471
#
# Velocity S-wave (km/s) = 3.38574 3.88477 3.64381
# Velocity P-wave (km/s) = 5.18042 6.82017 6.05605
#
# Compressibility (1/GPa) = 0.04462537
#
# Stress axis : x y z
#
# Youngs Moduli (GPa) = 69.75613 72.47240 35.52939
#
# Poissons Ratio (x) = 0.42640 0.03263
# Poissons Ratio (y) = 0.41041 -0.03464
# Poissons Ratio (z) = 0.06407 -0.07065
#
# Static dielectric constant tensor:
#      x y z
#    x 3.729330 0.000000 0.529460 
#    y 0.000000 3.693700 0.000010 
#    z 0.529460 0.000010 3.691500 
# 
# 
# High freq. dielectric constant tensor:
#      x y z
#    x 1.751800 0.000000 0.026030 
#    y 0.000000 1.754050 0.000000 
#    z 0.026030 0.000000 1.753880 
# 
# From -- ./inp_files/239798.got.cif
#   From: 2010.06.25/outbox.cif.g09.slc.cpg/sg15_120_cif.got.tgz:239798.got - 2010.06.28 07:06:18.
