data_PCOD8138296
_publ_section_title
;
Structure prediction by ZEFSAII (Michael W. Deem and Ramdas Pophale) SiO2 
 PCOD8138296
Probable space group: C 2/C
;
_chemical_formula_sum "Si O2"
_cell_formula_units_Z 56
_cell_length_a 15.664268
_cell_length_b 12.114588
_cell_length_c 14.622975
_cell_angle_alpha 90.000000
_cell_angle_beta 89.184780
_cell_angle_gamma 90.000000
_cell_volume 2774.664833
_symmetry_space_group_name_H-M "C 2/C"
_symmetry_group_IT_number 15
_symmetry_cell_setting 'monoclinic'
loop_
_space_group_symop_operation_xyz
x,y,z
-x,y,1/2-z
-x,-y,-z
x,-y,1/2+z
1/2+x,1/2+y,z
1/2-x,1/2+y,1/2-z
1/2-x,1/2-y,-z
1/2+x,1/2-y,1/2+z
loop_
_atom_site_type_symbol
_atom_site_label
_atom_site_fract_x
_atom_site_fract_y
_atom_site_fract_z
Si Si1 0.333079 0.298576 0.149288
Si Si2 0.108232 0.738277 0.027681
Si Si3 0.747132 0.410667 0.023198
Si Si4 0.412938 0.871623 0.786871
Si Si5 0.956687 0.880375 0.988001
Si Si6 0.741990 0.524185 0.315256
Si Si7 0.200360 0.880080 0.632312
O O1 0.384595 0.226475 0.220431
O O2 0.288538 0.400309 0.201810
O O3 0.255672 0.228150 0.105594
O O4 0.397838 0.348886 0.074627
O O5 0.160989 0.648782 0.967484
O O6 0.031231 0.790877 0.970909
O O7 0.173343 0.831749 0.063170
O O8 0.066996 0.680317 0.115456
O O9 0.751044 0.520621 0.082316
O O10 0.722557 0.434283 0.917799
O O11 0.500000 0.926693 0.750000
O O12 0.343425 0.968439 0.794897
O O13 0.897104 0.875225 0.899804
O O14 0.000000 0.000000 0.000000
O O15 0.695658 0.603239 0.241964
#
# Coordination Sequence:
#
# PCOD8138296 Si02
#       7
#     8   8   8   8   8   8   8
#     4  11  22  38  63  87 127 160 204 258 313 362
#     4  10  20  37  62  91 125 161 205 259 305 364
#     4  10  20  39  62  88 125 164 207 251 311 374
#     4  10  20  37  62  91 118 161 213 254 300 378
#     4  12  22  37  59  94 122 155 207 261 303 359
#     4  10  22  38  60  89 122 169 203 247 321 374
#     4  11  23  40  62  92 123 164 209 255 312 376
#
# _framework density 20.182617
#
# number of rings (size 3 to 8) (size 9 to 14) (size 15 to 20)
#    0.000    1.429    4.286    1.286    0.000    1.143 
#    0.000    5.714    0.000    0.000    0.000    0.000 
#    0.000    0.000    0.000    0.000    0.000    0.000 
#
# Total GULP energy -347155.550876 kJ/mol
# GULP energy per Si atom -12398.412531 kJ/mol
# Density = 2.013668 g / cm^3
# Si number density = 20.182617 Si / 1000 Ang^3
#
#
#
# Elastic Constant Matrix: (Units=GPa)
#
#
# Indices 1 2 3 4 5 6 
#
# 1 119.4918 36.8619 12.0114 0.0000 3.5005 0.0000
# 2 36.8619 70.3056 8.9825 0.0000 -3.2806 0.0000
# 3 12.0114 8.9825 49.2394 0.0000 -0.7252 0.0000
# 4 0.0000 0.0000 0.0000 26.7133 0.0000 -4.4266
# 5 3.5005 -3.2806 -0.7252 0.0000 32.5995 0.0000
# 6 0.0000 0.0000 0.0000 -4.4266 0.0000 46.9115
#
#
#
# Elastic Compliance Matrix: (Units=1/GPa)
#
#
# Indices 1 2 3 4 5 6 
#
# 1 0.010183 -0.005217 -0.001557 0.000000 -0.001653 0.000000
# 2 -0.005217 0.017301 -0.001850 0.000000 0.002260 0.000000
# 3 -0.001557 -0.001850 0.021033 0.000000 0.000449 0.000000
# 4 0.000000 0.000000 0.000000 0.038029 0.000000 0.003588
# 5 -0.001653 0.002260 0.000449 0.000000 0.031090 0.000000
# 6 0.000000 0.000000 0.000000 0.003588 0.000000 0.021655
#
#
# Mechanical properties :
#
#
# Convention : Reuss Voigt Hill
#
# Bulk Modulus (GPa) = 31.98092 39.41650 35.69871
# Shear Modulus (GPa) = 29.94674 33.32357 31.63515
#
# Velocity S-wave (km/s) = 3.85618 4.06778 3.96339
# Velocity P-wave (km/s) = 5.97553 6.45250 6.21859
#
# Compressibility (1/GPa) = 0.03126864
#
# Stress axis : x y z
#
# Youngs Moduli (GPa) = 98.20102 57.80010 47.54476
#
# Poissons Ratio (x) = 0.30157 0.07401
# Poissons Ratio (y) = 0.51235 0.08796
# Poissons Ratio (z) = 0.15286 0.10694
#
# Static dielectric constant tensor:
#      x y z
#    x 3.845200 0.000000 -0.031790 
#    y 0.000000 3.726960 0.000000 
#    z -0.031790 0.000000 3.612250 
# 
# 
# High freq. dielectric constant tensor:
#      x y z
#    x 1.792950 0.000000 -0.004120 
#    y 0.000000 1.785290 0.000000 
#    z -0.004120 0.000000 1.779880 
# 
# From -- ./inp_files/152626.got.cif
#   From: 2010.06.25/outbox.cif.g09.slc.cpg/sg15_77_cif.got.tgz:152626.got - 2010.06.28 07:06:18.
