data_PCOD8138181
_publ_section_title
;
Structure prediction by ZEFSAII (Michael W. Deem and Ramdas Pophale) SiO2 
 PCOD8138181
Probable space group: C 2/C
;
_chemical_formula_sum "Si O2"
_cell_formula_units_Z 56
_cell_length_a 8.792598
_cell_length_b 19.151171
_cell_length_c 17.548168
_cell_angle_alpha 90.000000
_cell_angle_beta 65.929995
_cell_angle_gamma 90.000000
_cell_volume 2697.974608
_symmetry_space_group_name_H-M "C 2/C"
_symmetry_group_IT_number 15
_symmetry_cell_setting 'monoclinic'
loop_
_space_group_symop_operation_xyz
x,y,z
-x,y,1/2-z
-x,-y,-z
x,-y,1/2+z
1/2+x,1/2+y,z
1/2-x,1/2+y,1/2-z
1/2-x,1/2-y,-z
1/2+x,1/2-y,1/2+z
loop_
_atom_site_type_symbol
_atom_site_label
_atom_site_fract_x
_atom_site_fract_y
_atom_site_fract_z
Si Si1 0.002712 0.936801 0.443020
Si Si2 0.234493 0.330199 0.481925
Si Si3 0.181335 0.640788 0.578136
Si Si4 0.313269 0.749307 0.306069
Si Si5 0.650727 0.500599 0.175765
Si Si6 0.695555 0.863402 0.318239
Si Si7 0.865649 0.627787 0.087064
O O1 0.883809 0.872176 0.492521
O O2 0.191704 0.909704 0.403407
O O3 0.930654 0.965628 0.380308
O O4 0.000000 0.000000 0.500000
O O5 0.250000 0.250000 0.500000
O O6 0.249694 0.331687 0.387879
O O7 0.064591 0.367162 0.544624
O O8 0.203396 0.718860 0.605757
O O9 0.209694 0.641881 0.481571
O O10 0.998698 0.616629 0.641436
O O11 0.500000 0.724815 0.250000
O O12 0.253457 0.806303 0.255897
O O13 0.198457 0.680897 0.334438
O O14 0.500000 0.540904 0.250000
O O15 0.713011 0.436823 0.216576
O O16 0.804849 0.550829 0.124147
#
# Coordination Sequence:
#
# PCOD8138181 Si02
#       7
#     8   8   8   8   8   8   8
#     4  11  22  38  64  91 123 158 207 256 304 371
#     4  10  23  41  63  90 120 164 211 258 310 371
#     4  10  20  37  64  90 116 160 206 252 296 365
#     4  10  20  37  60  90 118 161 204 250 302 368
#     4  11  23  40  60  91 125 167 200 252 312 368
#     4   9  22  40  66  85 122 167 208 246 310 372
#     4  11  22  38  62  89 126 157 202 257 308 361
#
# _framework density 20.756309999999999
#
# number of rings (size 3 to 8) (size 9 to 14) (size 15 to 20)
#    0.000    1.714    1.429    2.571    2.000    5.143 
#    2.571    0.000    0.000    0.000    0.000    0.000 
#    0.000    0.000    0.000    0.000    0.000    0.000 
#
# Total GULP energy -347062.606546 kJ/mol
# GULP energy per Si atom -12395.093091 kJ/mol
# Density = 2.070907 g / cm^3
# Si number density = 20.756310 Si / 1000 Ang^3
#
#
#
# Elastic Constant Matrix: (Units=GPa)
#
#
# Indices 1 2 3 4 5 6 
#
# 1 99.7170 48.8780 21.4464 0.0000 0.6610 0.0000
# 2 48.8780 117.4458 48.1391 0.0000 0.5784 0.0000
# 3 21.4464 48.1391 78.5256 0.0000 -6.5014 0.0000
# 4 0.0000 0.0000 0.0000 28.7921 0.0000 -1.7818
# 5 0.6610 0.5784 -6.5014 0.0000 19.8752 0.0000
# 6 0.0000 0.0000 0.0000 -1.7818 0.0000 38.3371
#
#
#
# Elastic Compliance Matrix: (Units=1/GPa)
#
#
# Indices 1 2 3 4 5 6 
#
# 1 0.012607 -0.005102 -0.000347 0.000000 -0.000384 0.000000
# 2 -0.005102 0.013578 -0.007143 0.000000 -0.002562 0.000000
# 3 -0.000347 -0.007143 0.017706 0.000000 0.006011 0.000000
# 4 0.000000 0.000000 0.000000 0.034832 0.000000 0.001619
# 5 -0.000384 -0.002562 0.006011 0.000000 0.052368 0.000000
# 6 0.000000 0.000000 0.000000 0.001619 0.000000 0.026160
#
#
# Mechanical properties :
#
#
# Convention : Reuss Voigt Hill
#
# Bulk Modulus (GPa) = 53.45617 59.17949 56.31783
# Shear Modulus (GPa) = 26.50140 29.21588 27.85864
#
# Velocity S-wave (km/s) = 3.57709 3.75582 3.66755
# Velocity P-wave (km/s) = 6.54759 6.88344 6.71761
#
# Compressibility (1/GPa) = 0.01870692
#
# Stress axis : x y z
#
# Youngs Moduli (GPa) = 79.32361 73.64673 56.47882
#
# Poissons Ratio (x) = 0.37578 0.01959
# Poissons Ratio (y) = 0.40475 0.40340
# Poissons Ratio (z) = 0.02751 0.52603
#
# Static dielectric constant tensor:
#      x y z
#    x 3.039670 0.000000 0.624680 
#    y 0.000000 4.369710 0.000000 
#    z 0.624680 0.000000 3.197610 
# 
# 
# High freq. dielectric constant tensor:
#      x y z
#    x 1.816180 0.000000 -0.008760 
#    y 0.000000 1.811780 0.000000 
#    z -0.008760 0.000000 1.810570 
# 
# From -- ./inp_files/190935.got.cif
#   From: 2010.06.25/outbox.cif.g09.slc.cpg/sg15_96_cif.got.tgz:190935.got - 2010.06.28 07:06:18.
