data_PCOD8138474
_publ_section_title
;
Structure prediction by ZEFSAII (Michael W. Deem and Ramdas Pophale) SiO2 
 PCOD8138474
Probable space group: C 2/C
;
_chemical_formula_sum "Si O2"
_cell_formula_units_Z 56
_cell_length_a 11.769545
_cell_length_b 17.030318
_cell_length_c 16.442130
_cell_angle_alpha 90.000000
_cell_angle_beta 56.253142
_cell_angle_gamma 90.000000
_cell_volume 2740.329607
_symmetry_space_group_name_H-M "C 2/C"
_symmetry_group_IT_number 15
_symmetry_cell_setting 'monoclinic'
loop_
_space_group_symop_operation_xyz
x,y,z
-x,y,1/2-z
-x,-y,-z
x,-y,1/2+z
1/2+x,1/2+y,z
1/2-x,1/2+y,1/2-z
1/2-x,1/2-y,-z
1/2+x,1/2-y,1/2+z
loop_
_atom_site_type_symbol
_atom_site_label
_atom_site_fract_x
_atom_site_fract_y
_atom_site_fract_z
Si Si1 0.911737 0.611055 0.365275
Si Si2 0.956157 0.940090 0.945316
Si Si3 0.500000 0.149765 0.750000
Si Si4 0.500000 0.415977 0.750000
Si Si5 0.527082 0.174225 0.474709
Si Si6 0.335894 0.696211 0.112678
Si Si7 0.791074 0.217240 0.307902
Si Si8 0.861378 0.441478 0.443666
O O1 0.772495 0.659942 0.406657
O O2 0.870940 0.534754 0.433441
O O3 0.000000 0.591250 0.250000
O O4 0.003355 0.660888 0.389037
O O5 0.998541 0.967956 0.835012
O O6 0.033061 0.859135 0.930818
O O7 0.796079 0.920498 0.010758
O O8 0.000000 0.000000 0.000000
O O9 0.626358 0.203139 0.722912
O O10 0.538431 0.094752 0.661601
O O11 0.631043 0.359756 0.690406
O O12 0.396304 0.218165 0.564780
O O13 0.660603 0.230178 0.418202
O O14 0.574097 0.092844 0.498798
O O15 0.252954 0.703575 0.229115
#
# Coordination Sequence:
#
# PCOD8138474 Si02
#       8
#     8   8   4   4   8   8   8   8
#     4  12  25  44  65  92 135 182 214 262 335 405
#     4  11  22  40  67  95 132 171 215 275 343 393
#     4  11  22  38  64 102 127 156 218 288 327 382
#     4   9  20  36  64  96 125 172 218 264 331 412
#     4  12  24  42  69  95 130 175 224 270 323 400
#     4  11  23  42  67  95 128 172 217 270 328 398
#     4  10  20  37  65  98 126 161 218 275 332 379
#     4  12  24  42  67  98 129 168 224 277 331 393
#
# _framework density 20.435497999999999
#
# number of rings (size 3 to 8) (size 9 to 14) (size 15 to 20)
#    0.000    0.857    6.429    1.714    0.000    1.143 
#    0.000    0.000    1.571    0.000    0.000    0.000 
#    0.000    0.000    0.000    0.000    0.000    0.000 
#
# Total GULP energy -346928.610359 kJ/mol
# GULP energy per Si atom -12390.307513 kJ/mol
# Density = 2.038899 g / cm^3
# Si number density = 20.435498 Si / 1000 Ang^3
#
#
#
# Elastic Constant Matrix: (Units=GPa)
#
#
# Indices 1 2 3 4 5 6 
#
# 1 114.4473 32.4055 38.0049 0.0000 2.9871 0.0000
# 2 32.4055 60.4872 7.2427 0.0000 2.7167 0.0000
# 3 38.0049 7.2427 78.0543 0.0000 3.7227 0.0000
# 4 0.0000 0.0000 0.0000 21.8128 0.0001 -0.9565
# 5 2.9871 2.7167 3.7227 0.0001 41.4107 0.0000
# 6 0.0000 0.0000 0.0000 -0.9565 0.0000 37.2319
#
#
#
# Elastic Compliance Matrix: (Units=1/GPa)
#
#
# Indices 1 2 3 4 5 6 
#
# 1 0.012195 -0.005888 -0.005391 0.000000 -0.000009 0.000000
# 2 -0.005888 0.019599 0.001094 0.000000 -0.000959 0.000000
# 3 -0.005391 0.001094 0.015386 0.000000 -0.001066 0.000000
# 4 0.000000 0.000000 0.000000 0.045896 0.000000 0.001179
# 5 -0.000009 -0.000959 -0.001066 0.000000 0.024308 0.000000
# 6 0.000000 0.000000 0.000000 0.001179 0.000000 0.026889
#
#
# Mechanical properties :
#
#
# Convention : Reuss Voigt Hill
#
# Bulk Modulus (GPa) = 37.29933 45.36611 41.33272
# Shear Modulus (GPa) = 28.80528 31.78012 30.29270
#
# Velocity S-wave (km/s) = 3.75850 3.94781 3.85432
# Velocity P-wave (km/s) = 6.09319 6.55958 6.33068
#
# Compressibility (1/GPa) = 0.02681013
#
# Stress axis : x y z
#
# Youngs Moduli (GPa) = 81.99964 51.02373 64.99451
#
# Poissons Ratio (x) = 0.30040 0.35040
# Poissons Ratio (y) = 0.48277 -0.07109
# Poissons Ratio (z) = 0.44207 -0.05581
#
# Static dielectric constant tensor:
#      x y z
#    x 3.776090 0.000000 0.126140 
#    y 0.000000 3.542860 0.000000 
#    z 0.126140 0.000000 3.830450 
# 
# 
# High freq. dielectric constant tensor:
#      x y z
#    x 1.808650 0.000000 0.000780 
#    y 0.000000 1.774890 0.000000 
#    z 0.000780 0.000000 1.812580 
# 
# From -- ./inp_files/146023.got.cif
#   From: 2010.06.25/outbox.cif.g09.slc.cpg/sg15_74_cif.got.tgz:146023.got - 2010.06.28 07:06:18.
