data_PCOD8138600
_publ_section_title
;
Structure prediction by ZEFSAII (Michael W. Deem and Ramdas Pophale) SiO2 
 PCOD8138600
Probable space group: C 2/C
;
_chemical_formula_sum "Si O2"
_cell_formula_units_Z 60
_cell_length_a 26.797193
_cell_length_b 12.462578
_cell_length_c 27.578732
_cell_angle_alpha 90.000000
_cell_angle_beta 160.107218
_cell_angle_gamma 90.000000
_cell_volume 3133.890224
_symmetry_space_group_name_H-M "C 2/C"
_symmetry_group_IT_number 15
_symmetry_cell_setting 'monoclinic'
loop_
_space_group_symop_operation_xyz
x,y,z
-x,y,1/2-z
-x,-y,-z
x,-y,1/2+z
1/2+x,1/2+y,z
1/2-x,1/2+y,1/2-z
1/2-x,1/2-y,-z
1/2+x,1/2-y,1/2+z
loop_
_atom_site_type_symbol
_atom_site_label
_atom_site_fract_x
_atom_site_fract_y
_atom_site_fract_z
Si Si1 0.608865 0.360180 0.184545
Si Si2 0.263593 0.565386 0.164908
Si Si3 0.496515 0.858592 0.462924
Si Si4 0.935783 0.163504 0.038473
Si Si5 0.500000 0.765872 0.250000
Si Si6 0.298055 0.188201 0.482391
Si Si7 0.154134 0.199072 0.102160
Si Si8 0.796026 0.035197 0.827855
O O1 0.661791 0.448420 0.270957
O O2 0.691505 0.249429 0.271104
O O3 0.625080 0.402569 0.143736
O O4 0.435655 0.332854 0.028616
O O5 0.392912 0.649191 0.293623
O O6 0.190779 0.591969 0.046521
O O7 0.140811 0.561698 0.097452
O O8 0.575126 0.772317 0.501183
O O9 0.438666 0.795389 0.456803
O O10 0.372396 0.928484 0.323350
O O11 0.840267 0.192870 0.998999
O O12 0.871086 0.065197 0.948068
O O13 0.581027 0.837965 0.365305
O O14 0.630668 0.691409 0.348261
O O15 0.185767 0.093156 0.163598
#
# Coordination Sequence:
#
# PCOD8138600 Si02
#       8
#     8   8   8   8   4   8   8   8
#     4  11  24  36  52  73 108 152 201 246 272 321
#     4  11  22  36  54  80 110 151 190 227 282 338
#     4  10  22  32  53  73 103 146 199 240 268 323
#     4  11  19  35  53  83 110 156 185 223 272 333
#     4  10  20  38  58  90 116 146 174 224 294 356
#     4  10  21  36  60  85 121 147 176 226 284 359
#     4  11  23  36  50  72 105 150 201 244 277 301
#     4  11  22  35  54  72 109 153 203 239 275 315
#
# _framework density 19.145533
#
# number of rings (size 3 to 8) (size 9 to 14) (size 15 to 20)
#    0.000    1.333    4.000    2.800    7.467    1.067 
#    0.000    0.000    0.000    0.000    0.000    0.000 
#    0.000   18.133    0.000    0.000    0.000    0.000 
#
# Total GULP energy -371651.707134 kJ/mol
# GULP energy per Si atom -12388.390238 kJ/mol
# Density = 1.910196 g / cm^3
# Si number density = 19.145533 Si / 1000 Ang^3
#
#
#
# Elastic Constant Matrix: (Units=GPa)
#
#
# Indices 1 2 3 4 5 6 
#
# 1 44.0129 -0.0717 17.9841 -0.0135 -8.4360 -0.0046
# 2 -0.0717 71.8298 29.2903 0.0112 -12.2847 0.0003
# 3 17.9841 29.2903 117.0832 -0.0207 -5.8843 -0.0036
# 4 -0.0135 0.0112 -0.0207 25.7407 0.0019 -2.8149
# 5 -8.4360 -12.2847 -5.8843 0.0019 33.2103 -0.0013
# 6 -0.0046 0.0003 -0.0036 -2.8149 -0.0013 11.7299
#
#
#
# Elastic Compliance Matrix: (Units=1/GPa)
#
#
# Indices 1 2 3 4 5 6 
#
# 1 0.025831 0.002986 -0.004368 0.000009 0.006892 0.000012
# 2 0.002986 0.016752 -0.004338 -0.000010 0.006186 -0.000002
# 3 -0.004368 -0.004338 0.010252 0.000008 -0.000898 0.000003
# 4 0.000009 -0.000010 0.000008 0.039896 -0.000002 0.009574
# 5 0.006892 0.006186 -0.000898 -0.000002 0.033991 0.000006
# 6 0.000012 -0.000002 0.000003 0.009574 0.000006 0.087550
#
#
# Mechanical properties :
#
#
# Convention : Reuss Voigt Hill
#
# Bulk Modulus (GPa) = 24.15839 36.37014 30.26427
# Shear Modulus (GPa) = 20.87576 26.51772 23.69674
#
# Velocity S-wave (km/s) = 3.30566 3.72568 3.52194
# Velocity P-wave (km/s) = 5.21685 6.12744 5.69039
#
# Compressibility (1/GPa) = 0.04139349
#
# Stress axis : x y z
#
# Youngs Moduli (GPa) = 38.71257 59.69459 97.54074
#
# Poissons Ratio (x) = -0.17824 0.42609
# Poissons Ratio (y) = -0.11559 0.42318
# Poissons Ratio (z) = 0.16911 0.25898
#
# Static dielectric constant tensor:
#      x y z
#    x 3.274550 -0.000010 0.091340 
#    y -0.000010 3.497530 -0.000030 
#    z 0.091340 -0.000030 3.962070 
# 
# 
# High freq. dielectric constant tensor:
#      x y z
#    x 1.680890 0.000000 0.009520 
#    y 0.000000 1.728410 0.000000 
#    z 0.009520 0.000000 1.781630 
# 
# From -- ./inp_files/320275.got.cif
#   From: 2010.06.25/outbox.cif.g09.slc.cpg/sg15_161_cif.got.tgz:320275.got - 2010.06.28 07:06:18.
