data_PCOD8138910
_publ_section_title
;
Structure prediction by ZEFSAII (Michael W. Deem and Ramdas Pophale) SiO2 
 PCOD8138910
Probable space group: C 2/C
;
_chemical_formula_sum "Si O2"
_cell_formula_units_Z 44
_cell_length_a 28.082443
_cell_length_b 5.685891
_cell_length_c 12.998764
_cell_angle_alpha 90.000000
_cell_angle_beta 111.676282
_cell_angle_gamma 90.000000
_cell_volume 1928.788729
_symmetry_space_group_name_H-M "C 2/C"
_symmetry_group_IT_number 15
_symmetry_cell_setting 'monoclinic'
loop_
_space_group_symop_operation_xyz
x,y,z
-x,y,1/2-z
-x,-y,-z
x,-y,1/2+z
1/2+x,1/2+y,z
1/2-x,1/2+y,1/2-z
1/2-x,1/2-y,-z
1/2+x,1/2-y,1/2+z
loop_
_atom_site_type_symbol
_atom_site_label
_atom_site_fract_x
_atom_site_fract_y
_atom_site_fract_z
Si Si1 0.367369 0.404203 0.943048
Si Si2 0.920634 0.064858 0.795960
Si Si3 0.835052 0.192152 0.098063
Si Si4 0.723891 0.739848 0.257616
Si Si5 0.000000 0.235067 0.250000
Si Si6 0.086579 0.565860 0.364761
O O1 0.404045 0.568751 0.901973
O O2 0.331117 0.241165 0.843412
O O3 0.329106 0.562507 0.983135
O O4 0.408947 0.256407 0.041198
O O5 0.874209 0.961229 0.693965
O O6 0.972343 0.919816 0.815512
O O7 0.928069 0.327797 0.758955
O O8 0.783030 0.218807 0.123490
O O9 0.857387 0.450507 0.096584
O O10 0.749378 0.490455 0.244382
O O11 0.958787 0.381702 0.149978
#
# Coordination Sequence:
#
# PCOD8138910 Si02
#       6
#     8   8   8   8   4   8
#     4  10  23  41  66  94 128 174 219 271 335 394
#     4   9  20  39  60  92 129 168 212 270 328 392
#     4   9  22  40  64  93 127 172 216 269 335 390
#     4  11  27  44  68 100 136 175 224 280 333 395
#     4  10  20  38  62  94 126 170 216 268 326 392
#     4  10  21  40  66  88 131 170 215 273 326 400
#
# _framework density 22.812245999999998
#
# number of rings (size 3 to 8) (size 9 to 14) (size 15 to 20)
#    0.000    2.182    0.000    0.545   10.182    5.091 
#    0.000   12.727    0.000    0.000    0.000    0.000 
#    0.000    0.000    0.000    0.000    0.000    0.000 
#
# Total GULP energy -272616.145797 kJ/mol
# GULP energy per Si atom -12391.642991 kJ/mol
# Density = 2.276032 g / cm^3
# Si number density = 22.812246 Si / 1000 Ang^3
#
#
#
# Elastic Constant Matrix: (Units=GPa)
#
#
# Indices 1 2 3 4 5 6 
#
# 1 77.5056 13.4329 22.8795 0.0000 -23.6907 0.0000
# 2 13.4329 91.2817 13.9299 0.0000 -4.3442 0.0000
# 3 22.8795 13.9299 90.8286 0.0000 -27.1102 0.0000
# 4 0.0000 0.0000 0.0000 12.6726 0.0000 6.9778
# 5 -23.6907 -4.3442 -27.1102 0.0000 36.0887 0.0000
# 6 0.0000 0.0000 0.0000 6.9778 0.0000 36.6894
#
#
#
# Elastic Compliance Matrix: (Units=1/GPa)
#
#
# Indices 1 2 3 4 5 6 
#
# 1 0.016527 -0.001819 -0.000917 0.000000 0.009942 0.000000
# 2 -0.001819 0.011418 -0.001597 0.000000 -0.001020 0.000000
# 3 -0.000917 -0.001597 0.014500 0.000000 0.010098 0.000000
# 4 0.000000 0.000000 0.000000 0.088140 0.000000 -0.016763
# 5 0.009942 -0.001020 0.010098 0.000000 0.041699 0.000000
# 6 0.000000 0.000000 0.000000 -0.016763 0.000000 0.030444
#
#
# Mechanical properties :
#
#
# Convention : Reuss Voigt Hill
#
# Bulk Modulus (GPa) = 29.60458 40.01118 34.80788
# Shear Modulus (GPa) = 22.45644 31.04838 26.75241
#
# Velocity S-wave (km/s) = 3.14092 3.69323 3.42822
# Velocity P-wave (km/s) = 5.11464 5.98030 5.56433
#
# Compressibility (1/GPa) = 0.03377856
#
# Stress axis : x y z
#
# Youngs Moduli (GPa) = 60.50716 87.58089 68.96675
#
# Poissons Ratio (x) = 0.15931 0.06323
# Poissons Ratio (y) = 0.11007 0.11015
# Poissons Ratio (z) = 0.05547 0.13989
#
# Static dielectric constant tensor:
#      x y z
#    x 4.185030 0.000000 -0.349230 
#    y 0.000000 4.231550 0.000000 
#    z -0.349230 0.000000 4.206930 
# 
# 
# High freq. dielectric constant tensor:
#      x y z
#    x 1.895110 0.000000 -0.010020 
#    y 0.000000 1.900000 0.000000 
#    z -0.010020 0.000000 1.893750 
# 
# From -- ./inp_files/124999.got.cif
#   From: 2010.06.25/outbox.cif.g09.slc.cpg/sg15_63_cif.got.tgz:124999.got - 2010.06.28 07:06:18.
