data_PCOD8138509
_publ_section_title
;
Structure prediction by ZEFSAII (Michael W. Deem and Ramdas Pophale) SiO2 
 PCOD8138509
Probable space group: C 2/C
;
_chemical_formula_sum "Si O2"
_cell_formula_units_Z 52
_cell_length_a 11.871824
_cell_length_b 26.045695
_cell_length_c 9.204308
_cell_angle_alpha 90.000000
_cell_angle_beta 113.684472
_cell_angle_gamma 90.000000
_cell_volume 2606.343566
_symmetry_space_group_name_H-M "C 2/C"
_symmetry_group_IT_number 15
_symmetry_cell_setting 'monoclinic'
loop_
_space_group_symop_operation_xyz
x,y,z
-x,y,1/2-z
-x,-y,-z
x,-y,1/2+z
1/2+x,1/2+y,z
1/2-x,1/2+y,1/2-z
1/2-x,1/2-y,-z
1/2+x,1/2-y,1/2+z
loop_
_atom_site_type_symbol
_atom_site_label
_atom_site_fract_x
_atom_site_fract_y
_atom_site_fract_z
Si Si1 0.034341 0.309259 0.995274
Si Si2 0.980398 0.909457 0.569013
Si Si3 0.000000 0.622664 0.750000
Si Si4 0.950935 0.199401 0.385303
Si Si5 0.235211 0.050511 0.176119
Si Si6 0.310977 0.163508 0.183075
Si Si7 0.219859 0.450550 0.461381
O O1 0.154535 0.313692 0.956109
O O2 0.918222 0.332894 0.855254
O O3 0.055619 0.340659 0.154499
O O4 0.008673 0.249162 0.004679
O O5 0.846531 0.929615 0.456964
O O6 0.000000 0.902132 0.750000
O O7 0.993507 0.851865 0.509698
O O8 0.087223 0.948320 0.569448
O O9 0.891100 0.587259 0.632876
O O10 0.803466 0.193778 0.307655
O O11 0.000000 0.207424 0.250000
O O12 0.287658 0.103666 0.145722
O O13 0.266679 0.042474 0.360595
O O14 0.302584 0.006098 0.120703
#
# Coordination Sequence:
#
# PCOD8138509 Si02
#       7
#     8   8   4   8   8   8   8
#     4  11  23  41  61  90 127 166 204 253 308 370
#     4   8  18  38  62  89 120 153 202 258 309 362
#     4  12  26  38  58  94 126 162 214 254 296 376
#     4  10  20  37  67  94 118 161 206 255 311 365
#     4  10  21  40  65  86 118 161 206 257 314 359
#     4  10  23  42  63  86 128 164 205 255 313 372
#     4  11  23  39  60  91 121 162 207 256 309 368
#
# _framework density 19.951322999999999
#
# number of rings (size 3 to 8) (size 9 to 14) (size 15 to 20)
#    0.000    1.846    2.308    1.846    2.154    3.692 
#    0.000    0.000    0.000    0.000    0.000    0.000 
#    0.000    0.000    0.000    0.000    0.000    0.000 
#
# Total GULP energy -322385.375099 kJ/mol
# GULP energy per Si atom -12399.437504 kJ/mol
# Density = 1.990591 g / cm^3
# Si number density = 19.951323 Si / 1000 Ang^3
#
#
#
# Elastic Constant Matrix: (Units=GPa)
#
#
# Indices 1 2 3 4 5 6 
#
# 1 105.6052 25.1177 31.3992 0.0000 -7.0810 0.0000
# 2 25.1177 103.4619 26.9120 0.0000 -3.8414 0.0000
# 3 31.3992 26.9120 65.4444 0.0000 -4.5285 0.0000
# 4 0.0000 0.0000 0.0000 20.7008 0.0000 -0.4296
# 5 -7.0810 -3.8414 -4.5285 0.0000 35.5016 0.0000
# 6 0.0000 0.0000 0.0000 -0.4296 0.0000 25.9508
#
#
#
# Elastic Compliance Matrix: (Units=1/GPa)
#
#
# Indices 1 2 3 4 5 6 
#
# 1 0.011323 -0.001464 -0.004727 0.000000 0.001497 0.000000
# 2 -0.001464 0.011025 -0.003803 0.000000 0.000416 0.000000
# 3 -0.004727 -0.003803 0.019188 0.000000 0.001093 0.000000
# 4 0.000000 0.000000 0.000000 0.048324 0.000000 0.000800
# 5 0.001497 0.000416 0.001093 0.000000 0.028651 0.000000
# 6 0.000000 0.000000 0.000000 0.000800 0.000000 0.038548
#
#
# Mechanical properties :
#
#
# Convention : Reuss Voigt Hill
#
# Bulk Modulus (GPa) = 46.40639 49.04104 47.72371
# Shear Modulus (GPa) = 27.14013 29.16948 28.15481
#
# Velocity S-wave (km/s) = 3.69225 3.82780 3.76064
# Velocity P-wave (km/s) = 6.44106 6.64604 6.54435
#
# Compressibility (1/GPa) = 0.02154876
#
# Stress axis : x y z
#
# Youngs Moduli (GPa) = 88.31359 90.69999 52.11700
#
# Poissons Ratio (x) = 0.13277 0.24637
# Poissons Ratio (y) = 0.12927 0.19819
# Poissons Ratio (z) = 0.41748 0.34491
#
# Static dielectric constant tensor:
#      x y z
#    x 3.863970 0.000000 -0.038580 
#    y 0.000000 3.776700 0.000000 
#    z -0.038580 0.000000 3.326930 
# 
# 
# High freq. dielectric constant tensor:
#      x y z
#    x 1.789070 0.000000 -0.001590 
#    y 0.000000 1.794390 0.000000 
#    z -0.001590 0.000000 1.753200 
# 
# From -- ./inp_files/34428.got.cif
#   From: 2010.06.25/outbox.cif.g09.slc.cpg/sg15_18_cif.got.tgz:34428.got - 2010.06.28 07:06:18.
