data_PCOD8138937
_publ_section_title
;
Structure prediction by ZEFSAII (Michael W. Deem and Ramdas Pophale) SiO2 
 PCOD8138937
Probable space group: C 2/C
;
_chemical_formula_sum "Si O2"
_cell_formula_units_Z 36
_cell_length_a 20.507960
_cell_length_b 17.529779
_cell_length_c 5.263930
_cell_angle_alpha 90.000000
_cell_angle_beta 62.323635
_cell_angle_gamma 90.000000
_cell_volume 1675.866454
_symmetry_space_group_name_H-M "C 2/C"
_symmetry_group_IT_number 15
_symmetry_cell_setting 'monoclinic'
loop_
_space_group_symop_operation_xyz
x,y,z
-x,y,1/2-z
-x,-y,-z
x,-y,1/2+z
1/2+x,1/2+y,z
1/2-x,1/2+y,1/2-z
1/2-x,1/2-y,-z
1/2+x,1/2-y,1/2+z
loop_
_atom_site_type_symbol
_atom_site_label
_atom_site_fract_x
_atom_site_fract_y
_atom_site_fract_z
Si Si1 0.500000 0.751892 0.750000
Si Si2 0.657857 0.970924 0.673931
Si Si3 0.680113 0.464102 0.651200
Si Si4 0.359004 0.797091 0.764769
Si Si5 0.859578 0.791721 0.744630
O O1 0.447068 0.803138 0.665346
O O2 0.552517 0.700500 0.472504
O O3 0.673526 0.881690 0.680205
O O4 0.614220 0.991591 0.491894
O O5 0.734358 0.015041 0.488579
O O6 0.641420 0.502274 0.475001
O O7 0.674487 0.373640 0.647282
O O8 0.344050 0.758920 0.520613
O O9 0.321518 0.748285 0.064352
#
# Coordination Sequence:
#
# PCOD8138937 Si02
#       5
#     4   8   8   8   8
#     4   8  22  36  66  84 114 152 212 242 282 332
#     4  10  21  39  58  86 127 153 189 244 299 356
#     4  10  21  39  58  86 127 153 189 244 299 356
#     4  10  20  38  63  87 115 156 203 241 288 348
#     4  10  20  38  63  87 115 156 203 241 288 348
#
# _framework density 21.481425999999999
#
# number of rings (size 3 to 8) (size 9 to 14) (size 15 to 20)
#    1.333    0.889    0.000    3.333    0.000    0.000 
#    0.000   28.889    0.000    0.000    0.000    0.000 
#    0.000    0.000    0.000    0.000    0.000    0.000 
#
# Total GULP energy -222986.271101 kJ/mol
# GULP energy per Si atom -12388.126172 kJ/mol
# Density = 2.143253 g / cm^3
# Si number density = 21.481426 Si / 1000 Ang^3
#
#
#
# Elastic Constant Matrix: (Units=GPa)
#
#
# Indices 1 2 3 4 5 6 
#
# 1 21.5066 22.3269 37.5272 0.0000 6.4720 0.0000
# 2 22.3269 163.0986 62.9354 0.0000 18.9928 0.0000
# 3 37.5272 62.9354 149.3692 0.0000 62.1244 0.0000
# 4 0.0000 0.0000 0.0000 43.3157 0.0000 6.9224
# 5 6.4720 18.9928 62.1244 0.0000 49.7384 0.0000
# 6 0.0000 0.0000 0.0000 6.9224 0.0000 33.1836
#
#
#
# Elastic Compliance Matrix: (Units=1/GPa)
#
#
# Indices 1 2 3 4 5 6 
#
# 1 0.117919 -0.003307 -0.046566 0.000000 0.044081 0.000000
# 2 -0.003307 0.007532 -0.002759 0.000000 0.001000 0.000000
# 3 -0.046566 -0.002759 0.034542 0.000000 -0.036031 0.000000
# 4 0.000000 0.000000 0.000000 0.023883 0.000000 -0.004982
# 5 0.044081 0.001000 -0.036031 0.000000 0.058992 0.000000
# 6 0.000000 0.000000 0.000000 -0.004982 0.000000 0.031175
#
#
# Mechanical properties :
#
#
# Convention : Reuss Voigt Hill
#
# Bulk Modulus (GPa) = 18.27159 64.39482 41.33320
# Shear Modulus (GPa) = 12.57711 39.32653 25.95182
#
# Velocity S-wave (km/s) = 2.42231 4.28334 3.47955
# Velocity P-wave (km/s) = 4.04323 7.38273 5.95199
#
# Compressibility (1/GPa) = 0.05472979
#
# Stress axis : x y z
#
# Youngs Moduli (GPa) = 8.48042 132.76774 28.95015
#
# Poissons Ratio (x) = 0.43902 1.34810
# Poissons Ratio (y) = 0.02804 0.07986
# Poissons Ratio (z) = 0.39490 0.36624
#
# Static dielectric constant tensor:
#      x y z
#    x 4.010940 0.000000 1.042170 
#    y 0.000000 3.577830 0.000000 
#    z 1.042170 0.000000 5.128820 
# 
# 
# High freq. dielectric constant tensor:
#      x y z
#    x 1.810640 0.000000 0.036890 
#    y 0.000000 1.834570 0.000000 
#    z 0.036890 0.000000 1.861260 
# 
# From -- ./inp_files/14972.got.cif
#   From: 2010.06.25/outbox.cif.g09.slc.cpg/sg15_8_cif.got.tgz:14972.got - 2010.06.28 07:06:18.
