data_PCOD8138133
_publ_section_title
;
Structure prediction by ZEFSAII (Michael W. Deem and Ramdas Pophale) SiO2 
 PCOD8138133
Probable space group: C 2/C
;
_chemical_formula_sum "Si O2"
_cell_formula_units_Z 44
_cell_length_a 16.902827
_cell_length_b 7.220479
_cell_length_c 18.899585
_cell_angle_alpha 90.000000
_cell_angle_beta 71.674105
_cell_angle_gamma 90.000000
_cell_volume 2189.644157
_symmetry_space_group_name_H-M "C 2/C"
_symmetry_group_IT_number 15
_symmetry_cell_setting 'monoclinic'
loop_
_space_group_symop_operation_xyz
x,y,z
-x,y,1/2-z
-x,-y,-z
x,-y,1/2+z
1/2+x,1/2+y,z
1/2-x,1/2+y,1/2-z
1/2-x,1/2-y,-z
1/2+x,1/2-y,1/2+z
loop_
_atom_site_type_symbol
_atom_site_label
_atom_site_fract_x
_atom_site_fract_y
_atom_site_fract_z
Si Si1 0.787558 0.537609 0.164106
Si Si2 0.545272 0.306626 0.975383
Si Si3 0.684189 0.102415 0.688874
Si Si4 0.023326 0.464245 0.895915
Si Si5 0.000000 0.547939 0.750000
Si Si6 0.263858 0.299365 0.577307
O O1 0.734122 0.714148 0.160516
O O2 0.785200 0.493686 0.247798
O O3 0.881016 0.578132 0.110910
O O4 0.744006 0.375492 0.132121
O O5 0.640929 0.359605 0.935530
O O6 0.507942 0.182971 0.920501
O O7 0.500000 0.500000 0.000000
O O8 0.537271 0.174599 0.046042
O O9 0.586448 0.162449 0.720516
O O10 0.701894 0.963894 0.618563
O O11 0.006171 0.422930 0.818482
O O12 0.250000 0.250000 0.500000
#
# Coordination Sequence:
#
# PCOD8138133 Si02
#       6
#     8   8   8   8   4   8
#     4  10  21  38  62  83 115 165 199 235 298 359
#     4  10  20  37  60  83 116 156 194 230 294 354
#     4  11  21  40  61  84 120 158 199 245 295 355
#     4   9  20  38  56  84 118 152 191 242 290 344
#     4  10  22  38  58  86 120 150 194 252 294 332
#     4  11  23  37  60  92 119 151 202 246 292 352
#
# _framework density 20.094588999999999
#
# number of rings (size 3 to 8) (size 9 to 14) (size 15 to 20)
#    0.000    1.818    1.818    2.182    0.000    2.182 
#    0.000    1.818    0.000    0.000    0.000    0.000 
#    0.000    0.000    0.000    0.000    0.000    0.000 
#
# Total GULP energy -272731.348889 kJ/mol
# GULP energy per Si atom -12396.879495 kJ/mol
# Density = 2.004885 g / cm^3
# Si number density = 20.094589 Si / 1000 Ang^3
#
#
#
# Elastic Constant Matrix: (Units=GPa)
#
#
# Indices 1 2 3 4 5 6 
#
# 1 69.4776 50.8113 34.6179 0.0001 -3.3341 0.0001
# 2 50.8113 126.8286 48.7112 0.0002 -8.6665 0.0004
# 3 34.6179 48.7112 126.0032 0.0000 6.9182 0.0000
# 4 0.0001 0.0002 0.0000 29.3924 0.0000 -10.0973
# 5 -3.3341 -8.6665 6.9182 0.0000 36.3315 0.0000
# 6 0.0001 0.0004 0.0000 -10.0973 0.0000 24.3840
#
#
#
# Elastic Compliance Matrix: (Units=1/GPa)
#
#
# Indices 1 2 3 4 5 6 
#
# 1 0.021301 -0.007298 -0.003075 0.000000 0.000799 0.000000
# 2 -0.007298 0.012077 -0.002815 0.000000 0.002747 0.000000
# 3 -0.003075 -0.002815 0.010026 0.000000 -0.002863 0.000000
# 4 0.000000 0.000000 0.000000 0.039665 0.000000 0.016425
# 5 0.000799 0.002747 -0.002863 0.000000 0.028798 0.000000
# 6 0.000000 0.000000 0.000000 0.016425 0.000000 0.047812
#
#
# Mechanical properties :
#
#
# Convention : Reuss Voigt Hill
#
# Bulk Modulus (GPa) = 58.72196 65.62114 62.17155
# Shear Modulus (GPa) = 26.07818 30.56619 28.32218
#
# Velocity S-wave (km/s) = 3.60637 3.90438 3.75833
# Velocity P-wave (km/s) = 6.82843 7.28372 7.05974
#
# Compressibility (1/GPa) = 0.01702941
#
# Stress axis : x y z
#
# Youngs Moduli (GPa) = 46.94636 82.79996 99.73759
#
# Poissons Ratio (x) = 0.60430 0.30666
# Poissons Ratio (y) = 0.34263 0.28073
# Poissons Ratio (z) = 0.14434 0.23305
#
# Static dielectric constant tensor:
#      x y z
#    x 3.678640 0.000000 -0.163080 
#    y 0.000000 3.448050 0.000000 
#    z -0.163080 0.000000 3.869670 
# 
# 
# High freq. dielectric constant tensor:
#      x y z
#    x 1.783930 0.000000 -0.013380 
#    y 0.000000 1.763220 0.000000 
#    z -0.013380 0.000000 1.801420 
# 
# From -- ./inp_files/246400.got.cif
#   From: 2010.06.25/outbox.cif.g09.slc.cpg/sg15_124_cif.got.tgz:246400.got - 2010.06.28 07:06:18.
