data_PCOD8138725
_publ_section_title
;
Structure prediction by ZEFSAII (Michael W. Deem and Ramdas Pophale) SiO2 
 PCOD8138725
Probable space group: C 2/C
;
_chemical_formula_sum "Si O2"
_cell_formula_units_Z 36
_cell_length_a 21.017157
_cell_length_b 8.618455
_cell_length_c 9.870461
_cell_angle_alpha 90.000000
_cell_angle_beta 84.979649
_cell_angle_gamma 90.000000
_cell_volume 1781.031195
_symmetry_space_group_name_H-M "C 2/C"
_symmetry_group_IT_number 15
_symmetry_cell_setting 'monoclinic'
loop_
_space_group_symop_operation_xyz
x,y,z
-x,y,1/2-z
-x,-y,-z
x,-y,1/2+z
1/2+x,1/2+y,z
1/2-x,1/2+y,1/2-z
1/2-x,1/2-y,-z
1/2+x,1/2-y,1/2+z
loop_
_atom_site_type_symbol
_atom_site_label
_atom_site_fract_x
_atom_site_fract_y
_atom_site_fract_z
Si Si1 0.185546 0.655733 0.035893
Si Si2 0.867429 0.533860 0.725169
Si Si3 0.932481 0.838509 0.741637
Si Si4 0.000000 0.355261 0.750000
Si Si5 0.071271 0.874663 0.062838
O O1 0.185537 0.546266 0.169276
O O2 0.137477 0.792042 0.076199
O O3 0.250000 0.750000 0.000000
O O4 0.162795 0.541352 0.919213
O O5 0.937461 0.453329 0.716466
O O6 0.876274 0.713512 0.767671
O O7 0.000000 0.751259 0.750000
O O8 0.935722 0.918950 0.593098
O O9 0.925181 0.969117 0.854215
O O10 0.984467 0.244051 0.880631
#
# Coordination Sequence:
#
# PCOD8138725 Si02
#       5
#     8   8   8   4   8
#     4  10  24  44  61  90 122 166 212 251 301 363
#     4  10  23  39  68  89 124 162 205 257 307 370
#     4  11  21  35  56  92 123 157 196 244 311 365
#     4  10  20  38  60  96 124 158 200 258 318 364
#     4  10  23  35  59  88 128 158 201 253 303 364
#
# _framework density 20.213010000000001
#
# number of rings (size 3 to 8) (size 9 to 14) (size 15 to 20)
#    0.000    1.778    2.222    0.667    3.111    8.000 
#    0.000    2.222    0.000    0.000    0.000    0.000 
#    0.000    0.000    0.000    0.000    0.000    0.000 
#
# Total GULP energy -223047.548775 kJ/mol
# GULP energy per Si atom -12391.530488 kJ/mol
# Density = 2.016700 g / cm^3
# Si number density = 20.213010 Si / 1000 Ang^3
#
#
#
# Elastic Constant Matrix: (Units=GPa)
#
#
# Indices 1 2 3 4 5 6 
#
# 1 88.2724 38.3212 48.4896 0.0000 -16.9397 0.0000
# 2 38.3212 89.6037 54.2089 0.0000 -14.1514 0.0000
# 3 48.4896 54.2089 56.5833 0.0000 -14.8909 0.0000
# 4 0.0000 0.0000 0.0000 34.6154 0.0000 -9.8025
# 5 -16.9397 -14.1514 -14.8909 0.0000 26.1084 0.0000
# 6 0.0000 0.0000 0.0000 -9.8025 0.0000 26.5943
#
#
#
# Elastic Compliance Matrix: (Units=1/GPa)
#
#
# Indices 1 2 3 4 5 6 
#
# 1 0.022632 0.004874 -0.022949 0.000000 0.004237 0.000000
# 2 0.004874 0.027597 -0.030411 0.000000 0.000775 0.000000
# 3 -0.022949 -0.030411 0.068500 0.000000 0.007695 0.000000
# 4 0.000000 0.000000 0.000000 0.032256 0.000000 0.011889
# 5 0.004237 0.000775 0.007695 0.000000 0.045860 0.000000
# 6 0.000000 0.000000 0.000000 0.011889 0.000000 0.041984
#
#
# Mechanical properties :
#
#
# Convention : Reuss Voigt Hill
#
# Bulk Modulus (GPa) = 45.96541 57.38876 51.67708
# Shear Modulus (GPa) = 14.57497 23.69293 19.13395
#
# Velocity S-wave (km/s) = 2.68819 3.42740 3.08005
# Velocity P-wave (km/s) = 5.69430 6.64202 6.18633
#
# Compressibility (1/GPa) = 0.02175549
#
# Stress axis : x y z
#
# Youngs Moduli (GPa) = 44.18479 36.23636 14.59856
#
# Poissons Ratio (x) = -0.17661 0.33503
# Poissons Ratio (y) = -0.21535 0.44396
# Poissons Ratio (z) = 1.01401 1.10199
#
# Static dielectric constant tensor:
#      x y z
#    x 3.681090 0.000000 -0.163680 
#    y 0.000000 3.708450 0.000000 
#    z -0.163680 0.000000 4.033090 
# 
# 
# High freq. dielectric constant tensor:
#      x y z
#    x 1.772390 0.000000 -0.000740 
#    y 0.000000 1.797420 0.000000 
#    z -0.000740 0.000000 1.798110 
# 
# From -- ./inp_files/109344.got.cif
#   From: 2010.06.25/outbox.cif.g09.slc.cpg/sg15_55_cif.got.tgz:109344.got - 2010.06.28 07:06:18.
