data_PCOD8138672
_publ_section_title
;
Structure prediction by ZEFSAII (Michael W. Deem and Ramdas Pophale) SiO2 
 PCOD8138672
Probable space group: C 2/C
;
_chemical_formula_sum "Si O2"
_cell_formula_units_Z 40
_cell_length_a 12.894825
_cell_length_b 15.749650
_cell_length_c 16.036487
_cell_angle_alpha 90.000000
_cell_angle_beta 142.669463
_cell_angle_gamma 90.000000
_cell_volume 1974.984004
_symmetry_space_group_name_H-M "C 2/C"
_symmetry_group_IT_number 15
_symmetry_cell_setting 'monoclinic'
loop_
_space_group_symop_operation_xyz
x,y,z
-x,y,1/2-z
-x,-y,-z
x,-y,1/2+z
1/2+x,1/2+y,z
1/2-x,1/2+y,1/2-z
1/2-x,1/2-y,-z
1/2+x,1/2-y,1/2+z
loop_
_atom_site_type_symbol
_atom_site_label
_atom_site_fract_x
_atom_site_fract_y
_atom_site_fract_z
Si Si1 0.847396 0.834570 0.089518
Si Si2 0.696649 0.820922 0.356091
Si Si3 0.420522 0.434392 0.383438
Si Si4 0.176577 0.859980 0.889470
Si Si5 0.185169 0.481573 0.086634
O O1 0.711207 0.896364 0.048693
O O2 0.000000 0.810176 0.250000
O O3 0.924316 0.879900 0.056523
O O4 0.750000 0.750000 0.000000
O O5 0.500000 0.848434 0.250000
O O6 0.776201 0.872655 0.330476
O O7 0.822854 0.831558 0.514752
O O8 0.704797 0.719612 0.343988
O O9 0.500000 0.500000 0.500000
O O10 0.324099 0.486016 0.249546
O O11 0.000000 0.902838 0.750000
O O12 0.307399 0.936223 0.967075
O O13 0.000000 0.500000 0.000000
#
# Coordination Sequence:
#
# PCOD8138672 Si02
#       5
#     8   8   8   8   8
#     4  10  24  44  62  91 132 169 212 262 314 383
#     4  10  21  37  61  90 119 152 202 258 300 368
#     4  11  23  40  63  92 125 162 208 258 311 378
#     4  10  20  38  60  85 120 154 195 256 311 354
#     4  11  23  39  63  90 124 164 209 254 311 381
#
# _framework density 20.253329999999998
#
# number of rings (size 3 to 8) (size 9 to 14) (size 15 to 20)
#    0.000    1.600    0.000    5.400    2.800    1.600 
#   10.800    1.000    0.000    0.000    0.000    0.000 
#    0.000    0.000    0.000    0.000    0.000    0.000 
#
# Total GULP energy -247832.358256 kJ/mol
# GULP energy per Si atom -12391.617913 kJ/mol
# Density = 2.020723 g / cm^3
# Si number density = 20.253330 Si / 1000 Ang^3
#
#
#
# Elastic Constant Matrix: (Units=GPa)
#
#
# Indices 1 2 3 4 5 6 
#
# 1 118.7261 75.6005 42.4013 -0.0008 15.1852 -0.0004
# 2 75.6005 137.1042 49.4081 -0.0015 11.1807 -0.0010
# 3 42.4013 49.4081 90.2175 -0.0039 7.6552 -0.0026
# 4 -0.0008 -0.0015 -0.0039 38.3489 -0.0011 2.7061
# 5 15.1852 11.1807 7.6552 -0.0011 35.3492 -0.0005
# 6 -0.0004 -0.0010 -0.0026 2.7061 -0.0005 34.9837
#
#
#
# Elastic Compliance Matrix: (Units=1/GPa)
#
#
# Indices 1 2 3 4 5 6 
#
# 1 0.013913 -0.006409 -0.002744 0.000000 -0.003355 0.000000
# 2 -0.006409 0.012157 -0.003620 0.000000 -0.000308 0.000000
# 3 -0.002744 -0.003620 0.014424 0.000001 -0.000800 0.000001
# 4 0.000000 0.000000 0.000001 0.026219 0.000001 -0.002028
# 5 -0.003355 -0.000308 -0.000800 0.000001 0.030001 0.000000
# 6 0.000000 0.000000 0.000001 -0.002028 0.000000 0.028742
#
#
# Mechanical properties :
#
#
# Convention : Reuss Voigt Hill
#
# Bulk Modulus (GPa) = 66.89626 75.65196 71.27411
# Shear Modulus (GPa) = 32.05408 33.64554 32.84981
#
# Velocity S-wave (km/s) = 3.98258 4.08025 4.03171
# Velocity P-wave (km/s) = 7.36542 7.72216 7.54590
#
# Compressibility (1/GPa) = 0.01494852
#
# Stress axis : x y z
#
# Youngs Moduli (GPa) = 71.87440 82.25451 69.32750
#
# Poissons Ratio (x) = 0.52719 0.19025
# Poissons Ratio (y) = 0.46066 0.25094
# Poissons Ratio (z) = 0.19724 0.29773
#
# Static dielectric constant tensor:
#      x y z
#    x 3.540930 -0.000050 -0.126270 
#    y -0.000050 3.875120 -0.000040 
#    z -0.126270 -0.000040 3.405380 
# 
# 
# High freq. dielectric constant tensor:
#      x y z
#    x 1.787640 0.000000 0.001400 
#    y 0.000000 1.803300 0.000000 
#    z 0.001400 0.000000 1.795450 
# 
# From -- ./inp_files/29196.got.cif
#   From: 2010.06.25/outbox.cif.g09.slc.cpg/sg15_15_cif.got.tgz:29196.got - 2010.06.28 07:06:18.
