data_PCOD8138641
_publ_section_title
;
Structure prediction by ZEFSAII (Michael W. Deem and Ramdas Pophale) SiO2 
 PCOD8138641
Probable space group: C 2/C
;
_chemical_formula_sum "Si O2"
_cell_formula_units_Z 48
_cell_length_a 10.647729
_cell_length_b 11.687599
_cell_length_c 17.740488
_cell_angle_alpha 90.000000
_cell_angle_beta 110.004418
_cell_angle_gamma 90.000000
_cell_volume 2074.538410
_symmetry_space_group_name_H-M "C 2/C"
_symmetry_group_IT_number 15
_symmetry_cell_setting 'monoclinic'
loop_
_space_group_symop_operation_xyz
x,y,z
-x,y,1/2-z
-x,-y,-z
x,-y,1/2+z
1/2+x,1/2+y,z
1/2-x,1/2+y,1/2-z
1/2-x,1/2-y,-z
1/2+x,1/2-y,1/2+z
loop_
_atom_site_type_symbol
_atom_site_label
_atom_site_fract_x
_atom_site_fract_y
_atom_site_fract_z
Si Si1 0.147560 0.974306 0.690431
Si Si2 0.376768 0.812288 0.678070
Si Si3 0.132800 0.878879 0.912914
Si Si4 0.516269 0.028374 0.843713
Si Si5 0.228347 0.160947 0.591191
Si Si6 0.260870 0.575893 0.641929
O O1 0.279013 0.895946 0.706034
O O2 0.143140 0.018545 0.775069
O O3 0.019786 0.895957 0.645490
O O4 0.154207 0.092501 0.642861
O O5 0.500000 0.759652 0.750000
O O6 0.448452 0.894837 0.631234
O O7 0.297020 0.706044 0.627446
O O8 0.219150 0.789806 0.878261
O O9 0.211251 0.000136 0.926156
O O10 0.130307 0.836562 0.998854
O O11 0.500000 0.047628 0.750000
O O12 0.389785 0.073611 0.862125
O O13 0.635153 0.099677 0.903696
#
# Coordination Sequence:
#
# PCOD8138641 Si02
#       6
#     8   8   8   8   8   8
#     4  11  22  41  65  90 127 173 212 261 325 378
#     4  10  20  38  59  90 125 156 213 261 318 370
#     4  11  25  39  59 101 125 164 222 258 317 392
#     4  10  20  42  62  89 120 170 209 257 328 372
#     4  10  23  43  64  84 135 173 204 263 326 383
#     4  12  23  37  66  95 125 162 215 273 307 381
#
# _framework density 23.137678999999999
#
# number of rings (size 3 to 8) (size 9 to 14) (size 15 to 20)
#    0.000    1.333    5.000    3.000    2.333    3.333 
#    0.000    3.333    0.000    0.000    0.000    0.000 
#    0.000    0.000    0.000    0.000    0.000    0.000 
#
# Total GULP energy -297372.717170 kJ/mol
# GULP energy per Si atom -12390.529882 kJ/mol
# Density = 2.308502 g / cm^3
# Si number density = 23.137679 Si / 1000 Ang^3
#
#
#
# Elastic Constant Matrix: (Units=GPa)
#
#
# Indices 1 2 3 4 5 6 
#
# 1 74.1688 11.7702 3.6837 0.0000 18.3642 0.0000
# 2 11.7702 144.2128 -0.2385 0.0000 1.8468 0.0000
# 3 3.6837 -0.2385 39.5950 0.0000 12.2503 0.0000
# 4 0.0000 0.0000 0.0000 20.0083 0.0000 10.3557
# 5 18.3642 1.8468 12.2503 0.0000 26.7807 0.0000
# 6 0.0000 0.0000 0.0000 10.3557 0.0000 43.4152
#
#
#
# Elastic Compliance Matrix: (Units=1/GPa)
#
#
# Indices 1 2 3 4 5 6 
#
# 1 0.016618 -0.001194 0.002268 0.000000 -0.012350 0.000000
# 2 -0.001194 0.007028 0.000058 0.000000 0.000308 0.000000
# 3 0.002268 0.000058 0.029736 0.000000 -0.015161 0.000000
# 4 0.000000 0.000000 0.000000 0.057018 0.000000 -0.013600
# 5 -0.012350 0.000308 -0.015161 0.000000 0.052723 0.000000
# 6 0.000000 0.000000 0.000000 -0.013600 0.000000 0.026277
#
#
# Mechanical properties :
#
#
# Convention : Reuss Voigt Hill
#
# Bulk Modulus (GPa) = 17.97123 32.04526 25.00824
# Shear Modulus (GPa) = 24.30905 34.22494 29.26700
#
# Velocity S-wave (km/s) = 3.24485 3.85019 3.56041
# Velocity P-wave (km/s) = 4.67148 5.80045 5.26630
#
# Compressibility (1/GPa) = 0.05564451
#
# Stress axis : x y z
#
# Youngs Moduli (GPa) = 60.17746 142.29140 33.62950
#
# Poissons Ratio (x) = 0.16995 -0.07626
# Poissons Ratio (y) = 0.07187 -0.00196
# Poissons Ratio (z) = -0.13647 -0.00829
#
# Static dielectric constant tensor:
#      x y z
#    x 4.279180 0.000000 0.128890 
#    y 0.000000 4.469040 0.000000 
#    z 0.128890 0.000000 3.817070 
# 
# 
# High freq. dielectric constant tensor:
#      x y z
#    x 1.923770 0.000000 0.020710 
#    y 0.000000 1.930620 0.000000 
#    z 0.020710 0.000000 1.872230 
# 
# From -- ./inp_files/196599.got.cif
#   From: 2010.06.25/outbox.cif.g09.slc.cpg/sg15_99_cif.got.tgz:196599.got - 2010.06.28 07:06:18.
