data_PCOD8138670
_publ_section_title
;
Structure prediction by ZEFSAII (Michael W. Deem and Ramdas Pophale) SiO2 
 PCOD8138670
Probable space group: C 2/C
;
_chemical_formula_sum "Si O2"
_cell_formula_units_Z 40
_cell_length_a 29.868866
_cell_length_b 9.393347
_cell_length_c 19.973174
_cell_angle_alpha 90.000000
_cell_angle_beta 20.736000
_cell_angle_gamma 90.000000
_cell_volume 1984.111870
_symmetry_space_group_name_H-M "C 2/C"
_symmetry_group_IT_number 15
_symmetry_cell_setting 'monoclinic'
loop_
_space_group_symop_operation_xyz
x,y,z
-x,y,1/2-z
-x,-y,-z
x,-y,1/2+z
1/2+x,1/2+y,z
1/2-x,1/2+y,1/2-z
1/2-x,1/2-y,-z
1/2+x,1/2-y,1/2+z
loop_
_atom_site_type_symbol
_atom_site_label
_atom_site_fract_x
_atom_site_fract_y
_atom_site_fract_z
Si Si1 0.576502 0.677410 0.961574
Si Si2 0.989810 0.874599 0.089366
Si Si3 0.506295 0.097421 0.819068
Si Si4 0.857739 0.668391 0.536875
Si Si5 0.284964 0.118708 0.496210
O O1 0.505441 0.703217 0.989942
O O2 0.724599 0.720604 0.753585
O O3 0.581673 0.508789 0.968428
O O4 0.500090 0.763266 0.125371
O O5 0.849934 0.943081 0.291905
O O6 0.027638 0.760226 0.092590
O O7 0.500000 0.144942 0.750000
O O8 0.635785 0.007420 0.650236
O O9 0.388389 0.998505 0.006634
O O10 0.862232 0.684605 0.450449
O O11 0.250000 0.250000 0.500000
#
# Coordination Sequence:
#
# PCOD8138670 Si02
#       5
#     8   8   8   8   8
#     4  10  22  39  59  89 122 152 195 247 302 347
#     4  10  21  39  61  85 119 157 195 245 295 357
#     4  10  21  39  61  88 123 157 196 249 295 351
#     4  10  20  38  63  84 117 157 198 240 293 356
#     4  10  20  38  60  85 118 155 198 241 293 350
#
# _framework density 20.160153999999999
#
# number of rings (size 3 to 8) (size 9 to 14) (size 15 to 20)
#    0.000    2.000    2.000    1.200    0.000    3.200 
#    7.200    0.000    0.000    0.000    0.000    0.000 
#    0.000    0.000    0.000    0.000    0.000    0.000 
#
# Total GULP energy -247875.407714 kJ/mol
# GULP energy per Si atom -12393.770386 kJ/mol
# Density = 2.011427 g / cm^3
# Si number density = 20.160154 Si / 1000 Ang^3
#
#
#
# Elastic Constant Matrix: (Units=GPa)
#
#
# Indices 1 2 3 4 5 6 
#
# 1 110.3613 65.3806 46.6632 0.0000 -2.8361 0.0000
# 2 65.3806 81.9431 41.0143 -0.0004 2.6339 0.0000
# 3 46.6632 41.0143 95.3550 -0.0002 4.5527 0.0000
# 4 0.0000 -0.0004 -0.0002 35.9967 0.0000 8.1097
# 5 -2.8361 2.6339 4.5527 0.0000 26.8362 0.0000
# 6 0.0000 0.0000 0.0000 8.1097 0.0000 37.1392
#
#
#
# Elastic Compliance Matrix: (Units=1/GPa)
#
#
# Indices 1 2 3 4 5 6 
#
# 1 0.018367 -0.012982 -0.003587 0.000000 0.003824 0.000000
# 2 -0.012982 0.024732 -0.004137 0.000000 -0.003098 0.000000
# 3 -0.003587 -0.004137 0.014135 0.000000 -0.002371 0.000000
# 4 0.000000 0.000000 0.000000 0.029218 0.000000 -0.006380
# 5 0.003824 -0.003098 -0.002371 0.000000 0.038373 0.000000
# 6 0.000000 0.000000 0.000000 -0.006380 0.000000 0.028319
#
#
# Mechanical properties :
#
#
# Convention : Reuss Voigt Hill
#
# Bulk Modulus (GPa) = 63.20239 65.97507 64.58873
# Shear Modulus (GPa) = 25.02134 28.96785 26.99459
#
# Velocity S-wave (km/s) = 3.52679 3.79474 3.66321
# Velocity P-wave (km/s) = 6.92838 7.21087 7.07104
#
# Compressibility (1/GPa) = 0.01582219
#
# Stress axis : x y z
#
# Youngs Moduli (GPa) = 54.44570 40.43345 70.74697
#
# Poissons Ratio (x) = 0.52492 0.25375
# Poissons Ratio (y) = 0.70683 0.29267
# Poissons Ratio (z) = 0.19528 0.16727
#
# Static dielectric constant tensor:
#      x y z
#    x 3.656960 0.000000 -0.162090 
#    y 0.000000 3.292140 0.000000 
#    z -0.162090 0.000000 4.311410 
# 
# 
# High freq. dielectric constant tensor:
#      x y z
#    x 1.782970 0.000000 -0.003290 
#    y 0.000000 1.764570 0.000000 
#    z -0.003290 0.000000 1.802020 
# 
# From -- ./inp_files/102770.got.cif
#   From: 2010.06.25/outbox.cif.g09.slc.cpg/sg15_52_cif.got.tgz:102770.got - 2010.06.28 07:06:18.
