data_PCOD8138337
_publ_section_title
;
Structure prediction by ZEFSAII (Michael W. Deem and Ramdas Pophale) SiO2 
 PCOD8138337
Probable space group: C 2/C
;
_chemical_formula_sum "Si O2"
_cell_formula_units_Z 60
_cell_length_a 23.762259
_cell_length_b 14.527868
_cell_length_c 17.908600
_cell_angle_alpha 90.000000
_cell_angle_beta 27.413625
_cell_angle_gamma 90.000000
_cell_volume 2846.405953
_symmetry_space_group_name_H-M "C 2/C"
_symmetry_group_IT_number 15
_symmetry_cell_setting 'monoclinic'
loop_
_space_group_symop_operation_xyz
x,y,z
-x,y,1/2-z
-x,-y,-z
x,-y,1/2+z
1/2+x,1/2+y,z
1/2-x,1/2+y,1/2-z
1/2-x,1/2-y,-z
1/2+x,1/2-y,1/2+z
loop_
_atom_site_type_symbol
_atom_site_label
_atom_site_fract_x
_atom_site_fract_y
_atom_site_fract_z
Si Si1 0.570109 0.137565 0.530350
Si Si2 0.000000 0.041895 0.750000
Si Si3 0.765687 0.655881 0.026041
Si Si4 0.546287 0.313891 0.881180
Si Si5 0.275578 0.336689 0.523943
Si Si6 0.850006 0.519109 0.804619
Si Si7 0.692065 0.351040 0.845088
Si Si8 0.631458 0.542573 0.960947
O O1 0.622258 0.164070 0.549134
O O2 0.467735 0.213536 0.636238
O O3 0.493672 0.041607 0.622563
O O4 0.669654 0.140910 0.347677
O O5 0.110671 0.108400 0.645126
O O6 0.959807 0.973788 0.862702
O O7 0.792164 0.569679 0.943349
O O8 0.750000 0.750000 0.000000
O O9 0.645379 0.631206 0.215409
O O10 0.599890 0.294518 0.900879
O O11 0.417228 0.370204 0.029666
O O12 0.250000 0.250000 0.500000
O O13 0.162512 0.409002 0.665165
O O14 0.307924 0.306949 0.571620
O O15 0.770509 0.553770 0.826967
O O16 0.631772 0.452024 0.910009
#
# Coordination Sequence:
#
# PCOD8138337 Si02
#       8
#     8   4   8   8   8   8   8   8
#     4  11  23  37  60  92 137 163 203 258 317 386
#     4   8  18  38  62  88 116 146 218 266 304 372
#     4  11  21  36  59  95 131 165 202 249 311 388
#     4  11  21  35  63  89 127 165 202 250 320 382
#     4  10  22  43  68  87 119 165 218 272 315 366
#     4  10  21  38  63  93 128 159 214 259 315 377
#     4   9  23  40  57  92 125 162 217 259 309 388
#     4  10  20  37  63  85 119 166 204 258 315 369
#
# _framework density 21.079214
#
# number of rings (size 3 to 8) (size 9 to 14) (size 15 to 20)
#    0.000    2.133    1.333    3.200    1.867    5.333 
#    2.400    2.667    2.933    0.000    0.000    0.000 
#    0.000    0.000    0.000    0.000    0.000    0.000 
#
# Total GULP energy -371789.007118 kJ/mol
# GULP energy per Si atom -12392.966904 kJ/mol
# Density = 2.103124 g / cm^3
# Si number density = 21.079214 Si / 1000 Ang^3
#
#
#
# Elastic Constant Matrix: (Units=GPa)
#
#
# Indices 1 2 3 4 5 6 
#
# 1 134.5306 54.9542 23.6631 0.0000 -9.8393 0.0000
# 2 54.9542 87.7441 9.4628 0.0000 -11.1769 0.0000
# 3 23.6631 9.4628 46.7538 0.0000 -18.1600 0.0000
# 4 0.0000 0.0000 0.0000 25.9605 0.0000 -5.2349
# 5 -9.8393 -11.1769 -18.1600 0.0000 26.0062 0.0000
# 6 0.0000 0.0000 0.0000 -5.2349 0.0000 24.9933
#
#
#
# Elastic Compliance Matrix: (Units=1/GPa)
#
#
# Indices 1 2 3 4 5 6 
#
# 1 0.010814 -0.006514 -0.005013 0.000000 -0.002208 0.000000
# 2 -0.006514 0.015992 0.002432 0.000000 0.006107 0.000000
# 3 -0.005013 0.002432 0.031701 0.000000 0.021285 0.000000
# 4 0.000000 0.000000 0.000000 0.040219 0.000000 0.008424
# 5 -0.002208 0.006107 0.021285 0.000000 0.055105 0.000000
# 6 0.000000 0.000000 0.000000 0.008424 0.000000 0.041775
#
#
# Mechanical properties :
#
#
# Convention : Reuss Voigt Hill
#
# Bulk Modulus (GPa) = 24.80258 49.46540 37.13399
# Shear Modulus (GPa) = 22.00375 27.45522 24.72948
#
# Velocity S-wave (km/s) = 3.23439 3.61290 3.42887
# Velocity P-wave (km/s) = 5.07349 6.39699 5.77329
#
# Compressibility (1/GPa) = 0.04031839
#
# Stress axis : x y z
#
# Youngs Moduli (GPa) = 92.47117 62.53175 31.54475
#
# Poissons Ratio (x) = 0.40731 0.15812
# Poissons Ratio (y) = 0.60232 -0.07671
# Poissons Ratio (z) = 0.46353 -0.15207
#
# Static dielectric constant tensor:
#      x y z
#    x 3.973870 0.000000 -0.043250 
#    y 0.000000 3.587990 0.000000 
#    z -0.043250 0.000000 3.827360 
# 
# 
# High freq. dielectric constant tensor:
#      x y z
#    x 1.830240 0.000000 -0.005720 
#    y 0.000000 1.806710 0.000000 
#    z -0.005720 0.000000 1.825320 
# 
# From -- ./inp_files/219594.got.cif
#   From: 2010.06.25/outbox.cif.g09.slc.cpg/sg15_110_cif.got.tgz:219594.got - 2010.06.28 07:06:18.
