data_PCOD8138755
_publ_section_title
;
Structure prediction by ZEFSAII (Michael W. Deem and Ramdas Pophale) SiO2 
 PCOD8138755
Probable space group: C 2/C
;
_chemical_formula_sum "Si O2"
_cell_formula_units_Z 56
_cell_length_a 16.384648
_cell_length_b 13.889980
_cell_length_c 13.248158
_cell_angle_alpha 90.000000
_cell_angle_beta 106.756757
_cell_angle_gamma 90.000000
_cell_volume 2887.021152
_symmetry_space_group_name_H-M "C 2/C"
_symmetry_group_IT_number 15
_symmetry_cell_setting 'monoclinic'
loop_
_space_group_symop_operation_xyz
x,y,z
-x,y,1/2-z
-x,-y,-z
x,-y,1/2+z
1/2+x,1/2+y,z
1/2-x,1/2+y,1/2-z
1/2-x,1/2-y,-z
1/2+x,1/2-y,1/2+z
loop_
_atom_site_type_symbol
_atom_site_label
_atom_site_fract_x
_atom_site_fract_y
_atom_site_fract_z
Si Si1 0.647310 0.398970 0.918924
Si Si2 0.464845 0.547048 0.386317
Si Si3 0.697840 0.477447 0.271437
Si Si4 0.576893 0.763360 0.138413
Si Si5 0.777535 0.484685 0.094958
Si Si6 0.110617 0.304062 0.377830
Si Si7 0.784407 0.657314 0.955257
O O1 0.550630 0.429188 0.852415
O O2 0.706117 0.428014 0.844658
O O3 0.656505 0.286331 0.948268
O O4 0.680818 0.457523 0.027945
O O5 0.500000 0.500000 0.500000
O O6 0.398416 0.473829 0.308889
O O7 0.419948 0.650306 0.389939
O O8 0.771889 0.491258 0.214081
O O9 0.715901 0.384082 0.348940
O O10 0.617420 0.778691 0.262323
O O11 0.483608 0.810751 0.109788
O O12 0.628596 0.819719 0.071641
O O13 0.842514 0.402919 0.081054
O O14 0.807045 0.582386 0.052385
O O15 0.750000 0.750000 0.000000
#
# Coordination Sequence:
#
# PCOD8138755 Si02
#       7
#     8   8   8   8   8   8   8
#     4  10  21  35  59  92 119 153 206 260 311 373
#     4  11  20  36  64  92 124 162 206 254 326 379
#     4  11  21  37  59  90 127 160 201 262 312 382
#     4  10  21  39  61  86 127 164 203 265 309 369
#     4  11  22  37  62  89 116 167 207 255 313 376
#     4  10  20  38  61  86 117 164 211 250 310 363
#     4  11  25  41  61  92 126 169 209 261 327 379
#
# _framework density 19.397155999999999
#
# number of rings (size 3 to 8) (size 9 to 14) (size 15 to 20)
#    0.000    1.429    4.286    1.714    2.000    0.571 
#    0.000    0.000    0.000    0.000    0.000    0.000 
#    0.000    0.000    0.000    0.000    0.000    0.000 
#
# Total GULP energy -347019.849377 kJ/mol
# GULP energy per Si atom -12393.566049 kJ/mol
# Density = 1.935301 g / cm^3
# Si number density = 19.397156 Si / 1000 Ang^3
#
#
#
# Elastic Constant Matrix: (Units=GPa)
#
#
# Indices 1 2 3 4 5 6 
#
# 1 89.7877 56.2878 35.5844 0.0000 -15.8975 0.0000
# 2 56.2878 135.4757 53.4805 0.0000 -8.3868 0.0000
# 3 35.5844 53.4805 89.5706 0.0000 -11.4862 0.0000
# 4 0.0000 0.0000 0.0000 36.3950 0.0000 2.5498
# 5 -15.8975 -8.3868 -11.4862 0.0000 34.8456 0.0000
# 6 0.0000 0.0000 0.0000 2.5498 0.0000 30.0790
#
#
#
# Elastic Compliance Matrix: (Units=1/GPa)
#
#
# Indices 1 2 3 4 5 6 
#
# 1 0.016588 -0.005534 -0.002596 0.000000 0.005380 0.000000
# 2 -0.005534 0.011511 -0.004848 0.000000 -0.001352 0.000000
# 3 -0.002596 -0.004848 0.015441 0.000000 0.002739 0.000000
# 4 0.000000 0.000000 0.000000 0.027640 0.000000 -0.002343
# 5 0.005380 -0.001352 0.002739 0.000000 0.031730 0.000000
# 6 0.000000 0.000000 0.000000 -0.002343 0.000000 0.033444
#
#
# Mechanical properties :
#
#
# Convention : Reuss Voigt Hill
#
# Bulk Modulus (GPa) = 56.86703 67.28213 62.07458
# Shear Modulus (GPa) = 29.73149 31.56267 30.64708
#
# Velocity S-wave (km/s) = 3.91932 4.03821 3.97921
# Velocity P-wave (km/s) = 7.06132 7.51696 7.29270
#
# Compressibility (1/GPa) = 0.01758488
#
# Stress axis : x y z
#
# Youngs Moduli (GPa) = 60.28378 86.87558 64.76183
#
# Poissons Ratio (x) = 0.48080 0.16811
# Poissons Ratio (y) = 0.33363 0.31393
# Poissons Ratio (z) = 0.15648 0.42113
#
# Static dielectric constant tensor:
#      x y z
#    x 3.618580 0.000000 -0.035980 
#    y 0.000000 3.521730 0.000000 
#    z -0.035980 0.000000 3.624430 
# 
# 
# High freq. dielectric constant tensor:
#      x y z
#    x 1.750050 0.000000 -0.010600 
#    y 0.000000 1.748040 0.000000 
#    z -0.010600 0.000000 1.757090 
# 
# From -- ./inp_files/153496.got.cif
#   From: 2010.06.25/outbox.cif.g09.slc.cpg/sg15_77_cif.got.tgz:153496.got - 2010.06.28 07:06:18.
