data_PCOD8138464
_publ_section_title
;
Structure prediction by ZEFSAII (Michael W. Deem and Ramdas Pophale) SiO2 
 PCOD8138464
Probable space group: C 2/C
;
_chemical_formula_sum "Si O2"
_cell_formula_units_Z 48
_cell_length_a 19.309824
_cell_length_b 25.462281
_cell_length_c 5.151442
_cell_angle_alpha 90.000000
_cell_angle_beta 121.210440
_cell_angle_gamma 90.000000
_cell_volume 2166.245141
_symmetry_space_group_name_H-M "C 2/C"
_symmetry_group_IT_number 15
_symmetry_cell_setting 'monoclinic'
loop_
_space_group_symop_operation_xyz
x,y,z
-x,y,1/2-z
-x,-y,-z
x,-y,1/2+z
1/2+x,1/2+y,z
1/2-x,1/2+y,1/2-z
1/2-x,1/2-y,-z
1/2+x,1/2-y,1/2+z
loop_
_atom_site_type_symbol
_atom_site_label
_atom_site_fract_x
_atom_site_fract_y
_atom_site_fract_z
Si Si1 0.408498 0.299409 0.624413
Si Si2 0.049879 0.647611 0.092421
Si Si3 0.106517 0.531839 0.113724
Si Si4 0.196934 0.288617 0.727853
Si Si5 0.154053 0.852669 0.518586
Si Si6 0.202714 0.031673 0.021956
O O1 0.500000 0.281764 0.750000
O O2 0.354209 0.247068 0.575422
O O3 0.408056 0.337331 0.873624
O O4 0.372890 0.328815 0.306007
O O5 0.062708 0.585796 0.088506
O O6 0.134301 0.678531 0.282643
O O7 0.000000 0.660917 0.250000
O O8 0.000000 0.668749 0.750000
O O9 0.079872 0.489695 0.280477
O O10 0.201971 0.542183 0.296083
O O11 0.257870 0.330571 0.715145
O O12 0.250000 0.250000 0.000000
O O13 0.155654 0.914965 0.491253
O O14 0.176651 0.989955 0.190764
#
# Coordination Sequence:
#
# PCOD8138464 Si02
#       6
#     8   8   8   8   8   8
#     4  11  24  41  66  94 129 163 205 260 323 379
#     4  12  26  41  63  93 133 172 208 261 318 372
#     4  10  21  39  61  90 127 169 211 253 304 367
#     4  10  24  44  65  93 123 167 218 265 307 371
#     4  11  22  42  68  94 125 165 211 258 311 374
#     4  10  20  37  65  95 124 160 210 262 306 365
#
# _framework density 22.158156999999999
#
# number of rings (size 3 to 8) (size 9 to 14) (size 15 to 20)
#    0.000    1.333    1.667    3.500    0.000   10.000 
#    0.000    0.000    0.000   10.000    0.000    0.000 
#    0.000    0.000    0.000    0.000    0.000    0.000 
#
# Total GULP energy -297633.467732 kJ/mol
# GULP energy per Si atom -12401.394489 kJ/mol
# Density = 2.210772 g / cm^3
# Si number density = 22.158157 Si / 1000 Ang^3
#
#
#
# Elastic Constant Matrix: (Units=GPa)
#
#
# Indices 1 2 3 4 5 6 
#
# 1 71.6562 26.7720 12.4127 0.0000 -11.1265 0.0000
# 2 26.7720 94.0740 18.0733 0.0000 7.1474 0.0000
# 3 12.4127 18.0733 62.8997 0.0000 -15.3033 0.0000
# 4 0.0000 0.0000 0.0000 3.9569 0.0000 22.7515
# 5 -11.1265 7.1474 -15.3033 0.0000 41.7048 0.0000
# 6 0.0000 0.0000 0.0000 22.7515 0.0000 10.7788
#
#
#
# Elastic Compliance Matrix: (Units=1/GPa)
#
#
# Indices 1 2 3 4 5 6 
#
# 1 0.016734 -0.005032 -0.000616 0.000000 0.005101 0.000000
# 2 -0.005032 0.013226 -0.004047 0.000000 -0.005094 0.000000
# 3 -0.000616 -0.004047 0.019008 0.000000 0.007504 0.000000
# 4 0.000000 0.000000 0.000000 -0.022693 0.000000 0.047900
# 5 0.005101 -0.005094 0.007504 0.000000 0.028966 0.000000
# 6 0.000000 0.000000 0.000000 0.047900 0.000000 -0.008331
#
#
# Mechanical properties :
#
#
# Convention : Reuss Voigt Hill
#
# Bulk Modulus (GPa) = 33.80554 38.12732 35.96643
# Shear Modulus (GPa) = 65.65245 22.71290 44.18267
#
# Velocity S-wave (km/s) = 5.44916 3.20509 4.47023
# Velocity P-wave (km/s) = 7.40815 5.56247 6.55064
#
# Compressibility (1/GPa) = 0.02958095
#
# Stress axis : x y z
#
# Youngs Moduli (GPa) = 59.75824 75.60667 52.60842
#
# Poissons Ratio (x) = 0.38042 0.03238
# Poissons Ratio (y) = 0.30068 0.21290
# Poissons Ratio (z) = 0.03678 0.30597
#
# Static dielectric constant tensor:
#      x y z
#    x 4.037550 0.000000 0.116980 
#    y 0.000000 4.097330 0.000000 
#    z 0.116980 0.000000 4.022710 
# 
# 
# High freq. dielectric constant tensor:
#      x y z
#    x 1.873830 0.000000 0.000360 
#    y 0.000000 1.880680 0.000000 
#    z 0.000360 0.000000 1.862570 
# 
# From -- ./inp_files/10652.got.cif
#   From: 2010.06.25/outbox.cif.g09.slc.cpg/sg15_6_cif.got.tgz:10652.got - 2010.06.28 07:06:18.
