data_PCOD8138160
_publ_section_title
;
Structure prediction by ZEFSAII (Michael W. Deem and Ramdas Pophale) SiO2 
 PCOD8138160
Probable space group: C 2/C
;
_chemical_formula_sum "Si O2"
_cell_formula_units_Z 56
_cell_length_a 13.672678
_cell_length_b 15.693262
_cell_length_c 17.443884
_cell_angle_alpha 90.000000
_cell_angle_beta 130.277607
_cell_angle_gamma 90.000000
_cell_volume 2855.548911
_symmetry_space_group_name_H-M "C 2/C"
_symmetry_group_IT_number 15
_symmetry_cell_setting 'monoclinic'
loop_
_space_group_symop_operation_xyz
x,y,z
-x,y,1/2-z
-x,-y,-z
x,-y,1/2+z
1/2+x,1/2+y,z
1/2-x,1/2+y,1/2-z
1/2-x,1/2-y,-z
1/2+x,1/2-y,1/2+z
loop_
_atom_site_type_symbol
_atom_site_label
_atom_site_fract_x
_atom_site_fract_y
_atom_site_fract_z
Si Si1 0.952727 0.268691 0.643482
Si Si2 0.256441 0.360644 0.050429
Si Si3 0.862896 0.321588 0.345919
Si Si4 0.839774 0.681948 0.506104
Si Si5 0.300928 0.175542 0.312607
Si Si6 0.642573 0.995945 0.734590
Si Si7 0.846566 0.493999 0.085437
O O1 0.824038 0.320615 0.560786
O O2 0.905186 0.169626 0.622498
O O3 0.000000 0.300507 0.750000
O O4 0.060513 0.283256 0.634794
O O5 0.195196 0.333468 0.099544
O O6 0.245834 0.460215 0.024108
O O7 0.801862 0.241160 0.272470
O O8 0.833241 0.410145 0.287380
O O9 0.010878 0.294731 0.425843
O O10 0.750000 0.750000 0.500000
O O11 0.782714 0.664374 0.393626
O O12 0.832156 0.603787 0.559503
O O13 0.282250 0.080137 0.269884
O O14 0.694498 0.994499 0.847475
O O15 0.492449 0.973288 0.649514
#
# Coordination Sequence:
#
# PCOD8138160 Si02
#       7
#     8   8   8   8   8   8   8
#     4  11  21  35  57  96 125 151 187 246 307 364
#     4  11  21  34  63  91 123 151 194 245 312 357
#     4  11  23  39  61  92 119 156 206 245 298 361
#     4  11  24  42  61  84 120 167 207 247 286 349
#     4  12  22  38  65  90 124 158 197 247 306 356
#     4  10  21  36  60  89 120 155 199 253 294 350
#     4  10  20  37  60  87 120 155 203 245 296 355
#
# _framework density 19.610942000000001
#
# number of rings (size 3 to 8) (size 9 to 14) (size 15 to 20)
#    0.000    1.143    4.286    2.571    2.000    4.000 
#    0.000    1.429    0.000    3.429    0.000    0.000 
#    0.000    0.000    0.000    0.000    0.000    0.000 
#
# Total GULP energy -347092.032877 kJ/mol
# GULP energy per Si atom -12396.144031 kJ/mol
# Density = 1.956631 g / cm^3
# Si number density = 19.610942 Si / 1000 Ang^3
#
#
#
# Elastic Constant Matrix: (Units=GPa)
#
#
# Indices 1 2 3 4 5 6 
#
# 1 70.2150 35.7916 32.4454 0.0000 -18.3792 0.0000
# 2 35.7916 98.5318 43.5806 0.0000 -4.6467 0.0000
# 3 32.4454 43.5806 101.0842 0.0000 -24.9352 0.0000
# 4 0.0000 0.0000 0.0000 41.2610 0.0000 1.5990
# 5 -18.3792 -4.6467 -24.9352 0.0000 32.6108 0.0000
# 6 0.0000 0.0000 0.0000 1.5990 0.0000 35.8099
#
#
#
# Elastic Compliance Matrix: (Units=1/GPa)
#
#
# Indices 1 2 3 4 5 6 
#
# 1 0.020722 -0.006401 -0.001523 0.000000 0.009602 0.000000
# 2 -0.006401 0.014743 -0.005760 0.000000 -0.005911 0.000000
# 3 -0.001523 -0.005760 0.015345 0.000000 0.010054 0.000000
# 4 0.000000 0.000000 0.000000 0.024278 0.000000 -0.001084
# 5 0.009602 -0.005911 0.010054 0.000000 0.042922 0.000000
# 6 0.000000 0.000000 0.000000 -0.001084 0.000000 0.027974
#
#
# Mechanical properties :
#
#
# Convention : Reuss Voigt Hill
#
# Bulk Modulus (GPa) = 42.65704 54.82956 48.74330
# Shear Modulus (GPa) = 27.59926 32.47055 30.03491
#
# Velocity S-wave (km/s) = 3.75552 4.07349 3.91773
# Velocity P-wave (km/s) = 6.37214 7.08123 6.73602
#
# Compressibility (1/GPa) = 0.02344279
#
# Stress axis : x y z
#
# Youngs Moduli (GPa) = 48.25817 67.82953 65.16831
#
# Poissons Ratio (x) = 0.43416 0.09925
# Poissons Ratio (y) = 0.30889 0.37535
# Poissons Ratio (z) = 0.07350 0.39068
#
# Static dielectric constant tensor:
#      x y z
#    x 3.504230 0.000000 -0.023510 
#    y 0.000000 3.787440 0.000000 
#    z -0.023510 0.000000 3.876300 
# 
# 
# High freq. dielectric constant tensor:
#      x y z
#    x 1.745760 0.000000 -0.021760 
#    y 0.000000 1.771770 0.000000 
#    z -0.021760 0.000000 1.770920 
# 
# From -- ./inp_files/153415.got.cif
#   From: 2010.06.25/outbox.cif.g09.slc.cpg/sg15_77_cif.got.tgz:153415.got - 2010.06.28 07:06:18.
