data_PCOD8138466
_publ_section_title
;
Structure prediction by ZEFSAII (Michael W. Deem and Ramdas Pophale) SiO2 
 PCOD8138466
Probable space group: C 2/C
;
_chemical_formula_sum "Si O2"
_cell_formula_units_Z 60
_cell_length_a 12.002688
_cell_length_b 15.208341
_cell_length_c 16.017379
_cell_angle_alpha 90.000000
_cell_angle_beta 78.693450
_cell_angle_gamma 90.000000
_cell_volume 2867.083015
_symmetry_space_group_name_H-M "C 2/C"
_symmetry_group_IT_number 15
_symmetry_cell_setting 'monoclinic'
loop_
_space_group_symop_operation_xyz
x,y,z
-x,y,1/2-z
-x,-y,-z
x,-y,1/2+z
1/2+x,1/2+y,z
1/2-x,1/2+y,1/2-z
1/2-x,1/2-y,-z
1/2+x,1/2-y,1/2+z
loop_
_atom_site_type_symbol
_atom_site_label
_atom_site_fract_x
_atom_site_fract_y
_atom_site_fract_z
Si Si1 0.809766 0.689755 0.176430
Si Si2 0.082756 0.157569 0.924823
Si Si3 0.341768 0.060908 0.415120
Si Si4 0.000000 0.593983 0.250000
Si Si5 0.123613 0.273150 0.493535
Si Si6 0.721350 0.577138 0.043608
Si Si7 0.011668 0.004168 0.154058
Si Si8 0.147111 0.838136 0.843465
O O1 0.831064 0.790510 0.147905
O O2 0.800961 0.629788 0.095464
O O3 0.693348 0.686320 0.245566
O O4 0.911537 0.658019 0.219042
O O5 0.059741 0.060740 0.893411
O O6 0.141133 0.145655 0.006222
O O7 0.965421 0.211050 0.945557
O O8 0.434968 0.035878 0.329880
O O9 0.398949 0.125979 0.476152
O O10 0.236142 0.108150 0.386627
O O11 0.303376 0.972609 0.466703
O O12 0.250000 0.250000 0.500000
O O13 0.112048 0.252537 0.396086
O O14 0.643257 0.507261 0.105871
O O15 0.963132 0.102195 0.152647
O O16 0.000000 0.969404 0.250000
#
# Coordination Sequence:
#
# PCOD8138466 Si02
#       8
#     8   8   8   4   8   8   8   8
#     4  11  25  42  66  94 132 179 219 271 336 399
#     4  12  24  41  66  98 130 174 219 273 330 398
#     4  10  21  39  67  94 124 179 223 275 324 396
#     4  10  22  44  64  88 132 172 224 280 328 388
#     4  10  20  37  65  95 129 166 216 263 331 382
#     4  12  24  42  68  97 138 171 222 271 344 401
#     4  12  23  38  68 102 129 170 219 278 335 390
#     4  10  20  41  61  94 136 167 211 282 329 383
#
# _framework density 20.927192999999999
#
# number of rings (size 3 to 8) (size 9 to 14) (size 15 to 20)
#    0.000    1.067    5.333    2.400    0.933    1.600 
#    0.000    0.000    0.000    0.000    1.733    0.000 
#    0.000    0.000    0.000    0.000    0.000    0.000 
#
# Total GULP energy -371989.794193 kJ/mol
# GULP energy per Si atom -12399.659806 kJ/mol
# Density = 2.087956 g / cm^3
# Si number density = 20.927193 Si / 1000 Ang^3
#
#
#
# Elastic Constant Matrix: (Units=GPa)
#
#
# Indices 1 2 3 4 5 6 
#
# 1 66.0169 35.6360 38.5825 0.0000 -4.6871 0.0000
# 2 35.6360 74.7873 38.1285 0.0000 -8.5095 0.0000
# 3 38.5825 38.1285 120.9638 0.0000 -17.7606 0.0000
# 4 0.0000 0.0000 0.0000 13.5146 0.0000 -11.7491
# 5 -4.6871 -8.5095 -17.7606 0.0000 43.4256 0.0000
# 6 0.0000 0.0000 0.0000 -11.7491 0.0000 25.4185
#
#
#
# Elastic Compliance Matrix: (Units=1/GPa)
#
#
# Indices 1 2 3 4 5 6 
#
# 1 0.022308 -0.008395 -0.004635 0.000000 -0.001133 0.000000
# 2 -0.008395 0.019144 -0.003126 0.000000 0.001567 0.000000
# 3 -0.004635 -0.003126 0.011243 0.000000 0.003485 0.000000
# 4 0.000000 0.000000 0.000000 0.123703 0.000000 0.057179
# 5 -0.001133 0.001567 0.003485 0.000000 0.024638 0.000000
# 6 0.000000 0.000000 0.000000 0.057179 0.000000 0.065771
#
#
# Mechanical properties :
#
#
# Convention : Reuss Voigt Hill
#
# Bulk Modulus (GPa) = 49.06790 54.05135 51.55963
# Shear Modulus (GPa) = 16.34439 26.43313 21.38876
#
# Velocity S-wave (km/s) = 2.79769 3.55787 3.20043
# Velocity P-wave (km/s) = 5.82529 6.53928 6.19258
#
# Compressibility (1/GPa) = 0.02037992
#
# Stress axis : x y z
#
# Youngs Moduli (GPa) = 44.82653 52.23608 88.94701
#
# Poissons Ratio (x) = 0.43855 0.41231
# Poissons Ratio (y) = 0.37634 0.27809
# Poissons Ratio (z) = 0.20779 0.16331
#
# Static dielectric constant tensor:
#      x y z
#    x 3.783580 0.000000 -0.118220 
#    y 0.000000 3.575780 0.000000 
#    z -0.118220 0.000000 4.264780 
# 
# 
# High freq. dielectric constant tensor:
#      x y z
#    x 1.818880 0.000000 -0.009440 
#    y 0.000000 1.789810 0.000000 
#    z -0.009440 0.000000 1.835530 
# 
# From -- ./inp_files/145620.got.cif
#   From: 2010.06.25/outbox.cif.g09.slc.cpg/sg15_73_cif.got.tgz:145620.got - 2010.06.28 07:06:18.
