data_PCOD8138284
_publ_section_title
;
Structure prediction by ZEFSAII (Michael W. Deem and Ramdas Pophale) SiO2 
 PCOD8138284
Probable space group: C 2/C
;
_chemical_formula_sum "Si O2"
_cell_formula_units_Z 52
_cell_length_a 16.782715
_cell_length_b 19.458791
_cell_length_c 7.980144
_cell_angle_alpha 90.000000
_cell_angle_beta 99.042722
_cell_angle_gamma 90.000000
_cell_volume 2573.696402
_symmetry_space_group_name_H-M "C 2/C"
_symmetry_group_IT_number 15
_symmetry_cell_setting 'monoclinic'
loop_
_space_group_symop_operation_xyz
x,y,z
-x,y,1/2-z
-x,-y,-z
x,-y,1/2+z
1/2+x,1/2+y,z
1/2-x,1/2+y,1/2-z
1/2-x,1/2-y,-z
1/2+x,1/2-y,1/2+z
loop_
_atom_site_type_symbol
_atom_site_label
_atom_site_fract_x
_atom_site_fract_y
_atom_site_fract_z
Si Si1 0.526129 0.202559 0.576988
Si Si2 0.962582 0.432014 0.914647
Si Si3 0.500000 0.295503 0.250000
Si Si4 0.207939 0.319612 0.039450
Si Si5 0.290831 0.932490 0.728866
Si Si6 0.189943 0.974538 0.981712
Si Si7 0.646098 0.397063 0.274820
O O1 0.500000 0.233354 0.750000
O O2 0.480403 0.129861 0.547661
O O3 0.494421 0.250737 0.416495
O O4 0.622863 0.193903 0.601346
O O5 0.868941 0.448493 0.863851
O O6 0.000000 0.410925 0.750000
O O7 0.000000 0.500000 0.000000
O O8 0.578685 0.341882 0.292324
O O9 0.265764 0.361887 0.183378
O O10 0.250000 0.250000 0.000000
O O11 0.194979 0.361894 0.864276
O O12 0.216052 0.927042 0.833987
O O13 0.270486 0.996689 0.601006
O O14 0.137970 0.040571 0.904859
O O15 0.135914 0.927344 0.084779
#
# Coordination Sequence:
#
# PCOD8138284 Si02
#       7
#     8   8   4   8   8   8   8
#     4  12  27  45  64  98 141 174 226 273 329 407
#     4  12  23  37  61  93 131 177 214 268 322 384
#     4  12  24  50  68  96 134 176 216 294 338 388
#     4  11  22  43  66  91 127 178 218 265 335 401
#     4  10  20  37  62  89 133 168 213 270 324 387
#     4   9  21  40  63  98 127 167 223 276 326 411
#     4  10  23  41  71  94 132 169 223 279 343 395
#
# _framework density 20.204405000000001
#
# number of rings (size 3 to 8) (size 9 to 14) (size 15 to 20)
#    0.000    1.231    3.846    1.385    6.462    1.846 
#    2.769    1.538    0.000    0.000    0.000    0.000 
#    0.000    0.000    0.000    0.000    0.000    0.000 
#
# Total GULP energy -322421.680600 kJ/mol
# GULP energy per Si atom -12400.833869 kJ/mol
# Density = 2.015842 g / cm^3
# Si number density = 20.204405 Si / 1000 Ang^3
#
#
#
# Elastic Constant Matrix: (Units=GPa)
#
#
# Indices 1 2 3 4 5 6 
#
# 1 85.4480 41.2500 46.6644 0.0000 3.9813 0.0000
# 2 41.2500 101.8755 48.1778 0.0000 -8.5263 0.0000
# 3 46.6644 48.1778 118.2533 0.0000 -16.8664 0.0000
# 4 0.0000 0.0000 0.0000 23.3108 0.0000 -5.6617
# 5 3.9813 -8.5263 -16.8664 0.0000 34.0881 0.0000
# 6 0.0000 0.0000 0.0000 -5.6617 0.0000 21.3167
#
#
#
# Elastic Compliance Matrix: (Units=1/GPa)
#
#
# Indices 1 2 3 4 5 6 
#
# 1 0.017501 -0.004855 -0.005802 0.000000 -0.006129 0.000000
# 2 -0.004855 0.013518 -0.003258 0.000000 0.002336 0.000000
# 3 -0.005802 -0.003258 0.012969 0.000000 0.006280 0.000000
# 4 0.000000 0.000000 0.000000 0.045857 0.000000 0.012179
# 5 -0.006129 0.002336 0.006280 0.000000 0.033743 0.000000
# 6 0.000000 0.000000 0.000000 0.012179 0.000000 0.050146
#
#
# Mechanical properties :
#
#
# Convention : Reuss Voigt Hill
#
# Bulk Modulus (GPa) = 61.89361 64.19569 63.04465
# Shear Modulus (GPa) = 24.16010 27.04208 25.60109
#
# Velocity S-wave (km/s) = 3.46176 3.66242 3.56350
# Velocity P-wave (km/s) = 6.83218 7.05170 6.94281
#
# Compressibility (1/GPa) = 0.01615676
#
# Stress axis : x y z
#
# Youngs Moduli (GPa) = 57.13860 73.97387 77.10542
#
# Poissons Ratio (x) = 0.35917 0.44739
# Poissons Ratio (y) = 0.27743 0.25123
# Poissons Ratio (z) = 0.33154 0.24103
#
# Static dielectric constant tensor:
#      x y z
#    x 3.573050 0.000000 -0.037710 
#    y 0.000000 3.627740 0.000000 
#    z -0.037710 0.000000 3.797880 
# 
# 
# High freq. dielectric constant tensor:
#      x y z
#    x 1.776420 0.000000 0.001550 
#    y 0.000000 1.791160 0.000000 
#    z 0.001550 0.000000 1.798200 
# 
# From -- ./inp_files/48644.got.cif
#   From: 2010.06.25/outbox.cif.g09.slc.cpg/sg15_25_cif.got.tgz:48644.got - 2010.06.28 07:06:18.
