data_PCOD8138449
_publ_section_title
;
Structure prediction by ZEFSAII (Michael W. Deem and Ramdas Pophale) SiO2 
 PCOD8138449
Probable space group: C 2/C
;
_chemical_formula_sum "Si O2"
_cell_formula_units_Z 40
_cell_length_a 16.905956
_cell_length_b 8.639334
_cell_length_c 23.532857
_cell_angle_alpha 90.000000
_cell_angle_beta 34.250869
_cell_angle_gamma 90.000000
_cell_volume 1934.470983
_symmetry_space_group_name_H-M "C 2/C"
_symmetry_group_IT_number 15
_symmetry_cell_setting 'monoclinic'
loop_
_space_group_symop_operation_xyz
x,y,z
-x,y,1/2-z
-x,-y,-z
x,-y,1/2+z
1/2+x,1/2+y,z
1/2-x,1/2+y,1/2-z
1/2-x,1/2-y,-z
1/2+x,1/2-y,1/2+z
loop_
_atom_site_type_symbol
_atom_site_label
_atom_site_fract_x
_atom_site_fract_y
_atom_site_fract_z
Si Si1 0.349825 0.485976 0.120626
Si Si2 0.231512 0.677539 0.790761
Si Si3 0.764265 0.675694 0.914414
Si Si4 0.515918 0.773628 0.130220
Si Si5 0.634614 0.536920 0.202393
O O1 0.351757 0.360366 0.171535
O O2 0.287504 0.642280 0.183942
O O3 0.236054 0.428929 0.141523
O O4 0.500000 0.500000 0.000000
O O5 0.266710 0.594388 0.829306
O O6 0.080791 0.619784 0.853805
O O7 0.896106 0.625082 0.876100
O O8 0.777883 0.860484 0.894420
O O9 0.617670 0.660186 0.034179
O O10 0.409505 0.656295 0.222944
O O11 0.500000 0.462023 0.250000
#
# Coordination Sequence:
#
# PCOD8138449 Si02
#       5
#     8   8   8   8   8
#     4  12  23  41  64  93 130 162 209 265 314 365
#     4  12  22  40  62  92 121 165 210 257 315 375
#     4  10  20  39  63  87 119 166 203 259 314 370
#     4  10  20  37  65  86 117 159 216 243 309 382
#     4  10  21  40  58  84 125 161 201 261 311 362
#
# _framework density 20.677489000000001
#
# number of rings (size 3 to 8) (size 9 to 14) (size 15 to 20)
#    0.000    1.200    6.000    0.000    0.000    0.800 
#    7.200    0.000    0.000    4.800    0.000    0.000 
#    0.000    0.000    0.000    0.000    0.000    0.000 
#
# Total GULP energy -247797.088713 kJ/mol
# GULP energy per Si atom -12389.854436 kJ/mol
# Density = 2.063043 g / cm^3
# Si number density = 20.677489 Si / 1000 Ang^3
#
#
#
# Elastic Constant Matrix: (Units=GPa)
#
#
# Indices 1 2 3 4 5 6 
#
# 1 166.2677 43.1871 26.1373 -0.0006 -21.3958 0.0021
# 2 43.1871 72.4001 42.8512 -0.0021 -1.6920 0.0056
# 3 26.1373 42.8512 77.1362 0.0007 1.7984 -0.0004
# 4 -0.0006 -0.0021 0.0007 20.5142 0.0000 5.9073
# 5 -21.3958 -1.6920 1.7984 0.0000 34.2606 -0.0013
# 6 0.0021 0.0056 -0.0004 5.9073 -0.0013 41.1316
#
#
#
# Elastic Compliance Matrix: (Units=1/GPa)
#
#
# Indices 1 2 3 4 5 6 
#
# 1 0.007796 -0.004341 -0.000339 0.000000 0.004672 0.000000
# 2 -0.004341 0.023085 -0.011331 0.000004 -0.000976 -0.000004
# 3 -0.000339 -0.011331 0.019415 -0.000002 -0.001791 0.000002
# 4 0.000000 0.000004 -0.000002 0.050850 0.000000 -0.007303
# 5 0.004672 -0.000976 -0.001791 0.000000 0.032152 0.000001
# 6 0.000000 -0.000004 0.000002 -0.007303 0.000001 0.025361
#
#
# Mechanical properties :
#
#
# Convention : Reuss Voigt Hill
#
# Bulk Modulus (GPa) = 54.71887 60.01725 57.36806
# Shear Modulus (GPa) = 25.41011 32.75652 29.08332
#
# Velocity S-wave (km/s) = 3.50934 3.98447 3.75443
# Velocity P-wave (km/s) = 6.55294 7.08918 6.82633
#
# Compressibility (1/GPa) = 0.01827523
#
# Stress axis : x y z
#
# Youngs Moduli (GPa) = 128.26371 43.31864 51.50566
#
# Poissons Ratio (x) = 0.18803 0.01748
# Poissons Ratio (y) = 0.55673 0.58359
# Poissons Ratio (z) = 0.04354 0.49083
#
# Static dielectric constant tensor:
#      x y z
#    x 4.403500 0.000000 0.052670 
#    y 0.000000 3.376030 0.000000 
#    z 0.052670 0.000000 3.848270 
# 
# 
# High freq. dielectric constant tensor:
#      x y z
#    x 1.841750 0.000000 0.007240 
#    y 0.000000 1.753720 0.000000 
#    z 0.007240 0.000000 1.811020 
# 
# From -- ./inp_files/158853.got.cif
#   From: 2010.06.25/outbox.cif.g09.slc.cpg/sg15_80_cif.got.tgz:158853.got - 2010.06.28 07:06:18.
