data_PCOD8138739
_publ_section_title
;
Structure prediction by ZEFSAII (Michael W. Deem and Ramdas Pophale) SiO2 
 PCOD8138739
Probable space group: C 2/C
;
_chemical_formula_sum "Si O2"
_cell_formula_units_Z 44
_cell_length_a 12.856303
_cell_length_b 13.565485
_cell_length_c 12.654337
_cell_angle_alpha 90.000000
_cell_angle_beta 105.137312
_cell_angle_gamma 90.000000
_cell_volume 2130.366766
_symmetry_space_group_name_H-M "C 2/C"
_symmetry_group_IT_number 15
_symmetry_cell_setting 'monoclinic'
loop_
_space_group_symop_operation_xyz
x,y,z
-x,y,1/2-z
-x,-y,-z
x,-y,1/2+z
1/2+x,1/2+y,z
1/2-x,1/2+y,1/2-z
1/2-x,1/2-y,-z
1/2+x,1/2-y,1/2+z
loop_
_atom_site_type_symbol
_atom_site_label
_atom_site_fract_x
_atom_site_fract_y
_atom_site_fract_z
Si Si1 0.112307 0.696273 0.742298
Si Si2 0.616283 0.999170 0.831584
Si Si3 0.860293 0.634214 0.975334
Si Si4 0.000000 0.032274 0.750000
Si Si5 0.383150 0.654981 0.550752
Si Si6 0.175742 0.101100 0.194352
O O1 0.152261 0.614896 0.838164
O O2 0.090632 0.632867 0.629034
O O3 0.191693 0.788623 0.747490
O O4 0.000000 0.743506 0.750000
O O5 0.500000 0.984011 0.750000
O O6 0.611577 0.964346 0.952139
O O7 0.703858 0.938357 0.787502
O O8 0.907085 0.728225 0.051820
O O9 0.732149 0.641408 0.925215
O O10 0.104929 0.966700 0.752565
O O11 0.025404 0.101425 0.856796
O O12 0.385009 0.608889 0.433809
#
# Coordination Sequence:
#
# PCOD8138739 Si02
#       6
#     8   8   8   4   8   8
#     4  10  20  38  61  82 118 167 185 239 320 346
#     4  10  22  37  63  87 113 164 209 234 289 364
#     4   9  19  39  57  84 126 155 196 249 292 353
#     4  12  20  34  66  92 118 152 206 246 292 368
#     4   9  20  35  59  87 120 161 191 246 301 347
#     4  10  21  39  59  89 125 153 197 254 302 344
#
# _framework density 20.653718999999999
#
# number of rings (size 3 to 8) (size 9 to 14) (size 15 to 20)
#    0.000    2.182    0.909    2.727    1.273    2.909 
#    0.000    0.000    0.000    6.545    0.000    0.000 
#    0.000    0.000    0.000    0.000    0.000    0.000 
#
# Total GULP energy -272735.585456 kJ/mol
# GULP energy per Si atom -12397.072066 kJ/mol
# Density = 2.060671 g / cm^3
# Si number density = 20.653719 Si / 1000 Ang^3
#
#
#
# Elastic Constant Matrix: (Units=GPa)
#
#
# Indices 1 2 3 4 5 6 
#
# 1 72.5221 21.5176 8.1718 0.0000 -6.7576 0.0000
# 2 21.5176 122.3421 36.3481 0.0000 11.4109 0.0000
# 3 8.1718 36.3481 56.3969 0.0000 -1.3683 0.0000
# 4 0.0000 0.0000 0.0000 33.5926 0.0000 -3.1161
# 5 -6.7576 11.4109 -1.3683 0.0000 27.2330 0.0000
# 6 0.0000 0.0000 0.0000 -3.1161 0.0000 25.8997
#
#
#
# Elastic Compliance Matrix: (Units=1/GPa)
#
#
# Indices 1 2 3 4 5 6 
#
# 1 0.015197 -0.003128 -0.000063 0.000000 0.005078 0.000000
# 2 -0.003128 0.011355 -0.007008 0.000000 -0.005886 0.000000
# 3 -0.000063 -0.007008 0.022355 0.000000 0.004044 0.000000
# 4 0.000000 0.000000 0.000000 0.030104 0.000000 0.003622
# 5 0.005078 -0.005886 0.004044 0.000000 0.040650 0.000000
# 6 0.000000 0.000000 0.000000 0.003622 0.000000 0.039046
#
#
# Mechanical properties :
#
#
# Convention : Reuss Voigt Hill
#
# Bulk Modulus (GPa) = 35.07523 42.59291 38.83407
# Shear Modulus (GPa) = 26.50986 29.69330 28.10158
#
# Velocity S-wave (km/s) = 3.58654 3.79578 3.69264
# Velocity P-wave (km/s) = 5.84555 6.31488 6.08474
#
# Compressibility (1/GPa) = 0.02851015
#
# Stress axis : x y z
#
# Youngs Moduli (GPa) = 65.80137 88.06673 44.73195
#
# Poissons Ratio (x) = 0.27546 0.00281
# Poissons Ratio (y) = 0.20582 0.31348
# Poissons Ratio (z) = 0.00414 0.61717
#
# Static dielectric constant tensor:
#      x y z
#    x 3.667700 0.000000 -0.318030 
#    y 0.000000 3.918190 0.000000 
#    z -0.318030 0.000000 3.459010 
# 
# 
# High freq. dielectric constant tensor:
#      x y z
#    x 1.808490 0.000000 -0.029090 
#    y 0.000000 1.818630 0.000000 
#    z -0.029090 0.000000 1.778400 
# 
# From -- ./inp_files/96585.got.cif
#   From: 2010.06.25/outbox.cif.g09.slc.cpg/sg15_49_cif.got.tgz:96585.got - 2010.06.28 07:06:18.
