data_PCOD8138815
_publ_section_title
;
Structure prediction by ZEFSAII (Michael W. Deem and Ramdas Pophale) SiO2 
 PCOD8138815
Probable space group: C 2/C
;
_chemical_formula_sum "Si O2"
_cell_formula_units_Z 40
_cell_length_a 17.751015
_cell_length_b 12.790989
_cell_length_c 14.589624
_cell_angle_alpha 90.000000
_cell_angle_beta 34.724603
_cell_angle_gamma 90.000000
_cell_volume 1886.975135
_symmetry_space_group_name_H-M "C 2/C"
_symmetry_group_IT_number 15
_symmetry_cell_setting 'monoclinic'
loop_
_space_group_symop_operation_xyz
x,y,z
-x,y,1/2-z
-x,-y,-z
x,-y,1/2+z
1/2+x,1/2+y,z
1/2-x,1/2+y,1/2-z
1/2-x,1/2-y,-z
1/2+x,1/2-y,1/2+z
loop_
_atom_site_type_symbol
_atom_site_label
_atom_site_fract_x
_atom_site_fract_y
_atom_site_fract_z
Si Si1 0.500000 0.249238 0.250000
Si Si2 0.094697 0.904860 0.803864
Si Si3 0.126174 0.439967 0.032225
Si Si4 0.000000 0.250754 0.250000
Si Si5 0.626184 0.939974 0.715413
Si Si6 0.594687 0.595144 0.506751
O O1 0.406842 0.179356 0.278395
O O2 0.413491 0.318104 0.406324
O O3 0.246906 0.942983 0.660058
O O4 0.086519 0.818114 0.733290
O O5 0.054552 0.862525 0.945445
O O6 0.000011 0.000006 0.870580
O O7 0.093141 0.320636 0.092085
O O8 0.166243 0.499989 0.083758
O O9 0.999997 0.500001 0.112380
O O10 0.753108 0.942989 0.653851
#
# Coordination Sequence:
#
# PCOD8138815 Si02
#       6
#     4   8   8   4   8   8
#     4  10  20  38  62  84 114 152 190 236 282 338
#     4  11  23  37  58  87 117 152 191 234 284 337
#     4   9  20  39  61  83 111 152 191 233 287 335
#     4  10  20  38  62  84 114 152 190 236 282 338
#     4   9  20  39  61  83 111 152 191 233 287 335
#     4  11  23  37  58  87 117 152 191 234 284 337
#
# _framework density 21.197948
#
# number of rings (size 3 to 8) (size 9 to 14) (size 15 to 20)
#    0.000    2.400    0.000    4.200    0.000    5.600 
#    0.000   14.000    0.000    1.200    0.000    0.000 
#    0.000    0.000    0.000    0.000    0.000    0.000 
#
# Total GULP energy -247885.501149 kJ/mol
# GULP energy per Si atom -12394.275057 kJ/mol
# Density = 2.114970 g / cm^3
# Si number density = 21.197948 Si / 1000 Ang^3
#
#
#
# Elastic Constant Matrix: (Units=GPa)
#
#
# Indices 1 2 3 4 5 6 
#
# 1 14.9602 44.6383 111.5488 0.0000 22.2250 0.0000
# 2 44.6383 113.7841 55.8396 0.0000 -10.0178 0.0000
# 3 111.5488 55.8396 58.2971 0.0000 -61.0638 0.0000
# 4 0.0000 0.0000 0.0000 9.7414 0.0000 -8.9397
# 5 22.2250 -10.0178 -61.0638 0.0000 14.3044 0.0000
# 6 0.0000 0.0000 0.0000 -8.9397 0.0000 -0.2001
#
#
#
# Elastic Compliance Matrix: (Units=1/GPa)
#
#
# Indices 1 2 3 4 5 6 
#
# 1 0.007106 -0.004856 0.006934 0.000000 0.015160 0.000000
# 2 -0.004856 0.012611 -0.004138 0.000000 -0.001289 0.000000
# 3 0.006934 -0.004138 0.001864 0.000000 -0.005713 0.000000
# 4 0.000000 0.000000 0.000000 0.002444 0.000000 -0.109197
# 5 0.015160 -0.001289 -0.005713 0.000000 0.021061 0.000000
# 6 0.000000 0.000000 0.000000 -0.109197 0.000000 -0.118990
#
#
# Mechanical properties :
#
#
# Convention : Reuss Voigt Hill
#
# Bulk Modulus (GPa) = 57.26951 67.89941 62.58446
# Shear Modulus (GPa) = -78.16948 3.10348 -37.53300
#
# Velocity S-wave (km/s) = -6.07915 1.21129 -4.21241
# Velocity P-wave (km/s) = 4.71164 5.83583 2.43490
#
# Compressibility (1/GPa) = 0.01746130
#
# Stress axis : x y z
#
# Youngs Moduli (GPa) = 140.72770 79.29608 536.37238
#
# Poissons Ratio (x) = 0.38506 -3.71938
# Poissons Ratio (y) = 0.68337 2.21969
# Poissons Ratio (z) = -0.97585 0.32815
#
# Static dielectric constant tensor:
#      x y z
#    x 3.601520 0.000000 -0.138050 
#    y 0.000000 3.853220 0.000000 
#    z -0.138050 0.000000 3.755040 
# 
# 
# High freq. dielectric constant tensor:
#      x y z
#    x 1.823100 0.000000 -0.008490 
#    y 0.000000 1.824880 0.000000 
#    z -0.008490 0.000000 1.832540 
# 
# From -- ./inp_files/214988.got.cif
#   From: 2010.06.25/outbox.cif.g09.slc.cpg/sg15_108_cif.got.tgz:214988.got - 2010.06.28 07:06:18.
