data_PCOD8138793
_publ_section_title
;
Structure prediction by ZEFSAII (Michael W. Deem and Ramdas Pophale) SiO2 
 PCOD8138793
Probable space group: C 2/C
;
_chemical_formula_sum "Si O2"
_cell_formula_units_Z 52
_cell_length_a 9.382153
_cell_length_b 15.616807
_cell_length_c 28.320465
_cell_angle_alpha 90.000000
_cell_angle_beta 37.599114
_cell_angle_gamma 90.000000
_cell_volume 2531.742817
_symmetry_space_group_name_H-M "C 2/C"
_symmetry_group_IT_number 15
_symmetry_cell_setting 'monoclinic'
loop_
_space_group_symop_operation_xyz
x,y,z
-x,y,1/2-z
-x,-y,-z
x,-y,1/2+z
1/2+x,1/2+y,z
1/2-x,1/2+y,1/2-z
1/2-x,1/2-y,-z
1/2+x,1/2-y,1/2+z
loop_
_atom_site_type_symbol
_atom_site_label
_atom_site_fract_x
_atom_site_fract_y
_atom_site_fract_z
Si Si1 0.279398 0.096471 0.919914
Si Si2 0.742432 0.399272 0.944155
Si Si3 0.500000 0.343389 0.750000
Si Si4 0.547031 0.885018 0.027955
Si Si5 0.323150 0.224289 0.712016
Si Si6 0.194421 0.749418 0.141648
Si Si7 0.870094 0.568105 0.092806
O O1 0.274601 0.127254 0.975817
O O2 0.496163 0.143297 0.836305
O O3 0.294576 0.994428 0.910372
O O4 0.021757 0.122584 0.970018
O O5 0.836023 0.339556 0.877654
O O6 0.884390 0.389624 0.955604
O O7 0.413038 0.287406 0.728914
O O8 0.308405 0.408394 0.819527
O O9 0.376227 0.805966 0.064936
O O10 0.385239 0.966293 0.083296
O O11 0.696922 0.893946 0.940794
O O12 0.302536 0.267850 0.665574
O O13 0.054026 0.199506 0.793805
#
# Coordination Sequence:
#
# PCOD8138793 Si02
#       7
#     8   8   4   8   8   8   8
#     4   9  21  39  63  86 124 160 206 257 311 372
#     4  10  20  38  61  91 119 158 206 258 308 368
#     4  12  24  38  60  90 124 162 198 264 310 376
#     4   9  21  39  63  88 116 164 208 251 304 370
#     4  10  23  40  57  88 124 158 209 253 316 367
#     4  10  21  40  63  87 118 165 211 252 308 377
#     4  10  22  39  58  91 125 156 205 252 312 372
#
# _framework density 20.539211000000002
#
# number of rings (size 3 to 8) (size 9 to 14) (size 15 to 20)
#    0.000    2.154    1.538    0.000    4.308    6.769 
#    0.000    1.538    0.000    0.000    0.000    0.000 
#    0.000    0.000    0.000    0.000    0.000    0.000 
#
# Total GULP energy -322147.775218 kJ/mol
# GULP energy per Si atom -12390.299047 kJ/mol
# Density = 2.049246 g / cm^3
# Si number density = 20.539211 Si / 1000 Ang^3
#
#
#
# Elastic Constant Matrix: (Units=GPa)
#
#
# Indices 1 2 3 4 5 6 
#
# 1 94.7029 32.9600 35.4937 0.0017 -5.0027 0.0006
# 2 32.9600 79.3815 44.3442 -0.0020 2.3733 -0.0002
# 3 35.4937 44.3442 94.5661 0.0009 -7.7701 -0.0048
# 4 0.0017 -0.0020 0.0009 31.2971 -0.0037 4.5551
# 5 -5.0027 2.3733 -7.7701 -0.0037 31.4416 0.0013
# 6 0.0006 -0.0002 -0.0048 4.5551 0.0013 23.6525
#
#
#
# Elastic Compliance Matrix: (Units=1/GPa)
#
#
# Indices 1 2 3 4 5 6 
#
# 1 0.013094 -0.003814 -0.002992 -0.000001 0.001632 -0.000001
# 2 -0.003814 0.018529 -0.007576 0.000001 -0.003878 -0.000001
# 3 -0.002992 -0.007576 0.015574 -0.000001 0.003945 0.000003
# 4 -0.000001 0.000001 -0.000001 0.032873 0.000004 -0.006331
# 5 0.001632 -0.003878 0.003945 0.000004 0.033332 -0.000002
# 6 -0.000001 -0.000001 0.000003 -0.006331 -0.000002 0.043498
#
#
# Mechanical properties :
#
#
# Convention : Reuss Voigt Hill
#
# Bulk Modulus (GPa) = 54.24895 54.91627 54.58261
# Shear Modulus (GPa) = 26.06751 27.66840 26.86795
#
# Velocity S-wave (km/s) = 3.56639 3.67427 3.62073
# Velocity P-wave (km/s) = 6.59004 6.69296 6.64170
#
# Compressibility (1/GPa) = 0.01843354
#
# Stress axis : x y z
#
# Youngs Moduli (GPa) = 76.36811 53.96942 64.20898
#
# Poissons Ratio (x) = 0.20586 0.19212
# Poissons Ratio (y) = 0.29129 0.48643
# Poissons Ratio (z) = 0.22850 0.40885
#
# Static dielectric constant tensor:
#      x y z
#    x 4.000290 0.000000 -0.101250 
#    y 0.000000 3.592300 0.000010 
#    z -0.101250 0.000010 3.632670 
# 
# 
# High freq. dielectric constant tensor:
#      x y z
#    x 1.816540 0.000000 -0.006370 
#    y 0.000000 1.793070 0.000000 
#    z -0.006370 0.000000 1.793820 
# 
# From -- ./inp_files/289551.got.cif
#   From: 2010.06.25/outbox.cif.g09.slc.cpg/sg15_145_cif.got.tgz:289551.got - 2010.06.28 07:06:18.
