data_PCOD8138999
_publ_section_title
;
Structure prediction by ZEFSAII (Michael W. Deem and Ramdas Pophale) SiO2 
 PCOD8138999
Probable space group: C 2/C
;
_chemical_formula_sum "Si O2"
_cell_formula_units_Z 44
_cell_length_a 9.780149
_cell_length_b 9.939948
_cell_length_c 21.553784
_cell_angle_alpha 90.000000
_cell_angle_beta 93.451633
_cell_angle_gamma 90.000000
_cell_volume 2091.532294
_symmetry_space_group_name_H-M "C 2/C"
_symmetry_group_IT_number 15
_symmetry_cell_setting 'monoclinic'
loop_
_space_group_symop_operation_xyz
x,y,z
-x,y,1/2-z
-x,-y,-z
x,-y,1/2+z
1/2+x,1/2+y,z
1/2-x,1/2+y,1/2-z
1/2-x,1/2-y,-z
1/2+x,1/2-y,1/2+z
loop_
_atom_site_type_symbol
_atom_site_label
_atom_site_fract_x
_atom_site_fract_y
_atom_site_fract_z
Si Si1 0.183342 0.202031 0.859087
Si Si2 0.140533 0.645659 0.025904
Si Si3 0.594248 0.000644 0.149150
Si Si4 0.690950 0.988833 0.911877
Si Si5 0.000000 0.324128 0.750000
Si Si6 0.521330 0.600907 0.556697
O O1 0.325041 0.138116 0.840065
O O2 0.220484 0.331974 0.901480
O O3 0.091979 0.233097 0.796961
O O4 0.100668 0.090272 0.897183
O O5 0.163942 0.585137 0.094982
O O6 0.010500 0.745138 0.030553
O O7 0.250000 0.750000 0.000000
O O8 0.128286 0.518677 0.979069
O O9 0.432555 0.965218 0.136484
O O10 0.605314 0.086655 0.212297
O O11 0.832040 0.071419 0.905804
O O12 0.500000 0.500000 0.500000
#
# Coordination Sequence:
#
# PCOD8138999 Si02
#       6
#     8   8   8   8   4   8
#     4  11  24  44  69  91 131 172 221 274 326 398
#     4  10  20  38  63  99 138 163 206 272 330 392
#     4  11  23  44  68  92 130 178 215 275 328 388
#     4  10  23  40  65  99 134 168 209 267 334 392
#     4  10  24  46  62  92 130 174 226 268 326 380
#     4  11  23  38  65 103 137 172 210 269 336 395
#
# _framework density 21.037209000000001
#
# number of rings (size 3 to 8) (size 9 to 14) (size 15 to 20)
#    0.000    1.455    3.636    2.727    2.545    4.364 
#    0.000    0.000    0.000    0.000    0.000    0.000 
#    0.000    0.000    0.000    0.000    0.000    0.000 
#
# Total GULP energy -272546.859777 kJ/mol
# GULP energy per Si atom -12388.493626 kJ/mol
# Density = 2.098933 g / cm^3
# Si number density = 21.037209 Si / 1000 Ang^3
#
#
#
# Elastic Constant Matrix: (Units=GPa)
#
#
# Indices 1 2 3 4 5 6 
#
# 1 105.3741 47.9103 18.0202 0.0000 -2.2212 0.0000
# 2 47.9103 124.0515 55.0535 0.0000 8.1364 0.0000
# 3 18.0202 55.0535 116.5022 0.0000 -0.2138 0.0000
# 4 0.0000 0.0000 0.0000 38.8550 0.0000 -4.5748
# 5 -2.2212 8.1364 -0.2138 0.0000 20.9432 0.0000
# 6 0.0000 0.0000 0.0000 -4.5748 0.0000 41.8206
#
#
#
# Elastic Compliance Matrix: (Units=1/GPa)
#
#
# Indices 1 2 3 4 5 6 
#
# 1 0.011728 -0.004980 0.000545 0.000000 0.003184 0.000000
# 2 -0.004980 0.012664 -0.005224 0.000000 -0.005501 0.000000
# 3 0.000545 -0.005224 0.010972 0.000000 0.002199 0.000000
# 4 0.000000 0.000000 0.000000 0.026073 0.000000 0.002852
# 5 0.003184 -0.005501 0.002199 0.000000 0.050246 0.000000
# 6 0.000000 0.000000 0.000000 0.002852 0.000000 0.024224
#
#
# Mechanical properties :
#
#
# Convention : Reuss Voigt Hill
#
# Bulk Modulus (GPa) = 62.32256 65.32175 63.82215
# Shear Modulus (GPa) = 31.13845 35.32003 33.22924
#
# Velocity S-wave (km/s) = 3.85146 4.10192 3.97866
# Velocity P-wave (km/s) = 7.03332 7.31795 7.17704
#
# Compressibility (1/GPa) = 0.01604555
#
# Stress axis : x y z
#
# Youngs Moduli (GPa) = 85.26354 78.96415 91.14190
#
# Poissons Ratio (x) = 0.39328 -0.04970
# Poissons Ratio (y) = 0.42465 0.47614
# Poissons Ratio (z) = -0.04649 0.41252
#
# Static dielectric constant tensor:
#      x y z
#    x 4.671940 0.000000 -0.773120 
#    y 0.000000 3.982850 0.000000 
#    z -0.773120 0.000000 4.294400 
# 
# 
# High freq. dielectric constant tensor:
#      x y z
#    x 1.822890 0.000000 -0.016020 
#    y 0.000000 1.828880 0.000000 
#    z -0.016020 0.000000 1.814870 
# 
# From -- ./inp_files/236111.got.cif
#   From: 2010.06.25/outbox.cif.g09.slc.cpg/sg15_119_cif.got.tgz:236111.got - 2010.06.28 07:06:18.
