data_PCOD8138521
_publ_section_title
;
Structure prediction by ZEFSAII (Michael W. Deem and Ramdas Pophale) SiO2 
 PCOD8138521
Probable space group: C 2/C
;
_chemical_formula_sum "Si O2"
_cell_formula_units_Z 60
_cell_length_a 18.284997
_cell_length_b 19.410113
_cell_length_c 10.279046
_cell_angle_alpha 90.000000
_cell_angle_beta 52.905103
_cell_angle_gamma 90.000000
_cell_volume 2909.922429
_symmetry_space_group_name_H-M "C 2/C"
_symmetry_group_IT_number 15
_symmetry_cell_setting 'monoclinic'
loop_
_space_group_symop_operation_xyz
x,y,z
-x,y,1/2-z
-x,-y,-z
x,-y,1/2+z
1/2+x,1/2+y,z
1/2-x,1/2+y,1/2-z
1/2-x,1/2-y,-z
1/2+x,1/2-y,1/2+z
loop_
_atom_site_type_symbol
_atom_site_label
_atom_site_fract_x
_atom_site_fract_y
_atom_site_fract_z
Si Si1 0.984242 0.919233 0.515265
Si Si2 0.871944 0.826731 0.263026
Si Si3 0.326131 0.147217 0.608293
Si Si4 0.000000 0.168047 0.250000
Si Si5 0.977694 0.446838 0.914027
Si Si6 0.118887 0.672111 0.232677
Si Si7 0.311212 0.647726 0.110209
Si Si8 0.334011 0.249705 0.813256
O O1 0.875379 0.912177 0.601559
O O2 0.043607 0.879266 0.343957
O O3 0.017877 0.883430 0.611832
O O4 0.000000 0.000000 0.500000
O O5 0.784098 0.856403 0.279880
O O6 0.893263 0.748436 0.190734
O O7 0.855114 0.822390 0.433421
O O8 0.370100 0.070713 0.549331
O O9 0.367251 0.186237 0.436655
O O10 0.356123 0.176664 0.719185
O O11 0.917180 0.219023 0.305863
O O12 0.000000 0.481024 0.750000
O O13 0.031801 0.373890 0.864211
O O14 0.000000 0.500000 0.000000
O O15 0.205688 0.627822 0.194927
O O16 0.305382 0.708224 0.218411
O O17 0.250000 0.250000 0.000000
#
# Coordination Sequence:
#
# PCOD8138521 Si02
#       8
#     8   8   8   4   8   8   8   8
#     4  11  26  41  61  87 130 172 207 247 308 372
#     4  11  20  37  70  96 115 154 211 259 310 358
#     4  10  20  39  65  93 124 155 201 261 311 370
#     4  10  26  40  56  92 132 162 206 250 308 378
#     4  10  24  43  63  89 128 170 211 254 310 376
#     4  10  20  37  70  96 118 148 213 262 309 361
#     4  10  21  38  63  92 122 151 208 255 304 367
#     4  11  21  38  59  93 128 155 194 255 320 360
#
# _framework density 20.619105999999999
#
# number of rings (size 3 to 8) (size 9 to 14) (size 15 to 20)
#    0.000    1.600    2.667    2.000    5.600    2.133 
#    3.600    0.000    0.000    0.000    0.000    0.000 
#    0.000    0.000    0.000    0.000    0.000    0.000 
#
# Total GULP energy -371683.895145 kJ/mol
# GULP energy per Si atom -12389.463171 kJ/mol
# Density = 2.057218 g / cm^3
# Si number density = 20.619106 Si / 1000 Ang^3
#
#
#
# Elastic Constant Matrix: (Units=GPa)
#
#
# Indices 1 2 3 4 5 6 
#
# 1 118.3018 43.5779 45.1486 0.0000 11.5911 0.0000
# 2 43.5779 88.5998 43.3292 0.0000 3.7555 0.0000
# 3 45.1486 43.3292 106.7678 0.0000 9.4720 0.0000
# 4 0.0000 0.0000 0.0000 24.4936 0.0000 4.9011
# 5 11.5911 3.7555 9.4720 0.0000 30.8233 0.0000
# 6 0.0000 0.0000 0.0000 4.9011 0.0000 30.8019
#
#
#
# Elastic Compliance Matrix: (Units=1/GPa)
#
#
# Indices 1 2 3 4 5 6 
#
# 1 0.011326 -0.004031 -0.002898 0.000000 -0.002877 0.000000
# 2 -0.004031 0.015516 -0.004687 0.000000 0.001066 0.000000
# 3 -0.002898 -0.004687 0.012692 0.000000 -0.002240 0.000000
# 4 0.000000 0.000000 0.000000 0.042170 0.000000 -0.006710
# 5 -0.002877 0.001066 -0.002240 0.000000 0.034083 0.000000
# 6 0.000000 0.000000 0.000000 -0.006710 0.000000 0.033533
#
#
# Mechanical properties :
#
#
# Convention : Reuss Voigt Hill
#
# Bulk Modulus (GPa) = 61.34147 64.19787 62.76967
# Shear Modulus (GPa) = 28.09188 29.33133 28.71161
#
# Velocity S-wave (km/s) = 3.69510 3.77574 3.73564
# Velocity P-wave (km/s) = 6.92961 7.08597 7.00823
#
# Compressibility (1/GPa) = 0.01630218
#
# Stress axis : x y z
#
# Youngs Moduli (GPa) = 88.29313 64.44780 78.78793
#
# Poissons Ratio (x) = 0.25982 0.22833
# Poissons Ratio (y) = 0.35595 0.36926
# Poissons Ratio (z) = 0.25588 0.30205
#
# Static dielectric constant tensor:
#      x y z
#    x 4.136870 0.000000 0.055530 
#    y 0.000000 3.478920 0.000000 
#    z 0.055530 0.000000 3.674300 
# 
# 
# High freq. dielectric constant tensor:
#      x y z
#    x 1.823760 0.000000 0.001700 
#    y 0.000000 1.774300 0.000000 
#    z 0.001700 0.000000 1.806180 
# 
# From -- ./inp_files/50648.got.cif
#   From: 2010.06.25/outbox.cif.g09.slc.cpg/sg15_26_cif.got.tgz:50648.got - 2010.06.28 07:06:18.
