data_PCOD8138816
_publ_section_title
;
Structure prediction by ZEFSAII (Michael W. Deem and Ramdas Pophale) SiO2 
 PCOD8138816
Probable space group: C 2/C
;
_chemical_formula_sum "Si O2"
_cell_formula_units_Z 56
_cell_length_a 8.347037
_cell_length_b 17.699438
_cell_length_c 26.447525
_cell_angle_alpha 90.000000
_cell_angle_beta 41.665900
_cell_angle_gamma 90.000000
_cell_volume 2597.518393
_symmetry_space_group_name_H-M "C 2/C"
_symmetry_group_IT_number 15
_symmetry_cell_setting 'monoclinic'
loop_
_space_group_symop_operation_xyz
x,y,z
-x,y,1/2-z
-x,-y,-z
x,-y,1/2+z
1/2+x,1/2+y,z
1/2-x,1/2+y,1/2-z
1/2-x,1/2-y,-z
1/2+x,1/2-y,1/2+z
loop_
_atom_site_type_symbol
_atom_site_label
_atom_site_fract_x
_atom_site_fract_y
_atom_site_fract_z
Si Si1 0.754896 0.344077 0.946593
Si Si2 0.917680 0.286519 0.542924
Si Si3 0.554290 0.195417 0.681733
Si Si4 0.965102 0.927692 0.091969
Si Si5 0.586038 0.052100 0.175660
Si Si6 0.780869 0.429030 0.193384
Si Si7 0.410039 0.927448 0.050853
O O1 0.882629 0.373864 0.866020
O O2 0.954323 0.305021 0.934360
O O3 0.553028 0.281413 0.981538
O O4 0.635877 0.416181 0.002886
O O5 0.645939 0.261261 0.622082
O O6 0.916955 0.358238 0.506222
O O7 0.500000 0.229806 0.750000
O O8 0.765473 0.135901 0.641102
O O9 0.329745 0.151612 0.709051
O O10 0.129024 0.915532 0.103165
O O11 0.843595 0.009753 0.118863
O O12 0.500000 0.082369 0.250000
O O13 0.375611 0.996933 0.205689
O O14 0.500000 0.439126 0.250000
O O15 0.931821 0.435286 0.105766
O O16 0.500000 0.000000 0.000000
#
# Coordination Sequence:
#
# PCOD8138816 Si02
#       7
#     8   8   8   8   8   8   8
#     4   9  18  35  60  85 114 153 193 242 293 343
#     4   9  20  38  59  84 115 150 195 241 292 356
#     4  10  20  38  62  84 114 159 198 235 292 355
#     4   9  18  36  60  86 115 153 199 237 288 356
#     4  11  21  36  60  90 120 153 199 246 293 349
#     4  11  22  37  59  88 123 160 199 242 290 349
#     4  11  22  38  61  88 117 150 194 250 304 349
#
# _framework density 21.559037
#
# number of rings (size 3 to 8) (size 9 to 14) (size 15 to 20)
#    0.000    2.000    0.000    6.429    0.000    2.857 
#    0.000    6.429    0.000    0.000    0.000    0.000 
#    0.000    0.000    0.000    0.000    0.000    0.000 
#
# Total GULP energy -347212.040336 kJ/mol
# GULP energy per Si atom -12400.430012 kJ/mol
# Density = 2.150997 g / cm^3
# Si number density = 21.559037 Si / 1000 Ang^3
#
#
#
# Elastic Constant Matrix: (Units=GPa)
#
#
# Indices 1 2 3 4 5 6 
#
# 1 66.4508 13.2687 37.1455 0.0135 6.4898 -0.0107
# 2 13.2687 89.5351 49.7932 0.0005 8.4523 0.0007
# 3 37.1455 49.7932 115.8871 0.0199 20.1174 -0.0050
# 4 0.0135 0.0005 0.0199 26.4120 -0.0100 8.0463
# 5 6.4898 8.4523 20.1174 -0.0100 39.4401 0.0121
# 6 -0.0107 0.0007 -0.0050 8.0463 0.0121 19.0608
#
#
#
# Elastic Compliance Matrix: (Units=1/GPa)
#
#
# Indices 1 2 3 4 5 6 
#
# 1 0.018369 0.000726 -0.006197 -0.000008 -0.000017 0.000012
# 2 0.000726 0.014704 -0.006564 0.000006 0.000078 -0.000004
# 3 -0.006197 -0.006564 0.014279 -0.000012 -0.004857 0.000009
# 4 -0.000008 0.000006 -0.000012 0.043449 0.000023 -0.018341
# 5 -0.000017 0.000078 -0.004857 0.000023 0.027819 -0.000029
# 6 0.000012 -0.000004 0.000009 -0.018341 -0.000029 0.060206
#
#
# Mechanical properties :
#
#
# Convention : Reuss Voigt Hill
#
# Bulk Modulus (GPa) = 42.95113 52.47640 47.71377
# Shear Modulus (GPa) = 23.73515 28.42697 26.08106
#
# Velocity S-wave (km/s) = 3.32164 3.63514 3.48192
# Velocity P-wave (km/s) = 5.88871 6.48172 6.19231
#
# Compressibility (1/GPa) = 0.02328227
#
# Stress axis : x y z
#
# Youngs Moduli (GPa) = 54.43819 68.00663 70.03364
#
# Poissons Ratio (x) = -0.04934 0.43398
# Poissons Ratio (y) = -0.03950 0.45971
# Poissons Ratio (z) = 0.33734 0.44640
#
# Static dielectric constant tensor:
#      x y z
#    x 4.024290 0.000040 -0.040530 
#    y 0.000040 3.808460 -0.000110 
#    z -0.040530 -0.000110 3.992570 
# 
# 
# High freq. dielectric constant tensor:
#      x y z
#    x 1.836530 0.000000 0.004580 
#    y 0.000000 1.830180 0.000000 
#    z 0.004580 0.000000 1.850350 
# 
# From -- ./inp_files/289670.got.cif
#   From: 2010.06.25/outbox.cif.g09.slc.cpg/sg15_145_cif.got.tgz:289670.got - 2010.06.28 07:06:18.
