data_PCOD8138455
_publ_section_title
;
Structure prediction by ZEFSAII (Michael W. Deem and Ramdas Pophale) SiO2 
 PCOD8138455
Probable space group: C 2/C
;
_chemical_formula_sum "Si O2"
_cell_formula_units_Z 52
_cell_length_a 10.423649
_cell_length_b 15.163344
_cell_length_c 23.362168
_cell_angle_alpha 90.000000
_cell_angle_beta 44.999649
_cell_angle_gamma 90.000000
_cell_volume 2611.020314
_symmetry_space_group_name_H-M "C 2/C"
_symmetry_group_IT_number 15
_symmetry_cell_setting 'monoclinic'
loop_
_space_group_symop_operation_xyz
x,y,z
-x,y,1/2-z
-x,-y,-z
x,-y,1/2+z
1/2+x,1/2+y,z
1/2-x,1/2+y,1/2-z
1/2-x,1/2-y,-z
1/2+x,1/2-y,1/2+z
loop_
_atom_site_type_symbol
_atom_site_label
_atom_site_fract_x
_atom_site_fract_y
_atom_site_fract_z
Si Si1 0.253298 0.394003 0.477307
Si Si2 0.656972 0.777158 0.087811
Si Si3 0.805535 0.081637 0.830931
Si Si4 0.043310 0.477064 0.120818
Si Si5 0.485146 0.268183 0.470281
Si Si6 0.810286 0.222429 0.148532
Si Si7 0.500000 0.916642 0.750000
O O1 0.287905 0.433147 0.404105
O O2 0.437876 0.347820 0.441832
O O3 0.091728 0.322840 0.529713
O O4 0.194503 0.473100 0.536325
O O5 0.619847 0.880058 0.103275
O O6 0.465570 0.724388 0.149348
O O7 0.750000 0.750000 0.000000
O O8 0.796669 0.754841 0.095054
O O9 0.650561 0.023855 0.849520
O O10 0.792744 0.184428 0.818690
O O11 0.000000 0.045027 0.750000
O O12 0.025362 0.521593 0.187803
O O13 0.398560 0.292872 0.558637
O O14 0.674515 0.144146 0.205998
#
# Coordination Sequence:
#
# PCOD8138455 Si02
#       7
#     8   8   8   8   8   8   4
#     4  10  20  37  65  89 122 160 209 257 307 383
#     4   9  20  40  62  89 122 159 209 258 316 372
#     4  10  21  39  60  86 120 165 206 254 321 380
#     4  11  24  40  60  94 125 161 212 265 311 372
#     4   9  18  36  62  94 116 160 211 250 311 381
#     4   9  18  37  63  84 122 170 199 249 323 381
#     4  12  22  40  62  88 132 162 214 264 316 388
#
# _framework density 19.915585
#
# number of rings (size 3 to 8) (size 9 to 14) (size 15 to 20)
#    0.000    2.154    2.308    1.385    0.000    1.846 
#    8.308    1.538    0.000    0.000    0.000    0.000 
#    0.000    0.000    0.000    0.000    0.000    0.000 
#
# Total GULP energy -322351.409856 kJ/mol
# GULP energy per Si atom -12398.131148 kJ/mol
# Density = 1.987026 g / cm^3
# Si number density = 19.915585 Si / 1000 Ang^3
#
#
#
# Elastic Constant Matrix: (Units=GPa)
#
#
# Indices 1 2 3 4 5 6 
#
# 1 149.7158 40.1560 39.4771 -0.0002 -15.4560 0.0001
# 2 40.1560 84.1928 36.0922 -0.0001 2.0093 0.0001
# 3 39.4771 36.0922 76.1783 -0.0003 1.3897 0.0003
# 4 -0.0002 -0.0001 -0.0003 12.0127 0.0002 -0.5027
# 5 -15.4560 2.0093 1.3897 0.0002 27.8570 -0.0002
# 6 0.0001 0.0001 0.0003 -0.5027 -0.0002 23.8046
#
#
#
# Elastic Compliance Matrix: (Units=1/GPa)
#
#
# Indices 1 2 3 4 5 6 
#
# 1 0.008891 -0.002950 -0.003307 0.000000 0.005311 0.000000
# 2 -0.002950 0.015898 -0.005958 0.000000 -0.002486 0.000000
# 3 -0.003307 -0.005958 0.017705 0.000000 -0.002288 0.000000
# 4 0.000000 0.000000 0.000000 0.083319 -0.000001 0.001759
# 5 0.005311 -0.002486 -0.002288 -0.000001 0.039138 0.000000
# 6 0.000000 0.000000 0.000000 0.001759 0.000000 0.042046
#
#
# Mechanical properties :
#
#
# Convention : Reuss Voigt Hill
#
# Bulk Modulus (GPa) = 55.35660 60.17084 57.76372
# Shear Modulus (GPa) = 21.05735 25.69229 23.37482
#
# Velocity S-wave (km/s) = 3.25519 3.59564 3.42964
# Velocity P-wave (km/s) = 6.47953 6.89323 6.68958
#
# Compressibility (1/GPa) = 0.01806469
#
# Stress axis : x y z
#
# Youngs Moduli (GPa) = 112.47851 62.90144 56.47995
#
# Poissons Ratio (x) = 0.18553 0.18676
# Poissons Ratio (y) = 0.33177 0.33652
# Poissons Ratio (z) = 0.37193 0.37479
#
# Static dielectric constant tensor:
#      x y z
#    x 4.099010 0.000000 -0.219070 
#    y 0.000000 3.485740 0.000000 
#    z -0.219070 0.000000 3.431390 
# 
# 
# High freq. dielectric constant tensor:
#      x y z
#    x 1.792730 0.000000 -0.011200 
#    y 0.000000 1.768260 0.000000 
#    z -0.011200 0.000000 1.757290 
# 
# From -- ./inp_files/292666.got.cif
#   From: 2010.06.25/outbox.cif.g09.slc.cpg/sg15_147_cif.got.tgz:292666.got - 2010.06.28 07:06:18.
