data_PCOD8138569
_publ_section_title
;
Structure prediction by ZEFSAII (Michael W. Deem and Ramdas Pophale) SiO2 
 PCOD8138569
Probable space group: C 2/C
;
_chemical_formula_sum "Si O2"
_cell_formula_units_Z 52
_cell_length_a 22.548268
_cell_length_b 11.838249
_cell_length_c 8.922239
_cell_angle_alpha 90.000000
_cell_angle_beta 92.758624
_cell_angle_gamma 90.000000
_cell_volume 2378.871255
_symmetry_space_group_name_H-M "C 2/C"
_symmetry_group_IT_number 15
_symmetry_cell_setting 'monoclinic'
loop_
_space_group_symop_operation_xyz
x,y,z
-x,y,1/2-z
-x,-y,-z
x,-y,1/2+z
1/2+x,1/2+y,z
1/2-x,1/2+y,1/2-z
1/2-x,1/2-y,-z
1/2+x,1/2-y,1/2+z
loop_
_atom_site_type_symbol
_atom_site_label
_atom_site_fract_x
_atom_site_fract_y
_atom_site_fract_z
Si Si1 0.581458 0.534917 0.015118
Si Si2 0.339436 0.103631 0.253777
Si Si3 0.689186 0.430579 0.348674
Si Si4 0.819458 0.615519 0.915963
Si Si5 0.000000 0.977471 0.750000
Si Si6 0.143611 0.195536 0.576675
Si Si7 0.295847 0.326206 0.717702
O O1 0.641741 0.598261 0.974247
O O2 0.534425 0.553365 0.875474
O O3 0.550779 0.590712 0.160664
O O4 0.593213 0.399501 0.044345
O O5 0.382528 0.186512 0.357773
O O6 0.273370 0.147390 0.281405
O O7 0.349536 0.974010 0.305828
O O8 0.353497 0.114909 0.078714
O O9 0.752110 0.426327 0.440120
O O10 0.689663 0.343917 0.212533
O O11 0.671457 0.551351 0.271878
O O12 0.819125 0.741368 0.848693
O O13 0.184320 0.225449 0.439443
#
# Coordination Sequence:
#
# PCOD8138569 Si02
#       7
#     8   8   8   8   4   8   8
#     4  10  21  36  55  82 110 150 177 232 285 355
#     4  11  23  34  52  71 110 151 199 236 263 311
#     4  10  22  32  55  78 117 153 190 224 271 325
#     4  11  23  36  51  77 112 161 200 232 256 306
#     4  10  20  38  58  80 110 142 178 228 302 352
#     4  11  21  36  52  78 110 150 184 230 277 328
#     4  10  22  32  51  74 109 151 199 228 262 314
#
# _framework density 21.859105
#
# number of rings (size 3 to 8) (size 9 to 14) (size 15 to 20)
#    0.000    1.538    3.077    1.846   12.923    0.000 
#    0.000    0.000    0.000    0.000    0.000    0.000 
#    0.000   33.231    0.000    0.154    0.000    0.000 
#
# Total GULP energy -322090.889531 kJ/mol
# GULP energy per Si atom -12388.111136 kJ/mol
# Density = 2.180935 g / cm^3
# Si number density = 21.859105 Si / 1000 Ang^3
#
#
#
# Elastic Constant Matrix: (Units=GPa)
#
#
# Indices 1 2 3 4 5 6 
#
# 1 33.7149 2.5017 18.7394 0.0000 -9.4883 0.0000
# 2 2.5017 104.3462 24.1451 0.0000 -5.2766 0.0000
# 3 18.7394 24.1451 136.7757 0.0000 -29.3462 0.0000
# 4 0.0000 0.0000 0.0000 39.2532 0.0000 1.8031
# 5 -9.4883 -5.2766 -29.3462 0.0000 28.7957 0.0000
# 6 0.0000 0.0000 0.0000 1.8031 0.0000 5.1114
#
#
#
# Elastic Compliance Matrix: (Units=1/GPa)
#
#
# Indices 1 2 3 4 5 6 
#
# 1 0.033544 0.000278 -0.002896 0.000000 0.008153 0.000000
# 2 0.000278 0.009994 -0.001779 0.000000 0.000110 0.000000
# 3 -0.002896 -0.001779 0.009915 0.000000 0.008825 0.000000
# 4 0.000000 0.000000 0.000000 0.025895 0.000000 -0.009135
# 5 0.008153 0.000110 0.008825 0.000000 0.046428 0.000000
# 6 0.000000 0.000000 0.000000 -0.009135 0.000000 0.198863
#
#
# Mechanical properties :
#
#
# Convention : Reuss Voigt Hill
#
# Bulk Modulus (GPa) = 22.39114 40.62327 31.50721
# Shear Modulus (GPa) = 14.35470 29.92877 22.14174
#
# Velocity S-wave (km/s) = 2.56538 3.70424 3.18611
# Velocity P-wave (km/s) = 4.36355 6.07616 5.28962
#
# Compressibility (1/GPa) = 0.04466051
#
# Stress axis : x y z
#
# Youngs Moduli (GPa) = 29.81192 100.06038 100.85320
#
# Poissons Ratio (x) = -0.02782 0.29203
# Poissons Ratio (y) = -0.00829 0.17939
# Poissons Ratio (z) = 0.08632 0.17798
#
# Static dielectric constant tensor:
#      x y z
#    x 3.614780 0.000000 -0.178640 
#    y 0.000000 4.089540 0.000000 
#    z -0.178640 0.000000 4.235550 
# 
# 
# High freq. dielectric constant tensor:
#      x y z
#    x 1.793140 0.000000 -0.007560 
#    y 0.000000 1.840150 0.000000 
#    z -0.007560 0.000000 1.892230 
# 
# From -- ./inp_files/65164.got.cif
#   From: 2010.06.25/outbox.cif.g09.slc.cpg/sg15_33_cif.got.tgz:65164.got - 2010.06.28 07:06:18.
