data_PCOD8138473
_publ_section_title
;
Structure prediction by ZEFSAII (Michael W. Deem and Ramdas Pophale) SiO2 
 PCOD8138473
Probable space group: C 2/C
;
_chemical_formula_sum "Si O2"
_cell_formula_units_Z 52
_cell_length_a 8.159090
_cell_length_b 30.396475
_cell_length_c 14.332996
_cell_angle_alpha 90.000000
_cell_angle_beta 139.422329
_cell_angle_gamma 90.000000
_cell_volume 2312.249627
_symmetry_space_group_name_H-M "C 2/C"
_symmetry_group_IT_number 15
_symmetry_cell_setting 'monoclinic'
loop_
_space_group_symop_operation_xyz
x,y,z
-x,y,1/2-z
-x,-y,-z
x,-y,1/2+z
1/2+x,1/2+y,z
1/2-x,1/2+y,1/2-z
1/2-x,1/2-y,-z
1/2+x,1/2-y,1/2+z
loop_
_atom_site_type_symbol
_atom_site_label
_atom_site_fract_x
_atom_site_fract_y
_atom_site_fract_z
Si Si1 0.272685 0.793225 0.723159
Si Si2 0.397214 0.060667 0.525388
Si Si3 0.983908 0.287617 0.475497
Si Si4 0.500000 0.660525 0.750000
Si Si5 0.339377 0.356297 0.534206
Si Si6 0.323960 0.529974 0.584596
Si Si7 0.315811 0.402865 0.328851
O O1 0.500000 0.799973 0.750000
O O2 0.068170 0.758203 0.598774
O O3 0.124624 0.839400 0.670247
O O4 0.368971 0.777831 0.865497
O O5 0.209597 0.101291 0.420706
O O6 0.564305 0.052740 0.505616
O O7 0.557473 0.072732 0.687525
O O8 0.236214 0.017689 0.484427
O O9 0.141206 0.318166 0.473538
O O10 0.716251 0.308974 0.387744
O O11 0.623003 0.630379 0.726620
O O12 0.290254 0.373193 0.408474
O O13 0.500000 0.523722 0.750000
O O14 0.460012 0.560702 0.566380
#
# Coordination Sequence:
#
# PCOD8138473 Si02
#       7
#     8   8   8   4   8   8   8
#     4  12  28  49  72 106 145 185 234 288 360 427
#     4  10  20  37  65  97 136 185 233 294 348 414
#     4  12  27  47  74 105 140 186 232 296 354 424
#     4  12  22  44  76 100 140 182 242 286 352 430
#     4  12  26  42  70 102 143 181 238 291 350 425
#     4   9  19  39  64  97 138 188 238 292 355 418
#     4  11  21  41  67 103 136 188 238 289 356 419
#
# _framework density 22.488921000000001
#
# number of rings (size 3 to 8) (size 9 to 14) (size 15 to 20)
#    0.000    0.923    4.615    2.769    2.154    1.846 
#    0.000    3.077    0.000    0.000    0.000    0.000 
#    0.000    0.000    0.000    0.000    0.000    0.000 
#
# Total GULP energy -322403.309592 kJ/mol
# GULP energy per Si atom -12400.127292 kJ/mol
# Density = 2.243774 g / cm^3
# Si number density = 22.488921 Si / 1000 Ang^3
#
#
#
# Elastic Constant Matrix: (Units=GPa)
#
#
# Indices 1 2 3 4 5 6 
#
# 1 108.2128 64.0319 52.4832 0.0000 1.8512 0.0000
# 2 64.0319 150.5030 66.5033 0.0000 12.3620 0.0000
# 3 52.4832 66.5033 108.6966 0.0000 -1.0170 0.0000
# 4 0.0000 0.0000 0.0000 97.8824 0.0000 41.4327
# 5 1.8512 12.3620 -1.0170 0.0000 25.9274 0.0000
# 6 0.0000 0.0000 0.0000 41.4327 0.0000 55.5925
#
#
#
# Elastic Compliance Matrix: (Units=1/GPa)
#
#
# Indices 1 2 3 4 5 6 
#
# 1 0.013604 -0.004049 -0.004084 0.000000 0.000799 0.000000
# 2 -0.004049 0.010885 -0.004752 0.000000 -0.005087 0.000000
# 3 -0.004084 -0.004752 0.014108 0.000000 0.003111 0.000000
# 4 0.000000 0.000000 0.000000 0.014925 0.000000 -0.011123
# 5 0.000799 -0.005087 0.003111 0.000000 0.041060 0.000000
# 6 0.000000 0.000000 0.000000 -0.011123 0.000000 0.026278
#
#
# Mechanical properties :
#
#
# Convention : Reuss Voigt Hill
#
# Bulk Modulus (GPa) = 77.95949 81.49436 79.72692
# Shear Modulus (GPa) = 33.13346 48.17338 40.65342
#
# Velocity S-wave (km/s) = 3.84255 4.63330 4.25633
# Velocity P-wave (km/s) = 7.37753 8.05850 7.72552
#
# Compressibility (1/GPa) = 0.01282717
#
# Stress axis : x y z
#
# Youngs Moduli (GPa) = 73.50862 91.87218 70.88011
#
# Poissons Ratio (x) = 0.37198 0.28946
# Poissons Ratio (y) = 0.29763 0.33683
# Poissons Ratio (z) = 0.30019 0.43659
#
# Static dielectric constant tensor:
#      x y z
#    x 4.935000 0.000000 0.267940 
#    y 0.000000 4.443920 0.000000 
#    z 0.267940 0.000000 3.934040 
# 
# 
# High freq. dielectric constant tensor:
#      x y z
#    x 1.899890 0.000000 0.019330 
#    y 0.000000 1.900640 0.000000 
#    z 0.019330 0.000000 1.867440 
# 
# From -- ./inp_files/139904.got.cif
#   From: 2010.06.25/outbox.cif.g09.slc.cpg/sg15_70_cif.got.tgz:139904.got - 2010.06.28 07:06:18.
