data_PCOD8138016
_publ_section_title
;
Structure prediction by ZEFSAII (Michael W. Deem and Ramdas Pophale) SiO2 
 PCOD8138016
Probable space group: C 2/C
;
_chemical_formula_sum "Si O2"
_cell_formula_units_Z 64
_cell_length_a 18.218682
_cell_length_b 22.415773
_cell_length_c 8.801143
_cell_angle_alpha 90.000000
_cell_angle_beta 106.893001
_cell_angle_gamma 90.000000
_cell_volume 3439.166486
_symmetry_space_group_name_H-M "C 2/C"
_symmetry_group_IT_number 15
_symmetry_cell_setting 'monoclinic'
loop_
_space_group_symop_operation_xyz
x,y,z
-x,y,1/2-z
-x,-y,-z
x,-y,1/2+z
1/2+x,1/2+y,z
1/2-x,1/2+y,1/2-z
1/2-x,1/2-y,-z
1/2+x,1/2-y,1/2+z
loop_
_atom_site_type_symbol
_atom_site_label
_atom_site_fract_x
_atom_site_fract_y
_atom_site_fract_z
Si Si1 0.919359 0.202690 0.133422
Si Si2 0.944847 0.731951 0.347348
Si Si3 0.726152 0.637179 0.366179
Si Si4 0.818422 0.306966 0.182261
Si Si5 0.522607 0.900048 0.590948
Si Si6 0.164110 0.538451 0.034858
Si Si7 0.376228 0.928470 0.324396
Si Si8 0.775747 0.274091 0.675221
O O1 0.858450 0.148248 0.115184
O O2 0.888808 0.260963 0.205139
O O3 0.000000 0.181394 0.250000
O O4 0.933286 0.217118 0.965637
O O5 0.978374 0.671076 0.439021
O O6 0.865620 0.715071 0.218761
O O7 0.000000 0.758091 0.250000
O O8 0.792543 0.671840 0.500749
O O9 0.750792 0.567835 0.392365
O O10 0.732722 0.664213 0.199121
O O11 0.843941 0.361352 0.305439
O O12 0.744914 0.275780 0.212146
O O13 0.500000 0.914959 0.750000
O O14 0.605749 0.928052 0.612868
O O15 0.463850 0.928875 0.434627
O O16 0.130643 0.542884 0.845797
O O17 0.172689 0.469363 0.088412
O O18 0.750000 0.250000 0.500000
#
# Coordination Sequence:
#
# PCOD8138016 Si02
#       8
#     8   8   8   8   8   8   8   8
#     4  11  20  35  58  82 110 148 191 225 281 349
#     4  11  22  34  51  83 118 147 181 232 281 333
#     4  10  20  39  56  76 109 156 187 235 276 337
#     4  10  20  37  57  76 108 151 185 228 280 340
#     4  11  22  35  53  77 119 154 186 226 275 335
#     4  11  22  39  57  78 112 150 200 236 277 329
#     4  11  23  35  56  81 106 150 194 235 278 327
#     4  11  21  33  54  79 113 145 187 228 280 330
#
# _framework density 18.609159999999999
#
# number of rings (size 3 to 8) (size 9 to 14) (size 15 to 20)
#    0.000    1.250    3.750    3.750    7.000    1.000 
#    0.000    0.000    0.000    0.000    0.000    4.375 
#    0.000    0.000    0.000    0.000    0.000    0.000 
#
# Total GULP energy -396780.458916 kJ/mol
# GULP energy per Si atom -12399.389341 kJ/mol
# Density = 1.856680 g / cm^3
# Si number density = 18.609160 Si / 1000 Ang^3
#
#
#
# Elastic Constant Matrix: (Units=GPa)
#
#
# Indices 1 2 3 4 5 6 
#
# 1 111.7142 40.3776 32.2367 0.0000 -0.9445 0.0000
# 2 40.3776 79.4034 24.0369 0.0000 2.7907 0.0000
# 3 32.2367 24.0369 88.0998 0.0000 -1.0856 0.0000
# 4 0.0000 0.0000 0.0000 21.1391 0.0000 -0.3646
# 5 -0.9445 2.7907 -1.0856 0.0000 28.3380 0.0000
# 6 0.0000 0.0000 0.0000 -0.3646 0.0000 29.0364
#
#
#
# Elastic Compliance Matrix: (Units=1/GPa)
#
#
# Indices 1 2 3 4 5 6 
#
# 1 0.011614 -0.005068 -0.002857 0.000000 0.000777 0.000000
# 2 -0.005068 0.016003 -0.002534 0.000000 -0.001842 0.000000
# 3 -0.002857 -0.002534 0.013096 0.000000 0.000656 0.000000
# 4 0.000000 0.000000 0.000000 0.047316 0.000000 0.000594
# 5 0.000777 -0.001842 0.000656 0.000000 0.035521 0.000000
# 6 0.000000 0.000000 0.000000 0.000594 0.000000 0.034447
#
#
# Mechanical properties :
#
#
# Convention : Reuss Voigt Hill
#
# Bulk Modulus (GPa) = 50.52264 52.50221 51.51242
# Shear Modulus (GPa) = 26.95192 27.87376 27.41284
#
# Velocity S-wave (km/s) = 3.80980 3.87441 3.84224
# Velocity P-wave (km/s) = 6.82357 6.94903 6.88659
#
# Compressibility (1/GPa) = 0.01979311
#
# Stress axis : x y z
#
# Youngs Moduli (GPa) = 86.09975 62.48749 76.35984
#
# Poissons Ratio (x) = 0.31671 0.21819
# Poissons Ratio (y) = 0.43639 0.19353
# Poissons Ratio (z) = 0.24603 0.15837
#
# Static dielectric constant tensor:
#      x y z
#    x 3.536680 0.000000 -0.162990 
#    y 0.000000 3.408860 0.000000 
#    z -0.162990 0.000000 3.515940 
# 
# 
# High freq. dielectric constant tensor:
#      x y z
#    x 1.711160 0.000000 -0.008360 
#    y 0.000000 1.693090 0.000000 
#    z -0.008360 0.000000 1.726540 
# 
# From -- ./inp_files/51278.got.cif
#   From: 2010.06.25/outbox.cif.g09.slc.cpg/sg15_26_cif.got.tgz:51278.got - 2010.06.28 07:06:18.
