data_PCOD8138898
_publ_section_title
;
Structure prediction by ZEFSAII (Michael W. Deem and Ramdas Pophale) SiO2 
 PCOD8138898
Probable space group: C 2/C
;
_chemical_formula_sum "Si O2"
_cell_formula_units_Z 52
_cell_length_a 17.130239
_cell_length_b 27.026769
_cell_length_c 5.414535
_cell_angle_alpha 90.000000
_cell_angle_beta 59.302480
_cell_angle_gamma 90.000000
_cell_volume 2155.528261
_symmetry_space_group_name_H-M "C 2/C"
_symmetry_group_IT_number 15
_symmetry_cell_setting 'monoclinic'
loop_
_space_group_symop_operation_xyz
x,y,z
-x,y,1/2-z
-x,-y,-z
x,-y,1/2+z
1/2+x,1/2+y,z
1/2-x,1/2+y,1/2-z
1/2-x,1/2-y,-z
1/2+x,1/2-y,1/2+z
loop_
_atom_site_type_symbol
_atom_site_label
_atom_site_fract_x
_atom_site_fract_y
_atom_site_fract_z
Si Si1 0.151782 0.977478 0.645327
Si Si2 0.600865 0.272699 0.479504
Si Si3 0.141969 0.136822 0.203485
Si Si4 0.170982 0.669743 0.458980
Si Si5 0.000000 0.814955 0.250000
Si Si6 0.603546 0.123331 0.081064
Si Si7 0.852606 0.516755 0.394121
O O1 0.139184 0.919353 0.619152
O O2 0.106882 0.004645 0.477792
O O3 0.257947 0.989867 0.484826
O O4 0.500000 0.264539 0.750000
O O5 0.651209 0.324252 0.464733
O O6 0.668386 0.229458 0.455626
O O7 0.580572 0.279058 0.220671
O O8 0.044766 0.148502 0.480531
O O9 0.228487 0.147419 0.239680
O O10 0.114370 0.656639 0.306125
O O11 0.128480 0.650445 0.785029
O O12 0.500000 0.105653 0.250000
O O13 0.664042 0.074175 0.016188
O O14 0.904355 0.490612 0.544694
#
# Coordination Sequence:
#
# PCOD8138898 Si02
#       7
#     8   8   8   8   4   8   8
#     4  10  21  39  67  97 135 176 229 290 350 404
#     4  10  24  45  70 103 143 187 229 292 356 419
#     4  11  25  45  73 105 140 184 241 292 351 427
#     4  12  26  43  75 105 146 189 240 281 346 424
#     4  10  26  46  74  98 146 180 232 298 368 410
#     4  12  26  43  67 108 150 190 236 290 344 416
#     4  10  20  38  62  92 133 183 232 280 340 397
#
# _framework density 24.124018
#
# number of rings (size 3 to 8) (size 9 to 14) (size 15 to 20)
#    0.000    1.231    0.000    6.462    9.692    1.231 
#    0.000    0.769    0.000    0.000    0.000    0.000 
#    0.000    0.000    0.000    0.000    0.000    0.000 
#
# Total GULP energy -322140.620387 kJ/mol
# GULP energy per Si atom -12390.023861 kJ/mol
# Density = 2.406911 g / cm^3
# Si number density = 24.124018 Si / 1000 Ang^3
#
#
#
# Elastic Constant Matrix: (Units=GPa)
#
#
# Indices 1 2 3 4 5 6 
#
# 1 43.7090 24.0332 35.3879 0.0000 27.8002 0.0000
# 2 24.0332 197.4367 46.1011 0.0000 29.6398 0.0000
# 3 35.3879 46.1011 118.1599 0.0000 45.3614 0.0000
# 4 0.0000 0.0000 0.0000 24.9504 0.0000 1.8843
# 5 27.8002 29.6398 45.3614 0.0000 51.7631 0.0000
# 6 0.0000 0.0000 0.0000 1.8843 0.0000 19.5480
#
#
#
# Elastic Compliance Matrix: (Units=1/GPa)
#
#
# Indices 1 2 3 4 5 6 
#
# 1 0.036943 -0.001114 -0.004909 0.000000 -0.014901 0.000000
# 2 -0.001114 0.005738 -0.001316 0.000000 -0.001534 0.000000
# 3 -0.004909 -0.001316 0.013782 0.000000 -0.008687 0.000000
# 4 0.000000 0.000000 0.000000 0.040373 0.000000 -0.003892
# 5 -0.014901 -0.001534 -0.008687 0.000000 0.035813 0.000000
# 6 0.000000 0.000000 0.000000 -0.003892 0.000000 0.051531
#
#
# Mechanical properties :
#
#
# Convention : Reuss Voigt Hill
#
# Bulk Modulus (GPa) = 23.93207 63.37221 43.65214
# Shear Modulus (GPa) = 23.49766 36.17119 29.83442
#
# Velocity S-wave (km/s) = 3.12434 3.87639 3.52050
# Velocity P-wave (km/s) = 4.79138 6.80893 5.88723
#
# Compressibility (1/GPa) = 0.04178494
#
# Stress axis : x y z
#
# Youngs Moduli (GPa) = 27.06872 174.27271 72.55878
#
# Poissons Ratio (x) = 0.19408 0.35620
# Poissons Ratio (y) = 0.03015 0.09551
# Poissons Ratio (z) = 0.13288 0.22940
#
# Static dielectric constant tensor:
#      x y z
#    x 4.531740 0.000000 0.593530 
#    y 0.000000 4.286370 0.000000 
#    z 0.593530 0.000000 4.899130 
# 
# 
# High freq. dielectric constant tensor:
#      x y z
#    x 1.955490 0.000000 0.023550 
#    y 0.000000 1.960770 0.000000 
#    z 0.023550 0.000000 1.955680 
# 
# From -- ./inp_files/11448.got.cif
#   From: 2010.06.25/outbox.cif.g09.slc.cpg/sg15_6_cif.got.tgz:11448.got - 2010.06.28 07:06:18.
