data_PCOD8138107
_publ_section_title
;
Structure prediction by ZEFSAII (Michael W. Deem and Ramdas Pophale) SiO2 
 PCOD8138107
Probable space group: C 2/C
;
_chemical_formula_sum "Si O2"
_cell_formula_units_Z 40
_cell_length_a 22.486255
_cell_length_b 9.118348
_cell_length_c 16.244829
_cell_angle_alpha 90.000000
_cell_angle_beta 146.676341
_cell_angle_gamma 90.000000
_cell_volume 1829.834103
_symmetry_space_group_name_H-M "C 2/C"
_symmetry_group_IT_number 15
_symmetry_cell_setting 'monoclinic'
loop_
_space_group_symop_operation_xyz
x,y,z
-x,y,1/2-z
-x,-y,-z
x,-y,1/2+z
1/2+x,1/2+y,z
1/2-x,1/2+y,1/2-z
1/2-x,1/2-y,-z
1/2+x,1/2-y,1/2+z
loop_
_atom_site_type_symbol
_atom_site_label
_atom_site_fract_x
_atom_site_fract_y
_atom_site_fract_z
Si Si1 0.557427 0.884582 0.737531
Si Si2 0.807476 0.400697 0.002770
Si Si3 0.759990 0.623842 0.167570
Si Si4 0.342865 0.089539 0.896821
Si Si5 0.622741 0.596899 0.412605
O O1 0.500000 0.799907 0.750000
O O2 0.659231 0.806166 0.809158
O O3 0.470119 0.909855 0.564854
O O4 0.605149 0.036034 0.830347
O O5 0.780944 0.513064 0.899891
O O6 0.690481 0.377295 0.907508
O O7 0.858606 0.253483 0.020507
O O8 0.709520 0.747541 0.168684
O O9 0.825934 0.499643 0.293489
O O10 0.660550 0.542089 0.008886
O O11 0.500000 0.565008 0.250000
#
# Coordination Sequence:
#
# PCOD8138107 Si02
#       5
#     8   8   8   8   8
#     4   9  20  39  64  85 110 153 194 236 289 343
#     4   9  20  37  60  85 114 153 194 234 287 351
#     4  11  24  38  59  88 118 153 195 239 288 345
#     4  11  22  39  58  84 121 154 190 239 289 344
#     4  10  20  37  59  86 116 150 194 242 287 339
#
# _framework density 21.859905000000001
#
# number of rings (size 3 to 8) (size 9 to 14) (size 15 to 20)
#    0.000    2.000    0.000    3.600    0.000   11.200 
#    0.000    8.000    0.000    0.000    0.000    0.000 
#    0.000    0.000    0.000    0.000    0.000    0.000 
#
# Total GULP energy -247795.293612 kJ/mol
# GULP energy per Si atom -12389.764681 kJ/mol
# Density = 2.181015 g / cm^3
# Si number density = 21.859905 Si / 1000 Ang^3
#
#
#
# Elastic Constant Matrix: (Units=GPa)
#
#
# Indices 1 2 3 4 5 6 
#
# 1 69.9135 24.8670 47.2645 0.0000 13.1641 0.0000
# 2 24.8670 79.3893 22.3884 0.0000 3.5605 0.0000
# 3 47.2645 22.3884 127.5193 0.0000 13.9234 0.0000
# 4 0.0000 0.0000 0.0000 18.5398 0.0000 -4.6519
# 5 13.1641 3.5605 13.9234 0.0000 27.9269 0.0000
# 6 0.0000 0.0000 0.0000 -4.6519 0.0000 27.3876
#
#
#
# Elastic Compliance Matrix: (Units=1/GPa)
#
#
# Indices 1 2 3 4 5 6 
#
# 1 0.021516 -0.004631 -0.006471 0.000000 -0.006326 0.000000
# 2 -0.004631 0.014257 -0.000874 0.000000 0.000801 0.000000
# 3 -0.006471 -0.000874 0.010627 0.000000 -0.002137 0.000000
# 4 0.000000 0.000000 0.000000 0.056339 0.000000 0.009569
# 5 -0.006326 0.000801 -0.002137 0.000000 0.039752 0.000000
# 6 0.000000 0.000000 0.000000 0.009569 0.000000 0.038138
#
#
# Mechanical properties :
#
#
# Convention : Reuss Voigt Hill
#
# Bulk Modulus (GPa) = 44.54688 51.76244 48.15466
# Shear Modulus (GPa) = 23.57753 26.92435 25.25094
#
# Velocity S-wave (km/s) = 3.28773 3.51333 3.40240
# Velocity P-wave (km/s) = 5.90210 6.33945 6.12468
#
# Compressibility (1/GPa) = 0.02244826
#
# Stress axis : x y z
#
# Youngs Moduli (GPa) = 46.47616 70.13961 94.09761
#
# Poissons Ratio (x) = 0.32481 0.60893
# Poissons Ratio (y) = 0.21523 0.08226
# Poissons Ratio (z) = 0.30076 0.06131
#
# Static dielectric constant tensor:
#      x y z
#    x 4.017240 0.000000 0.122420 
#    y 0.000000 3.951720 0.000000 
#    z 0.122420 0.000000 3.824770 
# 
# 
# High freq. dielectric constant tensor:
#      x y z
#    x 1.850360 0.000000 0.011800 
#    y 0.000000 1.847580 0.000000 
#    z 0.011800 0.000000 1.860330 
# 
# From -- ./inp_files/214132.got.cif
#   From: 2010.06.25/outbox.cif.g09.slc.cpg/sg15_108_cif.got.tgz:214132.got - 2010.06.28 07:06:18.
