data_PCOD8138551
_publ_section_title
;
Structure prediction by ZEFSAII (Michael W. Deem and Ramdas Pophale) SiO2 
 PCOD8138551
Probable space group: C 2/C
;
_chemical_formula_sum "Si O2"
_cell_formula_units_Z 52
_cell_length_a 8.145880
_cell_length_b 21.054495
_cell_length_c 19.181477
_cell_angle_alpha 90.000000
_cell_angle_beta 135.355502
_cell_angle_gamma 90.000000
_cell_volume 2311.737070
_symmetry_space_group_name_H-M "C 2/C"
_symmetry_group_IT_number 15
_symmetry_cell_setting 'monoclinic'
loop_
_space_group_symop_operation_xyz
x,y,z
-x,y,1/2-z
-x,-y,-z
x,-y,1/2+z
1/2+x,1/2+y,z
1/2-x,1/2+y,1/2-z
1/2-x,1/2-y,-z
1/2+x,1/2-y,1/2+z
loop_
_atom_site_type_symbol
_atom_site_label
_atom_site_fract_x
_atom_site_fract_y
_atom_site_fract_z
Si Si1 0.389463 0.979414 0.394421
Si Si2 0.500000 0.424016 0.750000
Si Si3 0.717641 0.865914 0.901929
Si Si4 0.500000 0.616641 0.750000
Si Si5 0.698254 0.672443 0.220530
Si Si6 0.085979 0.866313 0.123044
Si Si7 0.698550 0.991945 0.363290
Si Si8 0.000000 0.281671 0.250000
O O1 0.215000 0.921038 0.349556
O O2 0.594356 0.961439 0.402363
O O3 0.500000 0.000000 0.500000
O O4 0.237765 0.036889 0.318623
O O5 0.498598 0.379051 0.817792
O O6 0.796680 0.822079 0.861187
O O7 0.442165 0.853397 0.827896
O O8 0.804320 0.938854 0.913677
O O9 0.849995 0.844373 0.012438
O O10 0.418170 0.653177 0.795320
O O11 0.623954 0.740418 0.227634
O O12 0.126438 0.942297 0.121921
O O13 0.303263 0.827347 0.156528
O O14 0.500000 0.010078 0.250000
#
# Coordination Sequence:
#
# PCOD8138551 Si02
#       8
#     8   4   8   4   8   8   8   4
#     4  11  22  34  60  95 138 177 216 264 334 411
#     4  10  20  38  56  92 132 172 214 278 316 389
#     4  11  23  42  74 104 131 179 222 285 342 411
#     4  11  24  39  58 100 133 174 219 270 344 408
#     4  10  23  43  67  95 128 171 233 282 328 387
#     4  12  26  44  70  99 140 182 221 282 353 409
#     4  12  20  42  65 102 143 175 208 272 351 412
#     4  11  26  49  66  92 137 182 229 288 330 401
#
# _framework density 22.493908000000001
#
# number of rings (size 3 to 8) (size 9 to 14) (size 15 to 20)
#    0.000    0.923    5.385    1.385    4.308    2.462 
#    0.000    0.000    0.000    0.000    0.000    0.000 
#    0.000    0.000    0.000    0.000    0.000    0.000 
#
# Total GULP energy -322193.515620 kJ/mol
# GULP energy per Si atom -12392.058293 kJ/mol
# Density = 2.244271 g / cm^3
# Si number density = 22.493908 Si / 1000 Ang^3
#
#
#
# Elastic Constant Matrix: (Units=GPa)
#
#
# Indices 1 2 3 4 5 6 
#
# 1 97.7765 24.4400 35.2846 0.0000 -17.0766 0.0000
# 2 24.4400 81.8008 25.1093 0.0000 1.9620 0.0000
# 3 35.2846 25.1093 129.5929 0.0000 -6.1394 0.0000
# 4 0.0000 0.0000 0.0000 9.0652 0.0000 -4.7016
# 5 -17.0766 1.9620 -6.1394 0.0000 29.3849 0.0000
# 6 0.0000 0.0000 0.0000 -4.7016 0.0000 34.9269
#
#
#
# Elastic Compliance Matrix: (Units=1/GPa)
#
#
# Indices 1 2 3 4 5 6 
#
# 1 0.013304 -0.003348 -0.002623 0.000000 0.007407 0.000000
# 2 -0.003348 0.013898 -0.001937 0.000000 -0.003278 0.000000
# 3 -0.002623 -0.001937 0.008827 0.000000 0.000449 0.000000
# 4 0.000000 0.000000 0.000000 0.118592 0.000000 0.015964
# 5 0.007407 -0.003278 0.000449 0.000000 0.038648 0.000000
# 6 0.000000 0.000000 0.000000 0.015964 0.000000 0.030780
#
#
# Mechanical properties :
#
#
# Convention : Reuss Voigt Hill
#
# Bulk Modulus (GPa) = 49.46741 53.20420 51.33581
# Shear Modulus (GPa) = 20.27551 29.63116 24.95334
#
# Velocity S-wave (km/s) = 3.00555 3.63340 3.33429
# Velocity P-wave (km/s) = 5.83812 6.42699 6.13962
#
# Compressibility (1/GPa) = 0.02021533
#
# Stress axis : x y z
#
# Youngs Moduli (GPa) = 75.16358 71.95243 113.28698
#
# Poissons Ratio (x) = 0.24086 0.29714
# Poissons Ratio (y) = 0.25161 0.21940
# Poissons Ratio (z) = 0.19715 0.13935
#
# Static dielectric constant tensor:
#      x y z
#    x 3.090320 0.000000 -0.823850 
#    y 0.000000 3.825310 0.000000 
#    z -0.823850 0.000000 3.259360 
# 
# 
# High freq. dielectric constant tensor:
#      x y z
#    x 1.898680 0.000000 -0.002470 
#    y 0.000000 1.865660 0.000000 
#    z -0.002470 0.000000 1.876320 
# 
# From -- ./inp_files/136162.got.cif
#   From: 2010.06.25/outbox.cif.g09.slc.cpg/sg15_69_cif.got.tgz:136162.got - 2010.06.28 07:06:18.
