data_PCOD8138070
_publ_section_title
;
Structure prediction by ZEFSAII (Michael W. Deem and Ramdas Pophale) SiO2 
 PCOD8138070
Probable space group: C 2/C
;
_chemical_formula_sum "Si O2"
_cell_formula_units_Z 60
_cell_length_a 6.566767
_cell_length_b 27.921259
_cell_length_c 19.852744
_cell_angle_alpha 90.000000
_cell_angle_beta 59.708186
_cell_angle_gamma 90.000000
_cell_volume 3143.063863
_symmetry_space_group_name_H-M "C 2/C"
_symmetry_group_IT_number 15
_symmetry_cell_setting 'monoclinic'
loop_
_space_group_symop_operation_xyz
x,y,z
-x,y,1/2-z
-x,-y,-z
x,-y,1/2+z
1/2+x,1/2+y,z
1/2-x,1/2+y,1/2-z
1/2-x,1/2-y,-z
1/2+x,1/2-y,1/2+z
loop_
_atom_site_type_symbol
_atom_site_label
_atom_site_fract_x
_atom_site_fract_y
_atom_site_fract_z
Si Si1 0.914122 0.166231 0.447854
Si Si2 0.500000 0.962609 0.250000
Si Si3 0.982657 0.027238 0.609443
Si Si4 0.297251 0.235266 0.416945
Si Si5 0.173253 0.062468 0.006425
Si Si6 0.846689 0.417227 0.138259
Si Si7 0.669433 0.729130 0.166145
Si Si8 0.990059 0.311341 0.114824
O O1 0.925862 0.109062 0.438587
O O2 0.822340 0.192647 0.397107
O O3 0.733489 0.179420 0.536466
O O4 0.174762 0.184208 0.423411
O O5 0.274016 0.990751 0.319109
O O6 0.388456 0.932727 0.207767
O O7 0.954819 0.057094 0.544686
O O8 0.108755 0.060527 0.645057
O O9 0.132132 0.980415 0.565934
O O10 0.250000 0.250000 0.500000
O O11 0.567036 0.231905 0.350030
O O12 0.185420 0.276319 0.392060
O O13 0.451368 0.066307 0.947261
O O14 0.841218 0.359907 0.147980
O O15 0.500000 0.705634 0.250000
O O16 0.572129 0.782931 0.167929
#
# Coordination Sequence:
#
# PCOD8138070 Si02
#       8
#     8   4   8   8   8   8   8   8
#     4  10  20  37  58  87 109 146 200 237 282 350
#     4  10  22  38  54  84 124 150 180 240 284 358
#     4  10  20  39  58  85 115 154 189 240 300 341
#     4  11  19  35  62  79 110 157 190 228 287 341
#     4   9  21  37  62  86 112 143 199 250 279 347
#     4  10  21  36  60  86 116 148 192 236 296 347
#     4  11  23  38  53  82 123 151 189 246 288 340
#     4  10  21  35  57  86 110 149 197 232 283 352
#
# _framework density 19.089652999999998
#
# number of rings (size 3 to 8) (size 9 to 14) (size 15 to 20)
#    0.000    1.867    2.667    1.600    2.800    3.200 
#    2.400    2.667    0.000    0.000    0.000    0.000 
#    0.000    0.000    0.000    0.000    0.000    0.000 
#
# Total GULP energy -371774.298782 kJ/mol
# GULP energy per Si atom -12392.476626 kJ/mol
# Density = 1.904620 g / cm^3
# Si number density = 19.089653 Si / 1000 Ang^3
#
#
#
# Elastic Constant Matrix: (Units=GPa)
#
#
# Indices 1 2 3 4 5 6 
#
# 1 102.2744 27.0760 13.3990 0.0000 -14.3424 0.0000
# 2 27.0760 100.2067 17.2962 0.0000 -6.3142 0.0000
# 3 13.3990 17.2962 56.0940 0.0000 -10.5111 0.0000
# 4 0.0000 0.0000 0.0000 12.5986 0.0000 -5.9149
# 5 -14.3424 -6.3142 -10.5111 0.0000 31.7198 0.0000
# 6 0.0000 0.0000 0.0000 -5.9149 0.0000 11.9355
#
#
#
# Elastic Compliance Matrix: (Units=1/GPa)
#
#
# Indices 1 2 3 4 5 6 
#
# 1 0.011188 -0.002570 -0.001096 0.000000 0.004184 0.000000
# 2 -0.002570 0.011166 -0.002804 0.000000 0.000131 0.000000
# 3 -0.001096 -0.002804 0.019998 0.000000 0.005573 0.000000
# 4 0.000000 0.000000 0.000000 0.103441 0.000000 0.051262
# 5 0.004184 0.000131 0.005573 0.000000 0.035291 0.000000
# 6 0.000000 0.000000 0.000000 0.051262 0.000000 0.109188
#
#
# Mechanical properties :
#
#
# Convention : Reuss Voigt Hill
#
# Bulk Modulus (GPa) = 34.00069 41.56861 37.78465
# Shear Modulus (GPa) = 15.97352 24.63769 20.30561
#
# Velocity S-wave (km/s) = 2.89582 3.59643 3.26497
# Velocity P-wave (km/s) = 5.38802 6.25048 5.83521
#
# Compressibility (1/GPa) = 0.02941117
#
# Stress axis : x y z
#
# Youngs Moduli (GPa) = 89.37812 89.55585 50.00489
#
# Poissons Ratio (x) = 0.23019 0.05480
# Poissons Ratio (y) = 0.22973 0.14024
# Poissons Ratio (z) = 0.09796 0.25116
#
# Static dielectric constant tensor:
#      x y z
#    x 3.769410 0.000000 -0.004810 
#    y 0.000000 3.472200 0.000000 
#    z -0.004810 0.000000 3.836500 
# 
# 
# High freq. dielectric constant tensor:
#      x y z
#    x 1.751870 0.000000 -0.004330 
#    y 0.000000 1.727450 0.000000 
#    z -0.004330 0.000000 1.741640 
# 
# From -- ./inp_files/228595.got.cif
#   From: 2010.06.25/outbox.cif.g09.slc.cpg/sg15_115_cif.got.tgz:228595.got - 2010.06.28 07:06:18.
