data_PCOD8138972
_publ_section_title
;
Structure prediction by ZEFSAII (Michael W. Deem and Ramdas Pophale) SiO2 
 PCOD8138972
Probable space group: C 2/C
;
_chemical_formula_sum "Si O2"
_cell_formula_units_Z 56
_cell_length_a 13.440287
_cell_length_b 17.190140
_cell_length_c 17.908665
_cell_angle_alpha 90.000000
_cell_angle_beta 139.742550
_cell_angle_gamma 90.000000
_cell_volume 2673.829586
_symmetry_space_group_name_H-M "C 2/C"
_symmetry_group_IT_number 15
_symmetry_cell_setting 'monoclinic'
loop_
_space_group_symop_operation_xyz
x,y,z
-x,y,1/2-z
-x,-y,-z
x,-y,1/2+z
1/2+x,1/2+y,z
1/2-x,1/2+y,1/2-z
1/2-x,1/2-y,-z
1/2+x,1/2-y,1/2+z
loop_
_atom_site_type_symbol
_atom_site_label
_atom_site_fract_x
_atom_site_fract_y
_atom_site_fract_z
Si Si1 0.965677 0.339857 0.313732
Si Si2 0.057384 0.745357 0.550833
Si Si3 0.367655 0.389341 0.399950
Si Si4 0.332539 0.853486 0.686179
Si Si5 0.661475 0.037190 0.005974
Si Si6 0.570737 0.900871 0.600741
Si Si7 0.628144 0.525566 0.985691
O O1 0.947334 0.269845 0.362498
O O2 0.808840 0.390278 0.225686
O O3 0.000000 0.306919 0.250000
O O4 0.106206 0.396051 0.416609
O O5 0.219350 0.779906 0.615020
O O6 0.916548 0.802492 0.450934
O O7 0.040025 0.665715 0.495442
O O8 0.405153 0.445949 0.489921
O O9 0.474707 0.421262 0.393094
O O10 0.500000 0.830839 0.750000
O O11 0.333178 0.872160 0.774101
O O12 0.267696 0.927530 0.604828
O O13 0.529686 0.973236 0.932200
O O14 0.819111 0.998558 0.067129
O O15 0.690351 0.073347 0.104357
#
# Coordination Sequence:
#
# PCOD8138972 Si02
#       7
#     8   8   8   8   8   8   8
#     4  11  21  38  65  87 119 166 210 245 309 374
#     4  10  24  40  52  92 128 160 196 254 310 362
#     4  10  21  37  61  89 123 152 206 257 296 361
#     4  11  21  38  65  87 119 166 210 245 309 374
#     4  10  20  38  63  92 114 157 208 255 299 358
#     4  10  21  37  61  89 123 152 206 257 296 361
#     4  10  20  38  63  92 114 157 208 255 299 358
#
# _framework density 20.943743999999999
#
# number of rings (size 3 to 8) (size 9 to 14) (size 15 to 20)
#    0.000    1.714    2.857    1.714    0.000    1.143 
#    5.143    0.000    0.000   15.429    0.000    0.000 
#    0.000    0.000    0.000    0.000    0.000    0.000 
#
# Total GULP energy -347198.652997 kJ/mol
# GULP energy per Si atom -12399.951893 kJ/mol
# Density = 2.089608 g / cm^3
# Si number density = 20.943744 Si / 1000 Ang^3
#
#
#
# Elastic Constant Matrix: (Units=GPa)
#
#
# Indices 1 2 3 4 5 6 
#
# 1 140.5212 28.3402 33.7263 0.0000 -3.9220 0.0000
# 2 28.3402 71.9646 4.1380 0.0000 -8.7165 0.0000
# 3 33.7263 4.1380 42.7990 0.0001 -1.8192 0.0000
# 4 0.0000 0.0000 0.0001 11.6476 0.0000 -3.4784
# 5 -3.9220 -8.7165 -1.8192 0.0000 33.0438 0.0000
# 6 0.0000 0.0000 0.0000 -3.4784 0.0000 32.3809
#
#
#
# Elastic Compliance Matrix: (Units=1/GPa)
#
#
# Indices 1 2 3 4 5 6 
#
# 1 0.009510 -0.003351 -0.007177 0.000000 -0.000150 0.000000
# 2 -0.003351 0.015600 0.001293 0.000000 0.003789 0.000000
# 3 -0.007177 0.001293 0.028941 0.000000 0.001083 0.000000
# 4 0.000000 0.000000 0.000000 0.088700 0.000000 0.009528
# 5 -0.000150 0.003789 0.001083 0.000000 0.031304 0.000000
# 6 0.000000 0.000000 0.000000 0.009528 0.000000 0.031906
#
#
# Mechanical properties :
#
#
# Convention : Reuss Voigt Hill
#
# Bulk Modulus (GPa) = 28.10327 43.07710 35.59018
# Shear Modulus (GPa) = 21.16033 28.01982 24.59008
#
# Velocity S-wave (km/s) = 3.18203 3.66165 3.43023
# Velocity P-wave (km/s) = 5.19115 6.20399 5.72003
#
# Compressibility (1/GPa) = 0.03558305
#
# Stress axis : x y z
#
# Youngs Moduli (GPa) = 105.14736 64.10333 34.55247
#
# Poissons Ratio (x) = 0.21480 0.24798
# Poissons Ratio (y) = 0.35233 -0.04469
# Poissons Ratio (z) = 0.75462 -0.08290
#
# Static dielectric constant tensor:
#      x y z
#    x 4.024360 0.000000 -0.066020 
#    y 0.000000 3.815560 0.000000 
#    z -0.066020 0.000000 3.550300 
# 
# 
# High freq. dielectric constant tensor:
#      x y z
#    x 1.828850 0.000000 -0.001420 
#    y 0.000000 1.824900 0.000000 
#    z -0.001420 0.000000 1.795180 
# 
# From -- ./inp_files/199598.got.cif
#   From: 2010.06.25/outbox.cif.g09.slc.cpg/sg15_100_cif.got.tgz:199598.got - 2010.06.28 07:06:18.
