data_PCOD8138908
_publ_section_title
;
Structure prediction by ZEFSAII (Michael W. Deem and Ramdas Pophale) SiO2 
 PCOD8138908
Probable space group: C 2/C
;
_chemical_formula_sum "Si O2"
_cell_formula_units_Z 52
_cell_length_a 27.109058
_cell_length_b 9.399165
_cell_length_c 18.704919
_cell_angle_alpha 90.000000
_cell_angle_beta 148.468664
_cell_angle_gamma 90.000000
_cell_volume 2492.481814
_symmetry_space_group_name_H-M "C 2/C"
_symmetry_group_IT_number 15
_symmetry_cell_setting 'monoclinic'
loop_
_space_group_symop_operation_xyz
x,y,z
-x,y,1/2-z
-x,-y,-z
x,-y,1/2+z
1/2+x,1/2+y,z
1/2-x,1/2+y,1/2-z
1/2-x,1/2-y,-z
1/2+x,1/2-y,1/2+z
loop_
_atom_site_type_symbol
_atom_site_label
_atom_site_fract_x
_atom_site_fract_y
_atom_site_fract_z
Si Si1 0.183842 0.275831 0.705341
Si Si2 0.202000 0.890585 0.963909
Si Si3 0.000000 0.057560 0.250000
Si Si4 0.203603 0.838907 0.380470
Si Si5 0.507396 0.570050 0.620491
Si Si6 0.462999 0.703535 0.429577
Si Si7 0.206951 0.593815 0.774339
O O1 0.234126 0.206920 0.838017
O O2 0.195839 0.446282 0.717850
O O3 0.231945 0.206060 0.695512
O O4 0.072569 0.245722 0.563453
O O5 0.089421 0.856264 0.830686
O O6 0.226210 0.998604 0.929474
O O7 0.250000 0.750000 0.000000
O O8 0.242188 0.944705 0.088862
O O9 0.954969 0.962458 0.130175
O O10 0.250000 0.750000 0.500000
O O11 0.090567 0.819350 0.242774
O O12 0.436875 0.641109 0.476494
O O13 0.554061 0.423913 0.647105
O O14 0.394925 0.837163 0.331990
#
# Coordination Sequence:
#
# PCOD8138908 Si02
#       7
#     8   8   4   8   8   8   8
#     4  11  26  41  65  98 128 169 215 275 314 391
#     4  11  24  40  68  94 127 175 209 264 325 384
#     4  10  20  38  62  94 124 160 220 254 308 392
#     4  10  20  42  62  89 125 165 212 264 318 379
#     4   9  20  35  67  88 123 170 208 263 326 374
#     4  10  22  42  62  91 133 166 212 262 325 385
#     4  12  25  39  68  96 131 169 219 262 330 381
#
# _framework density 20.862741
#
# number of rings (size 3 to 8) (size 9 to 14) (size 15 to 20)
#    0.000    1.538    1.538    3.231   10.769    0.000 
#    0.000    0.000    0.000    0.923    0.000    0.000 
#    0.000    0.000    0.000    0.000    0.000    0.000 
#
# Total GULP energy -322159.744328 kJ/mol
# GULP energy per Si atom -12390.759397 kJ/mol
# Density = 2.081526 g / cm^3
# Si number density = 20.862741 Si / 1000 Ang^3
#
#
#
# Elastic Constant Matrix: (Units=GPa)
#
#
# Indices 1 2 3 4 5 6 
#
# 1 75.5278 15.8866 29.7028 0.0000 -7.4475 0.0000
# 2 15.8866 98.2855 28.8135 0.0000 10.6147 0.0000
# 3 29.7028 28.8135 99.5140 0.0000 -5.7305 0.0000
# 4 0.0000 0.0000 0.0000 38.3909 0.0000 -7.0068
# 5 -7.4475 10.6147 -5.7305 0.0000 34.1814 0.0000
# 6 0.0000 0.0000 0.0000 -7.0068 0.0000 23.1719
#
#
#
# Elastic Compliance Matrix: (Units=1/GPa)
#
#
# Indices 1 2 3 4 5 6 
#
# 1 0.015465 -0.001694 -0.003939 0.000000 0.003235 0.000000
# 2 -0.001694 0.011883 -0.003199 0.000000 -0.004596 0.000000
# 3 -0.003939 -0.003199 0.012277 0.000000 0.002194 0.000000
# 4 0.000000 0.000000 0.000000 0.027569 0.000000 0.008336
# 5 0.003235 -0.004596 0.002194 0.000000 0.031755 0.000000
# 6 0.000000 0.000000 0.000000 0.008336 0.000000 0.045677
#
#
# Mechanical properties :
#
#
# Convention : Reuss Voigt Hill
#
# Bulk Modulus (GPa) = 45.53944 46.90369 46.22156
# Shear Modulus (GPa) = 29.47924 32.41047 30.94485
#
# Velocity S-wave (km/s) = 3.76308 3.94573 3.85549
# Velocity P-wave (km/s) = 6.38408 6.57946 6.48251
#
# Compressibility (1/GPa) = 0.02195899
#
# Stress axis : x y z
#
# Youngs Moduli (GPa) = 64.66364 84.15689 81.45157
#
# Poissons Ratio (x) = 0.14259 0.32084
# Poissons Ratio (y) = 0.10956 0.26060
# Poissons Ratio (z) = 0.25471 0.26925
#
# Static dielectric constant tensor:
#      x y z
#    x 3.959010 0.000000 -0.418270 
#    y 0.000000 3.829420 0.000000 
#    z -0.418270 0.000000 4.069810 
# 
# 
# High freq. dielectric constant tensor:
#      x y z
#    x 1.814530 0.000000 -0.022220 
#    y 0.000000 1.802060 0.000000 
#    z -0.022220 0.000000 1.834090 
# 
# From -- ./inp_files/181070.got.cif
#   From: 2010.06.25/outbox.cif.g09.slc.cpg/sg15_91_cif.got.tgz:181070.got - 2010.06.28 07:06:18.
