data_PCOD8138487
_publ_section_title
;
Structure prediction by ZEFSAII (Michael W. Deem and Ramdas Pophale) SiO2 
 PCOD8138487
Probable space group: C 2/C
;
_chemical_formula_sum "Si O2"
_cell_formula_units_Z 40
_cell_length_a 5.176471
_cell_length_b 18.858731
_cell_length_c 24.669649
_cell_angle_alpha 90.000000
_cell_angle_beta 131.148188
_cell_angle_gamma 90.000000
_cell_volume 1813.468883
_symmetry_space_group_name_H-M "C 2/C"
_symmetry_group_IT_number 15
_symmetry_cell_setting 'monoclinic'
loop_
_space_group_symop_operation_xyz
x,y,z
-x,y,1/2-z
-x,-y,-z
x,-y,1/2+z
1/2+x,1/2+y,z
1/2-x,1/2+y,1/2-z
1/2-x,1/2-y,-z
1/2+x,1/2-y,1/2+z
loop_
_atom_site_type_symbol
_atom_site_label
_atom_site_fract_x
_atom_site_fract_y
_atom_site_fract_z
Si Si1 0.418976 0.312094 0.445215
Si Si2 0.233576 0.244387 0.887406
Si Si3 0.304604 0.107906 0.091050
Si Si4 0.220464 0.018729 0.416175
Si Si5 0.168159 0.886556 0.170881
O O1 0.717461 0.270119 0.451591
O O2 0.540351 0.361604 0.510550
O O3 0.238786 0.367440 0.378319
O O4 0.127883 0.257186 0.424105
O O5 0.083942 0.323795 0.856799
O O6 0.004266 0.184440 0.825858
O O7 0.631609 0.073860 0.107106
O O8 0.116494 0.050337 0.102004
O O9 0.500000 0.000000 0.500000
O O10 0.109499 0.949580 0.367243
O O11 0.500000 0.910051 0.250000
#
# Coordination Sequence:
#
# PCOD8138487 Si02
#       5
#     8   8   8   8   8
#     4  10  20  37  66  93 121 158 208 258 314 367
#     4  10  22  39  62  94 121 162 206 262 318 373
#     4  12  22  39  66  97 126 160 209 270 317 364
#     4  12  24  40  64  97 131 166 211 261 318 377
#     4  10  25  43  64  91 127 174 212 259 315 392
#
# _framework density 22.057174
#
# number of rings (size 3 to 8) (size 9 to 14) (size 15 to 20)
#    1.200    0.000    2.000    5.400    2.800    0.800 
#    0.000    2.000    0.000    0.000    0.000    0.000 
#    0.000    0.000    0.000    0.000    0.000    0.000 
#
# Total GULP energy -247897.145328 kJ/mol
# GULP energy per Si atom -12394.857266 kJ/mol
# Density = 2.200697 g / cm^3
# Si number density = 22.057174 Si / 1000 Ang^3
#
#
#
# Elastic Constant Matrix: (Units=GPa)
#
#
# Indices 1 2 3 4 5 6 
#
# 1 131.7311 39.3867 6.2899 0.0000 6.4143 0.0000
# 2 39.3867 150.1559 32.8501 0.0000 9.2419 0.0000
# 3 6.2899 32.8501 59.2045 0.0000 17.6154 0.0000
# 4 0.0000 0.0000 0.0000 13.3939 0.0000 7.8807
# 5 6.4143 9.2419 17.6154 0.0000 19.2919 0.0000
# 6 0.0000 0.0000 0.0000 7.8807 0.0000 49.4995
#
#
#
# Elastic Compliance Matrix: (Units=1/GPa)
#
#
# Indices 1 2 3 4 5 6 
#
# 1 0.008352 -0.002284 0.001209 0.000000 -0.002787 0.000000
# 2 -0.002284 0.008205 -0.004622 0.000000 0.001049 0.000000
# 3 0.001209 -0.004622 0.025796 0.000000 -0.021742 0.000000
# 4 0.000000 0.000000 0.000000 0.082378 0.000000 -0.013115
# 5 -0.002787 0.001049 -0.021742 0.000000 0.072111 0.000000
# 6 0.000000 0.000000 0.000000 -0.013115 0.000000 0.022290
#
#
# Mechanical properties :
#
#
# Convention : Reuss Voigt Hill
#
# Bulk Modulus (GPa) = 32.30068 55.34943 43.82505
# Shear Modulus (GPa) = 20.76007 33.94136 27.35072
#
# Velocity S-wave (km/s) = 3.07122 3.92700 3.52517
# Velocity P-wave (km/s) = 5.22038 6.76091 6.03996
#
# Compressibility (1/GPa) = 0.03095910
#
# Stress axis : x y z
#
# Youngs Moduli (GPa) = 119.73151 121.86979 38.76587
#
# Poissons Ratio (x) = 0.27832 -0.04687
# Poissons Ratio (y) = 0.27344 0.17919
# Poissons Ratio (z) = -0.14476 0.56333
#
# Static dielectric constant tensor:
#      x y z
#    x 3.960230 0.000000 -0.057730 
#    y 0.000000 4.394580 0.000000 
#    z -0.057730 0.000000 3.537450 
# 
# 
# High freq. dielectric constant tensor:
#      x y z
#    x 1.875110 0.000000 -0.003290 
#    y 0.000000 1.889530 0.000000 
#    z -0.003290 0.000000 1.815640 
# 
# From -- ./inp_files/285956.got.cif
#   From: 2010.06.25/outbox.cif.g09.slc.cpg/sg15_143_cif.got.tgz:285956.got - 2010.06.28 07:06:18.
