data_PCOD8138300
_publ_section_title
;
Structure prediction by ZEFSAII (Michael W. Deem and Ramdas Pophale) SiO2 
 PCOD8138300
Probable space group: C 2/C
;
_chemical_formula_sum "Si O2"
_cell_formula_units_Z 60
_cell_length_a 19.663948
_cell_length_b 11.549892
_cell_length_c 20.019715
_cell_angle_alpha 90.000000
_cell_angle_beta 41.450880
_cell_angle_gamma 90.000000
_cell_volume 3009.885011
_symmetry_space_group_name_H-M "C 2/C"
_symmetry_group_IT_number 15
_symmetry_cell_setting 'monoclinic'
loop_
_space_group_symop_operation_xyz
x,y,z
-x,y,1/2-z
-x,-y,-z
x,-y,1/2+z
1/2+x,1/2+y,z
1/2-x,1/2+y,1/2-z
1/2-x,1/2-y,-z
1/2+x,1/2-y,1/2+z
loop_
_atom_site_type_symbol
_atom_site_label
_atom_site_fract_x
_atom_site_fract_y
_atom_site_fract_z
Si Si1 0.670195 0.991292 0.913937
Si Si2 0.393772 0.436250 0.092991
Si Si3 0.897307 0.305904 0.355704
Si Si4 0.656798 0.669782 0.733989
Si Si5 0.000000 0.266566 0.750000
Si Si6 0.028722 0.537146 0.134102
Si Si7 0.193313 0.761403 0.445049
Si Si8 0.812465 0.573090 0.248693
O O1 0.710535 0.873180 0.916687
O O2 0.649020 0.965427 0.852543
O O3 0.751657 0.093458 0.862342
O O4 0.569471 0.036682 0.027719
O O5 0.401255 0.397686 0.164123
O O6 0.376964 0.324893 0.058050
O O7 0.297426 0.520704 0.151352
O O8 0.500000 0.500000 0.000000
O O9 0.922025 0.434624 0.360806
O O10 0.863260 0.224533 0.442152
O O11 0.807589 0.314786 0.366103
O O12 0.000000 0.247991 0.250000
O O13 0.581790 0.685759 0.726709
O O14 0.699317 0.789071 0.734198
O O15 0.057972 0.344614 0.651267
O O16 0.904459 0.526643 0.227806
#
# Coordination Sequence:
#
# PCOD8138300 Si02
#       8
#     8   8   8   8   4   8   8   8
#     4  10  21  40  62  91 126 162 209 257 313 369
#     4  11  24  43  64  92 128 166 209 262 318 372
#     4  10  20  37  62  91 120 162 203 253 317 362
#     4  10  23  43  62  95 125 168 211 256 318 372
#     4  10  22  40  62  90 130 162 212 260 304 386
#     4  10  20  37  64  92 120 159 208 257 313 370
#     4  10  22  40  60  93 126 156 212 256 300 385
#     4  10  21  40  66  89 124 161 211 262 303 377
#
# _framework density 19.934315000000002
#
# number of rings (size 3 to 8) (size 9 to 14) (size 15 to 20)
#    0.000    1.867    2.000    1.200    1.867    4.800 
#   18.000    0.000    0.000    0.000    0.000    0.000 
#    0.000    0.000    0.000    0.000    0.000    0.000 
#
# Total GULP energy -371930.658284 kJ/mol
# GULP energy per Si atom -12397.688609 kJ/mol
# Density = 1.988894 g / cm^3
# Si number density = 19.934315 Si / 1000 Ang^3
#
#
#
# Elastic Constant Matrix: (Units=GPa)
#
#
# Indices 1 2 3 4 5 6 
#
# 1 112.1557 42.7567 44.1076 0.0000 -19.1148 0.0000
# 2 42.7567 104.9708 45.9142 0.0000 -19.0863 0.0000
# 3 44.1076 45.9142 122.1135 0.0000 -18.5406 0.0000
# 4 0.0000 0.0000 0.0000 26.1371 0.0000 5.1197
# 5 -19.1148 -19.0863 -18.5406 0.0000 30.1946 0.0000
# 6 0.0000 0.0000 0.0000 5.1197 0.0000 22.9067
#
#
#
# Elastic Compliance Matrix: (Units=1/GPa)
#
#
# Indices 1 2 3 4 5 6 
#
# 1 0.011710 -0.002940 -0.002515 0.000000 0.004010 0.000000
# 2 -0.002940 0.012882 -0.003119 0.000000 0.004367 0.000000
# 3 -0.002515 -0.003119 0.010729 0.000000 0.003025 0.000000
# 4 0.000000 0.000000 0.000000 0.040011 0.000000 -0.008943
# 5 0.004010 0.004367 0.003025 0.000000 0.040274 0.000000
# 6 0.000000 0.000000 0.000000 -0.008943 0.000000 0.045654
#
#
# Mechanical properties :
#
#
# Convention : Reuss Voigt Hill
#
# Bulk Modulus (GPa) = 55.02684 67.19969 61.11326
# Shear Modulus (GPa) = 27.10512 29.61177 28.35844
#
# Velocity S-wave (km/s) = 3.69144 3.85836 3.77582
# Velocity P-wave (km/s) = 6.77001 7.32345 7.05216
#
# Compressibility (1/GPa) = 0.01817295
#
# Stress axis : x y z
#
# Youngs Moduli (GPa) = 85.39954 77.62672 93.20173
#
# Poissons Ratio (x) = 0.22825 0.23442
# Poissons Ratio (y) = 0.25111 0.29066
# Poissons Ratio (z) = 0.21480 0.24209
#
# Static dielectric constant tensor:
#      x y z
#    x 3.672310 0.000000 0.169170 
#    y 0.000000 3.539010 0.000000 
#    z 0.169170 0.000000 4.128740 
# 
# 
# High freq. dielectric constant tensor:
#      x y z
#    x 1.785230 0.000000 0.009120 
#    y 0.000000 1.772760 0.000000 
#    z 0.009120 0.000000 1.778720 
# 
# From -- ./inp_files/248752.got.cif
#   From: 2010.06.25/outbox.cif.g09.slc.cpg/sg15_125_cif.got.tgz:248752.got - 2010.06.28 07:06:18.
