data_PCOD8138059
_publ_section_title
;
Structure prediction by ZEFSAII (Michael W. Deem and Ramdas Pophale) SiO2 
 PCOD8138059
Probable space group: C 2/C
;
_chemical_formula_sum "Si O2"
_cell_formula_units_Z 48
_cell_length_a 9.101249
_cell_length_b 15.929688
_cell_length_c 16.554402
_cell_angle_alpha 90.000000
_cell_angle_beta 77.634092
_cell_angle_gamma 90.000000
_cell_volume 2344.376500
_symmetry_space_group_name_H-M "C 2/C"
_symmetry_group_IT_number 15
_symmetry_cell_setting 'monoclinic'
loop_
_space_group_symop_operation_xyz
x,y,z
-x,y,1/2-z
-x,-y,-z
x,-y,1/2+z
1/2+x,1/2+y,z
1/2-x,1/2+y,1/2-z
1/2-x,1/2-y,-z
1/2+x,1/2-y,1/2+z
loop_
_atom_site_type_symbol
_atom_site_label
_atom_site_fract_x
_atom_site_fract_y
_atom_site_fract_z
Si Si1 0.292843 0.881270 0.405118
Si Si2 0.514430 0.269913 0.656631
Si Si3 0.494492 0.596111 0.657859
Si Si4 0.571177 0.965065 0.412839
Si Si5 0.340703 0.562629 0.408224
Si Si6 0.259652 0.794921 0.084158
O O1 0.363410 0.788070 0.404003
O O2 0.433592 0.944598 0.367706
O O3 0.208977 0.905220 0.497837
O O4 0.177291 0.884209 0.344895
O O5 0.500000 0.238543 0.750000
O O6 0.571952 0.365073 0.648861
O O7 0.349076 0.265997 0.635173
O O8 0.500000 0.568201 0.750000
O O9 0.551710 0.518737 0.595716
O O10 0.591627 0.681437 0.633909
O O11 0.649618 0.880426 0.432708
O O12 0.500000 0.000000 0.500000
O O13 0.696975 0.032645 0.369557
O O14 0.250000 0.750000 0.000000
#
# Coordination Sequence:
#
# PCOD8138059 Si02
#       6
#     8   8   8   8   8   8
#     4  10  20  37  60  82 109 151 191 228 280 343
#     4  11  22  37  57  84 116 150 188 239 289 333
#     4  11  22  37  57  85 117 148 185 235 287 336
#     4   8  18  35  56  80 105 136 183 231 270 322
#     4  10  20  37  58  83 111 147 190 233 280 342
#     4  10  21  37  57  80 111 150 189 228 275 340
#
# _framework density 20.474526999999998
#
# number of rings (size 3 to 8) (size 9 to 14) (size 15 to 20)
#    0.000    2.000    0.000    3.500    0.000    5.333 
#    0.000    0.000    0.000    6.000    0.000    0.000 
#    0.000    0.000    0.000    0.000    0.000    0.000 
#
# Total GULP energy -297416.291622 kJ/mol
# GULP energy per Si atom -12392.345484 kJ/mol
# Density = 2.042793 g / cm^3
# Si number density = 20.474527 Si / 1000 Ang^3
#
#
#
# Elastic Constant Matrix: (Units=GPa)
#
#
# Indices 1 2 3 4 5 6 
#
# 1 164.5346 60.1977 35.1075 0.0000 31.6851 0.0000
# 2 60.1977 96.4117 24.8321 0.0000 1.5416 0.0000
# 3 35.1075 24.8321 89.8360 0.0000 15.1862 0.0000
# 4 0.0000 0.0000 0.0000 24.7264 0.0000 -10.6097
# 5 31.6851 1.5416 15.1862 0.0000 33.2472 0.0000
# 6 0.0000 0.0000 0.0000 -10.6097 0.0000 38.5931
#
#
#
# Elastic Compliance Matrix: (Units=1/GPa)
#
#
# Indices 1 2 3 4 5 6 
#
# 1 0.010196 -0.006018 -0.000786 0.000000 -0.009079 0.000000
# 2 -0.006018 0.014749 -0.002795 0.000000 0.006328 0.000000
# 3 -0.000786 -0.002795 0.013072 0.000000 -0.005092 0.000000
# 4 0.000000 0.000000 0.000000 0.045851 0.000000 0.012605
# 5 -0.009079 0.006328 -0.005092 0.000000 0.040762 0.000000
# 6 0.000000 0.000000 0.000000 0.012605 0.000000 0.029377
#
#
# Mechanical properties :
#
#
# Convention : Reuss Voigt Hill
#
# Bulk Modulus (GPa) = 53.14084 65.67299 59.40692
# Shear Modulus (GPa) = 27.85875 34.68968 31.27421
#
# Velocity S-wave (km/s) = 3.69271 4.12063 3.91253
# Velocity P-wave (km/s) = 6.64774 7.40166 7.03481
#
# Compressibility (1/GPa) = 0.01881792
#
# Stress axis : x y z
#
# Youngs Moduli (GPa) = 98.08058 67.80341 76.50025
#
# Poissons Ratio (x) = 0.40806 0.06014
# Poissons Ratio (y) = 0.59028 0.21378
# Poissons Ratio (z) = 0.07711 0.18948
#
# Static dielectric constant tensor:
#      x y z
#    x 4.773390 0.000000 0.072760 
#    y 0.000000 3.873510 0.000000 
#    z 0.072760 0.000000 3.336010 
# 
# 
# High freq. dielectric constant tensor:
#      x y z
#    x 1.822510 0.000000 -0.002640 
#    y 0.000000 1.798460 0.000000 
#    z -0.002640 0.000000 1.772250 
# 
# From -- ./inp_files/134828.got.cif
#   From: 2010.06.25/outbox.cif.g09.slc.cpg/sg15_68_cif.got.tgz:134828.got - 2010.06.28 07:06:18.
