data_PCOD8138221
_publ_section_title
;
Structure prediction by ZEFSAII (Michael W. Deem and Ramdas Pophale) SiO2 
 PCOD8138221
Probable space group: C 2/C
;
_chemical_formula_sum "Si O2"
_cell_formula_units_Z 64
_cell_length_a 14.741138
_cell_length_b 16.393169
_cell_length_c 23.808361
_cell_angle_alpha 90.000000
_cell_angle_beta 149.067428
_cell_angle_gamma 90.000000
_cell_volume 2957.406495
_symmetry_space_group_name_H-M "C 2/C"
_symmetry_group_IT_number 15
_symmetry_cell_setting 'monoclinic'
loop_
_space_group_symop_operation_xyz
x,y,z
-x,y,1/2-z
-x,-y,-z
x,-y,1/2+z
1/2+x,1/2+y,z
1/2-x,1/2+y,1/2-z
1/2-x,1/2-y,-z
1/2+x,1/2-y,1/2+z
loop_
_atom_site_type_symbol
_atom_site_label
_atom_site_fract_x
_atom_site_fract_y
_atom_site_fract_z
Si Si1 0.833082 0.969308 0.093916
Si Si2 0.182546 0.506440 0.127515
Si Si3 0.146042 0.134481 0.725756
Si Si4 0.982376 0.624675 0.386843
Si Si5 0.780146 0.808373 0.828220
Si Si6 0.899727 0.140238 0.078746
Si Si7 0.673225 0.226652 0.872565
Si Si8 0.524833 0.286343 0.054141
O O1 0.963739 0.892727 0.158445
O O2 0.830289 0.999271 0.157480
O O3 0.905252 0.043429 0.093913
O O4 0.642440 0.939340 0.969758
O O5 0.207829 0.435275 0.187139
O O6 0.178537 0.591163 0.159324
O O7 0.000000 0.500000 0.000000
O O8 0.225984 0.214049 0.797162
O O9 0.109297 0.145891 0.639849
O O10 0.896261 0.638778 0.279194
O O11 0.045673 0.710930 0.446050
O O12 0.922690 0.828054 0.855958
O O13 0.859427 0.825781 0.932232
O O14 0.872538 0.187529 0.122600
O O15 0.733548 0.159145 0.949922
O O16 0.500000 0.191578 0.750000
O O17 0.829101 0.244903 0.911626
#
# Coordination Sequence:
#
# PCOD8138221 Si02
#       8
#     8   8   8   8   8   8   8   8
#     4  11  23  39  60  92 122 152 199 259 309 351
#     4  10  21  37  62  90 117 151 194 250 307 351
#     4  11  23  39  61  88 122 158 199 247 298 360
#     4  10  21  38  62  88 118 157 201 247 303 362
#     4  10  21  40  60  84 120 164 203 243 297 364
#     4  10  22  38  60  91 120 148 202 255 298 357
#     4  10  20  37  61  87 118 158 197 245 299 358
#     4  10  22  39  59  87 121 162 203 242 299 364
#
# _framework density 21.640584
#
# number of rings (size 3 to 8) (size 9 to 14) (size 15 to 20)
#    0.000    1.750    0.000    4.875    0.000   10.000 
#    0.000    8.750    0.000    0.000    0.000    0.000 
#    0.000    0.000    0.000    0.000    0.000    0.000 
#
# Total GULP energy -396656.425530 kJ/mol
# GULP energy per Si atom -12395.513298 kJ/mol
# Density = 2.159133 g / cm^3
# Si number density = 21.640584 Si / 1000 Ang^3
#
#
#
# Elastic Constant Matrix: (Units=GPa)
#
#
# Indices 1 2 3 4 5 6 
#
# 1 62.3167 35.0237 32.7826 0.0011 -1.5152 0.0000
# 2 35.0237 104.0338 48.3192 -0.0012 -3.4899 -0.0002
# 3 32.7826 48.3192 126.2102 -0.0037 -20.4335 -0.0001
# 4 0.0011 -0.0012 -0.0037 43.0816 -0.0010 4.7945
# 5 -1.5152 -3.4899 -20.4335 -0.0010 38.5640 0.0002
# 6 0.0000 -0.0002 -0.0001 4.7945 0.0002 26.4667
#
#
#
# Elastic Compliance Matrix: (Units=1/GPa)
#
#
# Indices 1 2 3 4 5 6 
#
# 1 0.020966 -0.005428 -0.003625 -0.000001 -0.001588 0.000000
# 2 -0.005428 0.013170 -0.003800 0.000000 -0.001035 0.000000
# 3 -0.003625 -0.003800 0.011202 0.000001 0.005449 0.000000
# 4 -0.000001 0.000000 0.000001 0.023689 0.000001 -0.004291
# 5 -0.001588 -0.001035 0.005449 0.000001 0.028662 0.000000
# 6 0.000000 0.000000 0.000000 -0.004291 0.000000 0.038561
#
#
# Mechanical properties :
#
#
# Convention : Reuss Voigt Hill
#
# Bulk Modulus (GPa) = 50.93603 58.31240 54.62422
# Shear Modulus (GPa) = 29.67381 33.38480 31.52931
#
# Velocity S-wave (km/s) = 3.70700 3.93198 3.82115
# Velocity P-wave (km/s) = 6.47386 6.90060 6.69063
#
# Compressibility (1/GPa) = 0.01963247
#
# Stress axis : x y z
#
# Youngs Moduli (GPa) = 47.69614 75.93196 89.27222
#
# Poissons Ratio (x) = 0.41216 0.32360
# Poissons Ratio (y) = 0.25890 0.33920
# Poissons Ratio (z) = 0.17289 0.28851
#
# Static dielectric constant tensor:
#      x y z
#    x 4.623010 -0.000010 -0.368690 
#    y -0.000010 3.911290 0.000000 
#    z -0.368690 0.000000 4.384620 
# 
# 
# High freq. dielectric constant tensor:
#      x y z
#    x 1.828140 0.000000 -0.003710 
#    y 0.000000 1.833780 0.000000 
#    z -0.003710 0.000000 1.879350 
# 
# From -- ./inp_files/274870.got.cif
#   From: 2010.06.25/outbox.cif.g09.slc.cpg/sg15_138_cif.got.tgz:274870.got - 2010.06.28 07:06:18.
