data_PCOD8138069
_publ_section_title
;
Structure prediction by ZEFSAII (Michael W. Deem and Ramdas Pophale) SiO2 
 PCOD8138069
Probable space group: C 2/C
;
_chemical_formula_sum "Si O2"
_cell_formula_units_Z 40
_cell_length_a 11.336450
_cell_length_b 21.757541
_cell_length_c 8.410853
_cell_angle_alpha 90.000000
_cell_angle_beta 91.098744
_cell_angle_gamma 90.000000
_cell_volume 2074.182999
_symmetry_space_group_name_H-M "C 2/C"
_symmetry_group_IT_number 15
_symmetry_cell_setting 'monoclinic'
loop_
_space_group_symop_operation_xyz
x,y,z
-x,y,1/2-z
-x,-y,-z
x,-y,1/2+z
1/2+x,1/2+y,z
1/2-x,1/2+y,1/2-z
1/2-x,1/2-y,-z
1/2+x,1/2-y,1/2+z
loop_
_atom_site_type_symbol
_atom_site_label
_atom_site_fract_x
_atom_site_fract_y
_atom_site_fract_z
Si Si1 0.254263 0.832906 0.925386
Si Si2 0.939992 0.255177 0.079835
Si Si3 0.162183 0.297776 0.918945
Si Si4 0.351942 0.054723 0.575667
Si Si5 0.626916 0.073417 0.564584
O O1 0.115718 0.813737 0.933165
O O2 0.310902 0.807898 0.764392
O O3 0.328693 0.801252 0.069512
O O4 0.267451 0.905761 0.955611
O O5 0.000000 0.266802 0.250000
O O6 0.031412 0.269681 0.940578
O O7 0.250000 0.250000 0.000000
O O8 0.179498 0.363693 0.000813
O O9 0.485811 0.075540 0.547596
O O10 0.322218 0.065026 0.758201
O O11 0.328355 0.983430 0.539809
#
# Coordination Sequence:
#
# PCOD8138069 Si02
#       5
#     8   8   8   8   8
#     4  11  23  36  62  85 122 162 196 249 297 354
#     4  11  22  39  55  87 123 159 198 243 298 354
#     4  12  23  37  60  89 124 158 198 240 300 355
#     4  10  20  37  58  85 117 154 197 243 305 350
#     4  10  21  35  58  84 121 152 192 252 294 354
#
# _framework density 19.284700999999998
#
# number of rings (size 3 to 8) (size 9 to 14) (size 15 to 20)
#    0.000    1.200    4.000    3.000    2.800    1.600 
#    0.000    0.000    0.000    1.200    0.000    0.000 
#    0.000    0.000    0.000    0.000    0.000    0.000 
#
# Total GULP energy -247975.843259 kJ/mol
# GULP energy per Si atom -12398.792163 kJ/mol
# Density = 1.924081 g / cm^3
# Si number density = 19.284701 Si / 1000 Ang^3
#
#
#
# Elastic Constant Matrix: (Units=GPa)
#
#
# Indices 1 2 3 4 5 6 
#
# 1 68.6951 47.8961 39.1448 0.0000 -4.2409 0.0000
# 2 47.8961 148.9505 62.9979 0.0000 -2.5432 0.0000
# 3 39.1448 62.9979 111.7813 0.0000 6.1053 0.0000
# 4 0.0000 0.0000 0.0000 35.6527 0.0000 4.8761
# 5 -4.2409 -2.5432 6.1053 0.0000 21.8690 0.0000
# 6 0.0000 0.0000 0.0000 4.8761 0.0000 34.0709
#
#
#
# Elastic Compliance Matrix: (Units=1/GPa)
#
#
# Indices 1 2 3 4 5 6 
#
# 1 0.020869 -0.004492 -0.005046 0.000000 0.004933 0.000000
# 2 -0.004492 0.009913 -0.004091 0.000000 0.001424 0.000000
# 3 -0.005046 -0.004091 0.013301 0.000000 -0.005168 0.000000
# 4 0.000000 0.000000 0.000000 0.028608 0.000000 -0.004094
# 5 0.004933 0.001424 -0.005168 0.000000 0.048292 0.000000
# 6 0.000000 0.000000 0.000000 -0.004094 0.000000 0.029937
#
#
# Mechanical properties :
#
#
# Convention : Reuss Voigt Hill
#
# Bulk Modulus (GPa) = 59.43837 69.94496 64.69166
# Shear Modulus (GPa) = 27.20547 30.27773 28.74160
#
# Velocity S-wave (km/s) = 3.76004 3.96667 3.86474
# Velocity P-wave (km/s) = 7.05259 7.57151 7.31665
#
# Compressibility (1/GPa) = 0.01682415
#
# Stress axis : x y z
#
# Youngs Moduli (GPa) = 47.91790 100.87896 75.18175
#
# Poissons Ratio (x) = 0.45317 0.37936
# Poissons Ratio (y) = 0.21526 0.30759
# Poissons Ratio (z) = 0.24179 0.41273
#
# Static dielectric constant tensor:
#      x y z
#    x 3.454450 0.000000 -0.005760 
#    y 0.000000 3.713250 0.000000 
#    z -0.005760 0.000000 3.620410 
# 
# 
# High freq. dielectric constant tensor:
#      x y z
#    x 1.710250 0.000000 0.001900 
#    y 0.000000 1.755190 0.000000 
#    z 0.001900 0.000000 1.765690 
# 
# From -- ./inp_files/30311.got.cif
#   From: 2010.06.25/outbox.cif.g09.slc.cpg/sg15_16_cif.got.tgz:30311.got - 2010.06.28 07:06:18.
