data_PCOD8138003
_publ_section_title
;
Structure prediction by ZEFSAII (Michael W. Deem and Ramdas Pophale) SiO2 
 PCOD8138003
Probable space group: C 2/C
;
_chemical_formula_sum "Si O2"
_cell_formula_units_Z 60
_cell_length_a 28.334824
_cell_length_b 13.965612
_cell_length_c 7.922993
_cell_angle_alpha 90.000000
_cell_angle_beta 78.083748
_cell_angle_gamma 90.000000
_cell_volume 3067.669748
_symmetry_space_group_name_H-M "C 2/C"
_symmetry_group_IT_number 15
_symmetry_cell_setting 'monoclinic'
loop_
_space_group_symop_operation_xyz
x,y,z
-x,y,1/2-z
-x,-y,-z
x,-y,1/2+z
1/2+x,1/2+y,z
1/2-x,1/2+y,1/2-z
1/2-x,1/2-y,-z
1/2+x,1/2-y,1/2+z
loop_
_atom_site_type_symbol
_atom_site_label
_atom_site_fract_x
_atom_site_fract_y
_atom_site_fract_z
Si Si1 0.500000 0.733523 0.750000
Si Si2 0.464082 0.055623 0.645990
Si Si3 0.827486 0.276718 0.972022
Si Si4 0.079542 0.378451 0.642374
Si Si5 0.692137 0.461621 0.517272
Si Si6 0.867202 0.103258 0.142199
Si Si7 0.235632 0.135321 0.678802
Si Si8 0.020702 0.099130 0.418387
O O1 0.545953 0.799926 0.756875
O O2 0.507843 0.674150 0.573820
O O3 0.500000 0.112096 0.750000
O O4 0.431597 0.124169 0.552718
O O5 0.500000 0.000000 0.500000
O O6 0.429455 0.982895 0.772939
O O7 0.860153 0.200916 0.046886
O O8 0.790968 0.332414 0.122486
O O9 0.864643 0.353106 0.865765
O O10 0.798422 0.224842 0.844001
O O11 0.647394 0.509357 0.452793
O O12 0.668734 0.392458 0.672556
O O13 0.726310 0.544890 0.564542
O O14 0.725208 0.393934 0.377948
O O15 0.922288 0.090802 0.152018
O O16 0.000000 0.127886 0.250000
O O17 0.000000 0.000000 0.500000
#
# Coordination Sequence:
#
# PCOD8138003 Si02
#       8
#     4   8   8   8   8   8   8   8
#     4  12  24  40  62  88 126 166 204 262 298 368
#     4   9  18  36  59  78 113 154 196 251 303 355
#     4  10  21  37  57  83 120 147 196 245 306 356
#     4  11  21  39  59  87 116 161 202 251 307 367
#     4   9  19  36  62  80 110 150 196 235 304 362
#     4  10  20  37  56  84 114 156 194 241 296 364
#     4   9  20  38  59  84 112 152 188 251 298 361
#     4  12  25  40  60  90 129 169 208 256 303 361
#
# _framework density 19.558819
#
# number of rings (size 3 to 8) (size 9 to 14) (size 15 to 20)
#    0.000    1.867    4.000    0.800    0.000    4.267 
#    0.000    2.667    0.000    0.000    0.000    0.000 
#    0.000    0.000    0.000    0.000    0.000    0.000 
#
# Total GULP energy -371924.209605 kJ/mol
# GULP energy per Si atom -12397.473654 kJ/mol
# Density = 1.951430 g / cm^3
# Si number density = 19.558819 Si / 1000 Ang^3
#
#
#
# Elastic Constant Matrix: (Units=GPa)
#
#
# Indices 1 2 3 4 5 6 
#
# 1 92.8640 15.7553 2.5597 0.0000 -19.5021 0.0000
# 2 15.7553 54.4478 12.5469 0.0000 -13.7520 0.0000
# 3 2.5597 12.5469 75.2389 0.0000 -3.6997 0.0000
# 4 0.0000 0.0000 0.0000 34.5663 0.0000 -12.4844
# 5 -19.5021 -13.7520 -3.6997 0.0000 25.1275 0.0000
# 6 0.0000 0.0000 0.0000 -12.4844 0.0000 22.8362
#
#
#
# Elastic Compliance Matrix: (Units=1/GPa)
#
#
# Indices 1 2 3 4 5 6 
#
# 1 0.012962 -0.001462 0.000260 0.000000 0.009298 0.000000
# 2 -0.001462 0.022172 -0.003130 0.000000 0.010539 0.000000
# 3 0.000260 -0.003130 0.013830 0.000000 0.000525 0.000000
# 4 0.000000 0.000000 0.000000 0.036048 0.000000 0.019707
# 5 0.009298 0.010539 0.000525 0.000000 0.052859 0.000000
# 6 0.000000 0.000000 0.000000 0.019707 0.000000 0.054564
#
#
# Mechanical properties :
#
#
# Convention : Reuss Voigt Hill
#
# Bulk Modulus (GPa) = 24.81329 31.58604 28.19966
# Shear Modulus (GPa) = 23.30660 29.28524 26.29592
#
# Velocity S-wave (km/s) = 3.45572 3.87368 3.67066
# Velocity P-wave (km/s) = 5.35133 6.01594 5.69334
#
# Compressibility (1/GPa) = 0.04030098
#
# Stress axis : x y z
#
# Youngs Moduli (GPa) = 77.14828 45.10121 72.30728
#
# Poissons Ratio (x) = 0.06595 -0.01881
# Poissons Ratio (y) = 0.11281 0.22629
# Poissons Ratio (z) = -0.02006 0.14114
#
# Static dielectric constant tensor:
#      x y z
#    x 3.607100 0.000000 0.184110 
#    y 0.000000 3.458500 0.000000 
#    z 0.184110 0.000000 4.005990 
# 
# 
# High freq. dielectric constant tensor:
#      x y z
#    x 1.758500 0.000000 -0.005600 
#    y 0.000000 1.754990 0.000000 
#    z -0.005600 0.000000 1.764550 
# 
# From -- ./inp_files/65962.got.cif
#   From: 2010.06.25/outbox.cif.g09.slc.cpg/sg15_33_cif.got.tgz:65962.got - 2010.06.28 07:06:18.
