data_PCOD8138045
_publ_section_title
;
Structure prediction by ZEFSAII (Michael W. Deem and Ramdas Pophale) SiO2 
 PCOD8138045
Probable space group: C 2/C
;
_chemical_formula_sum "Si O2"
_cell_formula_units_Z 48
_cell_length_a 18.021753
_cell_length_b 18.026740
_cell_length_c 13.234818
_cell_angle_alpha 90.000000
_cell_angle_beta 32.113608
_cell_angle_gamma 90.000000
_cell_volume 2285.688154
_symmetry_space_group_name_H-M "C 2/C"
_symmetry_group_IT_number 15
_symmetry_cell_setting 'monoclinic'
loop_
_space_group_symop_operation_xyz
x,y,z
-x,y,1/2-z
-x,-y,-z
x,-y,1/2+z
1/2+x,1/2+y,z
1/2-x,1/2+y,1/2-z
1/2-x,1/2-y,-z
1/2+x,1/2-y,1/2+z
loop_
_atom_site_type_symbol
_atom_site_label
_atom_site_fract_x
_atom_site_fract_y
_atom_site_fract_z
Si Si1 0.573676 0.802600 0.562505
Si Si2 0.574981 0.601994 0.983313
Si Si3 0.152334 0.742132 0.336556
Si Si4 0.783378 0.547581 0.584033
Si Si5 0.230400 0.096758 0.235326
Si Si6 0.646063 0.530287 0.536724
O O1 0.500000 0.776699 0.750000
O O2 0.721147 0.760497 0.385660
O O3 0.482945 0.779176 0.571472
O O4 0.597078 0.891524 0.534264
O O5 0.619202 0.687578 0.946355
O O6 0.637174 0.571288 0.805850
O O7 0.408426 0.594503 0.173053
O O8 0.634301 0.553973 0.008122
O O9 0.190791 0.674773 0.367078
O O10 0.830599 0.469439 0.579788
O O11 0.762892 0.535714 0.488466
O O12 0.192597 0.087145 0.396518
O O13 0.500000 0.558137 0.750000
#
# Coordination Sequence:
#
# PCOD8138045 Si02
#       6
#     8   8   8   8   8   8
#     4  11  23  39  58  90 126 159 197 246 311 366
#     4  10  20  37  57  91 120 158 203 240 305 360
#     4  11  23  39  59  85 129 162 193 249 305 368
#     4  10  21  37  60  90 118 156 206 249 295 355
#     4  11  20  36  61  88 119 156 202 247 306 353
#     4  11  18  33  63  87 115 152 203 254 284 350
#
# _framework density 21.000240999999999
#
# number of rings (size 3 to 8) (size 9 to 14) (size 15 to 20)
#    0.000    1.333    5.000    2.500    0.000    2.667 
#    0.000    2.500    0.000    0.000    0.000    0.000 
#    0.000    0.000    0.000    0.000    0.000    0.000 
#
# Total GULP energy -297662.476942 kJ/mol
# GULP energy per Si atom -12402.603206 kJ/mol
# Density = 2.095244 g / cm^3
# Si number density = 21.000241 Si / 1000 Ang^3
#
#
#
# Elastic Constant Matrix: (Units=GPa)
#
#
# Indices 1 2 3 4 5 6 
#
# 1 67.7034 34.6436 12.6277 0.0003 -6.9382 -0.0002
# 2 34.6436 147.9971 8.0638 0.0002 -11.5166 -0.0002
# 3 12.6277 8.0638 41.5109 0.0004 -7.7732 -0.0004
# 4 0.0003 0.0002 0.0004 24.5684 -0.0005 -7.7134
# 5 -6.9382 -11.5166 -7.7732 -0.0005 19.8468 0.0004
# 6 -0.0002 -0.0002 -0.0004 -7.7134 0.0004 35.3299
#
#
#
# Elastic Compliance Matrix: (Units=1/GPa)
#
#
# Indices 1 2 3 4 5 6 
#
# 1 0.017709 -0.003731 -0.004218 0.000000 0.002374 0.000000
# 2 -0.003731 0.007879 0.000233 0.000000 0.003359 0.000000
# 3 -0.004218 0.000233 0.027062 0.000000 0.009260 0.000000
# 4 0.000000 0.000000 0.000000 0.043698 0.000001 0.009540
# 5 0.002374 0.003359 0.009260 0.000001 0.056792 0.000000
# 6 0.000000 0.000000 0.000000 0.009540 0.000000 0.030388
#
#
# Mechanical properties :
#
#
# Convention : Reuss Voigt Hill
#
# Bulk Modulus (GPa) = 26.86780 40.87575 33.87177
# Shear Modulus (GPa) = 23.65580 29.40743 26.53161
#
# Velocity S-wave (km/s) = 3.35991 3.74617 3.55828
# Velocity P-wave (km/s) = 5.27956 6.18210 5.74857
#
# Compressibility (1/GPa) = 0.03721927
#
# Stress axis : x y z
#
# Youngs Moduli (GPa) = 56.46721 126.92119 36.95250
#
# Poissons Ratio (x) = 0.47353 0.15586
# Poissons Ratio (y) = 0.21067 -0.00863
# Poissons Ratio (z) = 0.23817 -0.02963
#
# Static dielectric constant tensor:
#      x y z
#    x 3.497590 0.000000 0.002730 
#    y 0.000000 4.098120 0.000000 
#    z 0.002730 0.000000 3.654430 
# 
# 
# High freq. dielectric constant tensor:
#      x y z
#    x 1.801410 0.000000 -0.005660 
#    y 0.000000 1.838050 0.000000 
#    z -0.005660 0.000000 1.799760 
# 
# From -- ./inp_files/48377.got.cif
#   From: 2010.06.25/outbox.cif.g09.slc.cpg/sg15_25_cif.got.tgz:48377.got - 2010.06.28 07:06:18.
