data_PCOD8138222
_publ_section_title
;
Structure prediction by ZEFSAII (Michael W. Deem and Ramdas Pophale) SiO2 
 PCOD8138222
Probable space group: C 2/C
;
_chemical_formula_sum "Si O2"
_cell_formula_units_Z 56
_cell_length_a 10.458907
_cell_length_b 33.624262
_cell_length_c 8.399126
_cell_angle_alpha 90.000000
_cell_angle_beta 58.971424
_cell_angle_gamma 90.000000
_cell_volume 2531.095505
_symmetry_space_group_name_H-M "C 2/C"
_symmetry_group_IT_number 15
_symmetry_cell_setting 'monoclinic'
loop_
_space_group_symop_operation_xyz
x,y,z
-x,y,1/2-z
-x,-y,-z
x,-y,1/2+z
1/2+x,1/2+y,z
1/2-x,1/2+y,1/2-z
1/2-x,1/2-y,-z
1/2+x,1/2-y,1/2+z
loop_
_atom_site_type_symbol
_atom_site_label
_atom_site_fract_x
_atom_site_fract_y
_atom_site_fract_z
Si Si1 0.660302 0.946021 0.089609
Si Si2 0.615258 0.788529 0.305152
Si Si3 0.845078 0.093732 0.942907
Si Si4 0.960196 0.230735 0.598465
Si Si5 0.730416 0.128162 0.721519
Si Si6 0.030361 0.154813 0.412297
Si Si7 0.336428 0.971587 0.778697
O O1 0.500000 0.932107 0.250000
O O2 0.745872 0.904676 0.068954
O O3 0.712873 0.982389 0.168954
O O4 0.662246 0.959901 0.906723
O O5 0.500000 0.770619 0.250000
O O6 0.781997 0.770556 0.179087
O O7 0.535186 0.774216 0.520572
O O8 0.607897 0.836817 0.292197
O O9 0.716546 0.106973 0.901773
O O10 0.000000 0.086651 0.750000
O O11 0.792369 0.052493 0.051025
O O12 0.848104 0.125674 0.085964
O O13 0.059239 0.201793 0.416977
O O14 0.000000 0.217239 0.750000
O O15 0.885900 0.150875 0.616739
O O16 0.000000 0.142953 0.250000
O O17 0.500000 0.965071 0.750000
#
# Coordination Sequence:
#
# PCOD8138222 Si02
#       7
#     8   8   8   8   8   8   8
#     4  11  21  38  60  86 121 160 202 252 305 367
#     4  11  23  40  63  91 122 159 205 258 311 367
#     4  10  21  40  62  90 125 161 202 252 306 369
#     4  11  23  42  63  88 123 166 207 254 312 375
#     4  10  21  39  60  87 122 160 200 250 307 368
#     4  10  20  37  61  87 119 161 202 246 304 367
#     4  11  22  38  62  89 119 161 204 250 308 367
#
# _framework density 22.124808000000002
#
# number of rings (size 3 to 8) (size 9 to 14) (size 15 to 20)
#    0.000    1.429    0.000    8.143    0.000    1.143 
#    0.000   13.571    0.000    0.000    0.000    0.000 
#    0.000    0.000    0.000    0.000    0.000    0.000 
#
# Total GULP energy -346875.904322 kJ/mol
# GULP energy per Si atom -12388.425154 kJ/mol
# Density = 2.207445 g / cm^3
# Si number density = 22.124808 Si / 1000 Ang^3
#
#
#
# Elastic Constant Matrix: (Units=GPa)
#
#
# Indices 1 2 3 4 5 6 
#
# 1 85.5120 47.8060 26.6918 0.0000 7.7910 0.0000
# 2 47.8060 140.2990 48.6221 0.0000 2.2226 0.0000
# 3 26.6918 48.6221 93.8864 0.0000 14.8784 0.0000
# 4 0.0000 0.0000 0.0000 61.6737 0.0000 -19.9768
# 5 7.7910 2.2226 14.8784 0.0000 39.3748 0.0000
# 6 0.0000 0.0000 0.0000 -19.9768 0.0000 42.4045
#
#
#
# Elastic Compliance Matrix: (Units=1/GPa)
#
#
# Indices 1 2 3 4 5 6 
#
# 1 0.014889 -0.004495 -0.001573 0.000000 -0.002098 0.000000
# 2 -0.004495 0.010106 -0.004261 0.000000 0.001929 0.000000
# 3 -0.001573 -0.004261 0.014060 0.000000 -0.004761 0.000000
# 4 0.000000 0.000000 0.000000 0.019134 0.000000 0.009014
# 5 -0.002098 0.001929 -0.004761 0.000000 0.027502 0.000000
# 6 0.000000 0.000000 0.000000 0.009014 0.000000 0.027829
#
#
# Mechanical properties :
#
#
# Convention : Reuss Voigt Hill
#
# Bulk Modulus (GPa) = 54.35821 62.88191 58.62006
# Shear Modulus (GPa) = 35.63541 41.79578 38.71560
#
# Velocity S-wave (km/s) = 4.01765 4.35108 4.18769
# Velocity P-wave (km/s) = 6.79296 7.32978 7.06647
#
# Compressibility (1/GPa) = 0.01839649
#
# Stress axis : x y z
#
# Youngs Moduli (GPa) = 67.16197 98.95522 71.12622
#
# Poissons Ratio (x) = 0.44483 0.11185
# Poissons Ratio (y) = 0.30191 0.30309
# Poissons Ratio (z) = 0.10561 0.42167
#
# Static dielectric constant tensor:
#      x y z
#    x 3.947330 0.000000 0.189010 
#    y 0.000000 4.212030 0.000000 
#    z 0.189010 0.000000 3.845650 
# 
# 
# High freq. dielectric constant tensor:
#      x y z
#    x 1.861040 0.000000 0.016680 
#    y 0.000000 1.887190 0.000000 
#    z 0.016680 0.000000 1.861310 
# 
# From -- ./inp_files/35547.got.cif
#   From: 2010.06.25/outbox.cif.g09.slc.cpg/sg15_18_cif.got.tgz:35547.got - 2010.06.28 07:06:18.
