data_PCOD8138904
_publ_section_title
;
Structure prediction by ZEFSAII (Michael W. Deem and Ramdas Pophale) SiO2 
 PCOD8138904
Probable space group: C 2/C
;
_chemical_formula_sum "Si O2"
_cell_formula_units_Z 60
_cell_length_a 12.703488
_cell_length_b 24.921961
_cell_length_c 14.173840
_cell_angle_alpha 90.000000
_cell_angle_beta 44.035013
_cell_angle_gamma 90.000000
_cell_volume 3119.167150
_symmetry_space_group_name_H-M "C 2/C"
_symmetry_group_IT_number 15
_symmetry_cell_setting 'monoclinic'
loop_
_space_group_symop_operation_xyz
x,y,z
-x,y,1/2-z
-x,-y,-z
x,-y,1/2+z
1/2+x,1/2+y,z
1/2-x,1/2+y,1/2-z
1/2-x,1/2-y,-z
1/2+x,1/2-y,1/2+z
loop_
_atom_site_type_symbol
_atom_site_label
_atom_site_fract_x
_atom_site_fract_y
_atom_site_fract_z
Si Si1 0.250420 0.388150 0.661821
Si Si2 0.851260 0.275407 0.703396
Si Si3 0.164433 0.099737 0.600473
Si Si4 0.199415 0.711196 0.951478
Si Si5 0.139061 0.500530 0.482539
Si Si6 0.500000 0.037619 0.250000
Si Si7 0.844166 0.902373 0.809544
Si Si8 0.673413 0.282249 0.633347
O O1 0.191333 0.327049 0.705312
O O2 0.350326 0.402722 0.504536
O O3 0.103037 0.425814 0.752083
O O4 0.350728 0.398000 0.691111
O O5 0.810646 0.223931 0.792448
O O6 0.746441 0.264741 0.682835
O O7 0.020965 0.277889 0.553364
O O8 0.278493 0.148764 0.543158
O O9 0.242172 0.048972 0.602852
O O10 0.000000 0.108928 0.750000
O O11 0.250000 0.750000 0.000000
O O12 0.089685 0.501118 0.623000
O O13 0.213680 0.557385 0.419834
O O14 0.000000 0.500000 0.500000
O O15 0.808998 0.846663 0.886195
O O16 0.000000 0.925959 0.750000
O O17 0.500000 0.265126 0.750000
O O18 0.750000 0.250000 0.500000
#
# Coordination Sequence:
#
# PCOD8138904 Si02
#       8
#     8   8   8   8   8   4   8   8
#     4  10  20  38  66  84 122 170 211 250 322 378
#     4  11  22  37  62  90 126 170 212 256 320 382
#     4  11  24  41  61  95 129 161 211 271 321 380
#     4  12  23  36  60  96 132 164 209 257 324 385
#     4  11  22  42  65  92 127 163 217 261 323 378
#     4  10  20  38  62  94 120 160 214 264 306 378
#     4  10  22  42  66  90 123 168 213 257 312 383
#     4  10  22  43  65  90 124 168 214 261 311 374
#
# _framework density 19.235904999999999
#
# number of rings (size 3 to 8) (size 9 to 14) (size 15 to 20)
#    0.000    1.333    2.667    4.000    1.867    0.000 
#    3.600    2.000    0.000    0.000    0.000    0.000 
#    0.000    0.000    0.000    0.000    0.000    0.000 
#
# Total GULP energy -371822.638767 kJ/mol
# GULP energy per Si atom -12394.087959 kJ/mol
# Density = 1.919212 g / cm^3
# Si number density = 19.235905 Si / 1000 Ang^3
#
#
#
# Elastic Constant Matrix: (Units=GPa)
#
#
# Indices 1 2 3 4 5 6 
#
# 1 128.4860 41.0797 46.4055 0.0000 -9.4330 0.0000
# 2 41.0797 74.2553 48.2600 0.0000 2.9026 0.0000
# 3 46.4055 48.2600 126.1546 0.0000 -6.5756 0.0000
# 4 0.0000 0.0000 0.0000 28.7690 0.0000 0.1350
# 5 -9.4330 2.9026 -6.5756 0.0000 30.3860 0.0000
# 6 0.0000 0.0000 0.0000 0.1350 0.0000 29.0826
#
#
#
# Elastic Compliance Matrix: (Units=1/GPa)
#
#
# Indices 1 2 3 4 5 6 
#
# 1 0.010127 -0.004543 -0.001821 0.000000 0.003184 0.000000
# 2 -0.004543 0.020281 -0.006333 0.000000 -0.004718 0.000000
# 3 -0.001821 -0.006333 0.011147 0.000000 0.002452 0.000000
# 4 0.000000 0.000000 0.000000 0.034760 0.000000 -0.000161
# 5 0.003184 -0.004718 0.002452 0.000000 0.034880 0.000000
# 6 0.000000 0.000000 0.000000 -0.000161 0.000000 0.034386
#
#
# Mechanical properties :
#
#
# Convention : Reuss Voigt Hill
#
# Bulk Modulus (GPa) = 61.88138 66.70959 64.29548
# Shear Modulus (GPa) = 28.35067 30.52423 29.43745
#
# Velocity S-wave (km/s) = 3.84323 3.98783 3.91620
# Velocity P-wave (km/s) = 7.20649 7.48056 7.34480
#
# Compressibility (1/GPa) = 0.01615995
#
# Stress axis : x y z
#
# Youngs Moduli (GPa) = 98.74537 49.30739 89.70852
#
# Poissons Ratio (x) = 0.22402 0.16338
# Poissons Ratio (y) = 0.44863 0.56813
# Poissons Ratio (z) = 0.17984 0.31227
#
# Static dielectric constant tensor:
#      x y z
#    x 3.715450 0.000000 0.090040 
#    y 0.000000 3.720310 0.000000 
#    z 0.090040 0.000000 3.248830 
# 
# 
# High freq. dielectric constant tensor:
#      x y z
#    x 1.759170 0.000000 -0.000170 
#    y 0.000000 1.747780 0.000000 
#    z -0.000170 0.000000 1.748830 
# 
# From -- ./inp_files/148082.got.cif
#   From: 2010.06.25/outbox.cif.g09.slc.cpg/sg15_75_cif.got.tgz:148082.got - 2010.06.28 07:06:18.
