data_PCOD8138850
_publ_section_title
;
Structure prediction by ZEFSAII (Michael W. Deem and Ramdas Pophale) SiO2 
 PCOD8138850
Probable space group: C 2/C
;
_chemical_formula_sum "Si O2"
_cell_formula_units_Z 60
_cell_length_a 15.779561
_cell_length_b 14.936972
_cell_length_c 19.912123
_cell_angle_alpha 90.000000
_cell_angle_beta 41.195807
_cell_angle_gamma 90.000000
_cell_volume 3091.145563
_symmetry_space_group_name_H-M "C 2/C"
_symmetry_group_IT_number 15
_symmetry_cell_setting 'monoclinic'
loop_
_space_group_symop_operation_xyz
x,y,z
-x,y,1/2-z
-x,-y,-z
x,-y,1/2+z
1/2+x,1/2+y,z
1/2-x,1/2+y,1/2-z
1/2-x,1/2-y,-z
1/2+x,1/2-y,1/2+z
loop_
_atom_site_type_symbol
_atom_site_label
_atom_site_fract_x
_atom_site_fract_y
_atom_site_fract_z
Si Si1 0.304623 0.509909 0.454512
Si Si2 0.621907 0.762119 0.244957
Si Si3 0.269772 0.337346 0.411957
Si Si4 0.463638 0.732649 0.892915
Si Si5 0.261960 0.215904 0.294385
Si Si6 0.500000 0.603995 0.250000
Si Si7 0.840412 0.323963 0.415931
Si Si8 0.411447 0.420171 0.520379
O O1 0.251758 0.444089 0.428085
O O2 0.440108 0.548017 0.346945
O O3 0.193957 0.582185 0.530762
O O4 0.323593 0.462383 0.515013
O O5 0.712334 0.752022 0.253772
O O6 0.610819 0.665362 0.216114
O O7 0.484828 0.799292 0.350830
O O8 0.678796 0.828408 0.153810
O O9 0.413649 0.318372 0.355852
O O10 0.155109 0.296539 0.522841
O O11 0.253465 0.302752 0.346648
O O12 0.584894 0.798278 0.806827
O O13 0.492731 0.660346 0.936095
O O14 0.184998 0.128034 0.367435
O O15 0.750000 0.250000 0.500000
O O16 0.500000 0.500000 0.500000
#
# Coordination Sequence:
#
# PCOD8138850 Si02
#       8
#     8   8   8   8   8   4   8   8
#     4  11  21  38  63  87 121 162 208 265 301 375
#     4  10  22  38  60  91 113 165 209 244 324 373
#     4   9  21  38  59  89 119 163 203 246 311 376
#     4   9  20  40  61  86 124 167 204 241 315 381
#     4  11  22  40  63  90 129 161 200 260 318 377
#     4  10  20  38  62  88 114 156 216 254 310 370
#     4  10  20  40  62  83 119 163 204 255 312 374
#     4  10  23  38  62  97 124 159 216 267 305 368
#
# _framework density 19.410278999999999
#
# number of rings (size 3 to 8) (size 9 to 14) (size 15 to 20)
#    0.000    2.133    2.667    2.000    5.600    1.067 
#    4.800    0.667    0.000    0.000    0.000    0.000 
#    0.000    0.000    0.000    0.000    0.000    0.000 
#
# Total GULP energy -371647.962344 kJ/mol
# GULP energy per Si atom -12388.265411 kJ/mol
# Density = 1.936610 g / cm^3
# Si number density = 19.410279 Si / 1000 Ang^3
#
#
#
# Elastic Constant Matrix: (Units=GPa)
#
#
# Indices 1 2 3 4 5 6 
#
# 1 92.8877 45.6693 39.0649 -0.0001 1.0471 0.0000
# 2 45.6693 77.4934 29.5257 0.0000 -7.7572 0.0000
# 3 39.0649 29.5257 108.3974 -0.0002 -10.6522 0.0001
# 4 -0.0001 0.0000 -0.0002 20.6933 0.0001 4.8838
# 5 1.0471 -7.7572 -10.6522 0.0001 21.4442 0.0000
# 6 0.0000 0.0000 0.0001 4.8838 0.0000 27.4795
#
#
#
# Elastic Compliance Matrix: (Units=1/GPa)
#
#
# Indices 1 2 3 4 5 6 
#
# 1 0.017106 -0.009065 -0.004310 0.000000 -0.006256 0.000000
# 2 -0.009065 0.019446 -0.001362 0.000000 0.006801 0.000000
# 3 -0.004310 -0.001362 0.011693 0.000000 0.005526 0.000000
# 4 0.000000 0.000000 0.000000 0.050441 0.000000 -0.008965
# 5 -0.006256 0.006801 0.005526 0.000000 0.052143 0.000000
# 6 0.000000 0.000000 0.000000 -0.008965 0.000000 0.037984
#
#
# Mechanical properties :
#
#
# Convention : Reuss Voigt Hill
#
# Bulk Modulus (GPa) = 53.27404 56.36648 54.82026
# Shear Modulus (GPa) = 22.26746 24.89131 23.57938
#
# Velocity S-wave (km/s) = 3.39071 3.58492 3.48916
# Velocity P-wave (km/s) = 6.54485 6.79986 6.67357
#
# Compressibility (1/GPa) = 0.01877087
#
# Stress axis : x y z
#
# Youngs Moduli (GPa) = 58.45966 51.42408 85.52407
#
# Poissons Ratio (x) = 0.46616 0.36863
# Poissons Ratio (y) = 0.52993 0.11645
# Poissons Ratio (z) = 0.25198 0.07002
#
# Static dielectric constant tensor:
#      x y z
#    x 3.363350 0.000000 0.299660 
#    y 0.000000 3.788570 0.000000 
#    z 0.299660 0.000000 3.476630 
# 
# 
# High freq. dielectric constant tensor:
#      x y z
#    x 1.739010 0.000000 0.011790 
#    y 0.000000 1.750110 0.000000 
#    z 0.011790 0.000000 1.765900 
# 
# From -- ./inp_files/244690.got.cif
#   From: 2010.06.25/outbox.cif.g09.slc.cpg/sg15_123_cif.got.tgz:244690.got - 2010.06.28 07:06:18.
