data_PCOD8138638
_publ_section_title
;
Structure prediction by ZEFSAII (Michael W. Deem and Ramdas Pophale) SiO2 
 PCOD8138638
Probable space group: C 2/C
;
_chemical_formula_sum "Si O2"
_cell_formula_units_Z 48
_cell_length_a 8.261495
_cell_length_b 19.986926
_cell_length_c 13.991676
_cell_angle_alpha 90.000000
_cell_angle_beta 73.466486
_cell_angle_gamma 90.000000
_cell_volume 2214.807699
_symmetry_space_group_name_H-M "C 2/C"
_symmetry_group_IT_number 15
_symmetry_cell_setting 'monoclinic'
loop_
_space_group_symop_operation_xyz
x,y,z
-x,y,1/2-z
-x,-y,-z
x,-y,1/2+z
1/2+x,1/2+y,z
1/2-x,1/2+y,1/2-z
1/2-x,1/2-y,-z
1/2+x,1/2-y,1/2+z
loop_
_atom_site_type_symbol
_atom_site_label
_atom_site_fract_x
_atom_site_fract_y
_atom_site_fract_z
Si Si1 0.307329 0.622084 0.468360
Si Si2 0.809488 0.480889 0.037163
Si Si3 0.799764 0.527388 0.759106
Si Si4 0.188297 0.332209 0.178996
Si Si5 0.796887 0.811851 0.777639
Si Si6 0.187500 0.098442 0.390203
O O1 0.286701 0.543428 0.492738
O O2 0.203923 0.667893 0.561091
O O3 0.232886 0.643776 0.377879
O O4 0.507292 0.631478 0.442328
O O5 0.757799 0.470855 0.154509
O O6 0.777327 0.414907 0.977062
O O7 0.000000 0.500000 0.000000
O O8 0.722864 0.598798 0.804635
O O9 0.687953 0.470001 0.827990
O O10 0.000000 0.517821 0.750000
O O11 0.273454 0.264230 0.204601
O O12 0.000000 0.336358 0.250000
O O13 0.723986 0.845451 0.692599
O O14 0.000000 0.810994 0.750000
#
# Coordination Sequence:
#
# PCOD8138638 Si02
#       6
#     8   8   8   8   8   8
#     4  11  21  37  64  93 121 160 209 264 306 361
#     4  12  22  36  61  91 121 162 203 253 306 371
#     4  11  21  37  61  90 124 165 206 251 307 372
#     4  10  20  38  59  89 125 165 213 253 303 377
#     4   9  20  37  62  90 125 164 204 256 311 371
#     4  11  22  39  60  97 125 154 207 260 314 360
#
# _framework density 21.672311000000001
#
# number of rings (size 3 to 8) (size 9 to 14) (size 15 to 20)
#    0.000    1.333    5.000    2.000    0.000    0.000 
#    0.000    0.833    0.000    4.000    0.000    0.000 
#    0.000    0.000    0.000    0.000    0.000    0.000 
#
# Total GULP energy -297356.846794 kJ/mol
# GULP energy per Si atom -12389.868616 kJ/mol
# Density = 2.162298 g / cm^3
# Si number density = 21.672311 Si / 1000 Ang^3
#
#
#
# Elastic Constant Matrix: (Units=GPa)
#
#
# Indices 1 2 3 4 5 6 
#
# 1 36.8222 6.5914 31.6156 0.0000 6.3587 0.0000
# 2 6.5914 127.5799 47.0673 0.0000 10.0183 0.0000
# 3 31.6156 47.0673 160.0591 0.0000 11.4234 0.0000
# 4 0.0000 0.0000 0.0000 29.7980 0.0000 14.0258
# 5 6.3587 10.0183 11.4234 0.0000 31.3099 0.0000
# 6 0.0000 0.0000 0.0000 14.0258 0.0000 8.0461
#
#
#
# Elastic Compliance Matrix: (Units=1/GPa)
#
#
# Indices 1 2 3 4 5 6 
#
# 1 0.033434 0.001072 -0.006582 0.000000 -0.004732 0.000000
# 2 0.001072 0.008940 -0.002691 0.000000 -0.002097 0.000000
# 3 -0.006582 -0.002691 0.008401 0.000000 -0.000867 0.000000
# 4 0.000000 0.000000 0.000000 0.186964 0.000000 -0.325911
# 5 -0.004732 -0.002097 -0.000867 0.000000 0.033887 0.000000
# 6 0.000000 0.000000 0.000000 -0.325911 0.000000 0.692404
#
#
# Mechanical properties :
#
#
# Convention : Reuss Voigt Hill
#
# Bulk Modulus (GPa) = 29.09172 55.00107 42.04640
# Shear Modulus (GPa) = 5.04089 29.77663 17.40876
#
# Velocity S-wave (km/s) = 1.52676 3.71070 2.83728
# Velocity P-wave (km/s) = 4.06947 6.61760 5.49333
#
# Compressibility (1/GPa) = 0.03437404
#
# Stress axis : x y z
#
# Youngs Moduli (GPa) = 29.91003 111.85315 119.03361
#
# Poissons Ratio (x) = -0.11994 0.78343
# Poissons Ratio (y) = -0.03207 0.32034
# Poissons Ratio (z) = 0.19685 0.30102
#
# Static dielectric constant tensor:
#      x y z
#    x 3.303220 0.000000 0.096030 
#    y 0.000000 4.260090 0.000000 
#    z 0.096030 0.000000 11.217730 
# 
# 
# High freq. dielectric constant tensor:
#      x y z
#    x 1.792910 0.000000 -0.007040 
#    y 0.000000 1.851720 0.000000 
#    z -0.007040 0.000000 1.881430 
# 
# From -- ./inp_files/135907.got.cif
#   From: 2010.06.25/outbox.cif.g09.slc.cpg/sg15_68_cif.got.tgz:135907.got - 2010.06.28 07:06:18.
