data_PCOD8138305
_publ_section_title
;
Structure prediction by ZEFSAII (Michael W. Deem and Ramdas Pophale) SiO2 
 PCOD8138305
Probable space group: C 2/C
;
_chemical_formula_sum "Si O2"
_cell_formula_units_Z 32
_cell_length_a 5.117340
_cell_length_b 37.850494
_cell_length_c 7.872610
_cell_angle_alpha 90.000000
_cell_angle_beta 90.959754
_cell_angle_gamma 90.000000
_cell_volume 1524.662188
_symmetry_space_group_name_H-M "C 2/C"
_symmetry_group_IT_number 15
_symmetry_cell_setting 'monoclinic'
loop_
_space_group_symop_operation_xyz
x,y,z
-x,y,1/2-z
-x,-y,-z
x,-y,1/2+z
1/2+x,1/2+y,z
1/2-x,1/2+y,1/2-z
1/2-x,1/2-y,-z
1/2+x,1/2-y,1/2+z
loop_
_atom_site_type_symbol
_atom_site_label
_atom_site_fract_x
_atom_site_fract_y
_atom_site_fract_z
Si Si1 0.143829 0.567720 0.568618
Si Si2 0.500000 0.519598 0.750000
Si Si3 0.750829 0.719308 0.865808
Si Si4 0.747947 0.857605 0.135153
Si Si5 0.500000 0.027918 0.250000
O O1 0.411069 0.544753 0.591473
O O2 0.214045 0.608075 0.513815
O O3 0.000000 0.566903 0.750000
O O4 0.960939 0.551848 0.417858
O O5 0.251120 0.495830 0.795076
O O6 0.500000 0.724656 0.750000
O O7 0.733305 0.680554 0.958947
O O8 0.000000 0.722870 0.750000
O O9 0.750000 0.750000 0.000000
O O10 0.500000 0.854292 0.250000
O O11 0.000000 0.865117 0.250000
#
# Coordination Sequence:
#
# PCOD8138305 Si02
#       5
#     8   4   8   8   4
#     4  11  24  42  64  85 121 162 198 248 307 354
#     4  12  24  42  62  86 119 160 197 252 308 356
#     4  10  20  37  62  91 123 158 200 245 296 361
#     4   9  19  36  61  84 113 160 198 231 293 363
#     4  12  28  38  60  94 117 148 211 254 294 362
#
# _framework density 20.988257999999998
#
# number of rings (size 3 to 8) (size 9 to 14) (size 15 to 20)
#    0.000    1.500    2.500    2.250    3.500    0.000 
#    2.250    0.000    2.750    0.000    0.000    0.000 
#    0.000    0.000    0.000    0.000    0.000    0.000 
#
# Total GULP energy -198210.796931 kJ/mol
# GULP energy per Si atom -12388.174808 kJ/mol
# Density = 2.094049 g / cm^3
# Si number density = 20.988258 Si / 1000 Ang^3
#
#
#
# Elastic Constant Matrix: (Units=GPa)
#
#
# Indices 1 2 3 4 5 6 
#
# 1 135.0776 50.5093 26.4841 0.0000 9.1995 0.0000
# 2 50.5093 237.1917 76.0428 0.0000 17.0985 0.0000
# 3 26.4841 76.0428 89.1529 0.0000 10.6474 0.0000
# 4 0.0000 0.0000 0.0000 10.2791 0.0000 -8.2363
# 5 9.1995 17.0985 10.6474 0.0000 19.9783 0.0000
# 6 0.0000 0.0000 0.0000 -8.2363 0.0000 6.1754
#
#
#
# Elastic Compliance Matrix: (Units=1/GPa)
#
#
# Indices 1 2 3 4 5 6 
#
# 1 0.008233 -0.001235 -0.001138 0.000000 -0.002128 0.000000
# 2 -0.001235 0.006106 -0.004576 0.000000 -0.002218 0.000000
# 3 -0.001138 -0.004576 0.015943 0.000000 -0.004056 0.000000
# 4 0.000000 0.000000 0.000000 -1.416888 0.000000 -1.889728
# 5 -0.002128 -0.002218 -0.004056 0.000000 0.055094 0.000000
# 6 0.000000 0.000000 0.000000 -1.889728 0.000000 -2.358431
#
#
# Mechanical properties :
#
#
# Convention : Reuss Voigt Hill
#
# Bulk Modulus (GPa) = 61.04087 85.27717 73.15902
# Shear Modulus (GPa) = -1.36218 27.84564 13.24173
#
# Velocity S-wave (km/s) = -0.80649 3.64637 2.51452
# Velocity P-wave (km/s) = 5.31782 7.64507 6.58507
#
# Compressibility (1/GPa) = 0.01638247
#
# Stress axis : x y z
#
# Youngs Moduli (GPa) = 121.46253 163.77219 62.72491
#
# Poissons Ratio (x) = 0.20224 0.07140
# Poissons Ratio (y) = 0.14999 0.28705
# Poissons Ratio (z) = 0.13827 0.74948
#
# Static dielectric constant tensor:
#      x y z
#    x 4.117100 0.000000 0.188990 
#    y 0.000000 4.978280 0.000000 
#    z 0.188990 0.000000 3.280180 
# 
# 
# High freq. dielectric constant tensor:
#      x y z
#    x 1.842880 0.000000 0.014370 
#    y 0.000000 1.854000 0.000000 
#    z 0.014370 0.000000 1.763460 
# 
# From -- ./inp_files/20249.got.cif
#   From: 2010.06.25/outbox.cif.g09.slc.cpg/sg15_11_cif.got.tgz:20249.got - 2010.06.28 07:06:18.
