data_PCOD8138777
_publ_section_title
;
Structure prediction by ZEFSAII (Michael W. Deem and Ramdas Pophale) SiO2 
 PCOD8138777
Probable space group: C 2/C
;
_chemical_formula_sum "Si O2"
_cell_formula_units_Z 56
_cell_length_a 19.913430
_cell_length_b 12.584793
_cell_length_c 10.024790
_cell_angle_alpha 90.000000
_cell_angle_beta 87.812520
_cell_angle_gamma 90.000000
_cell_volume 2510.445733
_symmetry_space_group_name_H-M "C 2/C"
_symmetry_group_IT_number 15
_symmetry_cell_setting 'monoclinic'
loop_
_space_group_symop_operation_xyz
x,y,z
-x,y,1/2-z
-x,-y,-z
x,-y,1/2+z
1/2+x,1/2+y,z
1/2-x,1/2+y,1/2-z
1/2-x,1/2-y,-z
1/2+x,1/2-y,1/2+z
loop_
_atom_site_type_symbol
_atom_site_label
_atom_site_fract_x
_atom_site_fract_y
_atom_site_fract_z
Si Si1 0.782650 0.850383 0.846606
Si Si2 0.915469 0.034669 0.350556
Si Si3 0.569329 0.854920 0.481831
Si Si4 0.062991 0.418199 0.894968
Si Si5 0.955886 0.119709 0.066746
Si Si6 0.672224 0.868445 0.083258
Si Si7 0.671587 0.908428 0.675917
O O1 0.836689 0.942277 0.869975
O O2 0.823642 0.740629 0.836022
O O3 0.742737 0.855974 0.709347
O O4 0.728087 0.863445 0.964929
O O5 0.931475 0.042020 0.190155
O O6 0.962638 0.116915 0.430649
O O7 0.929448 0.920961 0.423412
O O8 0.510998 0.864513 0.601341
O O9 0.567394 0.740992 0.409206
O O10 0.644995 0.869583 0.534260
O O11 0.555990 0.952935 0.381452
O O12 0.111005 0.373341 0.777359
O O13 0.097504 0.386848 0.032739
O O14 0.686794 0.965687 0.181309
#
# Coordination Sequence:
#
# PCOD8138777 Si02
#       7
#     8   8   8   8   8   8   8
#     4  10  21  37  59  84 118 172 201 252 315 369
#     4  10  23  43  64  92 125 163 217 263 316 373
#     4  10  20  38  61  89 122 158 206 257 325 370
#     4   9  19  37  58  89 120 155 200 260 310 377
#     4  10  23  44  64  95 121 167 212 270 313 379
#     4   9  20  37  55  83 121 157 207 248 304 376
#     4  10  21  36  56  92 121 155 207 258 305 379
#
# _framework density 22.306797
#
# number of rings (size 3 to 8) (size 9 to 14) (size 15 to 20)
#    0.000    2.286    0.000    1.286    4.000    1.143 
#   20.571    0.714    0.000    0.000    0.000    0.000 
#    0.000    0.000    0.000    0.000    0.000    0.000 
#
# Total GULP energy -346927.759991 kJ/mol
# GULP energy per Si atom -12390.277143 kJ/mol
# Density = 2.225603 g / cm^3
# Si number density = 22.306797 Si / 1000 Ang^3
#
#
#
# Elastic Constant Matrix: (Units=GPa)
#
#
# Indices 1 2 3 4 5 6 
#
# 1 117.5288 33.1828 16.1289 0.0000 32.1548 0.0000
# 2 33.1828 90.9118 28.2678 0.0000 16.0177 0.0000
# 3 16.1289 28.2678 57.1713 0.0000 14.7783 0.0000
# 4 0.0000 0.0000 0.0000 21.8161 0.0000 2.8785
# 5 32.1548 16.0177 14.7783 0.0000 29.9367 0.0000
# 6 0.0000 0.0000 0.0000 2.8785 0.0000 28.7444
#
#
#
# Elastic Compliance Matrix: (Units=1/GPa)
#
#
# Indices 1 2 3 4 5 6 
#
# 1 0.012565 -0.002694 0.001035 0.000000 -0.012566 0.000000
# 2 -0.002694 0.014086 -0.005736 0.000000 -0.001811 0.000000
# 3 0.001035 -0.005736 0.022386 0.000000 -0.009094 0.000000
# 4 0.000000 0.000000 0.000000 0.046451 0.000000 -0.004652
# 5 -0.012566 -0.001811 -0.009094 0.000000 0.052359 0.000000
# 6 0.000000 0.000000 0.000000 -0.004652 0.000000 0.035255
#
#
# Mechanical properties :
#
#
# Convention : Reuss Voigt Hill
#
# Bulk Modulus (GPa) = 29.19998 46.75233 37.97616
# Shear Modulus (GPa) = 23.88825 28.63495 26.26160
#
# Velocity S-wave (km/s) = 3.27600 3.58674 3.43489
# Velocity P-wave (km/s) = 5.23719 6.17716 5.72649
#
# Compressibility (1/GPa) = 0.03424660
#
# Stress axis : x y z
#
# Youngs Moduli (GPa) = 79.58636 70.99346 44.67043
#
# Poissons Ratio (x) = 0.19127 -0.04625
# Poissons Ratio (y) = 0.21443 0.25625
# Poissons Ratio (z) = -0.08241 0.40725
#
# Static dielectric constant tensor:
#      x y z
#    x 4.249520 0.000000 0.243700 
#    y 0.000000 3.878600 0.000000 
#    z 0.243700 0.000000 3.778800 
# 
# 
# High freq. dielectric constant tensor:
#      x y z
#    x 1.890460 0.000000 0.012240 
#    y 0.000000 1.856510 0.000000 
#    z 0.012240 0.000000 1.857930 
# 
# From -- ./inp_files/111055.got.cif
#   From: 2010.06.25/outbox.cif.g09.slc.cpg/sg15_56_cif.got.tgz:111055.got - 2010.06.28 07:06:18.
