data_PCOD8138715
_publ_section_title
;
Structure prediction by ZEFSAII (Michael W. Deem and Ramdas Pophale) SiO2 
 PCOD8138715
Probable space group: C 2/C
;
_chemical_formula_sum "Si O2"
_cell_formula_units_Z 52
_cell_length_a 8.869605
_cell_length_b 25.119922
_cell_length_c 14.239497
_cell_angle_alpha 90.000000
_cell_angle_beta 52.316629
_cell_angle_gamma 90.000000
_cell_volume 2510.809713
_symmetry_space_group_name_H-M "C 2/C"
_symmetry_group_IT_number 15
_symmetry_cell_setting 'monoclinic'
loop_
_space_group_symop_operation_xyz
x,y,z
-x,y,1/2-z
-x,-y,-z
x,-y,1/2+z
1/2+x,1/2+y,z
1/2-x,1/2+y,1/2-z
1/2-x,1/2-y,-z
1/2+x,1/2-y,1/2+z
loop_
_atom_site_type_symbol
_atom_site_label
_atom_site_fract_x
_atom_site_fract_y
_atom_site_fract_z
Si Si1 0.000000 0.193609 0.750000
Si Si2 0.668805 0.896714 0.246061
Si Si3 0.840451 0.211233 0.624656
Si Si4 0.292036 0.171190 0.129665
Si Si5 0.545283 0.558003 0.521266
Si Si6 0.317303 0.884418 0.052015
Si Si7 0.485015 0.352044 0.603070
O O1 0.925765 0.229650 0.693187
O O2 0.846808 0.156780 0.859975
O O3 0.500000 0.922982 0.250000
O O4 0.683577 0.834032 0.209708
O O5 0.613409 0.908311 0.374959
O O6 0.868522 0.924528 0.151953
O O7 0.770177 0.266662 0.607671
O O8 0.993257 0.188060 0.492980
O O9 0.191112 0.166041 0.267849
O O10 0.179305 0.141497 0.089143
O O11 0.504028 0.147623 0.060212
O O12 0.500000 0.500000 0.500000
O O13 0.735669 0.569317 0.512816
O O14 0.565310 0.590555 0.417936
#
# Coordination Sequence:
#
# PCOD8138715 Si02
#       7
#     4   8   8   8   8   8   8
#     4  10  20  38  60  92 130 162 222 264 314 380
#     4  10  21  41  68  99 127 168 226 269 313 402
#     4  10  21  37  65  93 134 179 210 256 323 389
#     4  11  25  37  66  95 138 175 211 262 334 387
#     4  11  23  46  69  89 127 169 220 286 343 378
#     4  11  20  42  65  95 127 168 214 273 319 389
#     4  10  23  45  56  99 137 167 221 272 313 398
#
# _framework density 20.710450999999999
#
# number of rings (size 3 to 8) (size 9 to 14) (size 15 to 20)
#    0.000    1.538    4.615    2.308    6.462    2.462 
#    8.308    1.538    0.000    0.000    0.000    0.000 
#    0.000    0.000    0.000    0.000    0.000    0.000 
#
# Total GULP energy -322122.876369 kJ/mol
# GULP energy per Si atom -12389.341399 kJ/mol
# Density = 2.066331 g / cm^3
# Si number density = 20.710451 Si / 1000 Ang^3
#
#
#
# Elastic Constant Matrix: (Units=GPa)
#
#
# Indices 1 2 3 4 5 6 
#
# 1 123.5120 41.8503 49.0805 0.0000 10.0263 0.0000
# 2 41.8503 110.4209 41.6375 0.0000 5.6469 0.0000
# 3 49.0805 41.6375 121.3489 0.0000 4.3519 0.0000
# 4 0.0000 0.0000 0.0000 9.8619 0.0000 6.1862
# 5 10.0263 5.6469 4.3519 0.0000 41.1153 0.0000
# 6 0.0000 0.0000 0.0000 6.1862 0.0000 15.8880
#
#
#
# Elastic Compliance Matrix: (Units=1/GPa)
#
#
# Indices 1 2 3 4 5 6 
#
# 1 0.010429 -0.002634 -0.003248 0.000000 -0.001838 0.000000
# 2 -0.002634 0.011113 -0.002727 0.000000 -0.000595 0.000000
# 3 -0.003248 -0.002727 0.010488 0.000000 0.000056 0.000000
# 4 0.000000 0.000000 0.000000 0.134169 0.000000 -0.052240
# 5 -0.001838 -0.000595 0.000056 0.000000 0.024846 0.000000
# 6 0.000000 0.000000 0.000000 -0.052240 0.000000 0.083281
#
#
# Mechanical properties :
#
#
# Convention : Reuss Voigt Hill
#
# Bulk Modulus (GPa) = 67.51037 68.93536 68.22286
# Shear Modulus (GPa) = 16.86450 28.22060 22.54255
#
# Velocity S-wave (km/s) = 2.85669 3.69538 3.30276
# Velocity P-wave (km/s) = 6.59916 7.18090 6.89617
#
# Compressibility (1/GPa) = 0.01481254
#
# Stress axis : x y z
#
# Youngs Moduli (GPa) = 95.88854 89.98456 95.34647
#
# Poissons Ratio (x) = 0.23699 0.30973
# Poissons Ratio (y) = 0.25254 0.25997
# Poissons Ratio (z) = 0.31149 0.24535
#
# Static dielectric constant tensor:
#      x y z
#    x 4.099330 0.000000 0.325630 
#    y 0.000000 3.536710 0.000000 
#    z 0.325630 0.000000 3.908530 
# 
# 
# High freq. dielectric constant tensor:
#      x y z
#    x 1.821280 0.000000 0.013660 
#    y 0.000000 1.771330 0.000000 
#    z 0.013660 0.000000 1.819980 
# 
# From -- ./inp_files/138462.got.cif
#   From: 2010.06.25/outbox.cif.g09.slc.cpg/sg15_70_cif.got.tgz:138462.got - 2010.06.28 07:06:18.
