data_PCOD8138105
_publ_section_title
;
Structure prediction by ZEFSAII (Michael W. Deem and Ramdas Pophale) SiO2 
 PCOD8138105
Probable space group: C 2/C
;
_chemical_formula_sum "Si O2"
_cell_formula_units_Z 64
_cell_length_a 8.154876
_cell_length_b 24.498092
_cell_length_c 20.102137
_cell_angle_alpha 90.000000
_cell_angle_beta 47.783548
_cell_angle_gamma 90.000000
_cell_volume 2974.283846
_symmetry_space_group_name_H-M "C 2/C"
_symmetry_group_IT_number 15
_symmetry_cell_setting 'monoclinic'
loop_
_space_group_symop_operation_xyz
x,y,z
-x,y,1/2-z
-x,-y,-z
x,-y,1/2+z
1/2+x,1/2+y,z
1/2-x,1/2+y,1/2-z
1/2-x,1/2-y,-z
1/2+x,1/2-y,1/2+z
loop_
_atom_site_type_symbol
_atom_site_label
_atom_site_fract_x
_atom_site_fract_y
_atom_site_fract_z
Si Si1 0.112708 0.663301 0.573887
Si Si2 0.751339 0.686262 0.479899
Si Si3 0.495172 0.445049 0.328431
Si Si4 0.297740 0.650946 0.660259
Si Si5 0.559401 0.432429 0.660542
Si Si6 0.759222 0.233186 0.785412
Si Si7 0.577722 0.666987 0.389039
Si Si8 0.032145 0.403718 0.499541
O O1 0.112847 0.648642 0.652951
O O2 0.343070 0.687662 0.483181
O O3 0.913290 0.705682 0.615892
O O4 0.047782 0.608722 0.553361
O O5 0.750000 0.750000 0.500000
O O6 0.529707 0.657380 0.561983
O O7 0.763577 0.674477 0.396818
O O8 0.947326 0.652865 0.463381
O O9 0.500000 0.428376 0.250000
O O10 0.689566 0.406941 0.305253
O O11 0.552423 0.508669 0.321742
O O12 0.261237 0.436234 0.430485
O O13 0.253586 0.704585 0.715881
O O14 0.500000 0.410548 0.750000
O O15 0.454903 0.393329 0.632229
O O16 0.828253 0.438016 0.585987
O O17 0.670148 0.295229 0.803714
O O18 0.000000 0.226902 0.750000
#
# Coordination Sequence:
#
# PCOD8138105 Si02
#       8
#     8   8   8   8   8   8   8   8
#     4  10  21  38  58  86 120 151 190 243 302 358
#     4  10  20  37  59  85 118 155 194 244 299 356
#     4  10  20  39  63  87 118 154 201 254 301 353
#     4  10  21  35  58  90 115 146 193 247 301 351
#     4  10  23  40  59  85 120 163 203 247 296 355
#     4  12  22  35  58  87 119 153 192 243 300 361
#     4  10  23  40  57  84 121 161 200 240 295 364
#     4  10  20  38  62  86 117 157 201 246 302 362
#
# _framework density 21.517786000000001
#
# number of rings (size 3 to 8) (size 9 to 14) (size 15 to 20)
#    0.000    1.750    0.000    5.250    0.000    6.000 
#    0.000   12.500    0.000    4.500    0.000    0.000 
#    0.000    0.000    0.000    0.000    0.000    0.000 
#
# Total GULP energy -396559.421906 kJ/mol
# GULP energy per Si atom -12392.481935 kJ/mol
# Density = 2.146881 g / cm^3
# Si number density = 21.517786 Si / 1000 Ang^3
#
#
#
# Elastic Constant Matrix: (Units=GPa)
#
#
# Indices 1 2 3 4 5 6 
#
# 1 103.3508 48.6600 34.7834 0.0000 7.7133 0.0000
# 2 48.6600 117.6660 32.6586 0.0000 15.1528 0.0000
# 3 34.7834 32.6586 82.3759 0.0000 11.2164 0.0000
# 4 0.0000 0.0000 0.0000 33.2685 0.0000 0.3824
# 5 7.7133 15.1528 11.2164 0.0000 28.1963 0.0000
# 6 0.0000 0.0000 0.0000 0.3824 0.0000 24.8848
#
#
#
# Elastic Compliance Matrix: (Units=1/GPa)
#
#
# Indices 1 2 3 4 5 6 
#
# 1 0.012980 -0.004353 -0.003796 0.000000 0.000298 0.000000
# 2 -0.004353 0.011418 -0.002131 0.000000 -0.004098 0.000000
# 3 -0.003796 -0.002131 0.015108 0.000000 -0.003826 0.000000
# 4 0.000000 0.000000 0.000000 0.030064 0.000000 -0.000462
# 5 0.000298 -0.004098 -0.003826 0.000000 0.039108 0.000000
# 6 0.000000 0.000000 0.000000 -0.000462 0.000000 0.040192
#
#
# Mechanical properties :
#
#
# Convention : Reuss Voigt Hill
#
# Bulk Modulus (GPa) = 52.77791 59.51074 56.14432
# Shear Modulus (GPa) = 28.45023 29.75597 29.10310
#
# Velocity S-wave (km/s) = 3.64011 3.72271 3.68164
# Velocity P-wave (km/s) = 6.49985 6.79667 6.64991
#
# Compressibility (1/GPa) = 0.01894732
#
# Stress axis : x y z
#
# Youngs Moduli (GPa) = 77.03869 87.58247 66.18973
#
# Poissons Ratio (x) = 0.38123 0.25125
# Poissons Ratio (y) = 0.33534 0.14103
# Poissons Ratio (z) = 0.29243 0.18662
#
# Static dielectric constant tensor:
#      x y z
#    x 4.145500 0.000000 0.022140 
#    y 0.000000 3.756470 0.000000 
#    z 0.022140 0.000000 4.109220 
# 
# 
# High freq. dielectric constant tensor:
#      x y z
#    x 1.837340 0.000000 -0.002700 
#    y 0.000000 1.828340 0.000000 
#    z -0.002700 0.000000 1.858670 
# 
# From -- ./inp_files/234441.got.cif
#   From: 2010.06.25/outbox.cif.g09.slc.cpg/sg15_118_cif.got.tgz:234441.got - 2010.06.28 07:06:18.
