data_PCOD8138741
_publ_section_title
;
Structure prediction by ZEFSAII (Michael W. Deem and Ramdas Pophale) SiO2 
 PCOD8138741
Probable space group: C 2/C
;
_chemical_formula_sum "Si O2"
_cell_formula_units_Z 64
_cell_length_a 25.676956
_cell_length_b 11.511713
_cell_length_c 10.361971
_cell_angle_alpha 90.000000
_cell_angle_beta 90.481423
_cell_angle_gamma 90.000000
_cell_volume 3062.742832
_symmetry_space_group_name_H-M "C 2/C"
_symmetry_group_IT_number 15
_symmetry_cell_setting 'monoclinic'
loop_
_space_group_symop_operation_xyz
x,y,z
-x,y,1/2-z
-x,-y,-z
x,-y,1/2+z
1/2+x,1/2+y,z
1/2-x,1/2+y,1/2-z
1/2-x,1/2-y,-z
1/2+x,1/2-y,1/2+z
loop_
_atom_site_type_symbol
_atom_site_label
_atom_site_fract_x
_atom_site_fract_y
_atom_site_fract_z
Si Si1 0.652771 0.136588 0.130431
Si Si2 0.366745 0.277972 0.898692
Si Si3 0.692527 0.496434 0.050614
Si Si4 0.023560 0.333877 0.110064
Si Si5 0.720895 0.686527 0.733836
Si Si6 0.290707 0.091161 0.952000
Si Si7 0.036631 0.397320 0.630696
Si Si8 0.819976 0.221073 0.114579
O O1 0.682731 0.203132 0.246062
O O2 0.593970 0.134988 0.177212
O O3 0.678377 0.010210 0.119895
O O4 0.651858 0.204147 0.994370
O O5 0.352280 0.405795 0.950282
O O6 0.427993 0.252400 0.915335
O O7 0.333867 0.187556 0.987143
O O8 0.351439 0.265026 0.748216
O O9 0.686620 0.420395 0.179421
O O10 0.752651 0.545255 0.064226
O O11 0.684615 0.415118 0.924193
O O12 0.040982 0.466730 0.099162
O O13 0.000000 0.304077 0.250000
O O14 0.981140 0.320571 0.994056
O O15 0.746431 0.655232 0.867518
O O16 0.762864 0.723930 0.626806
O O17 0.000000 0.369800 0.750000
#
# Coordination Sequence:
#
# PCOD8138741 Si02
#       8
#     8   8   8   8   8   8   8   8
#     4  11  19  39  62  84 122 171 202 247 319 377
#     4  11  23  36  59  92 119 159 206 261 320 366
#     4  11  20  37  53  84 129 156 202 248 299 378
#     4  10  21  41  62  90 123 163 213 270 319 376
#     4  10  21  34  59  83 121 164 203 241 295 387
#     4  11  21  35  54  90 120 157 198 248 307 381
#     4  10  22  39  62  91 126 161 216 271 316 368
#     4  10  20  38  61  83 120 172 204 239 311 395
#
# _framework density 20.896303
#
# number of rings (size 3 to 8) (size 9 to 14) (size 15 to 20)
#    0.000    1.500    3.750    2.625    1.750    1.000 
#    2.250    0.000    0.000    9.750    0.000    0.000 
#    0.000    0.000    0.000    0.000    0.000    0.000 
#
# Total GULP energy -396625.611185 kJ/mol
# GULP energy per Si atom -12394.550350 kJ/mol
# Density = 2.084874 g / cm^3
# Si number density = 20.896303 Si / 1000 Ang^3
#
#
#
# Elastic Constant Matrix: (Units=GPa)
#
#
# Indices 1 2 3 4 5 6 
#
# 1 127.4565 37.7901 10.8558 0.0000 -10.2013 0.0000
# 2 37.7901 103.5491 6.5619 0.0000 -5.8911 0.0000
# 3 10.8558 6.5619 46.8037 0.0000 0.2906 0.0000
# 4 0.0000 0.0000 0.0000 20.8393 0.0000 -3.0207
# 5 -10.2013 -5.8911 0.2906 0.0000 27.8066 0.0000
# 6 0.0000 0.0000 0.0000 -3.0207 0.0000 32.7889
#
#
#
# Elastic Compliance Matrix: (Units=1/GPa)
#
#
# Indices 1 2 3 4 5 6 
#
# 1 0.009117 -0.003065 -0.001702 0.000000 0.002713 0.000000
# 2 -0.003065 0.010896 -0.000824 0.000000 0.001193 0.000000
# 3 -0.001702 -0.000824 0.021882 0.000000 -0.001028 0.000000
# 4 0.000000 0.000000 0.000000 0.048636 0.000000 0.004481
# 5 0.002713 0.001193 -0.001028 0.000000 0.037221 0.000000
# 6 0.000000 0.000000 0.000000 0.004481 0.000000 0.030911
#
#
# Mechanical properties :
#
#
# Convention : Reuss Voigt Hill
#
# Bulk Modulus (GPa) = 32.55898 43.13610 37.84754
# Shear Modulus (GPa) = 27.76511 31.12707 29.44609
#
# Velocity S-wave (km/s) = 3.64910 3.86372 3.75794
# Velocity P-wave (km/s) = 5.77664 6.37120 6.08119
#
# Compressibility (1/GPa) = 0.03071349
#
# Stress axis : x y z
#
# Youngs Moduli (GPa) = 109.68971 91.77795 45.69878
#
# Poissons Ratio (x) = 0.28129 0.07776
# Poissons Ratio (y) = 0.33619 0.03766
# Poissons Ratio (z) = 0.18666 0.07564
#
# Static dielectric constant tensor:
#      x y z
#    x 3.725320 0.000000 -0.025310 
#    y 0.000000 3.939310 0.000000 
#    z -0.025310 0.000000 3.627350 
# 
# 
# High freq. dielectric constant tensor:
#      x y z
#    x 1.801210 0.000000 -0.000860 
#    y 0.000000 1.816640 0.000000 
#    z -0.000860 0.000000 1.815040 
# 
# From -- ./inp_files/117550.got.cif
#   From: 2010.06.25/outbox.cif.g09.slc.cpg/sg15_59_cif.got.tgz:117550.got - 2010.06.28 07:06:18.
