data_PCOD8138939
_publ_section_title
;
Structure prediction by ZEFSAII (Michael W. Deem and Ramdas Pophale) SiO2 
 PCOD8138939
Probable space group: C 2/C
;
_chemical_formula_sum "Si O2"
_cell_formula_units_Z 48
_cell_length_a 8.708915
_cell_length_b 17.936999
_cell_length_c 28.847090
_cell_angle_alpha 90.000000
_cell_angle_beta 146.088292
_cell_angle_gamma 90.000000
_cell_volume 2514.106398
_symmetry_space_group_name_H-M "C 2/C"
_symmetry_group_IT_number 15
_symmetry_cell_setting 'monoclinic'
loop_
_space_group_symop_operation_xyz
x,y,z
-x,y,1/2-z
-x,-y,-z
x,-y,1/2+z
1/2+x,1/2+y,z
1/2-x,1/2+y,1/2-z
1/2-x,1/2-y,-z
1/2+x,1/2-y,1/2+z
loop_
_atom_site_type_symbol
_atom_site_label
_atom_site_fract_x
_atom_site_fract_y
_atom_site_fract_z
Si Si1 0.678683 0.095970 0.841702
Si Si2 0.747958 0.565656 0.153862
Si Si3 0.373555 0.921510 0.983119
Si Si4 0.175082 0.216595 0.095704
Si Si5 0.790147 0.812692 0.047353
Si Si6 0.100877 0.665493 0.917951
O O1 0.500000 0.103344 0.750000
O O2 0.532630 0.134067 0.849581
O O3 0.971986 0.131479 0.906020
O O4 0.751810 0.011046 0.875301
O O5 0.456278 0.577356 0.106984
O O6 0.823232 0.638631 0.143133
O O7 0.000000 0.553087 0.250000
O O8 0.505765 0.858400 0.983389
O O9 0.438570 0.899825 0.053166
O O10 0.500000 0.000000 0.000000
O O11 0.374263 0.269098 0.115518
O O12 0.097657 0.263485 0.122526
O O13 0.908427 0.197619 0.997650
O O14 0.750000 0.750000 0.000000
#
# Coordination Sequence:
#
# PCOD8138939 Si02
#       6
#     8   8   8   8   8   8
#     4  11  23  38  58  87 125 159 198 248 303 356
#     4  10  22  38  59  85 122 155 198 244 304 352
#     4  10  20  38  63  87 115 160 201 242 294 356
#     4   9  19  36  60  85 113 153 201 246 292 355
#     4  11  21  37  60  89 118 150 204 249 290 354
#     4   9  19  36  60  88 115 155 200 243 295 358
#
# _framework density 19.092269999999999
#
# number of rings (size 3 to 8) (size 9 to 14) (size 15 to 20)
#    0.000    2.000    3.333    1.000    0.000    5.333 
#    0.000    2.500    0.000    2.000    0.000    0.000 
#    0.000    0.000    0.000    0.000    0.000    0.000 
#
# Total GULP energy -297361.360681 kJ/mol
# GULP energy per Si atom -12390.056695 kJ/mol
# Density = 1.904881 g / cm^3
# Si number density = 19.092270 Si / 1000 Ang^3
#
#
#
# Elastic Constant Matrix: (Units=GPa)
#
#
# Indices 1 2 3 4 5 6 
#
# 1 98.8080 58.8999 33.3465 0.0001 -14.8693 -0.0003
# 2 58.8999 161.7060 33.7456 -0.0009 -12.3667 -0.0002
# 3 33.3465 33.7456 57.8382 0.0007 -1.6336 -0.0018
# 4 0.0001 -0.0009 0.0007 24.6872 0.0004 -2.5430
# 5 -14.8693 -12.3667 -1.6336 0.0004 22.9166 -0.0004
# 6 -0.0003 -0.0002 -0.0018 -2.5430 -0.0004 27.7899
#
#
#
# Elastic Compliance Matrix: (Units=1/GPa)
#
#
# Indices 1 2 3 4 5 6 
#
# 1 0.015784 -0.003762 -0.006687 0.000000 0.007734 0.000000
# 2 -0.003762 0.008232 -0.002583 0.000000 0.001817 0.000000
# 3 -0.006687 -0.002583 0.022535 0.000000 -0.004126 0.000001
# 4 0.000000 0.000000 0.000000 0.040892 -0.000001 0.003742
# 5 0.007734 0.001817 -0.004126 -0.000001 0.049341 0.000000
# 6 0.000000 0.000000 0.000001 0.003742 0.000000 0.036327
#
#
# Mechanical properties :
#
#
# Convention : Reuss Voigt Hill
#
# Bulk Modulus (GPa) = 48.80862 63.37071 56.08966
# Shear Modulus (GPa) = 24.27133 27.90277 26.08705
#
# Velocity S-wave (km/s) = 3.56935 3.82706 3.70045
# Velocity P-wave (km/s) = 6.52741 7.26584 6.90650
#
# Compressibility (1/GPa) = 0.02048819
#
# Stress axis : x y z
#
# Youngs Moduli (GPa) = 63.35567 121.47152 44.37513
#
# Poissons Ratio (x) = 0.45700 0.29672
# Poissons Ratio (y) = 0.23836 0.11461
# Poissons Ratio (z) = 0.42364 0.31373
#
# Static dielectric constant tensor:
#      x y z
#    x 3.653590 0.000000 0.069660 
#    y 0.000000 4.393260 0.000030 
#    z 0.069660 0.000030 2.825390 
# 
# 
# High freq. dielectric constant tensor:
#      x y z
#    x 1.738510 0.000000 0.007780 
#    y 0.000000 1.774380 0.000000 
#    z 0.007780 0.000000 1.702080 
# 
# From -- ./inp_files/189971.got.cif
#   From: 2010.06.25/outbox.cif.g09.slc.cpg/sg15_95_cif.got.tgz:189971.got - 2010.06.28 07:06:18.
