data_PCOD8138278
_publ_section_title
;
Structure prediction by ZEFSAII (Michael W. Deem and Ramdas Pophale) SiO2 
 PCOD8138278
Probable space group: C 2/C
;
_chemical_formula_sum "Si O2"
_cell_formula_units_Z 44
_cell_length_a 10.487788
_cell_length_b 13.257513
_cell_length_c 16.023848
_cell_angle_alpha 90.000000
_cell_angle_beta 61.442654
_cell_angle_gamma 90.000000
_cell_volume 1956.928653
_symmetry_space_group_name_H-M "C 2/C"
_symmetry_group_IT_number 15
_symmetry_cell_setting 'monoclinic'
loop_
_space_group_symop_operation_xyz
x,y,z
-x,y,1/2-z
-x,-y,-z
x,-y,1/2+z
1/2+x,1/2+y,z
1/2-x,1/2+y,1/2-z
1/2-x,1/2-y,-z
1/2+x,1/2-y,1/2+z
loop_
_atom_site_type_symbol
_atom_site_label
_atom_site_fract_x
_atom_site_fract_y
_atom_site_fract_z
Si Si1 0.952894 0.328235 0.648126
Si Si2 0.415982 0.456130 0.946310
Si Si3 0.414800 0.020807 0.941759
Si Si4 0.971450 0.270215 0.461289
Si Si5 0.696105 0.273401 0.165334
Si Si6 0.000000 0.049124 0.750000
O O1 0.010877 0.442483 0.645589
O O2 0.899162 0.303629 0.571670
O O3 0.085445 0.252356 0.625607
O O4 0.821234 0.306596 0.752997
O O5 0.404140 0.334604 0.952850
O O6 0.496798 0.481984 0.834743
O O7 0.500000 0.500000 0.000000
O O8 0.255690 0.504237 0.996154
O O9 0.435460 0.138298 0.907814
O O10 0.500000 0.000000 0.000000
O O11 0.143591 0.265507 0.419615
O O12 0.648394 0.385052 0.210599
#
# Coordination Sequence:
#
# PCOD8138278 Si02
#       6
#     8   8   8   8   8   4
#     4   9  19  38  61  88 120 164 213 250 301 373
#     4  12  24  41  66  94 125 168 212 257 311 373
#     4  10  22  41  64  87 125 169 204 254 321 372
#     4  11  22  37  61  91 127 160 199 259 321 370
#     4  10  20  37  62  89 119 164 213 257 296 365
#     4  10  22  40  62  92 128 166 212 258 306 374
#
# _framework density 22.484213
#
# number of rings (size 3 to 8) (size 9 to 14) (size 15 to 20)
#    0.000    1.818    0.000    6.545    0.000    4.364 
#    0.000    7.273    0.000    0.000    0.000    0.000 
#    0.000    0.000    0.000    0.000    0.000    0.000 
#
# Total GULP energy -272690.854986 kJ/mol
# GULP energy per Si atom -12395.038863 kJ/mol
# Density = 2.243304 g / cm^3
# Si number density = 22.484213 Si / 1000 Ang^3
#
#
#
# Elastic Constant Matrix: (Units=GPa)
#
#
# Indices 1 2 3 4 5 6 
#
# 1 83.0666 5.8115 12.7926 0.0000 1.1978 0.0000
# 2 5.8115 156.5708 40.5297 0.0000 20.0091 0.0000
# 3 12.7926 40.5297 85.8425 0.0000 23.7836 0.0000
# 4 0.0000 0.0000 0.0000 32.0842 0.0000 -1.3238
# 5 1.1978 20.0091 23.7836 0.0000 23.1204 0.0000
# 6 0.0000 0.0000 0.0000 -1.3238 0.0000 24.2626
#
#
#
# Elastic Compliance Matrix: (Units=1/GPa)
#
#
# Indices 1 2 3 4 5 6 
#
# 1 0.012373 -0.000095 -0.002300 0.000000 0.001807 0.000000
# 2 -0.000095 0.007532 -0.002430 0.000000 -0.004014 0.000000
# 3 -0.002300 -0.002430 0.017516 0.000000 -0.015796 0.000000
# 4 0.000000 0.000000 0.000000 0.031238 0.000000 0.001704
# 5 0.001807 -0.004014 -0.015796 0.000000 0.062881 0.000000
# 6 0.000000 0.000000 0.000000 0.001704 0.000000 0.041309
#
#
# Mechanical properties :
#
#
# Convention : Reuss Voigt Hill
#
# Bulk Modulus (GPa) = 36.00725 49.30528 42.65627
# Shear Modulus (GPa) = 26.07475 33.64985 29.86230
#
# Velocity S-wave (km/s) = 3.40912 3.87279 3.64833
# Velocity P-wave (km/s) = 5.61652 6.47877 6.06299
#
# Compressibility (1/GPa) = 0.02777218
#
# Stress axis : x y z
#
# Youngs Moduli (GPa) = 80.81932 132.75906 57.09159
#
# Poissons Ratio (x) = 0.01259 0.13129
# Poissons Ratio (y) = 0.00767 0.13874
# Poissons Ratio (z) = 0.18586 0.32262
#
# Static dielectric constant tensor:
#      x y z
#    x 3.762000 0.000000 -0.056980 
#    y 0.000000 4.754160 0.000000 
#    z -0.056980 0.000000 3.995960 
# 
# 
# High freq. dielectric constant tensor:
#      x y z
#    x 1.868260 0.000000 -0.006810 
#    y 0.000000 1.904190 0.000000 
#    z -0.006810 0.000000 1.872100 
# 
# From -- ./inp_files/196441.got.cif
#   From: 2010.06.25/outbox.cif.g09.slc.cpg/sg15_99_cif.got.tgz:196441.got - 2010.06.28 07:06:18.
