data_PCOD8138674
_publ_section_title
;
Structure prediction by ZEFSAII (Michael W. Deem and Ramdas Pophale) SiO2 
 PCOD8138674
Probable space group: C 2/C
;
_chemical_formula_sum "Si O2"
_cell_formula_units_Z 64
_cell_length_a 12.097922
_cell_length_b 15.800947
_cell_length_c 25.438099
_cell_angle_alpha 90.000000
_cell_angle_beta 39.888928
_cell_angle_gamma 90.000000
_cell_volume 3118.463876
_symmetry_space_group_name_H-M "C 2/C"
_symmetry_group_IT_number 15
_symmetry_cell_setting 'monoclinic'
loop_
_space_group_symop_operation_xyz
x,y,z
-x,y,1/2-z
-x,-y,-z
x,-y,1/2+z
1/2+x,1/2+y,z
1/2-x,1/2+y,1/2-z
1/2-x,1/2-y,-z
1/2+x,1/2-y,1/2+z
loop_
_atom_site_type_symbol
_atom_site_label
_atom_site_fract_x
_atom_site_fract_y
_atom_site_fract_z
Si Si1 0.872710 0.964767 0.388893
Si Si2 0.416692 0.057316 0.576393
Si Si3 0.381159 0.819947 0.841380
Si Si4 0.767993 0.695850 0.164979
Si Si5 0.402170 0.767026 0.114807
Si Si6 0.924364 0.578445 0.424903
Si Si7 0.043363 0.156693 0.150890
Si Si8 0.880659 0.178690 0.701799
O O1 0.788067 0.946595 0.362032
O O2 0.751374 0.925418 0.478093
O O3 0.056108 0.917760 0.325710
O O4 0.897662 0.064237 0.388646
O O5 0.488999 0.154310 0.551453
O O6 0.500000 0.000000 0.500000
O O7 0.472038 0.011251 0.610585
O O8 0.500000 0.849489 0.750000
O O9 0.188663 0.798539 0.891852
O O10 0.374242 0.898956 0.883650
O O11 0.457581 0.737890 0.842321
O O12 0.680426 0.700158 0.140024
O O13 0.642886 0.649174 0.253006
O O14 0.801599 0.790625 0.174800
O O15 0.948952 0.647714 0.095410
O O16 0.536518 0.715718 0.101605
O O17 0.260853 0.816029 0.201275
#
# Coordination Sequence:
#
# PCOD8138674 Si02
#       8
#     8   8   8   8   8   8   8   8
#     4  11  21  36  59  94 118 148 202 251 297 352
#     4  10  21  37  57  88 118 150 199 245 288 351
#     4   9  18  36  59  84 114 155 200 244 298 354
#     4   9  19  36  57  88 121 158 199 242 303 354
#     4  10  20  38  60  85 122 157 202 244 294 356
#     4  10  21  37  59  88 121 151 196 252 299 352
#     4  10  21  36  60  88 122 162 195 247 300 357
#     4   9  19  34  60  91 116 149 203 248 293 348
#
# _framework density 20.522925000000001
#
# number of rings (size 3 to 8) (size 9 to 14) (size 15 to 20)
#    0.000    2.250    2.500    0.750    1.750    2.000 
#    0.000    4.375    2.750    0.000    0.000    0.000 
#    0.000    0.000    0.000    0.000    0.000    0.000 
#
# Total GULP energy -396645.608499 kJ/mol
# GULP energy per Si atom -12395.175266 kJ/mol
# Density = 2.047621 g / cm^3
# Si number density = 20.522925 Si / 1000 Ang^3
#
#
#
# Elastic Constant Matrix: (Units=GPa)
#
#
# Indices 1 2 3 4 5 6 
#
# 1 145.4006 78.0917 31.8110 0.0003 13.5550 0.0000
# 2 78.0917 120.0481 29.8448 -0.0002 11.8629 0.0001
# 3 31.8110 29.8448 45.2679 -0.0012 3.7145 -0.0003
# 4 0.0003 -0.0002 -0.0012 27.1238 -0.0001 -1.8705
# 5 13.5550 11.8629 3.7145 -0.0001 21.7608 0.0001
# 6 0.0000 0.0001 -0.0003 -1.8705 0.0001 39.6793
#
#
#
# Elastic Compliance Matrix: (Units=1/GPa)
#
#
# Indices 1 2 3 4 5 6 
#
# 1 0.011233 -0.006106 -0.003618 0.000000 -0.003051 0.000000
# 2 -0.006106 0.013710 -0.004510 0.000000 -0.002901 0.000000
# 3 -0.003618 -0.004510 0.027606 0.000001 0.000000 0.000000
# 4 0.000000 0.000000 0.000001 0.036988 0.000000 0.001744
# 5 -0.003051 -0.002901 0.000000 0.000000 0.049436 0.000000
# 6 0.000000 0.000000 0.000000 0.001744 0.000000 0.025284
#
#
# Mechanical properties :
#
#
# Convention : Reuss Voigt Hill
#
# Bulk Modulus (GPa) = 41.52512 65.57908 53.55210
# Shear Modulus (GPa) = 24.90638 29.11074 27.00856
#
# Velocity S-wave (km/s) = 3.48744 3.77032 3.63163
# Velocity P-wave (km/s) = 6.04101 7.13983 6.61328
#
# Compressibility (1/GPa) = 0.02408181
#
# Stress axis : x y z
#
# Youngs Moduli (GPa) = 89.02366 72.93986 36.22377
#
# Poissons Ratio (x) = 0.44539 0.13104
# Poissons Ratio (y) = 0.54360 0.16336
# Poissons Ratio (z) = 0.32205 0.32894
#
# Static dielectric constant tensor:
#      x y z
#    x 4.052390 0.000000 -0.051150 
#    y 0.000000 3.724040 0.000000 
#    z -0.051150 0.000000 3.510920 
# 
# 
# High freq. dielectric constant tensor:
#      x y z
#    x 1.800240 0.000000 -0.005200 
#    y 0.000000 1.786600 0.000000 
#    z -0.005200 0.000000 1.786020 
# 
# From -- ./inp_files/293033.got.cif
#   From: 2010.06.25/outbox.cif.g09.slc.cpg/sg15_147_cif.got.tgz:293033.got - 2010.06.28 07:06:18.
