data_PCOD8138046
_publ_section_title
;
Structure prediction by ZEFSAII (Michael W. Deem and Ramdas Pophale) SiO2 
 PCOD8138046
Probable space group: C 2/C
;
_chemical_formula_sum "Si O2"
_cell_formula_units_Z 44
_cell_length_a 11.178440
_cell_length_b 19.417206
_cell_length_c 14.693878
_cell_angle_alpha 90.000000
_cell_angle_beta 139.048599
_cell_angle_gamma 90.000000
_cell_volume 2090.369960
_symmetry_space_group_name_H-M "C 2/C"
_symmetry_group_IT_number 15
_symmetry_cell_setting 'monoclinic'
loop_
_space_group_symop_operation_xyz
x,y,z
-x,y,1/2-z
-x,-y,-z
x,-y,1/2+z
1/2+x,1/2+y,z
1/2-x,1/2+y,1/2-z
1/2-x,1/2-y,-z
1/2+x,1/2-y,1/2+z
loop_
_atom_site_type_symbol
_atom_site_label
_atom_site_fract_x
_atom_site_fract_y
_atom_site_fract_z
Si Si1 0.662341 0.448480 0.561955
Si Si2 0.602694 0.292412 0.474347
Si Si3 0.304756 0.597119 0.233412
Si Si4 0.500000 0.840180 0.250000
Si Si5 0.732101 0.434553 0.983071
Si Si6 0.712993 0.747672 0.232062
O O1 0.500000 0.500000 0.500000
O O2 0.620067 0.375435 0.489484
O O3 0.779741 0.434591 0.721642
O O4 0.770814 0.490056 0.547105
O O5 0.750000 0.250000 0.500000
O O6 0.600403 0.263169 0.575178
O O7 0.407311 0.279692 0.316614
O O8 0.217137 0.560486 0.094902
O O9 0.523393 0.590558 0.367850
O O10 0.253333 0.676670 0.195577
O O11 0.647363 0.883180 0.389699
O O12 0.602654 0.796079 0.234807
#
# Coordination Sequence:
#
# PCOD8138046 Si02
#       6
#     8   8   8   4   8   8
#     4   9  19  40  62  86 124 170 213 261 320 385
#     4  11  24  44  64  92 130 173 218 262 329 395
#     4   9  19  37  62  84 121 168 203 250 332 380
#     4  12  22  36  62 102 126 156 216 276 324 376
#     4  10  20  37  57  93 122 161 205 261 319 382
#     4  11  22  39  65  93 130 164 212 270 322 390
#
# _framework density 21.048907
#
# number of rings (size 3 to 8) (size 9 to 14) (size 15 to 20)
#    0.000    1.818    0.000    6.000    0.000    2.182 
#   22.909    0.909    0.000    0.000    0.000    0.000 
#    0.000    0.000    0.000    0.000    0.000    0.000 
#
# Total GULP energy -272593.086267 kJ/mol
# GULP energy per Si atom -12390.594830 kJ/mol
# Density = 2.100100 g / cm^3
# Si number density = 21.048907 Si / 1000 Ang^3
#
#
#
# Elastic Constant Matrix: (Units=GPa)
#
#
# Indices 1 2 3 4 5 6 
#
# 1 65.0935 60.2008 25.1511 0.0007 -13.5216 0.0003
# 2 60.2008 174.7789 54.2307 0.0002 -21.9393 0.0002
# 3 25.1511 54.2307 84.7477 0.0017 -33.9263 0.0009
# 4 0.0007 0.0002 0.0017 8.3422 0.0010 -29.0665
# 5 -13.5216 -21.9393 -33.9263 0.0010 33.8693 0.0006
# 6 0.0003 0.0002 0.0009 -29.0665 0.0006 23.5575
#
#
#
# Elastic Compliance Matrix: (Units=1/GPa)
#
#
# Indices 1 2 3 4 5 6 
#
# 1 0.023160 -0.007286 -0.000666 0.000001 0.003859 0.000001
# 2 -0.007286 0.009431 -0.004327 -0.000001 -0.001133 -0.000001
# 3 -0.000666 -0.004327 0.022600 0.000003 0.019570 0.000003
# 4 0.000001 -0.000001 0.000003 -0.036335 0.000005 -0.044832
# 5 0.003859 -0.001133 0.019570 0.000005 0.049935 0.000005
# 6 0.000001 -0.000001 0.000003 -0.044832 0.000005 -0.012867
#
#
# Mechanical properties :
#
#
# Convention : Reuss Voigt Hill
#
# Bulk Modulus (GPa) = 32.64312 67.08726 49.86519
# Shear Modulus (GPa) = 55.13126 25.48962 40.31044
#
# Velocity S-wave (km/s) = 5.12336 3.48368 4.38092
# Velocity P-wave (km/s) = 7.10917 6.93705 7.02364
#
# Compressibility (1/GPa) = 0.03063433
#
# Stress axis : x y z
#
# Youngs Moduli (GPa) = 43.17788 106.02950 44.24758
#
# Poissons Ratio (x) = 0.77255 0.02946
# Poissons Ratio (y) = 0.31460 0.19144
# Poissons Ratio (z) = 0.02875 0.45874
#
# Static dielectric constant tensor:
#      x y z
#    x 4.084560 0.000000 -0.508810 
#    y 0.000000 4.109540 0.000000 
#    z -0.508810 0.000000 4.004830 
# 
# 
# High freq. dielectric constant tensor:
#      x y z
#    x 1.818500 0.000000 -0.026370 
#    y 0.000000 1.835510 0.000000 
#    z -0.026370 0.000000 1.823660 
# 
# From -- ./inp_files/147275.got.cif
#   From: 2010.06.25/outbox.cif.g09.slc.cpg/sg15_74_cif.got.tgz:147275.got - 2010.06.28 07:06:18.
