data_PCOD8138364
_publ_section_title
;
Structure prediction by ZEFSAII (Michael W. Deem and Ramdas Pophale) SiO2 
 PCOD8138364
Probable space group: C 2/C
;
_chemical_formula_sum "Si O2"
_cell_formula_units_Z 44
_cell_length_a 25.215104
_cell_length_b 8.278340
_cell_length_c 16.117249
_cell_angle_alpha 90.000000
_cell_angle_beta 149.317542
_cell_angle_gamma 90.000000
_cell_volume 1716.734664
_symmetry_space_group_name_H-M "C 2/C"
_symmetry_group_IT_number 15
_symmetry_cell_setting 'monoclinic'
loop_
_space_group_symop_operation_xyz
x,y,z
-x,y,1/2-z
-x,-y,-z
x,-y,1/2+z
1/2+x,1/2+y,z
1/2-x,1/2+y,1/2-z
1/2-x,1/2-y,-z
1/2+x,1/2-y,1/2+z
loop_
_atom_site_type_symbol
_atom_site_label
_atom_site_fract_x
_atom_site_fract_y
_atom_site_fract_z
Si Si1 0.092619 0.358472 0.220468
Si Si2 0.152915 0.024167 0.253308
Si Si3 0.371707 0.092773 0.362622
Si Si4 0.186324 0.683130 0.593402
Si Si5 0.500000 0.260943 0.750000
Si Si6 0.944023 0.031810 0.555621
O O1 0.169482 0.210118 0.301522
O O2 0.137322 0.527366 0.245452
O O3 0.073481 0.357727 0.294166
O O4 0.982384 0.319770 0.025604
O O5 0.260877 0.922890 0.410059
O O6 0.126580 0.010017 0.120457
O O7 0.064277 0.943644 0.191502
O O8 0.280402 0.214705 0.261317
O O9 0.367979 0.934191 0.414329
O O10 0.097257 0.812258 0.447436
O O11 0.431505 0.374800 0.597464
#
# Coordination Sequence:
#
# PCOD8138364 Si02
#       6
#     8   8   8   8   4   8
#     4  10  22  42  67  93 125 178 213 265 311 393
#     4  10  20  40  66  90 131 163 221 267 309 364
#     4  11  22  36  67  98 125 163 227 263 316 366
#     4  12  21  36  66 101 124 162 219 279 308 369
#     4  10  22  42  66  88 134 178 204 254 338 380
#     4  10  20  37  63  91 121 174 206 259 319 377
#
# _framework density 25.630051000000002
#
# number of rings (size 3 to 8) (size 9 to 14) (size 15 to 20)
#    0.000    1.455    3.636    3.273    2.545    0.000 
#    0.000    5.455    4.000    0.000    0.000    0.000 
#    0.000    0.000    0.000    0.000    0.000    0.000 
#
# Total GULP energy -272590.117643 kJ/mol
# GULP energy per Si atom -12390.459893 kJ/mol
# Density = 2.557172 g / cm^3
# Si number density = 25.630051 Si / 1000 Ang^3
#
#
#
# Elastic Constant Matrix: (Units=GPa)
#
#
# Indices 1 2 3 4 5 6 
#
# 1 133.9035 34.4787 23.7182 0.0000 1.1278 0.0000
# 2 34.4787 84.7258 8.5661 0.0000 12.6255 0.0000
# 3 23.7182 8.5661 19.5466 0.0000 11.0885 0.0000
# 4 0.0000 0.0000 0.0000 37.9856 0.0000 3.9841
# 5 1.1278 12.6255 11.0885 0.0000 36.4844 0.0000
# 6 0.0000 0.0000 0.0000 3.9841 0.0000 27.8104
#
#
#
# Elastic Compliance Matrix: (Units=1/GPa)
#
#
# Indices 1 2 3 4 5 6 
#
# 1 0.011027 -0.003806 -0.014822 0.000000 0.005481 0.000000
# 2 -0.003806 0.013976 0.001414 0.000000 -0.005148 0.000000
# 3 -0.014822 0.001414 0.082823 0.000000 -0.025203 0.000000
# 4 0.000000 0.000000 0.000000 0.026727 0.000000 -0.003829
# 5 0.005481 -0.005148 -0.025203 0.000000 0.036681 0.000000
# 6 0.000000 0.000000 0.000000 -0.003829 0.000000 0.036506
#
#
# Mechanical properties :
#
#
# Convention : Reuss Voigt Hill
#
# Bulk Modulus (GPa) = 13.62435 41.30020 27.46228
# Shear Modulus (GPa) = 18.75225 31.88359 25.31792
#
# Velocity S-wave (km/s) = 2.70784 3.53085 3.14637
# Velocity P-wave (km/s) = 3.88637 5.72464 4.89262
#
# Compressibility (1/GPa) = 0.07339800
#
# Stress axis : x y z
#
# Youngs Moduli (GPa) = 90.68462 71.55268 12.07394
#
# Poissons Ratio (x) = 0.27230 0.17896
# Poissons Ratio (y) = 0.34511 -0.01707
# Poissons Ratio (z) = 1.34413 -0.10116
#
# Static dielectric constant tensor:
#      x y z
#    x 5.014850 0.000000 0.295850 
#    y 0.000000 4.995250 0.000000 
#    z 0.295850 0.000000 4.044550 
# 
# 
# High freq. dielectric constant tensor:
#      x y z
#    x 2.031060 0.000000 0.032240 
#    y 0.000000 2.036220 0.000000 
#    z 0.032240 0.000000 1.963290 
# 
# From -- ./inp_files/218734.got.cif
#   From: 2010.06.25/outbox.cif.g09.slc.cpg/sg15_110_cif.got.tgz:218734.got - 2010.06.28 07:06:18.
