data_PCOD8138479
_publ_section_title
;
Structure prediction by ZEFSAII (Michael W. Deem and Ramdas Pophale) SiO2 
 PCOD8138479
Probable space group: C 2/C
;
_chemical_formula_sum "Si O2"
_cell_formula_units_Z 56
_cell_length_a 26.164462
_cell_length_b 8.336075
_cell_length_c 14.158970
_cell_angle_alpha 90.000000
_cell_angle_beta 57.868538
_cell_angle_gamma 90.000000
_cell_volume 2615.178374
_symmetry_space_group_name_H-M "C 2/C"
_symmetry_group_IT_number 15
_symmetry_cell_setting 'monoclinic'
loop_
_space_group_symop_operation_xyz
x,y,z
-x,y,1/2-z
-x,-y,-z
x,-y,1/2+z
1/2+x,1/2+y,z
1/2-x,1/2+y,1/2-z
1/2-x,1/2-y,-z
1/2+x,1/2-y,1/2+z
loop_
_atom_site_type_symbol
_atom_site_label
_atom_site_fract_x
_atom_site_fract_y
_atom_site_fract_z
Si Si1 0.687881 0.028447 0.813726
Si Si2 0.034542 0.773839 0.619711
Si Si3 0.189777 0.307316 0.507026
Si Si4 0.115582 0.050202 0.477013
Si Si5 0.085538 0.293500 0.347175
Si Si6 0.644359 0.135650 0.598633
Si Si7 0.712840 0.293549 0.376399
O O1 0.708814 0.115411 0.888938
O O2 0.615740 0.048724 0.866318
O O3 0.721287 0.122152 0.693857
O O4 0.706569 0.843920 0.802411
O O5 0.090492 0.650191 0.573141
O O6 0.000000 0.801324 0.750000
O O7 0.986677 0.693619 0.593644
O O8 0.057238 0.951145 0.568235
O O9 0.250000 0.250000 0.500000
O O10 0.141955 0.163270 0.535588
O O11 0.158059 0.446977 0.601850
O O12 0.098561 0.142846 0.399604
O O13 0.166698 0.930031 0.392169
O O14 0.120180 0.270015 0.213331
O O15 0.701435 0.226808 0.493906
#
# Coordination Sequence:
#
# PCOD8138479 Si02
#       7
#     8   8   8   8   8   8   8
#     4  10  21  37  57  88 121 156 203 246 303 365
#     4   9  19  41  60  91 124 163 205 249 298 357
#     4  10  22  40  59  89 124 157 201 252 305 363
#     4  10  21  40  63  89 124 156 207 252 297 366
#     4  10  20  37  66  88 120 163 201 251 300 358
#     4   9  21  39  62  85 123 158 205 245 310 357
#     4  10  21  40  56  85 127 155 197 253 304 364
#
# _framework density 21.413453000000001
#
# number of rings (size 3 to 8) (size 9 to 14) (size 15 to 20)
#    0.000    2.286    0.000    2.143    4.000    0.571 
#   20.571   15.000    0.000    0.000    0.000    0.000 
#    0.000    0.000    0.000    0.000    0.000    0.000 
#
# Total GULP energy -346962.705197 kJ/mol
# GULP energy per Si atom -12391.525186 kJ/mol
# Density = 2.136471 g / cm^3
# Si number density = 21.413453 Si / 1000 Ang^3
#
#
#
# Elastic Constant Matrix: (Units=GPa)
#
#
# Indices 1 2 3 4 5 6 
#
# 1 144.5465 49.8444 16.1757 0.0000 -3.6831 0.0000
# 2 49.8444 110.4487 13.2831 0.0000 -9.7495 0.0001
# 3 16.1757 13.2831 44.0905 0.0000 -4.7100 0.0000
# 4 0.0000 0.0000 0.0000 30.9877 0.0000 -6.8400
# 5 -3.6831 -9.7495 -4.7100 0.0000 25.5575 0.0000
# 6 0.0000 0.0001 0.0000 -6.8400 0.0000 26.7934
#
#
#
# Elastic Compliance Matrix: (Units=1/GPa)
#
#
# Indices 1 2 3 4 5 6 
#
# 1 0.008367 -0.003577 -0.002049 0.000000 -0.000536 0.000000
# 2 -0.003577 0.011174 -0.001687 0.000000 0.003436 0.000000
# 3 -0.002049 -0.001687 0.024319 0.000000 0.003543 0.000000
# 4 0.000000 0.000000 0.000000 0.034198 0.000000 0.008730
# 5 -0.000536 0.003436 0.003543 0.000000 0.041014 0.000000
# 6 0.000000 0.000000 0.000000 0.008730 0.000000 0.039551
#
#
# Mechanical properties :
#
#
# Convention : Reuss Voigt Hill
#
# Bulk Modulus (GPa) = 34.20676 50.85467 42.53072
# Shear Modulus (GPa) = 27.32302 31.31990 29.32146
#
# Velocity S-wave (km/s) = 3.57595 3.82858 3.70442
# Velocity P-wave (km/s) = 5.74970 6.58366 6.18076
#
# Compressibility (1/GPa) = 0.02923398
#
# Stress axis : x y z
#
# Youngs Moduli (GPa) = 119.51262 89.48986 41.11967
#
# Poissons Ratio (x) = 0.32010 0.08427
# Poissons Ratio (y) = 0.42749 0.06937
# Poissons Ratio (z) = 0.24493 0.15098
#
# Static dielectric constant tensor:
#      x y z
#    x 4.302490 0.000000 -0.157670 
#    y 0.000000 3.948700 0.000000 
#    z -0.157670 0.000000 3.838970 
# 
# 
# High freq. dielectric constant tensor:
#      x y z
#    x 1.851670 0.000000 0.001260 
#    y 0.000000 1.833410 0.000000 
#    z 0.001260 0.000000 1.830640 
# 
# From -- ./inp_files/176504.got.cif
#   From: 2010.06.25/outbox.cif.g09.slc.cpg/sg15_89_cif.got.tgz:176504.got - 2010.06.28 07:06:18.
