data_PCOD8138330
_publ_section_title
;
Structure prediction by ZEFSAII (Michael W. Deem and Ramdas Pophale) SiO2 
 PCOD8138330
Probable space group: C 2/C
;
_chemical_formula_sum "Si O2"
_cell_formula_units_Z 52
_cell_length_a 17.949323
_cell_length_b 13.088661
_cell_length_c 10.724199
_cell_angle_alpha 90.000000
_cell_angle_beta 124.857300
_cell_angle_gamma 90.000000
_cell_volume 2067.416835
_symmetry_space_group_name_H-M "C 2/C"
_symmetry_group_IT_number 15
_symmetry_cell_setting 'monoclinic'
loop_
_space_group_symop_operation_xyz
x,y,z
-x,y,1/2-z
-x,-y,-z
x,-y,1/2+z
1/2+x,1/2+y,z
1/2-x,1/2+y,1/2-z
1/2-x,1/2-y,-z
1/2+x,1/2-y,1/2+z
loop_
_atom_site_type_symbol
_atom_site_label
_atom_site_fract_x
_atom_site_fract_y
_atom_site_fract_z
Si Si1 0.841611 0.541762 0.250938
Si Si2 0.344526 0.458994 0.072724
Si Si3 0.175720 0.707369 0.069073
Si Si4 0.588475 0.722604 0.001941
Si Si5 0.125418 0.830230 0.809468
Si Si6 0.000000 0.379758 0.750000
Si Si7 0.738347 0.132893 0.692791
O O1 0.867889 0.634958 0.368325
O O2 0.845148 0.435789 0.331574
O O3 0.913930 0.548266 0.205791
O O4 0.737933 0.540639 0.104914
O O5 0.401615 0.563555 0.148720
O O6 0.304610 0.428018 0.167404
O O7 0.417231 0.377623 0.089998
O O8 0.267568 0.652674 0.112202
O O9 0.197546 0.821388 0.139058
O O10 0.110299 0.732355 0.887736
O O11 0.569959 0.692978 0.129264
O O12 0.689606 0.770362 0.080391
O O13 0.517998 0.807187 0.886208
#
# Coordination Sequence:
#
# PCOD8138330 Si02
#       7
#     8   8   8   8   8   4   8
#     4  12  23  41  68 102 138 184 220 284 340 415
#     4  12  19  39  70 103 124 164 240 288 336 384
#     4  10  20  37  63 102 131 164 222 292 340 385
#     4  11  24  43  65  97 136 183 227 283 337 407
#     4  10  21  37  67 103 129 163 226 302 341 384
#     4  12  28  46  62  96 152 192 224 260 352 434
#     4  11  20  35  66  97 132 166 227 282 338 392
#
# _framework density 25.152159999999999
#
# number of rings (size 3 to 8) (size 9 to 14) (size 15 to 20)
#    0.000    0.923    7.692    1.385    0.000    0.615 
#    0.000    1.538    0.000    0.000    0.000    0.000 
#    0.000    0.000    0.000    0.000    0.000    0.000 
#
# Total GULP energy -322239.855534 kJ/mol
# GULP energy per Si atom -12393.840597 kJ/mol
# Density = 2.509491 g / cm^3
# Si number density = 25.152160 Si / 1000 Ang^3
#
#
#
# Elastic Constant Matrix: (Units=GPa)
#
#
# Indices 1 2 3 4 5 6 
#
# 1 47.5435 13.6539 8.3406 0.0000 -19.0813 0.0000
# 2 13.6539 111.9884 40.6537 0.0000 -27.0084 0.0000
# 3 8.3406 40.6537 104.1838 0.0000 -27.0953 0.0000
# 4 0.0000 0.0000 0.0000 35.1340 0.0000 -21.7532
# 5 -19.0813 -27.0084 -27.0953 0.0000 26.7911 0.0000
# 6 0.0000 0.0000 0.0000 -21.7532 0.0000 22.6431
#
#
#
# Elastic Compliance Matrix: (Units=1/GPa)
#
#
# Indices 1 2 3 4 5 6 
#
# 1 0.031031 0.001385 0.004188 0.000000 0.027733 0.000000
# 2 0.001385 0.012191 -0.001920 0.000000 0.011334 0.000000
# 3 0.004188 -0.001920 0.013955 0.000000 0.015161 0.000000
# 4 0.000000 0.000000 0.000000 0.070246 0.000000 0.067485
# 5 0.027733 0.011334 0.015161 0.000000 0.083837 0.000000
# 6 0.000000 0.000000 0.000000 0.067485 0.000000 0.108996
#
#
# Mechanical properties :
#
#
# Convention : Reuss Voigt Hill
#
# Bulk Modulus (GPa) = 15.50808 43.22358 29.36583
# Shear Modulus (GPa) = 14.95006 30.31811 22.63409
#
# Velocity S-wave (km/s) = 2.44065 3.47564 3.00307
# Velocity P-wave (km/s) = 3.75785 5.77312 4.87085
#
# Compressibility (1/GPa) = 0.06448252
#
# Stress axis : x y z
#
# Youngs Moduli (GPa) = 32.22539 82.02585 71.65716
#
# Poissons Ratio (x) = -0.11357 -0.30010
# Poissons Ratio (y) = -0.04462 0.13760
# Poissons Ratio (z) = -0.13496 0.15752
#
# Static dielectric constant tensor:
#      x y z
#    x 3.863710 0.000000 -0.356800 
#    y 0.000000 4.719740 0.000000 
#    z -0.356800 0.000000 4.633490 
# 
# 
# High freq. dielectric constant tensor:
#      x y z
#    x 1.960550 0.000000 -0.028230 
#    y 0.000000 2.011720 0.000000 
#    z -0.028230 0.000000 2.005000 
# 
# From -- ./inp_files/111742.got.cif
#   From: 2010.06.25/outbox.cif.g09.slc.cpg/sg15_56_cif.got.tgz:111742.got - 2010.06.28 07:06:18.
