data_PCOD8138886
_publ_section_title
;
Structure prediction by ZEFSAII (Michael W. Deem and Ramdas Pophale) SiO2 
 PCOD8138886
Probable space group: C 2/C
;
_chemical_formula_sum "Si O2"
_cell_formula_units_Z 60
_cell_length_a 15.431032
_cell_length_b 8.223201
_cell_length_c 21.396693
_cell_angle_alpha 90.000000
_cell_angle_beta 98.859160
_cell_angle_gamma 90.000000
_cell_volume 2682.688198
_symmetry_space_group_name_H-M "C 2/C"
_symmetry_group_IT_number 15
_symmetry_cell_setting 'monoclinic'
loop_
_space_group_symop_operation_xyz
x,y,z
-x,y,1/2-z
-x,-y,-z
x,-y,1/2+z
1/2+x,1/2+y,z
1/2-x,1/2+y,1/2-z
1/2-x,1/2-y,-z
1/2+x,1/2-y,1/2+z
loop_
_atom_site_type_symbol
_atom_site_label
_atom_site_fract_x
_atom_site_fract_y
_atom_site_fract_z
Si Si1 0.795173 0.929481 0.355358
Si Si2 0.764607 0.754533 0.099762
Si Si3 0.012103 0.634102 0.933628
Si Si4 0.115217 0.716665 0.831477
Si Si5 0.500000 0.035508 0.250000
Si Si6 0.399640 0.865359 0.852367
Si Si7 0.213460 0.006722 0.791623
Si Si8 0.872846 0.372985 0.505044
O O1 0.705760 0.848223 0.370824
O O2 0.878953 0.813152 0.380392
O O3 0.790364 0.942233 0.280113
O O4 0.800393 0.103937 0.390148
O O5 0.799719 0.833245 0.167287
O O6 0.711015 0.880048 0.050178
O O7 0.850250 0.706442 0.069312
O O8 0.044093 0.745564 0.879587
O O9 0.946050 0.487982 0.905070
O O10 0.952411 0.726737 0.978821
O O11 0.096474 0.556430 0.976721
O O12 0.079106 0.581197 0.780411
O O13 0.132910 0.884012 0.796892
O O14 0.535432 0.152665 0.199623
O O15 0.306626 0.931107 0.818313
#
# Coordination Sequence:
#
# PCOD8138886 Si02
#       8
#     8   8   8   8   4   8   8   8
#     4  11  22  38  63  95 126 167 206 255 311 390
#     4  11  22  42  62  94 124 165 202 258 312 377
#     4  10  20  42  62  88 115 165 209 265 304 365
#     4  10  21  37  62  89 123 165 213 249 318 371
#     4  10  20  38  62  90 128 168 200 272 310 378
#     4  10  21  37  62  89 123 165 213 249 318 371
#     4  11  22  38  63  95 126 167 206 255 311 390
#     4  10  22  40  66  84 126 168 204 256 318 358
#
# _framework density 22.365625999999999
#
# number of rings (size 3 to 8) (size 9 to 14) (size 15 to 20)
#    0.000    1.600    4.000    1.600    0.000    0.000 
#    0.000   12.667    0.000    0.000    0.000    0.000 
#    0.000    0.000    0.000    0.000    0.000    0.000 
#
# Total GULP energy -371768.216560 kJ/mol
# GULP energy per Si atom -12392.273885 kJ/mol
# Density = 2.231472 g / cm^3
# Si number density = 22.365626 Si / 1000 Ang^3
#
#
#
# Elastic Constant Matrix: (Units=GPa)
#
#
# Indices 1 2 3 4 5 6 
#
# 1 105.1608 42.8965 36.3029 0.0000 -29.7939 0.0000
# 2 42.8965 79.4294 17.2118 0.0000 -9.5991 0.0000
# 3 36.3029 17.2118 81.2007 0.0000 -28.0486 0.0000
# 4 0.0000 0.0000 0.0000 16.1723 0.0000 6.8626
# 5 -29.7939 -9.5991 -28.0486 0.0000 44.5089 0.0000
# 6 0.0000 0.0000 0.0000 6.8626 0.0000 30.0538
#
#
#
# Elastic Compliance Matrix: (Units=1/GPa)
#
#
# Indices 1 2 3 4 5 6 
#
# 1 0.015245 -0.006752 -0.003020 0.000000 0.006846 0.000000
# 2 -0.006752 0.016253 -0.000993 0.000000 -0.001640 0.000000
# 3 -0.003020 -0.000993 0.016750 0.000000 0.008319 0.000000
# 4 0.000000 0.000000 0.000000 0.068468 0.000000 -0.015634
# 5 0.006846 -0.001640 0.008319 0.000000 0.031939 0.000000
# 6 0.000000 0.000000 0.000000 -0.015634 0.000000 0.036844
#
#
# Mechanical properties :
#
#
# Convention : Reuss Voigt Hill
#
# Bulk Modulus (GPa) = 37.42722 50.95701 44.19211
# Shear Modulus (GPa) = 23.15509 29.43899 26.29704
#
# Velocity S-wave (km/s) = 3.22110 3.63197 3.43268
# Velocity P-wave (km/s) = 5.53214 6.35778 5.95927
#
# Compressibility (1/GPa) = 0.02671853
#
# Stress axis : x y z
#
# Youngs Moduli (GPa) = 65.59325 61.52674 59.70298
#
# Poissons Ratio (x) = 0.41541 0.18030
# Poissons Ratio (y) = 0.44287 0.05929
# Poissons Ratio (z) = 0.19809 0.06110
#
# Static dielectric constant tensor:
#      x y z
#    x 4.288960 0.000000 -0.313040 
#    y 0.000000 3.894630 0.000000 
#    z -0.313040 0.000000 4.082940 
# 
# 
# High freq. dielectric constant tensor:
#      x y z
#    x 1.890380 0.000000 -0.024800 
#    y 0.000000 1.840350 0.000000 
#    z -0.024800 0.000000 1.885330 
# 
# From -- ./inp_files/272807.got.cif
#   From: 2010.06.25/outbox.cif.g09.slc.cpg/sg15_137_cif.got.tgz:272807.got - 2010.06.28 07:06:18.
