data_PCOD8138828
_publ_section_title
;
Structure prediction by ZEFSAII (Michael W. Deem and Ramdas Pophale) SiO2 
 PCOD8138828
Probable space group: C 2/C
;
_chemical_formula_sum "Si O2"
_cell_formula_units_Z 60
_cell_length_a 10.939456
_cell_length_b 21.695827
_cell_length_c 14.515340
_cell_angle_alpha 90.000000
_cell_angle_beta 62.620949
_cell_angle_gamma 90.000000
_cell_volume 3059.173349
_symmetry_space_group_name_H-M "C 2/C"
_symmetry_group_IT_number 15
_symmetry_cell_setting 'monoclinic'
loop_
_space_group_symop_operation_xyz
x,y,z
-x,y,1/2-z
-x,-y,-z
x,-y,1/2+z
1/2+x,1/2+y,z
1/2-x,1/2+y,1/2-z
1/2-x,1/2-y,-z
1/2+x,1/2-y,1/2+z
loop_
_atom_site_type_symbol
_atom_site_label
_atom_site_fract_x
_atom_site_fract_y
_atom_site_fract_z
Si Si1 0.000000 0.653106 0.250000
Si Si2 0.266105 0.645161 0.471550
Si Si3 0.771594 0.554698 0.347406
Si Si4 0.199950 0.285873 0.816384
Si Si5 0.848241 0.335022 0.291467
Si Si6 0.809142 0.513286 0.009258
Si Si7 0.556516 0.368222 0.828202
Si Si8 0.886778 0.458332 0.164160
O O1 0.875574 0.611474 0.332576
O O2 0.941223 0.696393 0.187584
O O3 0.191826 0.692225 0.426241
O O4 0.190455 0.641691 0.594259
O O5 0.262051 0.576014 0.430884
O O6 0.427753 0.661555 0.428545
O O7 0.727606 0.520792 0.456352
O O8 0.624779 0.575145 0.358117
O O9 0.847426 0.510265 0.250184
O O10 0.231262 0.213029 0.799833
O O11 0.329090 0.316266 0.721753
O O12 0.855573 0.391328 0.217114
O O13 0.000000 0.304429 0.250000
O O14 0.806124 0.466619 0.096385
O O15 0.955608 0.531344 0.915546
O O16 0.500000 0.391671 0.750000
#
# Coordination Sequence:
#
# PCOD8138828 Si02
#       8
#     4   8   8   8   8   8   8   8
#     4  10  20  38  62  86 114 162 206 254 310 362
#     4  11  21  39  60  94 119 163 213 254 313 370
#     4  11  19  37  62  87 121 157 207 257 316 372
#     4  10  23  39  63  87 120 167 211 255 305 376
#     4  12  22  39  61  90 126 160 207 265 309 361
#     4  11  21  34  61  93 124 155 208 259 324 368
#     4   9  20  38  59  85 118 161 208 251 303 378
#     4  11  21  36  58  94 125 156 202 266 312 368
#
# _framework density 19.613142
#
# number of rings (size 3 to 8) (size 9 to 14) (size 15 to 20)
#    0.000    1.333    4.000    4.000    1.867    0.533 
#    0.000    1.333    1.467    4.000    0.000    0.000 
#    0.000    0.000    0.000    0.000    0.000    0.000 
#
# Total GULP energy -371875.772188 kJ/mol
# GULP energy per Si atom -12395.859073 kJ/mol
# Density = 1.956850 g / cm^3
# Si number density = 19.613142 Si / 1000 Ang^3
#
#
#
# Elastic Constant Matrix: (Units=GPa)
#
#
# Indices 1 2 3 4 5 6 
#
# 1 106.8184 47.2141 28.5269 0.0000 15.9059 0.0000
# 2 47.2141 109.7088 36.9555 0.0000 23.0297 0.0000
# 3 28.5269 36.9555 93.9783 0.0000 16.5346 0.0000
# 4 0.0000 0.0000 0.0000 27.2627 0.0000 1.2016
# 5 15.9059 23.0297 16.5346 0.0000 24.8138 0.0000
# 6 0.0000 0.0000 0.0000 1.2016 0.0000 21.8243
#
#
#
# Elastic Compliance Matrix: (Units=1/GPa)
#
#
# Indices 1 2 3 4 5 6 
#
# 1 0.011988 -0.004027 -0.001542 0.000000 -0.002920 0.000000
# 2 -0.004027 0.013444 -0.002632 0.000000 -0.008142 0.000000
# 3 -0.001542 -0.002632 0.013073 0.000000 -0.005280 0.000000
# 4 0.000000 0.000000 0.000000 0.036769 0.000000 -0.002024
# 5 -0.002920 -0.008142 -0.005280 0.000000 0.053247 0.000000
# 6 0.000000 0.000000 0.000000 -0.002024 0.000000 0.045932
#
#
# Mechanical properties :
#
#
# Convention : Reuss Voigt Hill
#
# Bulk Modulus (GPa) = 45.24101 59.54428 52.39264
# Shear Modulus (GPa) = 25.22434 27.96743 26.59589
#
# Velocity S-wave (km/s) = 3.59011 3.78028 3.68642
# Velocity P-wave (km/s) = 6.34838 7.03415 6.70004
#
# Compressibility (1/GPa) = 0.02210384
#
# Stress axis : x y z
#
# Youngs Moduli (GPa) = 83.41592 74.38414 76.49601
#
# Poissons Ratio (x) = 0.29954 0.11794
# Poissons Ratio (y) = 0.33591 0.20131
# Poissons Ratio (z) = 0.12860 0.19575
#
# Static dielectric constant tensor:
#      x y z
#    x 3.824390 0.000000 0.037960 
#    y 0.000000 3.562830 0.000000 
#    z 0.037960 0.000000 3.648530 
# 
# 
# High freq. dielectric constant tensor:
#      x y z
#    x 1.754690 0.000000 0.004340 
#    y 0.000000 1.757820 0.000000 
#    z 0.004340 0.000000 1.764040 
# 
# From -- ./inp_files/147086.got.cif
#   From: 2010.06.25/outbox.cif.g09.slc.cpg/sg15_74_cif.got.tgz:147086.got - 2010.06.28 07:06:18.
