data_PCOD8138475
_publ_section_title
;
Structure prediction by ZEFSAII (Michael W. Deem and Ramdas Pophale) SiO2 
 PCOD8138475
Probable space group: C 2/C
;
_chemical_formula_sum "Si O2"
_cell_formula_units_Z 44
_cell_length_a 8.266464
_cell_length_b 19.929759
_cell_length_c 11.558843
_cell_angle_alpha 90.000000
_cell_angle_beta 79.563243
_cell_angle_gamma 90.000000
_cell_volume 1872.797782
_symmetry_space_group_name_H-M "C 2/C"
_symmetry_group_IT_number 15
_symmetry_cell_setting 'monoclinic'
loop_
_space_group_symop_operation_xyz
x,y,z
-x,y,1/2-z
-x,-y,-z
x,-y,1/2+z
1/2+x,1/2+y,z
1/2-x,1/2+y,1/2-z
1/2-x,1/2-y,-z
1/2+x,1/2-y,1/2+z
loop_
_atom_site_type_symbol
_atom_site_label
_atom_site_fract_x
_atom_site_fract_y
_atom_site_fract_z
Si Si1 0.834816 0.678371 0.708213
Si Si2 0.995677 0.222633 0.032823
Si Si3 0.500000 0.499162 0.250000
Si Si4 0.314452 0.923373 0.795383
Si Si5 0.842938 0.095632 0.941048
Si Si6 0.789262 0.706457 0.153007
O O1 0.772217 0.611636 0.654235
O O2 0.710013 0.713304 0.814000
O O3 0.000000 0.655668 0.750000
O O4 0.849960 0.743989 0.623810
O O5 0.121519 0.188607 0.107619
O O6 0.062119 0.289504 0.957647
O O7 0.934384 0.163854 0.959420
O O8 0.330871 0.541028 0.258152
O O9 0.525388 0.457668 0.126711
O O10 0.500000 0.953600 0.750000
O O11 0.321227 0.846341 0.750945
O O12 0.266660 0.929878 0.937033
#
# Coordination Sequence:
#
# PCOD8138475 Si02
#       6
#     8   8   4   8   8   8
#     4  10  21  37  63 104 140 170 215 288 356 428
#     4  10  20  37  66 104 140 178 215 286 363 431
#     4  12  30  50  68 100 142 196 252 304 344 406
#     4  12  27  46  73 102 139 196 245 298 349 426
#     4  12  24  45  74 100 141 190 240 295 359 438
#     4  10  21  37  62 101 146 173 219 285 358 419
#
# _framework density 23.494260000000001
#
# number of rings (size 3 to 8) (size 9 to 14) (size 15 to 20)
#    0.000    1.091    1.818    4.364    3.818    1.455 
#    0.000    1.818    0.000    0.000    0.000    0.000 
#    0.000    0.000    0.000    0.000    0.000    0.000 
#
# Total GULP energy -272567.597808 kJ/mol
# GULP energy per Si atom -12389.436264 kJ/mol
# Density = 2.344079 g / cm^3
# Si number density = 23.494260 Si / 1000 Ang^3
#
#
#
# Elastic Constant Matrix: (Units=GPa)
#
#
# Indices 1 2 3 4 5 6 
#
# 1 110.9214 32.7705 30.0845 0.0000 -8.9348 0.0000
# 2 32.7705 54.0973 22.0520 0.0000 -1.3076 0.0000
# 3 30.0845 22.0520 107.6252 0.0000 -3.2898 0.0000
# 4 0.0000 0.0000 0.0000 128.9525 0.0000 -115.6715
# 5 -8.9348 -1.3076 -3.2898 0.0000 35.4388 0.0000
# 6 0.0000 0.0000 0.0000 -115.6715 0.0000 161.5024
#
#
#
# Elastic Compliance Matrix: (Units=1/GPa)
#
#
# Indices 1 2 3 4 5 6 
#
# 1 0.011552 -0.006167 -0.001889 0.000000 0.002510 0.000000
# 2 -0.006167 0.023467 -0.003114 0.000000 -0.000978 0.000000
# 3 -0.001889 -0.003114 0.010469 0.000000 0.000381 0.000000
# 4 0.000000 0.000000 0.000000 0.021689 0.000000 0.015534
# 5 0.002510 -0.000978 0.000381 0.000000 0.028850 0.000000
# 6 0.000000 0.000000 0.000000 0.015534 0.000000 0.017318
#
#
# Mechanical properties :
#
#
# Convention : Reuss Voigt Hill
#
# Bulk Modulus (GPa) = 43.20101 49.16198 46.18149
# Shear Modulus (GPa) = 34.86732 77.69454 56.28093
#
# Velocity S-wave (km/s) = 3.85655 5.75685 4.89971
# Velocity P-wave (km/s) = 6.18534 8.07211 7.19088
#
# Compressibility (1/GPa) = 0.02314761
#
# Stress axis : x y z
#
# Youngs Moduli (GPa) = 86.56637 42.61309 95.51821
#
# Poissons Ratio (x) = 0.26280 0.18041
# Poissons Ratio (y) = 0.53387 0.29747
# Poissons Ratio (z) = 0.16350 0.13271
#
# Static dielectric constant tensor:
#      x y z
#    x 4.304040 0.000000 -0.132820 
#    y 0.000000 3.862540 0.000000 
#    z -0.132820 0.000000 4.431980 
# 
# 
# High freq. dielectric constant tensor:
#      x y z
#    x 1.934300 0.000000 -0.008310 
#    y 0.000000 1.897230 0.000000 
#    z -0.008310 0.000000 1.951530 
# 
# From -- ./inp_files/78210.got.cif
#   From: 2010.06.25/outbox.cif.g09.slc.cpg/sg15_40_cif.got.tgz:78210.got - 2010.06.28 07:06:18.
