data_PCOD8138833
_publ_section_title
;
Structure prediction by ZEFSAII (Michael W. Deem and Ramdas Pophale) SiO2 
 PCOD8138833
Probable space group: C 2/C
;
_chemical_formula_sum "Si O2"
_cell_formula_units_Z 36
_cell_length_a 25.612095
_cell_length_b 10.210236
_cell_length_c 16.352828
_cell_angle_alpha 90.000000
_cell_angle_beta 156.409635
_cell_angle_gamma 90.000000
_cell_volume 1711.375596
_symmetry_space_group_name_H-M "C 2/C"
_symmetry_group_IT_number 15
_symmetry_cell_setting 'monoclinic'
loop_
_space_group_symop_operation_xyz
x,y,z
-x,y,1/2-z
-x,-y,-z
x,-y,1/2+z
1/2+x,1/2+y,z
1/2-x,1/2+y,1/2-z
1/2-x,1/2-y,-z
1/2+x,1/2-y,1/2+z
loop_
_atom_site_type_symbol
_atom_site_label
_atom_site_fract_x
_atom_site_fract_y
_atom_site_fract_z
Si Si1 0.867908 0.125589 0.455817
Si Si2 0.178646 0.617259 0.877606
Si Si3 0.000000 0.288051 0.250000
Si Si4 0.761974 0.857586 0.327308
Si Si5 0.159476 0.129804 0.890805
O O1 0.790823 0.248506 0.309299
O O2 0.860414 0.127566 0.541691
O O3 0.018788 0.136153 0.643989
O O4 0.800904 0.987983 0.331441
O O5 0.045976 0.617975 0.740922
O O6 0.154728 0.608841 0.744725
O O7 0.250000 0.750000 0.000000
O O8 0.389289 0.692005 0.057754
O O9 0.768362 0.000767 0.537859
O O10 0.250000 0.250000 0.000000
#
# Coordination Sequence:
#
# PCOD8138833 Si02
#       5
#     8   8   4   8   8
#     4  10  22  40  60  87 121 155 195 243 293 349
#     4   9  19  37  60  84 114 156 195 235 289 350
#     4  10  20  38  62  86 116 156 200 242 292 354
#     4  10  21  39  62  88 119 156 196 243 293 349
#     4  10  22  40  60  85 120 157 196 244 294 344
#
# _framework density 21.035710000000002
#
# number of rings (size 3 to 8) (size 9 to 14) (size 15 to 20)
#    0.000    2.222    0.000    4.000    0.000    8.889 
#    0.000   11.111    0.000    0.000    0.000    0.000 
#    0.000    0.000    0.000    0.000    0.000    0.000 
#
# Total GULP energy -223109.855543 kJ/mol
# GULP energy per Si atom -12394.991975 kJ/mol
# Density = 2.098783 g / cm^3
# Si number density = 21.035710 Si / 1000 Ang^3
#
#
#
# Elastic Constant Matrix: (Units=GPa)
#
#
# Indices 1 2 3 4 5 6 
#
# 1 75.7818 37.1964 35.6074 0.0000 30.2139 0.0000
# 2 37.1964 186.4829 70.9545 0.0000 13.7951 0.0000
# 3 35.6074 70.9545 79.3933 0.0000 8.1013 0.0000
# 4 0.0000 0.0000 0.0000 33.9563 0.0000 -3.2344
# 5 30.2139 13.7951 8.1013 0.0000 32.2209 0.0000
# 6 0.0000 0.0000 0.0000 -3.2344 0.0000 26.2780
#
#
#
# Elastic Compliance Matrix: (Units=1/GPa)
#
#
# Indices 1 2 3 4 5 6 
#
# 1 0.026805 0.000039 -0.009740 0.000000 -0.022703 0.000000
# 2 0.000039 0.008217 -0.007182 0.000000 -0.001748 0.000000
# 3 -0.009740 -0.007182 0.022720 0.000000 0.006496 0.000000
# 4 0.000000 0.000000 0.000000 0.029799 0.000000 0.003668
# 5 -0.022703 -0.001748 0.006496 0.000000 0.051440 0.000000
# 6 0.000000 0.000000 0.000000 0.003668 0.000000 0.038506
#
#
# Mechanical properties :
#
#
# Convention : Reuss Voigt Hill
#
# Bulk Modulus (GPa) = 41.71091 69.90830 55.80960
# Shear Modulus (GPa) = 22.80555 31.68435 27.24495
#
# Velocity S-wave (km/s) = 3.29619 3.88521 3.60276
# Velocity P-wave (km/s) = 5.86158 7.30971 6.62533
#
# Compressibility (1/GPa) = 0.02397455
#
# Stress axis : x y z
#
# Youngs Moduli (GPa) = 37.30690 121.70073 44.01416
#
# Poissons Ratio (x) = -0.00472 0.42869
# Poissons Ratio (y) = -0.00145 0.31613
# Poissons Ratio (z) = 0.36336 0.87411
#
# Static dielectric constant tensor:
#      x y z
#    x 4.427370 0.000000 0.535640 
#    y 0.000000 4.110330 0.000000 
#    z 0.535640 0.000000 3.778140 
# 
# 
# High freq. dielectric constant tensor:
#      x y z
#    x 1.823290 0.000000 0.019120 
#    y 0.000000 1.836440 0.000000 
#    z 0.019120 0.000000 1.806100 
# 
# From -- ./inp_files/222511.got.cif
#   From: 2010.06.25/outbox.cif.g09.slc.cpg/sg15_112_cif.got.tgz:222511.got - 2010.06.28 07:06:18.
