data_PCOD8138527
_publ_section_title
;
Structure prediction by ZEFSAII (Michael W. Deem and Ramdas Pophale) SiO2 
 PCOD8138527
Probable space group: C 2/C
;
_chemical_formula_sum "Si O2"
_cell_formula_units_Z 60
_cell_length_a 17.972784
_cell_length_b 18.398505
_cell_length_c 9.224693
_cell_angle_alpha 90.000000
_cell_angle_beta 105.229202
_cell_angle_gamma 90.000000
_cell_volume 2943.230999
_symmetry_space_group_name_H-M "C 2/C"
_symmetry_group_IT_number 15
_symmetry_cell_setting 'monoclinic'
loop_
_space_group_symop_operation_xyz
x,y,z
-x,y,1/2-z
-x,-y,-z
x,-y,1/2+z
1/2+x,1/2+y,z
1/2-x,1/2+y,1/2-z
1/2-x,1/2-y,-z
1/2+x,1/2-y,1/2+z
loop_
_atom_site_type_symbol
_atom_site_label
_atom_site_fract_x
_atom_site_fract_y
_atom_site_fract_z
Si Si1 0.634537 0.639226 0.755966
Si Si2 0.955765 0.914799 0.540389
Si Si3 0.000000 0.790709 0.750000
Si Si4 0.190606 0.713423 0.159830
Si Si5 0.149821 0.287079 0.306734
Si Si6 0.201611 0.424892 0.171858
Si Si7 0.116363 0.942417 0.522727
Si Si8 0.288883 0.067814 0.164690
O O1 0.563511 0.603920 0.634966
O O2 0.645204 0.723863 0.723842
O O3 0.709559 0.593113 0.748857
O O4 0.616444 0.627097 0.915527
O O5 0.945132 0.840526 0.621461
O O6 0.046265 0.935937 0.601762
O O7 0.900072 0.980217 0.568398
O O8 0.933499 0.742445 0.789405
O O9 0.281281 0.732549 0.200831
O O10 0.179440 0.640488 0.245572
O O11 0.154295 0.700388 0.982492
O O12 0.152167 0.361423 0.218712
O O13 0.173928 0.499030 0.234651
O O14 0.188222 0.431064 0.992528
O O15 0.197476 0.941393 0.645165
#
# Coordination Sequence:
#
# PCOD8138527 Si02
#       8
#     8   8   4   8   8   8   8   8
#     4  10  20  38  54  83 121 161 195 249 287 361
#     4  11  22  35  51  87 124 168 194 236 291 373
#     4  12  24  36  62  84 120 162 202 242 314 360
#     4  10  21  38  63  86 122 159 207 250 310 350
#     4  10  22  40  59  89 119 160 200 258 298 373
#     4  10  22  37  61  87 117 151 207 247 308 351
#     4  10  23  33  56  84 127 163 202 236 292 364
#     4  11  21  38  63  90 118 159 202 261 299 360
#
# _framework density 20.385760000000001
#
# number of rings (size 3 to 8) (size 9 to 14) (size 15 to 20)
#    0.000    1.600    2.667    2.000    3.733    8.000 
#    0.000    0.000    0.000    3.200    0.000    0.000 
#    0.000    0.000    0.000    0.000    0.000    0.000 
#
# Total GULP energy -371832.513934 kJ/mol
# GULP energy per Si atom -12394.417131 kJ/mol
# Density = 2.033936 g / cm^3
# Si number density = 20.385760 Si / 1000 Ang^3
#
#
#
# Elastic Constant Matrix: (Units=GPa)
#
#
# Indices 1 2 3 4 5 6 
#
# 1 51.5551 27.4726 0.6153 0.0000 -0.5445 0.0000
# 2 27.4726 153.6793 55.3574 0.0000 -11.0133 0.0000
# 3 0.6153 55.3574 76.6144 0.0000 -6.5160 0.0000
# 4 0.0000 0.0000 0.0000 39.1967 0.0000 -6.6447
# 5 -0.5445 -11.0133 -6.5160 0.0000 18.3640 0.0000
# 6 0.0000 0.0000 0.0000 -6.6447 0.0000 26.7942
#
#
#
# Elastic Compliance Matrix: (Units=1/GPa)
#
#
# Indices 1 2 3 4 5 6 
#
# 1 0.022190 -0.005347 0.003576 0.000000 -0.001280 0.000000
# 2 -0.005347 0.010261 -0.007075 0.000000 0.003485 0.000000
# 3 0.003576 -0.007075 0.018337 0.000000 0.002370 0.000000
# 4 0.000000 0.000000 0.000000 0.026632 0.000000 0.006604
# 5 -0.001280 0.003485 0.002370 0.000000 0.057347 0.000000
# 6 0.000000 0.000000 0.000000 0.006604 0.000000 0.038959
#
#
# Mechanical properties :
#
#
# Convention : Reuss Voigt Hill
#
# Bulk Modulus (GPa) = 30.21404 49.85996 40.03700
# Shear Modulus (GPa) = 24.69757 30.09788 27.39772
#
# Velocity S-wave (km/s) = 3.48445 3.84659 3.66999
# Velocity P-wave (km/s) = 5.57152 6.65129 6.13521
#
# Compressibility (1/GPa) = 0.03309719
#
# Stress axis : x y z
#
# Youngs Moduli (GPa) = 45.06612 97.45625 54.53459
#
# Poissons Ratio (x) = 0.52106 -0.19502
# Poissons Ratio (y) = 0.24095 0.38582
# Poissons Ratio (z) = -0.16116 0.68948
#
# Static dielectric constant tensor:
#      x y z
#    x 3.403810 0.000000 -0.005860 
#    y 0.000000 3.862410 0.000000 
#    z -0.005860 0.000000 3.521100 
# 
# 
# High freq. dielectric constant tensor:
#      x y z
#    x 1.762340 0.000000 -0.002020 
#    y 0.000000 1.806680 0.000000 
#    z -0.002020 0.000000 1.792640 
# 
# From -- ./inp_files/56663.got.cif
#   From: 2010.06.25/outbox.cif.g09.slc.cpg/sg15_29_cif.got.tgz:56663.got - 2010.06.28 07:06:18.
