data_PCOD8138260
_publ_section_title
;
Structure prediction by ZEFSAII (Michael W. Deem and Ramdas Pophale) SiO2 
 PCOD8138260
Probable space group: C 2/C
;
_chemical_formula_sum "Si O2"
_cell_formula_units_Z 56
_cell_length_a 28.519761
_cell_length_b 8.855334
_cell_length_c 19.951708
_cell_angle_alpha 90.000000
_cell_angle_beta 147.590789
_cell_angle_gamma 90.000000
_cell_volume 2700.631519
_symmetry_space_group_name_H-M "C 2/C"
_symmetry_group_IT_number 15
_symmetry_cell_setting 'monoclinic'
loop_
_space_group_symop_operation_xyz
x,y,z
-x,y,1/2-z
-x,-y,-z
x,-y,1/2+z
1/2+x,1/2+y,z
1/2-x,1/2+y,1/2-z
1/2-x,1/2-y,-z
1/2+x,1/2-y,1/2+z
loop_
_atom_site_type_symbol
_atom_site_label
_atom_site_fract_x
_atom_site_fract_y
_atom_site_fract_z
Si Si1 0.222652 0.914892 0.994536
Si Si2 0.816155 0.035632 0.196484
Si Si3 0.524224 0.347410 0.102943
Si Si4 0.203773 0.288896 0.106043
Si Si5 0.619172 0.796300 0.148193
Si Si6 0.577894 0.429887 0.395801
Si Si7 0.355636 0.915139 0.742370
O O1 0.180010 0.994687 0.878372
O O2 0.144439 0.930545 0.956339
O O3 0.250000 0.750000 0.000000
O O4 0.308892 0.004000 0.122788
O O5 0.899196 0.955093 0.331330
O O6 0.726781 0.960503 0.114495
O O7 0.819939 0.210656 0.223046
O O8 0.464085 0.446963 0.080852
O O9 0.567642 0.197647 0.190724
O O10 0.472097 0.290254 0.974483
O O11 0.169576 0.296758 0.139541
O O12 0.287589 0.180000 0.204672
O O13 0.133409 0.225598 0.967400
O O14 0.601881 0.961475 0.156702
O O15 0.500000 0.413175 0.250000
#
# Coordination Sequence:
#
# PCOD8138260 Si02
#       7
#     8   8   8   8   8   8   8
#     4  11  22  39  63  91 121 161 199 248 313 355
#     4  11  21  37  62  88 120 157 205 242 301 370
#     4  10  22  37  61  89 116 161 201 248 301 357
#     4   9  22  35  59  89 115 161 206 246 296 352
#     4  11  20  38  58  85 126 155 202 248 302 349
#     4  10  20  37  62  84 120 154 200 250 298 355
#     4  10  21  37  61  87 122 161 199 253 295 364
#
# _framework density 20.735890999999999
#
# number of rings (size 3 to 8) (size 9 to 14) (size 15 to 20)
#    0.000    1.714    2.857    1.714    2.000    1.714 
#    0.000    0.000   12.571    0.000    0.000    0.000 
#    0.000    0.000    0.000    0.000    0.000    0.000 
#
# Total GULP energy -346921.510817 kJ/mol
# GULP energy per Si atom -12390.053958 kJ/mol
# Density = 2.068869 g / cm^3
# Si number density = 20.735891 Si / 1000 Ang^3
#
#
#
# Elastic Constant Matrix: (Units=GPa)
#
#
# Indices 1 2 3 4 5 6 
#
# 1 75.8713 31.6731 22.8421 0.0000 3.3120 0.0000
# 2 31.6731 91.2664 20.0668 0.0000 4.0106 0.0000
# 3 22.8421 20.0668 81.9492 0.0000 -1.6451 0.0000
# 4 0.0000 0.0000 0.0000 28.5356 0.0000 -1.3497
# 5 3.3120 4.0106 -1.6451 0.0000 29.0592 0.0000
# 6 0.0000 0.0000 0.0000 -1.3497 0.0000 30.0530
#
#
#
# Elastic Compliance Matrix: (Units=1/GPa)
#
#
# Indices 1 2 3 4 5 6 
#
# 1 0.016281 -0.004847 -0.003379 0.000000 -0.001378 0.000000
# 2 -0.004847 0.013114 -0.001888 0.000000 -0.001364 0.000000
# 3 -0.003379 -0.001888 0.013635 0.000000 0.001418 0.000000
# 4 0.000000 0.000000 0.000000 0.035119 0.000000 0.001577
# 5 -0.001378 -0.001364 0.001418 0.000000 0.034838 0.000000
# 6 0.000000 0.000000 0.000000 0.001577 0.000000 0.033345
#
#
# Mechanical properties :
#
#
# Convention : Reuss Voigt Hill
#
# Bulk Modulus (GPa) = 43.85280 44.25011 44.05145
# Shear Modulus (GPa) = 28.70928 29.16322 28.93625
#
# Velocity S-wave (km/s) = 3.72495 3.75429 3.73965
# Velocity P-wave (km/s) = 6.30036 6.33870 6.31956
#
# Compressibility (1/GPa) = 0.02280356
#
# Stress axis : x y z
#
# Youngs Moduli (GPa) = 61.42161 76.25491 73.33967
#
# Poissons Ratio (x) = 0.36958 0.24781
# Poissons Ratio (y) = 0.29769 0.13844
# Poissons Ratio (z) = 0.20754 0.14394
#
# Static dielectric constant tensor:
#      x y z
#    x 3.618880 0.000000 0.070190 
#    y 0.000000 3.776360 0.000000 
#    z 0.070190 0.000000 4.079030 
# 
# 
# High freq. dielectric constant tensor:
#      x y z
#    x 1.793690 0.000000 -0.000540 
#    y 0.000000 1.803620 0.000000 
#    z -0.000540 0.000000 1.826390 
# 
# From -- ./inp_files/259015.got.cif
#   From: 2010.06.25/outbox.cif.g09.slc.cpg/sg15_130_cif.got.tgz:259015.got - 2010.06.28 07:06:18.
