data_PCOD8138613
_publ_section_title
;
Structure prediction by ZEFSAII (Michael W. Deem and Ramdas Pophale) SiO2 
 PCOD8138613
Probable space group: C 2/C
;
_chemical_formula_sum "Si O2"
_cell_formula_units_Z 48
_cell_length_a 10.348609
_cell_length_b 8.345710
_cell_length_c 27.585465
_cell_angle_alpha 90.000000
_cell_angle_beta 97.475792
_cell_angle_gamma 90.000000
_cell_volume 2362.208681
_symmetry_space_group_name_H-M "C 2/C"
_symmetry_group_IT_number 15
_symmetry_cell_setting 'monoclinic'
loop_
_space_group_symop_operation_xyz
x,y,z
-x,y,1/2-z
-x,-y,-z
x,-y,1/2+z
1/2+x,1/2+y,z
1/2-x,1/2+y,1/2-z
1/2-x,1/2-y,-z
1/2+x,1/2-y,1/2+z
loop_
_atom_site_type_symbol
_atom_site_label
_atom_site_fract_x
_atom_site_fract_y
_atom_site_fract_z
Si Si1 0.320452 0.948840 0.624678
Si Si2 0.674967 0.147011 0.192670
Si Si3 0.374129 0.096167 0.726468
Si Si4 0.284318 0.422002 0.119158
Si Si5 0.559589 0.354404 0.106372
Si Si6 0.535131 0.049411 0.055330
O O1 0.393846 0.022372 0.674331
O O2 0.182336 0.032699 0.609802
O O3 0.411499 0.989126 0.583513
O O4 0.284681 0.764802 0.632330
O O5 0.749183 0.293048 0.222106
O O6 0.565088 0.226402 0.152252
O O7 0.621294 0.046887 0.234339
O O8 0.770513 0.034775 0.165482
O O9 0.500000 0.200210 0.750000
O O10 0.427067 0.459290 0.102966
O O11 0.166576 0.455200 0.076369
O O12 0.558839 0.241567 0.058615
O O13 0.500000 0.000000 0.000000
#
# Coordination Sequence:
#
# PCOD8138613 Si02
#       6
#     8   8   8   8   8   8
#     4  10  22  38  58  84 115 150 191 236 280 333
#     4  10  22  35  54  83 115 150 188 229 272 329
#     4  11  21  35  55  82 114 150 189 227 274 328
#     4  10  20  38  59  80 113 150 186 231 281 333
#     4   9  21  39  58  85 114 146 189 232 280 337
#     4  10  22  40  60  84 114 146 185 237 291 340
#
# _framework density 20.319966999999998
#
# number of rings (size 3 to 8) (size 9 to 14) (size 15 to 20)
#    0.000    2.000    0.000    4.000    0.000   11.333 
#    0.000    2.500    0.000    0.000    0.000    0.000 
#    0.000    0.000    0.000    0.000    0.000    0.000 
#
# Total GULP energy -297443.955395 kJ/mol
# GULP energy per Si atom -12393.498141 kJ/mol
# Density = 2.027372 g / cm^3
# Si number density = 20.319967 Si / 1000 Ang^3
#
#
#
# Elastic Constant Matrix: (Units=GPa)
#
#
# Indices 1 2 3 4 5 6 
#
# 1 129.8131 39.9984 55.1466 0.0000 4.6615 0.0000
# 2 39.9984 61.1948 22.6866 0.0000 -0.3889 0.0000
# 3 55.1466 22.6866 87.2839 0.0000 6.2713 0.0000
# 4 0.0000 0.0000 0.0000 21.3475 0.0000 -3.1681
# 5 4.6615 -0.3889 6.2713 0.0000 24.3354 0.0000
# 6 0.0000 0.0000 0.0000 -3.1681 0.0000 29.6611
#
#
#
# Elastic Compliance Matrix: (Units=1/GPa)
#
#
# Indices 1 2 3 4 5 6 
#
# 1 0.012056 -0.005626 -0.006095 0.000000 -0.000828 0.000000
# 2 -0.005626 0.020765 -0.001981 0.000000 0.001920 0.000000
# 3 -0.006095 -0.001981 0.016038 0.000000 -0.002997 0.000000
# 4 0.000000 0.000000 0.000000 0.047598 0.000000 0.005084
# 5 -0.000828 0.001920 -0.002997 0.000000 0.042054 0.000000
# 6 0.000000 0.000000 0.000000 0.005084 0.000000 0.034257
#
#
# Mechanical properties :
#
#
# Convention : Reuss Voigt Hill
#
# Bulk Modulus (GPa) = 46.60818 57.10612 51.85715
# Shear Modulus (GPa) = 24.11688 25.76615 24.94152
#
# Velocity S-wave (km/s) = 3.44882 3.56479 3.50728
# Velocity P-wave (km/s) = 6.23266 6.71626 6.47897
#
# Compressibility (1/GPa) = 0.02145546
#
# Stress axis : x y z
#
# Youngs Moduli (GPa) = 82.94707 48.15844 62.35153
#
# Poissons Ratio (x) = 0.27092 0.38005
# Poissons Ratio (y) = 0.46663 0.12350
# Poissons Ratio (z) = 0.50559 0.09539
#
# Static dielectric constant tensor:
#      x y z
#    x 3.960090 0.000000 0.179330 
#    y 0.000000 3.729970 0.000000 
#    z 0.179330 0.000000 3.552140 
# 
# 
# High freq. dielectric constant tensor:
#      x y z
#    x 1.815540 0.000000 0.012130 
#    y 0.000000 1.792890 0.000000 
#    z 0.012130 0.000000 1.779420 
# 
# From -- ./inp_files/267744.got.cif
#   From: 2010.06.25/outbox.cif.g09.slc.cpg/sg15_134_cif.got.tgz:267744.got - 2010.06.28 07:06:18.
