data_PCOD8138382
_publ_section_title
;
Structure prediction by ZEFSAII (Michael W. Deem and Ramdas Pophale) SiO2 
 PCOD8138382
Probable space group: C 2/C
;
_chemical_formula_sum "Si O2"
_cell_formula_units_Z 60
_cell_length_a 9.293749
_cell_length_b 21.731295
_cell_length_c 22.150128
_cell_angle_alpha 90.000000
_cell_angle_beta 140.829677
_cell_angle_gamma 90.000000
_cell_volume 2825.621858
_symmetry_space_group_name_H-M "C 2/C"
_symmetry_group_IT_number 15
_symmetry_cell_setting 'monoclinic'
loop_
_space_group_symop_operation_xyz
x,y,z
-x,y,1/2-z
-x,-y,-z
x,-y,1/2+z
1/2+x,1/2+y,z
1/2-x,1/2+y,1/2-z
1/2-x,1/2-y,-z
1/2+x,1/2-y,1/2+z
loop_
_atom_site_type_symbol
_atom_site_label
_atom_site_fract_x
_atom_site_fract_y
_atom_site_fract_z
Si Si1 0.728274 0.785001 0.667339
Si Si2 0.200748 0.456598 0.770662
Si Si3 0.415592 0.890450 0.589893
Si Si4 0.655849 0.226055 0.680070
Si Si5 0.256688 0.334245 0.391465
Si Si6 0.529599 0.421130 0.130706
Si Si7 0.382344 0.347163 0.900538
Si Si8 0.500000 0.637152 0.750000
O O1 0.575226 0.844632 0.603153
O O2 0.677796 0.760344 0.718535
O O3 0.638751 0.732300 0.592630
O O4 0.000000 0.799180 0.750000
O O5 0.388869 0.509162 0.836073
O O6 0.332763 0.393606 0.829942
O O7 0.000000 0.475048 0.750000
O O8 0.079318 0.446366 0.665958
O O9 0.325216 0.852203 0.619010
O O10 0.209998 0.917413 0.483142
O O11 0.495456 0.181902 0.668639
O O12 0.554918 0.279800 0.605074
O O13 0.781140 0.180622 0.675761
O O14 0.276845 0.380106 0.340251
O O15 0.390320 0.366379 0.489714
O O16 0.492820 0.402094 0.187326
#
# Coordination Sequence:
#
# PCOD8138382 Si02
#       8
#     8   8   8   8   8   8   8   4
#     4  10  20  37  63  95 133 174 216 259 325 388
#     4  10  23  43  70  91 127 174 224 273 308 389
#     4  10  22  43  68  95 127 178 220 270 323 384
#     4  11  21  39  64  97 134 169 208 267 330 388
#     4  10  23  38  65 101 133 172 211 264 332 387
#     4  11  26  45  65  98 128 175 223 264 336 385
#     4  10  21  38  67 101 127 168 220 265 320 384
#     4  12  26  40  62  92 138 162 212 276 332 384
#
# _framework density 21.234265000000001
#
# number of rings (size 3 to 8) (size 9 to 14) (size 15 to 20)
#    0.000    1.600    2.667    1.200    4.667    5.867 
#    1.200    0.667    0.000    0.000    0.000    0.000 
#    0.000    0.000    0.000    0.000    0.000    0.000 
#
# Total GULP energy -371687.602162 kJ/mol
# GULP energy per Si atom -12389.586739 kJ/mol
# Density = 2.118593 g / cm^3
# Si number density = 21.234265 Si / 1000 Ang^3
#
#
#
# Elastic Constant Matrix: (Units=GPa)
#
#
# Indices 1 2 3 4 5 6 
#
# 1 75.6240 45.5379 34.2411 -0.0004 -8.7559 -0.0018
# 2 45.5379 110.7569 58.9257 -0.0002 9.2038 -0.0003
# 3 34.2411 58.9257 116.1821 0.0000 -6.8184 -0.0005
# 4 -0.0004 -0.0002 0.0000 37.0347 0.0002 9.7142
# 5 -8.7559 9.2038 -6.8184 0.0002 28.0652 -0.0009
# 6 -0.0018 -0.0003 -0.0005 9.7142 -0.0009 23.9689
#
#
#
# Elastic Compliance Matrix: (Units=1/GPa)
#
#
# Indices 1 2 3 4 5 6 
#
# 1 0.019657 -0.008185 -0.001141 0.000000 0.008540 0.000002
# 2 -0.008185 0.016728 -0.006638 0.000000 -0.009652 -0.000001
# 3 -0.001141 -0.006638 0.012597 0.000000 0.004881 0.000000
# 4 0.000000 0.000000 0.000000 0.030214 -0.000001 -0.012245
# 5 0.008540 -0.009652 0.004881 -0.000001 0.042647 0.000003
# 6 0.000002 -0.000001 0.000000 -0.012245 0.000003 0.046683
#
#
# Mechanical properties :
#
#
# Convention : Reuss Voigt Hill
#
# Bulk Modulus (GPa) = 58.63841 64.44138 61.53990
# Shear Modulus (GPa) = 24.25556 28.73763 26.49659
#
# Velocity S-wave (km/s) = 3.38344 3.68280 3.53629
# Velocity P-wave (km/s) = 6.55274 6.96403 6.76151
#
# Compressibility (1/GPa) = 0.01705367
#
# Stress axis : x y z
#
# Youngs Moduli (GPa) = 50.87195 59.78089 79.38526
#
# Poissons Ratio (x) = 0.48929 0.09058
# Poissons Ratio (y) = 0.41637 0.52698
# Poissons Ratio (z) = 0.05805 0.39684
#
# Static dielectric constant tensor:
#      x y z
#    x 3.896920 0.000000 -0.103340 
#    y 0.000000 3.717620 0.000000 
#    z -0.103340 0.000000 3.834380 
# 
# 
# High freq. dielectric constant tensor:
#      x y z
#    x 1.822290 0.000000 -0.005290 
#    y 0.000000 1.820260 0.000000 
#    z -0.005290 0.000000 1.834530 
# 
# From -- ./inp_files/234609.got.cif
#   From: 2010.06.25/outbox.cif.g09.slc.cpg/sg15_118_cif.got.tgz:234609.got - 2010.06.28 07:06:18.
