data_PCOD8138038
_publ_section_title
;
Structure prediction by ZEFSAII (Michael W. Deem and Ramdas Pophale) SiO2 
 PCOD8138038
Probable space group: C 2/C
;
_chemical_formula_sum "Si O2"
_cell_formula_units_Z 56
_cell_length_a 17.086916
_cell_length_b 18.763794
_cell_length_c 7.969961
_cell_angle_alpha 90.000000
_cell_angle_beta 107.690261
_cell_angle_gamma 90.000000
_cell_volume 2434.460291
_symmetry_space_group_name_H-M "C 2/C"
_symmetry_group_IT_number 15
_symmetry_cell_setting 'monoclinic'
loop_
_space_group_symop_operation_xyz
x,y,z
-x,y,1/2-z
-x,-y,-z
x,-y,1/2+z
1/2+x,1/2+y,z
1/2-x,1/2+y,1/2-z
1/2-x,1/2-y,-z
1/2+x,1/2-y,1/2+z
loop_
_atom_site_type_symbol
_atom_site_label
_atom_site_fract_x
_atom_site_fract_y
_atom_site_fract_z
Si Si1 0.551908 0.344233 0.128237
Si Si2 0.540943 0.178652 0.107294
Si Si3 0.207057 0.606084 0.257981
Si Si4 0.231612 0.844084 0.170364
Si Si5 0.500000 0.665762 0.250000
Si Si6 0.674014 0.029884 0.901115
Si Si7 0.673400 0.289945 0.774853
Si Si8 0.500000 0.093051 0.750000
O O1 0.500000 0.377023 0.250000
O O2 0.525602 0.262556 0.082148
O O3 0.648949 0.351166 0.228127
O O4 0.528903 0.381302 0.931953
O O5 0.500000 0.147798 0.250000
O O6 0.638506 0.166835 0.187092
O O7 0.503538 0.141343 0.918992
O O8 0.195015 0.554594 0.409123
O O9 0.294830 0.646699 0.328770
O O10 0.198416 0.549534 0.103672
O O11 0.272464 0.921462 0.190302
O O12 0.296940 0.785862 0.283632
O O13 0.213147 0.812082 0.976346
O O14 0.424321 0.714234 0.266585
O O15 0.578464 0.041503 0.795259
#
# Coordination Sequence:
#
# PCOD8138038 Si02
#       8
#     8   8   8   8   4   8   8   4
#     4  10  20  37  57  88 117 146 189 239 291 334
#     4  10  21  34  57  82 117 155 184 233 279 341
#     4  10  21  39  54  81 114 154 185 234 283 346
#     4   9  18  36  58  84 112 150 185 239 284 337
#     4  10  21  34  64  84 110 149 192 242 282 343
#     4  10  23  35  58  80 116 152 189 230 289 338
#     4   9  18  35  62  82 110 146 194 233 287 333
#     4  10  23  36  54  86 114 153 196 224 278 349
#
# _framework density 23.003045
#
# number of rings (size 3 to 8) (size 9 to 14) (size 15 to 20)
#    0.000    2.286    1.429    0.429   11.000    1.143 
#    2.571    0.714    1.571    2.571    0.000    0.000 
#    0.000    0.000    0.000    0.000    0.000    0.000 
#
# Total GULP energy -346965.315971 kJ/mol
# GULP energy per Si atom -12391.618428 kJ/mol
# Density = 2.295069 g / cm^3
# Si number density = 23.003045 Si / 1000 Ang^3
#
#
#
# Elastic Constant Matrix: (Units=GPa)
#
#
# Indices 1 2 3 4 5 6 
#
# 1 151.5210 8.5776 27.5083 0.0000 -4.0615 0.0000
# 2 8.5776 31.8541 -4.7663 0.0000 1.0509 0.0000
# 3 27.5083 -4.7663 71.3492 0.0000 -14.3371 0.0000
# 4 0.0000 0.0000 0.0000 11.4275 0.0000 -12.8334
# 5 -4.0615 1.0509 -14.3371 0.0000 31.3838 0.0000
# 6 0.0000 0.0000 0.0000 -12.8334 0.0000 7.5240
#
#
#
# Elastic Compliance Matrix: (Units=1/GPa)
#
#
# Indices 1 2 3 4 5 6 
#
# 1 0.007278 -0.002403 -0.003040 0.000000 -0.000366 0.000000
# 2 -0.002403 0.032504 0.003101 0.000000 0.000017 0.000000
# 3 -0.003040 0.003101 0.016841 0.000000 0.007196 0.000000
# 4 0.000000 0.000000 0.000000 -0.095586 0.000000 -0.163036
# 5 -0.000366 0.000017 0.007196 0.000000 0.035103 0.000000
# 6 0.000000 0.000000 0.000000 -0.163036 0.000000 -0.145176
#
#
# Mechanical properties :
#
#
# Convention : Reuss Voigt Hill
#
# Bulk Modulus (GPa) = 19.25330 35.26261 27.25796
# Shear Modulus (GPa) = -39.35746 24.96073 -7.19837
#
# Velocity S-wave (km/s) = -4.14087 3.29767 -1.77090
# Velocity P-wave (km/s) = 3.80452 5.46464 2.77380
#
# Compressibility (1/GPa) = 0.05193914
#
# Stress axis : x y z
#
# Youngs Moduli (GPa) = 137.40329 30.76589 59.37955
#
# Poissons Ratio (x) = 0.07392 0.18052
# Poissons Ratio (y) = 0.33012 -0.18414
# Poissons Ratio (z) = 0.41772 -0.09541
#
# Static dielectric constant tensor:
#      x y z
#    x 4.426940 0.000000 -0.174170 
#    y 0.000000 3.775330 0.000000 
#    z -0.174170 0.000000 4.083750 
# 
# 
# High freq. dielectric constant tensor:
#      x y z
#    x 1.920930 0.000000 -0.005580 
#    y 0.000000 1.869200 0.000000 
#    z -0.005580 0.000000 1.895390 
# 
# From -- ./inp_files/49194.got.cif
#   From: 2010.06.25/outbox.cif.g09.slc.cpg/sg15_25_cif.got.tgz:49194.got - 2010.06.28 07:06:18.
