data_PCOD8138861
_publ_section_title
;
Structure prediction by ZEFSAII (Michael W. Deem and Ramdas Pophale) SiO2 
 PCOD8138861
Probable space group: C 2/C
;
_chemical_formula_sum "Si O2"
_cell_formula_units_Z 64
_cell_length_a 14.247466
_cell_length_b 12.988333
_cell_length_c 24.654274
_cell_angle_alpha 90.000000
_cell_angle_beta 41.540291
_cell_angle_gamma 90.000000
_cell_volume 3025.469520
_symmetry_space_group_name_H-M "C 2/C"
_symmetry_group_IT_number 15
_symmetry_cell_setting 'monoclinic'
loop_
_space_group_symop_operation_xyz
x,y,z
-x,y,1/2-z
-x,-y,-z
x,-y,1/2+z
1/2+x,1/2+y,z
1/2-x,1/2+y,1/2-z
1/2-x,1/2-y,-z
1/2+x,1/2-y,1/2+z
loop_
_atom_site_type_symbol
_atom_site_label
_atom_site_fract_x
_atom_site_fract_y
_atom_site_fract_z
Si Si1 0.327111 0.283364 0.171608
Si Si2 0.960822 0.931878 0.890138
Si Si3 0.374742 0.896097 0.096105
Si Si4 0.425026 0.397481 0.230986
Si Si5 0.024039 0.600585 0.060459
Si Si6 0.634062 0.514035 0.905800
Si Si7 0.477899 0.207972 0.651519
Si Si8 0.319420 0.015222 0.921943
O O1 0.408504 0.313074 0.191474
O O2 0.388485 0.173376 0.127012
O O3 0.359586 0.365682 0.111199
O O4 0.158611 0.282903 0.250886
O O5 0.939933 0.815569 0.878684
O O6 0.819877 0.958447 0.983636
O O7 0.980036 0.006181 0.830138
O O8 0.106101 0.946261 0.863490
O O9 0.225362 0.937214 0.182206
O O10 0.428746 0.802253 0.110234
O O11 0.482607 0.988009 0.059014
O O12 0.376557 0.858232 0.032253
O O13 0.500000 0.344046 0.250000
O O14 0.108420 0.584283 0.080613
O O15 0.773944 0.482950 0.880064
O O16 0.500000 0.500000 0.000000
O O17 0.575972 0.113165 0.627789
#
# Coordination Sequence:
#
# PCOD8138861 Si02
#       8
#     8   8   8   8   8   8   8   8
#     4  10  22  40  61  86 123 161 209 248 311 366
#     4  10  20  38  62  88 122 165 196 247 316 366
#     4   9  20  36  60  84 122 159 197 253 312 359
#     4  10  20  39  57  84 122 157 202 255 303 363
#     4  10  20  38  62  89 118 161 206 253 304 370
#     4   9  21  40  61  86 124 162 198 251 310 361
#     4  10  21  38  61  90 122 160 202 258 301 370
#     4  10  21  39  61  93 123 153 208 257 298 365
#
# _framework density 21.153742000000001
#
# number of rings (size 3 to 8) (size 9 to 14) (size 15 to 20)
#    0.000    2.250    0.000    1.875    3.500    1.500 
#   11.250    6.250    0.000    0.000    0.000    0.000 
#    0.000    0.000    0.000    0.000    0.000    0.000 
#
# Total GULP energy -396577.714404 kJ/mol
# GULP energy per Si atom -12393.053575 kJ/mol
# Density = 2.110559 g / cm^3
# Si number density = 21.153742 Si / 1000 Ang^3
#
#
#
# Elastic Constant Matrix: (Units=GPa)
#
#
# Indices 1 2 3 4 5 6 
#
# 1 100.7004 3.9782 19.7761 0.0000 4.3619 0.0000
# 2 3.9782 52.3040 32.8945 0.0000 -4.1846 0.0000
# 3 19.7761 32.8945 107.4603 -0.0001 -2.9226 0.0000
# 4 0.0000 0.0000 -0.0001 31.1067 0.0000 -9.1258
# 5 4.3619 -4.1846 -2.9226 0.0000 28.1958 0.0000
# 6 0.0000 0.0000 0.0000 -9.1258 0.0000 17.8015
#
#
#
# Elastic Compliance Matrix: (Units=1/GPa)
#
#
# Indices 1 2 3 4 5 6 
#
# 1 0.010400 0.000373 -0.002076 0.000000 -0.001769 0.000000
# 2 0.000373 0.023908 -0.007313 0.000000 0.002733 0.000000
# 3 -0.002076 -0.007313 0.011939 0.000000 0.000473 0.000000
# 4 0.000000 0.000000 0.000000 0.037838 0.000000 0.019397
# 5 -0.001769 0.002733 0.000473 0.000000 0.036195 0.000000
# 6 0.000000 0.000000 0.000000 0.019397 0.000000 0.066119
#
#
# Mechanical properties :
#
#
# Convention : Reuss Voigt Hill
#
# Bulk Modulus (GPa) = 35.44107 41.52914 38.48511
# Shear Modulus (GPa) = 23.38232 29.00851 26.19541
#
# Velocity S-wave (km/s) = 3.32829 3.70715 3.52282
# Velocity P-wave (km/s) = 5.61787 6.16430 5.89742
#
# Compressibility (1/GPa) = 0.02821585
#
# Stress axis : x y z
#
# Youngs Moduli (GPa) = 96.15320 41.82625 83.75693
#
# Poissons Ratio (x) = -0.01561 0.17391
# Poissons Ratio (y) = -0.03589 0.61251
# Poissons Ratio (z) = 0.19964 0.30587
#
# Static dielectric constant tensor:
#      x y z
#    x 4.457220 0.000000 0.205780 
#    y 0.000000 3.464900 0.000000 
#    z 0.205780 0.000000 3.877540 
# 
# 
# High freq. dielectric constant tensor:
#      x y z
#    x 1.831030 0.000000 0.006420 
#    y 0.000000 1.805250 0.000000 
#    z 0.006420 0.000000 1.835070 
# 
# From -- ./inp_files/296118.got.cif
#   From: 2010.06.25/outbox.cif.g09.slc.cpg/sg15_149_cif.got.tgz:296118.got - 2010.06.28 07:06:18.
