data_PCOD8138148
_publ_section_title
;
Structure prediction by ZEFSAII (Michael W. Deem and Ramdas Pophale) SiO2 
 PCOD8138148
Probable space group: C 2/C
;
_chemical_formula_sum "Si O2"
_cell_formula_units_Z 56
_cell_length_a 30.120883
_cell_length_b 12.110545
_cell_length_c 9.998801
_cell_angle_alpha 90.000000
_cell_angle_beta 57.840751
_cell_angle_gamma 90.000000
_cell_volume 3087.757525
_symmetry_space_group_name_H-M "C 2/C"
_symmetry_group_IT_number 15
_symmetry_cell_setting 'monoclinic'
loop_
_space_group_symop_operation_xyz
x,y,z
-x,y,1/2-z
-x,-y,-z
x,-y,1/2+z
1/2+x,1/2+y,z
1/2-x,1/2+y,1/2-z
1/2-x,1/2-y,-z
1/2+x,1/2-y,1/2+z
loop_
_atom_site_type_symbol
_atom_site_label
_atom_site_fract_x
_atom_site_fract_y
_atom_site_fract_z
Si Si1 0.466349 0.030129 0.425976
Si Si2 0.379330 0.859061 0.199340
Si Si3 0.800203 0.544815 0.276322
Si Si4 0.696846 0.312515 0.612406
Si Si5 0.232999 0.957726 0.144941
Si Si6 0.660401 0.717991 0.880738
Si Si7 0.940167 0.298615 0.368458
O O1 0.500000 0.076551 0.250000
O O2 0.423385 0.125621 0.515935
O O3 0.500000 0.000000 0.500000
O O4 0.438665 0.916760 0.437745
O O5 0.338575 0.761794 0.230647
O O6 0.409752 0.820247 0.281121
O O7 0.348473 0.975540 0.262204
O O8 0.771048 0.467238 0.213152
O O9 0.763384 0.574016 0.460929
O O10 0.818058 0.657693 0.176012
O O11 0.750000 0.250000 0.500000
O O12 0.703779 0.426420 0.677260
O O13 0.671463 0.329811 0.509360
O O14 0.187853 0.864804 0.233173
O O15 0.596002 0.719751 0.978102
O O16 0.000000 0.253525 0.250000
#
# Coordination Sequence:
#
# PCOD8138148 Si02
#       7
#     8   8   8   8   8   8   8
#     4  11  20  34  55  86 120 148 188 239 290 339
#     4  11  21  36  60  88 119 156 188 231 295 353
#     4  12  23  36  59  89 122 152 190 237 287 353
#     4  11  20  39  59  81 119 159 186 234 294 351
#     4  12  23  40  57  84 125 153 197 236 281 347
#     4  11  22  37  60  85 114 155 198 236 290 343
#     4  10  20  37  60  86 116 154 190 237 295 343
#
# _framework density 18.136137999999999
#
# number of rings (size 3 to 8) (size 9 to 14) (size 15 to 20)
#    0.000    0.857    8.571    1.286    0.000    0.000 
#    0.000    0.000    0.000    4.286    0.000    0.000 
#    0.000    0.000    0.000    0.000    0.000    0.000 
#
# Total GULP energy -346905.704040 kJ/mol
# GULP energy per Si atom -12389.489430 kJ/mol
# Density = 1.809486 g / cm^3
# Si number density = 18.136138 Si / 1000 Ang^3
#
#
#
# Elastic Constant Matrix: (Units=GPa)
#
#
# Indices 1 2 3 4 5 6 
#
# 1 79.2930 29.9946 44.9165 0.0000 -23.2693 0.0000
# 2 29.9946 73.6493 26.3050 0.0000 -19.1085 0.0000
# 3 44.9165 26.3050 123.5394 0.0000 -22.6371 0.0000
# 4 0.0000 0.0000 0.0000 36.1221 0.0000 -9.0183
# 5 -23.2693 -19.1085 -22.6371 0.0000 31.8639 0.0000
# 6 0.0000 0.0000 0.0000 -9.0183 0.0000 28.3406
#
#
#
# Elastic Compliance Matrix: (Units=1/GPa)
#
#
# Indices 1 2 3 4 5 6 
#
# 1 0.019174 -0.004006 -0.004590 0.000000 0.008339 0.000000
# 2 -0.004006 0.017316 -0.000993 0.000000 0.006753 0.000000
# 3 -0.004590 -0.000993 0.010636 0.000000 0.003608 0.000000
# 4 0.000000 0.000000 0.000000 0.030073 0.000000 0.009570
# 5 0.008339 0.006753 0.003608 0.000000 0.044087 0.000000
# 6 0.000000 0.000000 0.000000 0.009570 0.000000 0.038330
#
#
# Mechanical properties :
#
#
# Convention : Reuss Voigt Hill
#
# Bulk Modulus (GPa) = 35.78097 53.21267 44.49682
# Shear Modulus (GPa) = 26.57999 30.94969 28.76484
#
# Velocity S-wave (km/s) = 3.83244 4.13549 3.98685
# Velocity P-wave (km/s) = 6.27339 7.22547 6.76620
#
# Compressibility (1/GPa) = 0.02794781
#
# Stress axis : x y z
#
# Youngs Moduli (GPa) = 52.15347 57.74934 94.01809
#
# Poissons Ratio (x) = 0.23133 0.43158
# Poissons Ratio (y) = 0.20892 0.09338
# Poissons Ratio (z) = 0.23941 0.05736
#
# Static dielectric constant tensor:
#      x y z
#    x 3.732600 0.000000 -0.417350 
#    y 0.000000 2.189050 0.000000 
#    z -0.417350 0.000000 3.984670 
# 
# 
# High freq. dielectric constant tensor:
#      x y z
#    x 1.705890 0.000000 -0.010580 
#    y 0.000000 1.677490 0.000000 
#    z -0.010580 0.000000 1.711320 
# 
# From -- ./inp_files/65544.got.cif
#   From: 2010.06.25/outbox.cif.g09.slc.cpg/sg15_33_cif.got.tgz:65544.got - 2010.06.28 07:06:18.
