data_PCOD8138605
_publ_section_title
;
Structure prediction by ZEFSAII (Michael W. Deem and Ramdas Pophale) SiO2 
 PCOD8138605
Probable space group: C 2/C
;
_chemical_formula_sum "Si O2"
_cell_formula_units_Z 60
_cell_length_a 26.345950
_cell_length_b 23.891542
_cell_length_c 9.041942
_cell_angle_alpha 90.000000
_cell_angle_beta 147.420238
_cell_angle_gamma 90.000000
_cell_volume 3064.670857
_symmetry_space_group_name_H-M "C 2/C"
_symmetry_group_IT_number 15
_symmetry_cell_setting 'monoclinic'
loop_
_space_group_symop_operation_xyz
x,y,z
-x,y,1/2-z
-x,-y,-z
x,-y,1/2+z
1/2+x,1/2+y,z
1/2-x,1/2+y,1/2-z
1/2-x,1/2-y,-z
1/2+x,1/2-y,1/2+z
loop_
_atom_site_type_symbol
_atom_site_label
_atom_site_fract_x
_atom_site_fract_y
_atom_site_fract_z
Si Si1 0.358289 0.263664 0.280535
Si Si2 0.408610 0.024358 0.947634
Si Si3 0.385266 0.076914 0.581738
Si Si4 0.201025 0.954149 0.007156
Si Si5 0.326180 0.432663 0.894837
Si Si6 0.413191 0.638053 0.129306
Si Si7 0.500000 0.173706 0.750000
Si Si8 0.541121 0.331980 0.201255
O O1 0.370114 0.309892 0.436042
O O2 0.422903 0.210231 0.474682
O O3 0.388179 0.287240 0.194837
O O4 0.250000 0.250000 0.000000
O O5 0.414737 0.034505 0.786667
O O6 0.313975 0.051853 0.781326
O O7 0.500000 0.051987 0.250000
O O8 0.404161 0.957541 0.975097
O O9 0.276465 0.094728 0.331999
O O10 0.444823 0.134077 0.730957
O O11 0.157430 0.947407 0.736945
O O12 0.167091 0.907358 0.039397
O O13 0.165435 0.012890 0.982756
O O14 0.406657 0.390635 0.143991
O O15 0.500000 0.611314 0.250000
O O16 0.450412 0.659860 0.376405
O O17 0.500000 0.306144 0.250000
#
# Coordination Sequence:
#
# PCOD8138605 Si02
#       8
#     8   8   8   8   8   8   4   8
#     4  11  25  46  68  92 125 170 224 267 329 384
#     4  10  20  38  58  90 129 168 198 258 322 381
#     4  10  22  37  63  88 132 164 205 258 316 387
#     4  10  22  37  59  94 132 165 217 254 321 398
#     4  10  22  37  58  97 129 168 210 257 322 391
#     4  10  22  42  63  88 129 169 209 269 316 378
#     4  12  22  42  66  92 120 168 224 256 320 390
#     4  11  21  42  67  87 129 166 209 273 326 361
#
# _framework density 19.577957999999999
#
# number of rings (size 3 to 8) (size 9 to 14) (size 15 to 20)
#    0.000    1.600    4.000    1.200    3.733    2.133 
#    2.400    4.000    0.000    0.000    0.000    0.000 
#    0.000    0.000    0.000    0.000    0.000    0.000 
#
# Total GULP energy -371995.146668 kJ/mol
# GULP energy per Si atom -12399.838222 kJ/mol
# Density = 1.953340 g / cm^3
# Si number density = 19.577958 Si / 1000 Ang^3
#
#
#
# Elastic Constant Matrix: (Units=GPa)
#
#
# Indices 1 2 3 4 5 6 
#
# 1 129.7422 77.7803 58.6638 0.0000 -8.4580 0.0000
# 2 77.7803 122.4708 58.2657 0.0000 8.0608 0.0000
# 3 58.6638 58.2657 119.0594 0.0000 6.3798 0.0000
# 4 0.0000 0.0000 0.0000 30.7403 0.0000 8.4251
# 5 -8.4580 8.0608 6.3798 0.0000 29.8350 0.0000
# 6 0.0000 0.0000 0.0000 8.4251 0.0000 32.8232
#
#
#
# Elastic Compliance Matrix: (Units=1/GPa)
#
#
# Indices 1 2 3 4 5 6 
#
# 1 0.014635 -0.008017 -0.003668 0.000000 0.007099 0.000000
# 2 -0.008017 0.015129 -0.003149 0.000000 -0.005687 0.000000
# 3 -0.003668 -0.003149 0.011894 0.000000 -0.002732 0.000000
# 4 0.000000 0.000000 0.000000 0.034992 0.000000 -0.008982
# 5 0.007099 -0.005687 -0.002732 0.000000 0.037651 0.000000
# 6 0.000000 0.000000 0.000000 -0.008982 0.000000 0.032772
#
#
# Mechanical properties :
#
#
# Convention : Reuss Voigt Hill
#
# Bulk Modulus (GPa) = 83.40218 84.52133 83.96175
# Shear Modulus (GPa) = 27.66435 30.45054 29.05745
#
# Velocity S-wave (km/s) = 3.76311 3.94807 3.85670
# Velocity P-wave (km/s) = 7.84690 8.00302 7.92535
#
# Compressibility (1/GPa) = 0.01199009
#
# Stress axis : x y z
#
# Youngs Moduli (GPa) = 68.32940 66.09813 84.07471
#
# Poissons Ratio (x) = 0.52989 0.30841
# Poissons Ratio (y) = 0.54777 0.26476
# Poissons Ratio (z) = 0.25065 0.20815
#
# Static dielectric constant tensor:
#      x y z
#    x 3.843690 0.000000 0.053420 
#    y 0.000000 3.434550 0.000000 
#    z 0.053420 0.000000 3.765240 
# 
# 
# High freq. dielectric constant tensor:
#      x y z
#    x 1.777690 0.000000 0.008980 
#    y 0.000000 1.742190 0.000000 
#    z 0.008980 0.000000 1.772000 
# 
# From -- ./inp_files/67791.got.cif
#   From: 2010.06.25/outbox.cif.g09.slc.cpg/sg15_34_cif.got.tgz:67791.got - 2010.06.28 07:06:18.
