data_PCOD8138709
_publ_section_title
;
Structure prediction by ZEFSAII (Michael W. Deem and Ramdas Pophale) SiO2 
 PCOD8138709
Probable space group: C 2/C
;
_chemical_formula_sum "Si O2"
_cell_formula_units_Z 52
_cell_length_a 8.512657
_cell_length_b 25.408208
_cell_length_c 12.508012
_cell_angle_alpha 90.000000
_cell_angle_beta 68.546958
_cell_angle_gamma 90.000000
_cell_volume 2517.940135
_symmetry_space_group_name_H-M "C 2/C"
_symmetry_group_IT_number 15
_symmetry_cell_setting 'monoclinic'
loop_
_space_group_symop_operation_xyz
x,y,z
-x,y,1/2-z
-x,-y,-z
x,-y,1/2+z
1/2+x,1/2+y,z
1/2-x,1/2+y,1/2-z
1/2-x,1/2-y,-z
1/2+x,1/2-y,1/2+z
loop_
_atom_site_type_symbol
_atom_site_label
_atom_site_fract_x
_atom_site_fract_y
_atom_site_fract_z
Si Si1 0.863845 0.496444 0.691100
Si Si2 0.433797 0.824721 0.383575
Si Si3 0.672595 0.733909 0.406373
Si Si4 0.049596 0.841314 0.439080
Si Si5 0.000000 0.771196 0.250000
Si Si6 0.926277 0.429813 0.490250
Si Si7 0.377498 0.459444 0.086892
O O1 0.865307 0.440268 0.628023
O O2 0.684249 0.513838 0.786183
O O3 0.000000 0.493969 0.750000
O O4 0.907285 0.537643 0.585450
O O5 0.500000 0.842269 0.250000
O O6 0.524949 0.772535 0.401452
O O7 0.232485 0.820130 0.428140
O O8 0.475523 0.869213 0.461356
O O9 0.750000 0.750000 0.500000
O O10 0.584510 0.676220 0.434957
O O11 0.831360 0.734739 0.285131
O O12 0.032053 0.903205 0.417673
O O13 0.989515 0.809591 0.351940
O O14 0.779693 0.447460 0.447814
O O15 0.500000 0.500000 0.000000
#
# Coordination Sequence:
#
# PCOD8138709 Si02
#       7
#     8   8   8   8   4   8   8
#     4   9  18  36  56  85 120 160 206 246 301 359
#     4  11  19  37  68  91 119 168 211 257 319 380
#     4  10  22  39  59  90 123 150 208 261 314 376
#     4  10  21  38  61  89 118 160 211 251 307 372
#     4  10  20  38  60  90 116 156 198 258 304 376
#     4   9  19  35  61  89 119 156 211 259 293 368
#     4  10  21  37  58  88 124 160 203 251 306 369
#
# _framework density 20.651800999999999
#
# number of rings (size 3 to 8) (size 9 to 14) (size 15 to 20)
#    0.000    2.154    1.538    2.769    0.000    1.846 
#   13.846    3.077    5.077    0.000    0.000    0.000 
#    0.000    0.000    0.000    0.000    0.000    0.000 
#
# Total GULP energy -322139.773656 kJ/mol
# GULP energy per Si atom -12389.991294 kJ/mol
# Density = 2.060480 g / cm^3
# Si number density = 20.651801 Si / 1000 Ang^3
#
#
#
# Elastic Constant Matrix: (Units=GPa)
#
#
# Indices 1 2 3 4 5 6 
#
# 1 56.1175 34.8687 27.6390 0.0000 -20.8727 0.0000
# 2 34.8687 108.4212 76.4638 0.0000 -25.5349 0.0000
# 3 27.6390 76.4638 119.8675 0.0000 -27.3114 0.0000
# 4 0.0000 0.0000 0.0000 36.4263 0.0000 -2.5284
# 5 -20.8727 -25.5349 -27.3114 0.0000 38.9738 0.0000
# 6 0.0000 0.0000 0.0000 -2.5284 0.0000 17.4085
#
#
#
# Elastic Compliance Matrix: (Units=1/GPa)
#
#
# Indices 1 2 3 4 5 6 
#
# 1 0.024977 -0.005906 0.000207 0.000000 0.009653 0.000000
# 2 -0.005906 0.018747 -0.010138 0.000000 0.002016 0.000000
# 3 0.000207 -0.010138 0.015796 0.000000 0.004538 0.000000
# 4 0.000000 0.000000 0.000000 0.027732 0.000000 0.004028
# 5 0.009653 0.002016 0.004538 0.000000 0.035329 0.000000
# 6 0.000000 0.000000 0.000000 0.004028 0.000000 0.058028
#
#
# Mechanical properties :
#
#
# Convention : Reuss Voigt Hill
#
# Bulk Modulus (GPa) = 35.90945 62.48325 49.19635
# Shear Modulus (GPa) = 22.56688 28.25737 25.41213
#
# Velocity S-wave (km/s) = 3.30924 3.70304 3.51166
# Velocity P-wave (km/s) = 5.65926 6.97170 6.34948
#
# Compressibility (1/GPa) = 0.02784782
#
# Stress axis : x y z
#
# Youngs Moduli (GPa) = 40.03604 53.34216 63.30887
#
# Poissons Ratio (x) = 0.31502 -0.01313
# Poissons Ratio (y) = 0.23644 0.64181
# Poissons Ratio (z) = -0.00830 0.54077
#
# Static dielectric constant tensor:
#      x y z
#    x 4.072590 0.000000 -0.540750 
#    y 0.000000 3.952870 0.000000 
#    z -0.540750 0.000000 4.317960 
# 
# 
# High freq. dielectric constant tensor:
#      x y z
#    x 1.808320 0.000000 -0.010560 
#    y 0.000000 1.790710 0.000000 
#    z -0.010560 0.000000 1.806120 
# 
# From -- ./inp_files/80619.got.cif
#   From: 2010.06.25/outbox.cif.g09.slc.cpg/sg15_41_cif.got.tgz:80619.got - 2010.06.28 07:06:18.
