data_PCOD8138234
_publ_section_title
;
Structure prediction by ZEFSAII (Michael W. Deem and Ramdas Pophale) SiO2 
 PCOD8138234
Probable space group: C 2/C
;
_chemical_formula_sum "Si O2"
_cell_formula_units_Z 60
_cell_length_a 7.683118
_cell_length_b 14.344831
_cell_length_c 26.308653
_cell_angle_alpha 90.000000
_cell_angle_beta 75.508976
_cell_angle_gamma 90.000000
_cell_volume 2807.312331
_symmetry_space_group_name_H-M "C 2/C"
_symmetry_group_IT_number 15
_symmetry_cell_setting 'monoclinic'
loop_
_space_group_symop_operation_xyz
x,y,z
-x,y,1/2-z
-x,-y,-z
x,-y,1/2+z
1/2+x,1/2+y,z
1/2-x,1/2+y,1/2-z
1/2-x,1/2-y,-z
1/2+x,1/2-y,1/2+z
loop_
_atom_site_type_symbol
_atom_site_label
_atom_site_fract_x
_atom_site_fract_y
_atom_site_fract_z
Si Si1 0.000000 0.534293 0.750000
Si Si2 0.696837 0.785913 0.560207
Si Si3 0.524966 0.876235 0.352192
Si Si4 0.101665 0.507523 0.060968
Si Si5 0.108844 0.023154 0.294587
Si Si6 0.726643 0.470116 0.547229
Si Si7 0.087416 0.886111 0.125134
Si Si8 0.512496 0.674795 0.114406
O O1 0.036525 0.604811 0.792508
O O2 0.176884 0.469921 0.730366
O O3 0.750000 0.750000 0.500000
O O4 0.564749 0.715133 0.600658
O O5 0.873974 0.808115 0.579110
O O6 0.590155 0.881729 0.565724
O O7 0.389216 0.953534 0.386176
O O8 0.723178 0.886220 0.359905
O O9 0.437536 0.774568 0.365887
O O10 0.912572 0.480129 0.049524
O O11 0.268896 0.469776 0.014606
O O12 0.000000 0.035619 0.250000
O O13 0.061784 0.921184 0.323168
O O14 0.058499 0.107572 0.335845
O O15 0.575191 0.539522 0.579806
O O16 0.689466 0.368625 0.574279
#
# Coordination Sequence:
#
# PCOD8138234 Si02
#       8
#     4   8   8   8   8   8   8   8
#     4  12  24  42  68  96 122 172 222 274 332 396
#     4  11  21  39  63  94 133 171 213 267 326 399
#     4  10  22  40  62  91 131 165 220 269 324 394
#     4  10  20  37  61  90 124 172 207 262 323 391
#     4  11  23  45  71  95 129 173 220 280 337 383
#     4   9  19  37  61  87 124 165 210 258 325 385
#     4   9  19  41  63  89 130 170 205 270 335 386
#     4  10  24  41  62  96 128 168 217 272 330 400
#
# _framework density 21.372755999999999
#
# number of rings (size 3 to 8) (size 9 to 14) (size 15 to 20)
#    0.000    1.867    2.667    0.800    2.800    2.133 
#    2.400    4.000    1.467    0.000    0.000    0.000 
#    0.000    0.000    0.000    0.000    0.000    0.000 
#
# Total GULP energy -371727.693641 kJ/mol
# GULP energy per Si atom -12390.923121 kJ/mol
# Density = 2.132411 g / cm^3
# Si number density = 21.372756 Si / 1000 Ang^3
#
#
#
# Elastic Constant Matrix: (Units=GPa)
#
#
# Indices 1 2 3 4 5 6 
#
# 1 53.5144 19.8735 37.0844 0.0000 -11.8714 0.0000
# 2 19.8735 147.4356 77.4746 0.0000 -10.9475 0.0000
# 3 37.0844 77.4746 159.1144 0.0000 -0.8343 0.0000
# 4 0.0000 0.0000 0.0000 33.5790 0.0000 -1.8472
# 5 -11.8714 -10.9475 -0.8343 0.0000 30.1522 0.0000
# 6 0.0000 0.0000 0.0000 -1.8472 0.0000 26.6574
#
#
#
# Elastic Compliance Matrix: (Units=1/GPa)
#
#
# Indices 1 2 3 4 5 6 
#
# 1 0.024814 0.000530 -0.005990 0.000000 0.009797 0.000000
# 2 0.000530 0.009443 -0.004703 0.000000 0.003507 0.000000
# 3 -0.005990 -0.004703 0.009951 0.000000 -0.003791 0.000000
# 4 0.000000 0.000000 0.000000 0.029894 0.000000 0.002071
# 5 0.009797 0.003507 -0.003791 0.000000 0.038191 0.000000
# 6 0.000000 0.000000 0.000000 0.002071 0.000000 0.037657
#
#
# Mechanical properties :
#
#
# Convention : Reuss Voigt Hill
#
# Bulk Modulus (GPa) = 41.87247 69.88103 55.87675
# Shear Modulus (GPa) = 28.05267 33.11983 30.58625
#
# Velocity S-wave (km/s) = 3.62683 3.94080 3.78707
# Velocity P-wave (km/s) = 6.09694 7.31258 6.73225
#
# Compressibility (1/GPa) = 0.02388204
#
# Stress axis : x y z
#
# Youngs Moduli (GPa) = 40.29996 105.89920 100.49216
#
# Poissons Ratio (x) = -0.05617 0.60197
# Poissons Ratio (y) = -0.02137 0.47262
# Poissons Ratio (z) = 0.24140 0.49805
#
# Static dielectric constant tensor:
#      x y z
#    x 3.631330 0.000000 -0.045500 
#    y 0.000000 4.040090 0.000000 
#    z -0.045500 0.000000 4.220240 
# 
# 
# High freq. dielectric constant tensor:
#      x y z
#    x 1.821540 0.000000 0.003460 
#    y 0.000000 1.834400 0.000000 
#    z 0.003460 0.000000 1.854740 
# 
# From -- ./inp_files/264328.got.cif
#   From: 2010.06.25/outbox.cif.g09.slc.cpg/sg15_133_cif.got.tgz:264328.got - 2010.06.28 07:06:18.
