data_PCOD8138907
_publ_section_title
;
Structure prediction by ZEFSAII (Michael W. Deem and Ramdas Pophale) SiO2 
 PCOD8138907
Probable space group: C 2/C
;
_chemical_formula_sum "Si O2"
_cell_formula_units_Z 36
_cell_length_a 14.824357
_cell_length_b 19.429419
_cell_length_c 8.217175
_cell_angle_alpha 90.000000
_cell_angle_beta 46.452371
_cell_angle_gamma 90.000000
_cell_volume 1715.447930
_symmetry_space_group_name_H-M "C 2/C"
_symmetry_group_IT_number 15
_symmetry_cell_setting 'monoclinic'
loop_
_space_group_symop_operation_xyz
x,y,z
-x,y,1/2-z
-x,-y,-z
x,-y,1/2+z
1/2+x,1/2+y,z
1/2-x,1/2+y,1/2-z
1/2-x,1/2-y,-z
1/2+x,1/2-y,1/2+z
loop_
_atom_site_type_symbol
_atom_site_label
_atom_site_fract_x
_atom_site_fract_y
_atom_site_fract_z
Si Si1 0.582211 0.287396 0.856129
Si Si2 0.151066 0.571667 0.358811
Si Si3 0.847047 0.275592 0.575186
Si Si4 0.500000 0.034233 0.250000
Si Si5 0.934282 0.935165 0.499312
O O1 0.703362 0.263801 0.814263
O O2 0.622590 0.268166 0.623016
O O3 0.454319 0.248657 0.069999
O O4 0.556931 0.368865 0.894570
O O5 0.141191 0.642829 0.470918
O O6 0.072752 0.580930 0.289718
O O7 0.100530 0.512163 0.535051
O O8 0.290604 0.548906 0.140994
O O9 0.000000 0.916032 0.250000
O O10 0.000000 0.000000 0.500000
#
# Coordination Sequence:
#
# PCOD8138907 Si02
#       5
#     8   8   8   4   8
#     4   9  19  37  60  89 116 159 204 254 303 368
#     4  10  21  40  63  92 127 163 212 258 311 374
#     4   9  18  37  61  87 117 158 210 251 306 370
#     4  10  20  38  62  94 122 164 210 260 316 360
#     4  11  24  41  61  92 129 165 206 257 315 379
#
# _framework density 20.985772999999998
#
# number of rings (size 3 to 8) (size 9 to 14) (size 15 to 20)
#    0.000    2.222    0.000    2.667    3.111    0.000 
#   18.000    2.222    0.000    0.000    0.000    0.000 
#    0.000    0.000    0.000    0.000    0.000    0.000 
#
# Total GULP energy -223017.122420 kJ/mol
# GULP energy per Si atom -12389.840134 kJ/mol
# Density = 2.093801 g / cm^3
# Si number density = 20.985773 Si / 1000 Ang^3
#
#
#
# Elastic Constant Matrix: (Units=GPa)
#
#
# Indices 1 2 3 4 5 6 
#
# 1 118.2514 64.7681 61.7877 0.0000 -43.1860 0.0000
# 2 64.7681 123.5548 51.2602 0.0000 -15.9013 0.0000
# 3 61.7877 51.2602 105.3296 0.0000 -24.0282 0.0000
# 4 0.0000 0.0000 0.0000 28.5463 0.0000 -2.3880
# 5 -43.1860 -15.9013 -24.0282 0.0000 57.7908 0.0000
# 6 0.0000 0.0000 0.0000 -2.3880 0.0000 35.1237
#
#
#
# Elastic Compliance Matrix: (Units=1/GPa)
#
#
# Indices 1 2 3 4 5 6 
#
# 1 0.018125 -0.005968 -0.005538 0.000000 0.009600 0.000000
# 2 -0.005968 0.012141 -0.002942 0.000000 -0.002342 0.000000
# 3 -0.005538 -0.002942 0.014413 0.000000 0.001045 0.000000
# 4 0.000000 0.000000 0.000000 0.035231 0.000000 0.002395
# 5 0.009600 -0.002342 0.001045 0.000000 0.024267 0.000000
# 6 0.000000 0.000000 0.000000 0.002395 0.000000 0.028634
#
#
# Mechanical properties :
#
#
# Convention : Reuss Voigt Hill
#
# Bulk Modulus (GPa) = 63.36096 78.08534 70.72315
# Shear Modulus (GPa) = 29.94586 35.58015 32.76301
#
# Velocity S-wave (km/s) = 3.78161 4.12204 3.95549
# Velocity P-wave (km/s) = 7.02320 7.74238 7.39154
#
# Compressibility (1/GPa) = 0.01578259
#
# Stress axis : x y z
#
# Youngs Moduli (GPa) = 55.17292 82.36386 69.38319
#
# Poissons Ratio (x) = 0.49156 0.38424
# Poissons Ratio (y) = 0.32928 0.20413
# Poissons Ratio (z) = 0.30554 0.24232
#
# Static dielectric constant tensor:
#      x y z
#    x 4.717770 0.000000 -0.724270 
#    y 0.000000 3.655270 0.000000 
#    z -0.724270 0.000000 3.871900 
# 
# 
# High freq. dielectric constant tensor:
#      x y z
#    x 1.833670 0.000000 -0.038960 
#    y 0.000000 1.818240 0.000000 
#    z -0.038960 0.000000 1.808800 
# 
# From -- ./inp_files/38900.got.cif
#   From: 2010.06.25/outbox.cif.g09.slc.cpg/sg15_20_cif.got.tgz:38900.got - 2010.06.28 07:06:18.
