data_PCOD8138026
_publ_section_title
;
Structure prediction by ZEFSAII (Michael W. Deem and Ramdas Pophale) SiO2 
 PCOD8138026
Probable space group: C 2/C
;
_chemical_formula_sum "Si O2"
_cell_formula_units_Z 56
_cell_length_a 12.466994
_cell_length_b 26.493004
_cell_length_c 8.861639
_cell_angle_alpha 90.000000
_cell_angle_beta 88.118728
_cell_angle_gamma 90.000000
_cell_volume 2925.316506
_symmetry_space_group_name_H-M "C 2/C"
_symmetry_group_IT_number 15
_symmetry_cell_setting 'monoclinic'
loop_
_space_group_symop_operation_xyz
x,y,z
-x,y,1/2-z
-x,-y,-z
x,-y,1/2+z
1/2+x,1/2+y,z
1/2-x,1/2+y,1/2-z
1/2-x,1/2-y,-z
1/2+x,1/2-y,1/2+z
loop_
_atom_site_type_symbol
_atom_site_label
_atom_site_fract_x
_atom_site_fract_y
_atom_site_fract_z
Si Si1 0.481039 0.593828 0.426413
Si Si2 0.102072 0.626045 0.648659
Si Si3 0.017126 0.694300 0.077576
Si Si4 0.222431 0.951598 0.417961
Si Si5 0.539552 0.308455 0.085379
Si Si6 0.725840 0.840408 0.417801
Si Si7 0.182797 0.947349 0.072469
O O1 0.500000 0.584202 0.250000
O O2 0.360643 0.578631 0.473709
O O3 0.497329 0.652934 0.461572
O O4 0.561560 0.558734 0.518597
O O5 0.065741 0.661959 0.515500
O O6 0.163639 0.577209 0.582189
O O7 0.181169 0.659215 0.749211
O O8 0.000000 0.606922 0.750000
O O9 0.000000 0.679170 0.250000
O O10 0.992930 0.753374 0.050026
O O11 0.140198 0.683056 0.034618
O O12 0.177128 0.956486 0.251299
O O13 0.241983 0.006746 0.486462
O O14 0.500000 0.328077 0.250000
O O15 0.668529 0.306162 0.081340
O O16 0.749900 0.897427 0.470041
#
# Coordination Sequence:
#
# PCOD8138026 Si02
#       7
#     8   8   8   8   8   8   8
#     4  11  22  35  55  85 114 143 181 224 271 331
#     4   9  20  38  57  78 109 148 185 223 270 325
#     4  10  21  36  56  82 111 142 182 228 272 321
#     4  11  21  38  58  80 112 147 180 227 276 322
#     4  10  20  37  57  81 110 143 180 225 277 326
#     4   9  19  38  57  76 108 146 180 222 273 324
#     4  10  21  36  57  82 110 145 183 223 274 327
#
# _framework density 19.143228000000001
#
# number of rings (size 3 to 8) (size 9 to 14) (size 15 to 20)
#    0.000    2.000    0.000    4.714    0.000    5.143 
#    0.000   13.571    0.000    0.000    0.000    0.000 
#    0.000    0.000    0.000    0.000    0.000    0.000 
#
# Total GULP energy -347310.777584 kJ/mol
# GULP energy per Si atom -12403.956342 kJ/mol
# Density = 1.909966 g / cm^3
# Si number density = 19.143228 Si / 1000 Ang^3
#
#
#
# Elastic Constant Matrix: (Units=GPa)
#
#
# Indices 1 2 3 4 5 6 
#
# 1 87.2394 44.0534 39.3770 0.0000 6.2102 0.0000
# 2 44.0534 105.4153 56.0799 0.0000 4.2122 0.0000
# 3 39.3770 56.0799 118.9239 0.0000 0.8583 0.0000
# 4 0.0000 0.0000 0.0000 29.5539 0.0000 -3.8816
# 5 6.2102 4.2122 0.8583 0.0000 23.6047 0.0000
# 6 0.0000 0.0000 0.0000 -3.8816 0.0000 24.8733
#
#
#
# Elastic Compliance Matrix: (Units=1/GPa)
#
#
# Indices 1 2 3 4 5 6 
#
# 1 0.015376 -0.004813 -0.002799 0.000000 -0.003085 0.000000
# 2 -0.004813 0.014269 -0.005127 0.000000 -0.001093 0.000000
# 3 -0.002799 -0.005127 0.011744 0.000000 0.001224 0.000000
# 4 0.000000 0.000000 0.000000 0.034544 0.000000 0.005391
# 5 -0.003085 -0.001093 0.001224 0.000000 0.043327 0.000000
# 6 0.000000 0.000000 0.000000 0.005391 0.000000 0.041045
#
#
# Mechanical properties :
#
#
# Convention : Reuss Voigt Hill
#
# Bulk Modulus (GPa) = 62.85140 65.62212 64.23676
# Shear Modulus (GPa) = 26.16584 27.07763 26.62173
#
# Velocity S-wave (km/s) = 3.70110 3.76503 3.73320
# Velocity P-wave (km/s) = 7.15316 7.29757 7.22573
#
# Compressibility (1/GPa) = 0.01591054
#
# Stress axis : x y z
#
# Youngs Moduli (GPa) = 65.03473 70.08160 85.14639
#
# Poissons Ratio (x) = 0.33733 0.23834
# Poissons Ratio (y) = 0.31304 0.43655
# Poissons Ratio (z) = 0.18204 0.35931
#
# Static dielectric constant tensor:
#      x y z
#    x 3.577280 0.000000 -0.026740 
#    y 0.000000 3.480760 0.000000 
#    z -0.026740 0.000000 3.491550 
# 
# 
# High freq. dielectric constant tensor:
#      x y z
#    x 1.741850 0.000000 -0.004720 
#    y 0.000000 1.746820 0.000000 
#    z -0.004720 0.000000 1.748070 
# 
# From -- ./inp_files/34195.got.cif
#   From: 2010.06.25/outbox.cif.g09.slc.cpg/sg15_18_cif.got.tgz:34195.got - 2010.06.28 07:06:18.
