data_PCOD8138035
_publ_section_title
;
Structure prediction by ZEFSAII (Michael W. Deem and Ramdas Pophale) SiO2 
 PCOD8138035
Probable space group: C 2/C
;
_chemical_formula_sum "Si O2"
_cell_formula_units_Z 60
_cell_length_a 21.873306
_cell_length_b 12.847762
_cell_length_c 11.318596
_cell_angle_alpha 90.000000
_cell_angle_beta 114.914699
_cell_angle_gamma 90.000000
_cell_volume 2884.769361
_symmetry_space_group_name_H-M "C 2/C"
_symmetry_group_IT_number 15
_symmetry_cell_setting 'monoclinic'
loop_
_space_group_symop_operation_xyz
x,y,z
-x,y,1/2-z
-x,-y,-z
x,-y,1/2+z
1/2+x,1/2+y,z
1/2-x,1/2+y,1/2-z
1/2-x,1/2-y,-z
1/2+x,1/2-y,1/2+z
loop_
_atom_site_type_symbol
_atom_site_label
_atom_site_fract_x
_atom_site_fract_y
_atom_site_fract_z
Si Si1 0.594004 0.591428 0.559885
Si Si2 0.157825 0.824196 0.895003
Si Si3 0.556099 0.621879 0.121538
Si Si4 0.110557 0.304039 0.695230
Si Si5 0.000000 0.416147 0.250000
Si Si6 0.698345 0.876802 0.554209
Si Si7 0.383170 0.939543 0.583656
Si Si8 0.470920 0.167759 0.978829
O O1 0.652760 0.609873 0.512141
O O2 0.522882 0.594647 0.431222
O O3 0.600980 0.477186 0.620394
O O4 0.603200 0.678941 0.670254
O O5 0.088186 0.836175 0.768503
O O6 0.221253 0.864305 0.871143
O O7 0.166857 0.702359 0.932320
O O8 0.559107 0.715753 0.028956
O O9 0.166584 0.353702 0.655771
O O10 0.130906 0.337619 0.845665
O O11 0.037256 0.352747 0.610655
O O12 0.933512 0.485290 0.193259
O O13 0.992971 0.345606 0.360880
O O14 0.684036 0.994947 0.500117
O O15 0.414209 0.909361 0.481487
#
# Coordination Sequence:
#
# PCOD8138035 Si02
#       8
#     8   8   8   8   4   8   8   8
#     4   9  21  38  60  88 110 149 204 247 300 343
#     4  10  21  40  59  79 117 155 202 249 277 349
#     4  10  21  37  61  86 109 150 198 254 294 340
#     4  10  20  37  57  86 125 153 190 242 297 358
#     4  12  20  32  56  82 126 156 176 236 288 354
#     4  10  22  37  57  86 114 161 203 226 290 363
#     4  12  21  35  56  89 126 158 179 240 302 359
#     4  11  22  34  58  91 119 149 198 240 297 357
#
# _framework density 20.798888999999999
#
# number of rings (size 3 to 8) (size 9 to 14) (size 15 to 20)
#    0.000    1.600    2.667    2.400    3.733    2.133 
#    0.000    6.667    0.000    2.400    0.000    0.000 
#    0.000    0.000    0.000    0.000    0.000    0.000 
#
# Total GULP energy -371865.723279 kJ/mol
# GULP energy per Si atom -12395.524109 kJ/mol
# Density = 2.075155 g / cm^3
# Si number density = 20.798889 Si / 1000 Ang^3
#
#
#
# Elastic Constant Matrix: (Units=GPa)
#
#
# Indices 1 2 3 4 5 6 
#
# 1 78.5996 38.8483 21.8215 0.0000 -19.7637 0.0000
# 2 38.8483 102.1034 25.6023 0.0000 -11.2627 0.0000
# 3 21.8215 25.6023 63.8666 0.0000 -14.4572 0.0000
# 4 0.0000 0.0000 0.0000 22.5813 0.0000 1.2726
# 5 -19.7637 -11.2627 -14.4572 0.0000 21.5759 0.0000
# 6 0.0000 0.0000 0.0000 1.2726 0.0000 25.9452
#
#
#
# Elastic Compliance Matrix: (Units=1/GPa)
#
#
# Indices 1 2 3 4 5 6 
#
# 1 0.019293 -0.005491 -0.001225 0.000000 0.013986 0.000000
# 2 -0.005491 0.012648 -0.003346 0.000000 -0.000669 0.000000
# 3 -0.001225 -0.003346 0.019766 0.000000 0.010376 0.000000
# 4 0.000000 0.000000 0.000000 0.044407 0.000000 -0.002178
# 5 0.013986 -0.000669 0.010376 0.000000 0.065762 0.000000
# 6 0.000000 0.000000 0.000000 -0.002178 0.000000 0.038650
#
#
# Mechanical properties :
#
#
# Convention : Reuss Voigt Hill
#
# Bulk Modulus (GPa) = 31.66089 46.34597 39.00343
# Shear Modulus (GPa) = 21.62831 24.57365 23.10098
#
# Velocity S-wave (km/s) = 3.22821 3.44101 3.33631
# Velocity P-wave (km/s) = 5.39913 6.17403 5.79954
#
# Compressibility (1/GPa) = 0.03158471
#
# Stress axis : x y z
#
# Youngs Moduli (GPa) = 51.83118 79.06215 50.59159
#
# Poissons Ratio (x) = 0.43412 0.06197
# Poissons Ratio (y) = 0.28460 0.16926
# Poissons Ratio (z) = 0.06349 0.26452
#
# Static dielectric constant tensor:
#      x y z
#    x 3.599030 0.000000 -0.032510 
#    y 0.000000 3.916250 0.000000 
#    z -0.032510 0.000000 3.441350 
# 
# 
# High freq. dielectric constant tensor:
#      x y z
#    x 1.800780 0.000000 -0.008220 
#    y 0.000000 1.820420 0.000000 
#    z -0.008220 0.000000 1.788980 
# 
# From -- ./inp_files/117632.got.cif
#   From: 2010.06.25/outbox.cif.g09.slc.cpg/sg15_59_cif.got.tgz:117632.got - 2010.06.28 07:06:18.
