data_PCOD8138131
_publ_section_title
;
Structure prediction by ZEFSAII (Michael W. Deem and Ramdas Pophale) SiO2 
 PCOD8138131
Probable space group: C 2/C
;
_chemical_formula_sum "Si O2"
_cell_formula_units_Z 48
_cell_length_a 12.462629
_cell_length_b 12.235838
_cell_length_c 19.843652
_cell_angle_alpha 90.000000
_cell_angle_beta 51.840286
_cell_angle_gamma 90.000000
_cell_volume 2379.296562
_symmetry_space_group_name_H-M "C 2/C"
_symmetry_group_IT_number 15
_symmetry_cell_setting 'monoclinic'
loop_
_space_group_symop_operation_xyz
x,y,z
-x,y,1/2-z
-x,-y,-z
x,-y,1/2+z
1/2+x,1/2+y,z
1/2-x,1/2+y,1/2-z
1/2-x,1/2-y,-z
1/2+x,1/2-y,1/2+z
loop_
_atom_site_type_symbol
_atom_site_label
_atom_site_fract_x
_atom_site_fract_y
_atom_site_fract_z
Si Si1 0.338234 0.249576 0.738059
Si Si2 0.752397 0.005286 0.080429
Si Si3 0.339260 0.256258 0.581504
Si Si4 0.000000 0.430596 0.250000
Si Si5 0.853637 0.920788 0.407341
Si Si6 0.917418 0.181405 0.591490
Si Si7 0.000000 0.930034 0.750000
O O1 0.335198 0.226410 0.660562
O O2 0.404294 0.140761 0.740529
O O3 0.186651 0.259637 0.827710
O O4 0.424574 0.356713 0.723261
O O5 0.814450 0.115252 0.085829
O O6 0.594577 0.003116 0.164489
O O7 0.837268 0.902188 0.074285
O O8 0.762137 0.008915 0.995233
O O9 0.227804 0.186467 0.584440
O O10 0.488995 0.238281 0.490506
O O11 0.993702 0.884548 0.388471
O O12 0.887384 0.995932 0.330340
#
# Coordination Sequence:
#
# PCOD8138131 Si02
#       7
#     8   8   8   4   8   8   4
#     4  10  22  39  58  81 110 146 187 230 277 327
#     4  10  20  37  60  83 112 149 184 227 277 329
#     4  11  22  36  57  84 115 147 182 229 277 330
#     4   9  22  39  58  82 110 143 188 231 274 328
#     4  11  22  37  56  85 115 146 185 228 276 331
#     4  10  20  38  59  83 112 147 187 228 275 329
#     4  11  22  39  58  80 110 149 186 229 278 330
#
# _framework density 20.174029000000001
#
# number of rings (size 3 to 8) (size 9 to 14) (size 15 to 20)
#    0.000    1.667    0.000    7.000    0.000    6.000 
#    0.000    6.667    0.000    0.000    0.000    0.000 
#    0.000    0.000    0.000    0.000    0.000    0.000 
#
# Total GULP energy -297621.651188 kJ/mol
# GULP energy per Si atom -12400.902133 kJ/mol
# Density = 2.012811 g / cm^3
# Si number density = 20.174029 Si / 1000 Ang^3
#
#
#
# Elastic Constant Matrix: (Units=GPa)
#
#
# Indices 1 2 3 4 5 6 
#
# 1 63.7581 17.6395 51.7574 0.0000 5.7169 0.0000
# 2 17.6395 38.6803 24.0442 0.0000 -2.0810 0.0000
# 3 51.7574 24.0442 167.6906 0.0000 -5.3893 0.0000
# 4 0.0000 0.0000 0.0000 36.4611 0.0000 -4.6801
# 5 5.7169 -2.0810 -5.3893 0.0000 40.0753 0.0000
# 6 0.0000 0.0000 0.0000 -4.6801 0.0000 13.8899
#
#
#
# Elastic Compliance Matrix: (Units=1/GPa)
#
#
# Indices 1 2 3 4 5 6 
#
# 1 0.023090 -0.006864 -0.006287 0.000000 -0.004496 0.000000
# 2 -0.006864 0.030457 -0.002176 0.000000 0.002268 0.000000
# 3 -0.006287 -0.002176 0.008277 0.000000 0.001897 0.000000
# 4 0.000000 0.000000 0.000000 0.028666 0.000000 0.009659
# 5 -0.004496 0.002268 0.001897 0.000000 0.025967 0.000000
# 6 0.000000 0.000000 0.000000 0.009659 0.000000 0.075249
#
#
# Mechanical properties :
#
#
# Convention : Reuss Voigt Hill
#
# Bulk Modulus (GPa) = 32.08066 50.77903 41.42985
# Shear Modulus (GPa) = 21.48224 29.86446 25.67335
#
# Velocity S-wave (km/s) = 3.26674 3.85170 3.57121
# Velocity P-wave (km/s) = 5.49229 6.70864 6.13071
#
# Compressibility (1/GPa) = 0.03117143
#
# Stress axis : x y z
#
# Youngs Moduli (GPa) = 43.30886 32.83270 120.81986
#
# Poissons Ratio (x) = 0.22535 0.75960
# Poissons Ratio (y) = 0.29725 0.26288
# Poissons Ratio (z) = 0.27228 0.07144
#
# Static dielectric constant tensor:
#      x y z
#    x 3.617020 0.000000 -0.041520 
#    y 0.000000 3.481240 0.000000 
#    z -0.041520 0.000000 4.430260 
# 
# 
# High freq. dielectric constant tensor:
#      x y z
#    x 1.783210 0.000000 -0.000230 
#    y 0.000000 1.775380 0.000000 
#    z -0.000230 0.000000 1.812860 
# 
# From -- ./inp_files/152058.got.cif
#   From: 2010.06.25/outbox.cif.g09.slc.cpg/sg15_77_cif.got.tgz:152058.got - 2010.06.28 07:06:18.
