data_PCOD8138353
_publ_section_title
;
Structure prediction by ZEFSAII (Michael W. Deem and Ramdas Pophale) SiO2 
 PCOD8138353
Probable space group: C 2/C
;
_chemical_formula_sum "Si O2"
_cell_formula_units_Z 48
_cell_length_a 26.236002
_cell_length_b 7.941721
_cell_length_c 21.282774
_cell_angle_alpha 90.000000
_cell_angle_beta 151.551869
_cell_angle_gamma 90.000000
_cell_volume 2112.411497
_symmetry_space_group_name_H-M "C 2/C"
_symmetry_group_IT_number 15
_symmetry_cell_setting 'monoclinic'
loop_
_space_group_symop_operation_xyz
x,y,z
-x,y,1/2-z
-x,-y,-z
x,-y,1/2+z
1/2+x,1/2+y,z
1/2-x,1/2+y,1/2-z
1/2-x,1/2-y,-z
1/2+x,1/2-y,1/2+z
loop_
_atom_site_type_symbol
_atom_site_label
_atom_site_fract_x
_atom_site_fract_y
_atom_site_fract_z
Si Si1 0.123497 0.950975 0.128199
Si Si2 0.299527 0.954874 0.126427
Si Si3 0.310689 0.023649 0.002011
Si Si4 0.077550 0.133628 0.887779
Si Si5 0.110967 0.207196 0.740733
Si Si6 0.232647 0.712351 0.151275
O O1 0.147240 0.817194 0.208742
O O2 0.156367 0.853308 0.100150
O O3 0.197902 0.115750 0.220396
O O4 0.000000 0.000000 0.000000
O O5 0.384309 0.095967 0.238335
O O6 0.314716 0.796238 0.189357
O O7 0.318560 0.908417 0.073628
O O8 0.178869 0.017499 0.008165
O O9 0.191521 0.102917 0.872762
O O10 0.336811 0.916549 0.967154
O O11 0.393053 0.175527 0.098363
O O12 0.000000 0.060871 0.750000
O O13 0.009695 0.139293 0.879268
#
# Coordination Sequence:
#
# PCOD8138353 Si02
#       6
#     8   8   8   8   8   8
#     4  11  25  46  64  90 124 169 223 262 307 367
#     4  11  20  37  62  94 125 161 196 251 321 375
#     4  10  21  37  60  94 126 157 197 250 317 375
#     4  11  18  35  62  92 127 159 192 241 308 383
#     4  10  20  37  63  89 122 161 202 247 308 376
#     4  11  25  43  63  88 124 168 211 267 314 366
#
# _framework density 22.722843999999998
#
# number of rings (size 3 to 8) (size 9 to 14) (size 15 to 20)
#    0.000    1.333    3.333    3.500    0.000    4.000 
#    0.000    3.333    0.000    0.000    0.000    0.000 
#    0.000    0.000    0.000    0.000    0.000    0.000 
#
# Total GULP energy -297508.436605 kJ/mol
# GULP energy per Si atom -12396.184859 kJ/mol
# Density = 2.267113 g / cm^3
# Si number density = 22.722844 Si / 1000 Ang^3
#
#
#
# Elastic Constant Matrix: (Units=GPa)
#
#
# Indices 1 2 3 4 5 6 
#
# 1 97.7173 13.5489 17.0574 0.0000 -3.9475 0.0000
# 2 13.5489 62.6395 14.9090 0.0001 -8.6165 0.0000
# 3 17.0574 14.9090 55.1497 0.0000 6.4771 0.0000
# 4 0.0000 0.0001 0.0000 17.3168 0.0000 -8.3704
# 5 -3.9475 -8.6165 6.4771 0.0000 34.7979 0.0000
# 6 0.0000 0.0000 0.0000 -8.3704 0.0000 44.3795
#
#
#
# Elastic Compliance Matrix: (Units=1/GPa)
#
#
# Indices 1 2 3 4 5 6 
#
# 1 0.011051 -0.001420 -0.003210 0.000000 0.001500 0.000000
# 2 -0.001420 0.018216 -0.005108 0.000000 0.005300 0.000000
# 3 -0.003210 -0.005108 0.021160 0.000000 -0.005568 0.000000
# 4 0.000000 0.000000 0.000000 0.063540 0.000000 0.011984
# 5 0.001500 0.005300 -0.005568 0.000000 0.031256 0.000000
# 6 0.000000 0.000000 0.000000 0.011984 0.000000 0.024793
#
#
# Mechanical properties :
#
#
# Convention : Reuss Voigt Hill
#
# Bulk Modulus (GPa) = 32.30866 34.05968 33.18417
# Shear Modulus (GPa) = 25.02362 30.63158 27.82760
#
# Velocity S-wave (km/s) = 3.32211 3.67557 3.50330
# Velocity P-wave (km/s) = 5.38189 5.74759 5.56774
#
# Compressibility (1/GPa) = 0.03095145
#
# Stress axis : x y z
#
# Youngs Moduli (GPa) = 90.48571 54.89581 47.25872
#
# Poissons Ratio (x) = 0.07795 0.15172
# Poissons Ratio (y) = 0.12849 0.24139
# Poissons Ratio (z) = 0.29049 0.28040
#
# Static dielectric constant tensor:
#      x y z
#    x 4.207320 0.000000 -0.170980 
#    y 0.000000 3.984490 0.000000 
#    z -0.170980 0.000000 3.910430 
# 
# 
# High freq. dielectric constant tensor:
#      x y z
#    x 1.908450 0.000000 -0.011950 
#    y 0.000000 1.883760 0.000000 
#    z -0.011950 0.000000 1.879910 
# 
# From -- ./inp_files/257240.got.cif
#   From: 2010.06.25/outbox.cif.g09.slc.cpg/sg15_129_cif.got.tgz:257240.got - 2010.06.28 07:06:18.
