data_PCOD8138790
_publ_section_title
;
Structure prediction by ZEFSAII (Michael W. Deem and Ramdas Pophale) SiO2 
 PCOD8138790
Probable space group: C 2/C
;
_chemical_formula_sum "Si O2"
_cell_formula_units_Z 48
_cell_length_a 16.832986
_cell_length_b 8.914457
_cell_length_c 22.122011
_cell_angle_alpha 90.000000
_cell_angle_beta 43.540901
_cell_angle_gamma 90.000000
_cell_volume 2286.753372
_symmetry_space_group_name_H-M "C 2/C"
_symmetry_group_IT_number 15
_symmetry_cell_setting 'monoclinic'
loop_
_space_group_symop_operation_xyz
x,y,z
-x,y,1/2-z
-x,-y,-z
x,-y,1/2+z
1/2+x,1/2+y,z
1/2-x,1/2+y,1/2-z
1/2-x,1/2-y,-z
1/2+x,1/2-y,1/2+z
loop_
_atom_site_type_symbol
_atom_site_label
_atom_site_fract_x
_atom_site_fract_y
_atom_site_fract_z
Si Si1 0.433358 0.178575 0.347335
Si Si2 0.364672 0.517452 0.083285
Si Si3 0.115735 0.877867 0.547389
Si Si4 0.243895 0.332000 0.377732
Si Si5 0.593300 0.411816 0.316652
Si Si6 0.838456 0.445760 0.488189
O O1 0.500000 0.131179 0.250000
O O2 0.327094 0.285321 0.387513
O O3 0.516579 0.262589 0.349492
O O4 0.389239 0.028917 0.402192
O O5 0.320845 0.688455 0.115233
O O6 0.334863 0.418655 0.159612
O O7 0.500000 0.500000 0.000000
O O8 0.316198 0.452262 0.047416
O O9 0.087684 0.705656 0.545116
O O10 0.204885 0.895449 0.553287
O O11 0.993372 0.946912 0.634611
O O12 0.314437 0.421631 0.287846
O O13 0.152968 0.448657 0.457079
#
# Coordination Sequence:
#
# PCOD8138790 Si02
#       6
#     8   8   8   8   8   8
#     4  10  20  38  61  91 117 164 217 252 300 379
#     4  10  21  40  61  87 124 164 204 256 309 372
#     4  10  21  37  58  90 124 158 200 264 309 355
#     4  11  21  38  66  86 121 169 212 246 313 382
#     4  10  22  40  60  90 123 161 208 261 301 371
#     4  11  20  36  61  91 120 159 205 255 315 362
#
# _framework density 20.990458
#
# number of rings (size 3 to 8) (size 9 to 14) (size 15 to 20)
#    0.000    1.667    3.333    2.500    0.000    1.333 
#    6.000   14.167    0.000    0.000    0.000    0.000 
#    0.000    0.000    0.000    0.000    0.000    0.000 
#
# Total GULP energy -297456.335444 kJ/mol
# GULP energy per Si atom -12394.013977 kJ/mol
# Density = 2.094268 g / cm^3
# Si number density = 20.990458 Si / 1000 Ang^3
#
#
#
# Elastic Constant Matrix: (Units=GPa)
#
#
# Indices 1 2 3 4 5 6 
#
# 1 54.2141 22.0262 25.4180 0.0000 9.3122 0.0000
# 2 22.0262 137.7658 85.9916 0.0000 7.8990 -0.0001
# 3 25.4180 85.9916 124.6255 0.0000 9.0661 0.0000
# 4 0.0000 0.0000 0.0000 37.9974 0.0000 0.0968
# 5 9.3122 7.8990 9.0661 0.0000 27.9239 0.0000
# 6 0.0000 -0.0001 0.0000 0.0968 0.0000 34.6951
#
#
#
# Elastic Compliance Matrix: (Units=1/GPa)
#
#
# Indices 1 2 3 4 5 6 
#
# 1 0.021377 -0.001102 -0.003179 0.000000 -0.005785 0.000000
# 2 -0.001102 0.012823 -0.008589 0.000000 -0.000471 0.000000
# 3 -0.003179 -0.008589 0.014692 0.000000 -0.001280 0.000000
# 4 0.000000 0.000000 0.000000 0.026318 0.000000 -0.000073
# 5 -0.005785 -0.000471 -0.001280 0.000000 0.038290 0.000000
# 6 0.000000 0.000000 0.000000 -0.000073 0.000000 0.028823
#
#
# Mechanical properties :
#
#
# Convention : Reuss Voigt Hill
#
# Bulk Modulus (GPa) = 43.19134 64.83079 54.01106
# Shear Modulus (GPa) = 28.44486 32.33460 30.38973
#
# Velocity S-wave (km/s) = 3.68521 3.92911 3.80911
# Velocity P-wave (km/s) = 6.22326 7.17891 6.71810
#
# Compressibility (1/GPa) = 0.02315279
#
# Stress axis : x y z
#
# Youngs Moduli (GPa) = 46.77897 77.98548 68.06535
#
# Poissons Ratio (x) = 0.08594 0.21636
# Poissons Ratio (y) = 0.05155 0.58460
# Poissons Ratio (z) = 0.14870 0.66980
#
# Static dielectric constant tensor:
#      x y z
#    x 4.267390 0.000000 0.535710 
#    y 0.000000 3.740250 0.000000 
#    z 0.535710 0.000000 4.059120 
# 
# 
# High freq. dielectric constant tensor:
#      x y z
#    x 1.808140 0.000000 0.010640 
#    y 0.000000 1.815270 0.000000 
#    z 0.010640 0.000000 1.820830 
# 
# From -- ./inp_files/247267.got.cif
#   From: 2010.06.25/outbox.cif.g09.slc.cpg/sg15_124_cif.got.tgz:247267.got - 2010.06.28 07:06:18.
