data_PCOD8138112
_publ_section_title
;
Structure prediction by ZEFSAII (Michael W. Deem and Ramdas Pophale) SiO2 
 PCOD8138112
Probable space group: C 2/C
;
_chemical_formula_sum "Si O2"
_cell_formula_units_Z 56
_cell_length_a 15.207892
_cell_length_b 19.974125
_cell_length_c 14.513683
_cell_angle_alpha 90.000000
_cell_angle_beta 139.763543
_cell_angle_gamma 90.000000
_cell_volume 2847.796727
_symmetry_space_group_name_H-M "C 2/C"
_symmetry_group_IT_number 15
_symmetry_cell_setting 'monoclinic'
loop_
_space_group_symop_operation_xyz
x,y,z
-x,y,1/2-z
-x,-y,-z
x,-y,1/2+z
1/2+x,1/2+y,z
1/2-x,1/2+y,1/2-z
1/2-x,1/2-y,-z
1/2+x,1/2-y,1/2+z
loop_
_atom_site_type_symbol
_atom_site_label
_atom_site_fract_x
_atom_site_fract_y
_atom_site_fract_z
Si Si1 0.384535 0.105624 0.928045
Si Si2 0.243025 0.308518 0.872804
Si Si3 0.869523 0.423099 0.205929
Si Si4 0.081004 0.431422 0.730004
Si Si5 0.150984 0.830692 0.343394
Si Si6 0.244829 0.211862 0.591905
Si Si7 0.048116 0.254681 0.080646
O O1 0.390240 0.076931 0.831221
O O2 0.228824 0.114871 0.841115
O O3 0.457196 0.178028 0.983983
O O4 0.471377 0.054755 0.061091
O O5 0.181584 0.374101 0.775140
O O6 0.149518 0.241347 0.789192
O O7 0.382418 0.300534 0.928177
O O8 0.262017 0.324071 0.994909
O O9 0.839950 0.502252 0.167857
O O10 0.753625 0.369294 0.084055
O O11 0.000000 0.401805 0.250000
O O12 0.000000 0.398819 0.750000
O O13 0.000000 0.855110 0.250000
O O14 0.250000 0.250000 0.500000
O O15 0.370033 0.234099 0.757706
O O16 0.102957 0.228671 0.524970
#
# Coordination Sequence:
#
# PCOD8138112 Si02
#       7
#     8   8   8   8   8   8   8
#     4  10  20  37  59  87 115 154 191 245 295 348
#     4  10  21  33  54  86 118 149 184 236 289 354
#     4  10  23  38  59  86 113 158 200 245 291 353
#     4  11  20  37  57  85 120 155 198 234 293 362
#     4  10  21  32  56  85 119 150 185 235 291 353
#     4  11  21  40  61  86 116 153 203 259 297 340
#     4  10  22  34  61  90 116 149 197 248 307 349
#
# _framework density 19.664324000000001
#
# number of rings (size 3 to 8) (size 9 to 14) (size 15 to 20)
#    0.000    1.714    1.429    3.857   10.000    0.000 
#    0.000    0.714    0.000    0.000    0.000    0.000 
#    0.000    0.000    0.000    0.000    0.000    0.000 
#
# Total GULP energy -346958.014233 kJ/mol
# GULP energy per Si atom -12391.357651 kJ/mol
# Density = 1.961957 g / cm^3
# Si number density = 19.664324 Si / 1000 Ang^3
#
#
#
# Elastic Constant Matrix: (Units=GPa)
#
#
# Indices 1 2 3 4 5 6 
#
# 1 114.2946 21.6759 16.9042 0.0000 6.3904 0.0000
# 2 21.6759 89.8664 22.5144 0.0000 14.8624 0.0000
# 3 16.9042 22.5144 57.5091 0.0000 1.5259 0.0000
# 4 0.0000 0.0000 0.0000 23.7772 0.0000 -4.4540
# 5 6.3904 14.8624 1.5259 0.0000 39.6143 0.0000
# 6 0.0000 0.0000 0.0000 -4.4540 0.0000 10.5313
#
#
#
# Elastic Compliance Matrix: (Units=1/GPa)
#
#
# Indices 1 2 3 4 5 6 
#
# 1 0.009413 -0.001602 -0.002118 0.000000 -0.000836 0.000000
# 2 -0.001602 0.013446 -0.004671 0.000000 -0.004606 0.000000
# 3 -0.002118 -0.004671 0.019804 0.000000 0.001331 0.000000
# 4 0.000000 0.000000 0.000000 0.045676 0.000000 0.019317
# 5 -0.000836 -0.004606 0.001331 0.000000 0.027055 0.000000
# 6 0.000000 0.000000 0.000000 0.019317 0.000000 0.103125
#
#
# Mechanical properties :
#
#
# Convention : Reuss Voigt Hill
#
# Bulk Modulus (GPa) = 38.63573 42.65102 40.64338
# Shear Modulus (GPa) = 20.49790 28.15627 24.32709
#
# Velocity S-wave (km/s) = 3.23211 3.78808 3.52108
# Velocity P-wave (km/s) = 5.79819 6.39291 6.10280
#
# Compressibility (1/GPa) = 0.02588278
#
# Stress axis : x y z
#
# Youngs Moduli (GPa) = 106.23597 74.37162 50.49393
#
# Poissons Ratio (x) = 0.11912 0.10693
# Poissons Ratio (y) = 0.17015 0.23586
# Poissons Ratio (z) = 0.22497 0.34739
#
# Static dielectric constant tensor:
#      x y z
#    x 3.837870 0.000000 -0.102880 
#    y 0.000000 3.577740 0.000000 
#    z -0.102880 0.000000 3.379390 
# 
# 
# High freq. dielectric constant tensor:
#      x y z
#    x 1.784300 0.000000 -0.015980 
#    y 0.000000 1.751000 0.000000 
#    z -0.015980 0.000000 1.743240 
# 
# From -- ./inp_files/156221.got.cif
#   From: 2010.06.25/outbox.cif.g09.slc.cpg/sg15_79_cif.got.tgz:156221.got - 2010.06.28 07:06:18.
