data_PCOD8138184
_publ_section_title
;
Structure prediction by ZEFSAII (Michael W. Deem and Ramdas Pophale) SiO2 
 PCOD8138184
Probable space group: C 2/C
;
_chemical_formula_sum "Si O2"
_cell_formula_units_Z 64
_cell_length_a 13.458573
_cell_length_b 23.649558
_cell_length_c 9.429633
_cell_angle_alpha 90.000000
_cell_angle_beta 90.656233
_cell_angle_gamma 90.000000
_cell_volume 3001.154455
_symmetry_space_group_name_H-M "C 2/C"
_symmetry_group_IT_number 15
_symmetry_cell_setting 'monoclinic'
loop_
_space_group_symop_operation_xyz
x,y,z
-x,y,1/2-z
-x,-y,-z
x,-y,1/2+z
1/2+x,1/2+y,z
1/2-x,1/2+y,1/2-z
1/2-x,1/2-y,-z
1/2+x,1/2-y,1/2+z
loop_
_atom_site_type_symbol
_atom_site_label
_atom_site_fract_x
_atom_site_fract_y
_atom_site_fract_z
Si Si1 0.271309 0.357647 0.008025
Si Si2 0.753589 0.316215 0.176707
Si Si3 0.513294 0.677150 0.088957
Si Si4 0.108283 0.487522 0.731936
Si Si5 0.169872 0.897173 0.961508
Si Si6 0.741002 0.012019 0.490740
Si Si7 0.107117 0.271925 0.542732
Si Si8 0.845665 0.363090 0.760894
O O1 0.239814 0.327737 0.154860
O O2 0.375107 0.334642 0.953066
O O3 0.285485 0.425620 0.011131
O O4 0.183590 0.341349 0.896873
O O5 0.691248 0.261429 0.131752
O O6 0.705875 0.373245 0.112966
O O7 0.859458 0.301870 0.105045
O O8 0.500000 0.696701 0.250000
O O9 0.443707 0.621830 0.065802
O O10 0.482413 0.729539 0.988865
O O11 0.140467 0.507429 0.578627
O O12 0.199802 0.504677 0.835382
O O13 0.093778 0.420640 0.745914
O O14 0.000000 0.516328 0.750000
O O15 0.240411 0.870933 0.841637
O O16 0.176107 0.965558 0.963129
O O17 0.079816 0.321093 0.654331
#
# Coordination Sequence:
#
# PCOD8138184 Si02
#       8
#     8   8   8   8   8   8   8   8
#     4  11  22  36  61  97 124 150 211 261 289 369
#     4   9  19  36  60  84 112 160 210 246 299 359
#     4  11  22  39  61  90 126 157 213 255 295 368
#     4  10  20  37  60  90 121 156 206 250 295 368
#     4   9  18  37  61  83 125 170 197 239 310 374
#     4  10  21  37  62  90 122 167 195 243 319 358
#     4   9  20  40  61  77 116 171 197 246 318 355
#     4   9  19  38  59  86 122 161 201 247 313 365
#
# _framework density 21.325127999999999
#
# number of rings (size 3 to 8) (size 9 to 14) (size 15 to 20)
#    0.000    2.250    1.250    1.875    0.000    3.000 
#    2.250    1.250    0.000    5.250    0.000    0.000 
#    0.000    0.000    0.000    0.000    0.000    0.000 
#
# Total GULP energy -396539.771440 kJ/mol
# GULP energy per Si atom -12391.867858 kJ/mol
# Density = 2.127659 g / cm^3
# Si number density = 21.325128 Si / 1000 Ang^3
#
#
#
# Elastic Constant Matrix: (Units=GPa)
#
#
# Indices 1 2 3 4 5 6 
#
# 1 44.3207 12.7830 10.5690 0.0000 4.5611 0.0000
# 2 12.7830 73.9050 34.8412 0.0000 19.5823 0.0000
# 3 10.5690 34.8412 121.2996 0.0000 5.7691 0.0000
# 4 0.0000 0.0000 0.0000 31.6370 0.0000 -3.1727
# 5 4.5611 19.5823 5.7691 0.0000 18.2277 0.0000
# 6 0.0000 0.0000 0.0000 -3.1727 0.0000 11.3516
#
#
#
# Elastic Compliance Matrix: (Units=1/GPa)
#
#
# Indices 1 2 3 4 5 6 
#
# 1 0.023936 -0.002964 -0.001118 0.000000 -0.002452 0.000000
# 2 -0.002964 0.022106 -0.005073 0.000000 -0.021401 0.000000
# 3 -0.001118 -0.005073 0.009672 0.000000 0.002669 0.000000
# 4 0.000000 0.000000 0.000000 0.032520 0.000000 0.009089
# 5 -0.002452 -0.021401 0.002669 0.000000 0.077622 0.000000
# 6 0.000000 0.000000 0.000000 0.009089 0.000000 0.090634
#
#
# Mechanical properties :
#
#
# Convention : Reuss Voigt Hill
#
# Bulk Modulus (GPa) = 26.73465 39.54573 33.14019
# Shear Modulus (GPa) = 17.40536 24.33206 20.86871
#
# Velocity S-wave (km/s) = 2.86000 3.38154 3.13165
# Velocity P-wave (km/s) = 4.84459 5.81643 5.35261
#
# Compressibility (1/GPa) = 0.03740464
#
# Stress axis : x y z
#
# Youngs Moduli (GPa) = 41.77727 45.23684 103.39387
#
# Poissons Ratio (x) = 0.13406 0.11557
# Poissons Ratio (y) = 0.12381 0.52456
# Poissons Ratio (z) = 0.04670 0.22951
#
# Static dielectric constant tensor:
#      x y z
#    x 3.433920 0.000000 -0.010830 
#    y 0.000000 3.879110 0.000000 
#    z -0.010830 0.000000 3.984440 
# 
# 
# High freq. dielectric constant tensor:
#      x y z
#    x 1.809890 0.000000 -0.000170 
#    y 0.000000 1.836240 0.000000 
#    z -0.000170 0.000000 1.846330 
# 
# From -- ./inp_files/42649.got.cif
#   From: 2010.06.25/outbox.cif.g09.slc.cpg/sg15_22_cif.got.tgz:42649.got - 2010.06.28 07:06:18.
