data_PCOD8138468
_publ_section_title
;
Structure prediction by ZEFSAII (Michael W. Deem and Ramdas Pophale) SiO2 
 PCOD8138468
Probable space group: C 2/C
;
_chemical_formula_sum "Si O2"
_cell_formula_units_Z 64
_cell_length_a 11.827210
_cell_length_b 14.048585
_cell_length_c 27.657521
_cell_angle_alpha 90.000000
_cell_angle_beta 40.869034
_cell_angle_gamma 90.000000
_cell_volume 3006.951630
_symmetry_space_group_name_H-M "C 2/C"
_symmetry_group_IT_number 15
_symmetry_cell_setting 'monoclinic'
loop_
_space_group_symop_operation_xyz
x,y,z
-x,y,1/2-z
-x,-y,-z
x,-y,1/2+z
1/2+x,1/2+y,z
1/2-x,1/2+y,1/2-z
1/2-x,1/2-y,-z
1/2+x,1/2-y,1/2+z
loop_
_atom_site_type_symbol
_atom_site_label
_atom_site_fract_x
_atom_site_fract_y
_atom_site_fract_z
Si Si1 0.938191 0.797360 0.717874
Si Si2 0.024617 0.405781 0.185740
Si Si3 0.932594 0.096449 0.546435
Si Si4 0.004713 0.748472 0.951212
Si Si5 0.307187 0.629725 0.436787
Si Si6 0.041214 0.939849 0.115982
Si Si7 0.328780 0.633991 0.829536
Si Si8 0.755732 0.518035 0.221446
O O1 0.000000 0.767396 0.750000
O O2 0.918768 0.690256 0.701887
O O3 0.098116 0.856151 0.644783
O O4 0.768848 0.866378 0.773973
O O5 0.225765 0.395127 0.106842
O O6 0.000000 0.431141 0.250000
O O7 0.947702 0.492060 0.178040
O O8 0.029007 0.183824 0.489370
O O9 0.980290 0.112761 0.587183
O O10 0.000000 0.000000 0.500000
O O11 0.906693 0.805775 0.942306
O O12 0.183641 0.713912 0.870525
O O13 0.893948 0.655644 0.002001
O O14 0.325458 0.520307 0.445697
O O15 0.144259 0.876722 0.121507
O O16 0.871351 0.981535 0.195825
O O17 0.500000 0.677635 0.750000
O O18 0.284260 0.533229 0.817207
#
# Coordination Sequence:
#
# PCOD8138468 Si02
#       8
#     8   8   8   8   8   8   8   8
#     4  10  20  37  65  96 124 162 216 271 321 385
#     4  11  22  40  68  98 125 174 224 267 327 394
#     4  12  24  43  63  95 138 176 215 274 326 394
#     4  11  23  39  64  93 126 176 221 265 321 404
#     4  10  20  38  63  91 122 167 222 260 321 397
#     4  10  21  40  63  89 132 171 205 270 332 383
#     4  10  23  42  65  94 132 169 215 274 336 384
#     4  10  20  39  66  97 129 163 218 281 321 385
#
# _framework density 21.284013999999999
#
# number of rings (size 3 to 8) (size 9 to 14) (size 15 to 20)
#    0.000    1.500    3.750    2.625    1.750    1.000 
#    0.000    6.875    0.000    0.750    0.000    0.000 
#    0.000    0.000    0.000    0.000    0.000    0.000 
#
# Total GULP energy -396603.022322 kJ/mol
# GULP energy per Si atom -12393.844448 kJ/mol
# Density = 2.123557 g / cm^3
# Si number density = 21.284014 Si / 1000 Ang^3
#
#
#
# Elastic Constant Matrix: (Units=GPa)
#
#
# Indices 1 2 3 4 5 6 
#
# 1 104.0517 45.4042 36.6752 0.0003 8.2745 -0.0006
# 2 45.4042 104.2358 41.2373 -0.0003 -12.8231 0.0008
# 3 36.6752 41.2373 86.6017 -0.0045 -4.6737 0.0148
# 4 0.0003 -0.0003 -0.0045 28.1755 0.0005 17.7202
# 5 8.2745 -12.8231 -4.6737 0.0005 24.6511 -0.0019
# 6 -0.0006 0.0008 0.0148 17.7202 -0.0019 -63.9409
#
#
#
# Elastic Compliance Matrix: (Units=1/GPa)
#
#
# Indices 1 2 3 4 5 6 
#
# 1 0.014066 -0.005696 -0.003697 0.000000 -0.008385 -0.000001
# 2 -0.005696 0.014807 -0.004162 0.000000 0.008825 -0.000001
# 3 -0.003697 -0.004162 0.015200 0.000000 0.001958 0.000003
# 4 0.000000 0.000000 0.000000 0.030224 0.000000 0.008376
# 5 -0.008385 0.008825 0.001958 0.000000 0.048343 -0.000001
# 6 -0.000001 -0.000001 0.000003 0.008376 -0.000001 -0.013318
#
#
# Mechanical properties :
#
#
# Convention : Reuss Voigt Hill
#
# Bulk Modulus (GPa) = 58.95238 60.16919 59.56078
# Shear Modulus (GPa) = 35.18966 9.21529 22.20247
#
# Velocity S-wave (km/s) = 4.07054 2.08305 3.23329
# Velocity P-wave (km/s) = 7.06048 5.84093 6.47946
#
# Compressibility (1/GPa) = 0.01696284
#
# Stress axis : x y z
#
# Youngs Moduli (GPa) = 71.09288 67.53532 65.78754
#
# Poissons Ratio (x) = 0.38468 0.24323
# Poissons Ratio (y) = 0.40494 0.27382
# Poissons Ratio (z) = 0.26284 0.28110
#
# Static dielectric constant tensor:
#      x y z
#    x 3.810850 0.000000 0.123440 
#    y 0.000000 3.864630 0.000000 
#    z 0.123440 0.000000 4.064220 
# 
# 
# High freq. dielectric constant tensor:
#      x y z
#    x 1.830190 0.000000 0.017200 
#    y 0.000000 1.820140 0.000000 
#    z 0.017200 0.000000 1.833740 
# 
# From -- ./inp_files/293050.got.cif
#   From: 2010.06.25/outbox.cif.g09.slc.cpg/sg15_147_cif.got.tgz:293050.got - 2010.06.28 07:06:18.
