data_PCOD8138504
_publ_section_title
;
Structure prediction by ZEFSAII (Michael W. Deem and Ramdas Pophale) SiO2 
 PCOD8138504
Probable space group: C 2/C
;
_chemical_formula_sum "Si O2"
_cell_formula_units_Z 56
_cell_length_a 9.052383
_cell_length_b 17.264390
_cell_length_c 19.936067
_cell_angle_alpha 90.000000
_cell_angle_beta 61.890378
_cell_angle_gamma 90.000000
_cell_volume 2748.183586
_symmetry_space_group_name_H-M "C 2/C"
_symmetry_group_IT_number 15
_symmetry_cell_setting 'monoclinic'
loop_
_space_group_symop_operation_xyz
x,y,z
-x,y,1/2-z
-x,-y,-z
x,-y,1/2+z
1/2+x,1/2+y,z
1/2-x,1/2+y,1/2-z
1/2-x,1/2-y,-z
1/2+x,1/2-y,1/2+z
loop_
_atom_site_type_symbol
_atom_site_label
_atom_site_fract_x
_atom_site_fract_y
_atom_site_fract_z
Si Si1 0.566484 0.877172 0.032342
Si Si2 0.112790 0.124495 0.818127
Si Si3 0.903026 0.079882 0.527770
Si Si4 0.493346 0.294807 0.912811
Si Si5 0.748966 0.108492 0.371428
Si Si6 0.321789 0.726333 0.253379
Si Si7 0.279882 0.564606 0.838490
O O1 0.725601 0.923424 0.027825
O O2 0.580766 0.786810 0.047149
O O3 0.401318 0.914460 0.096537
O O4 0.571686 0.890201 0.949911
O O5 0.140574 0.092599 0.885845
O O6 0.181376 0.210972 0.799645
O O7 0.215546 0.071727 0.743163
O O8 0.915427 0.122473 0.842276
O O9 0.019512 0.149285 0.471881
O O10 0.000000 0.000000 0.500000
O O11 0.365729 0.337067 0.891015
O O12 0.659237 0.280931 0.831744
O O13 0.744960 0.145989 0.298378
O O14 0.824725 0.022916 0.348989
O O15 0.500000 0.748662 0.250000
#
# Coordination Sequence:
#
# PCOD8138504 Si02
#       7
#     8   8   8   8   8   8   8
#     4  11  21  43  64  92 125 160 207 253 310 367
#     4  11  23  40  60  90 123 161 207 244 315 359
#     4  11  23  37  64  94 128 157 206 263 310 359
#     4  10  20  38  64  93 120 161 211 252 302 373
#     4  10  21  36  65  92 119 160 209 247 298 374
#     4  10  20  37  67  90 117 160 214 253 298 365
#     4  11  25  39  64  89 127 164 204 252 304 378
#
# _framework density 20.377096000000002
#
# number of rings (size 3 to 8) (size 9 to 14) (size 15 to 20)
#    0.000    1.429    1.429    6.429    8.000    0.000 
#    0.000    4.286    0.000    0.000    0.000    0.000 
#    0.000    0.000    0.000    0.000    0.000    0.000 
#
# Total GULP energy -347051.361942 kJ/mol
# GULP energy per Si atom -12394.691498 kJ/mol
# Density = 2.033072 g / cm^3
# Si number density = 20.377096 Si / 1000 Ang^3
#
#
#
# Elastic Constant Matrix: (Units=GPa)
#
#
# Indices 1 2 3 4 5 6 
#
# 1 60.2826 48.0090 40.4818 0.0000 -19.9558 0.0000
# 2 48.0090 137.3367 39.6968 0.0000 -15.6492 0.0000
# 3 40.4818 39.6968 146.5292 0.0000 -12.9478 0.0000
# 4 0.0000 0.0000 0.0000 27.2236 0.0000 4.1369
# 5 -19.9558 -15.6492 -12.9478 0.0000 27.7058 0.0000
# 6 0.0000 0.0000 0.0000 4.1369 0.0000 22.1257
#
#
#
# Elastic Compliance Matrix: (Units=1/GPa)
#
#
# Indices 1 2 3 4 5 6 
#
# 1 0.031464 -0.007683 -0.005207 0.000000 0.015890 0.000000
# 2 -0.007683 0.010138 -0.000633 0.000000 -0.000103 0.000000
# 3 -0.005207 -0.000633 0.008419 0.000000 -0.000174 0.000000
# 4 0.000000 0.000000 0.000000 0.037807 0.000000 -0.007069
# 5 0.015890 -0.000103 -0.000174 0.000000 0.047399 0.000000
# 6 0.000000 0.000000 0.000000 -0.007069 0.000000 0.046518
#
#
# Mechanical properties :
#
#
# Convention : Reuss Voigt Hill
#
# Bulk Modulus (GPa) = 43.52537 66.72484 55.12511
# Shear Modulus (GPa) = 23.09979 29.80840 26.45410
#
# Velocity S-wave (km/s) = 3.37057 3.82886 3.60700
# Velocity P-wave (km/s) = 6.04599 7.23623 6.66772
#
# Compressibility (1/GPa) = 0.02297510
#
# Stress axis : x y z
#
# Youngs Moduli (GPa) = 31.78188 98.63431 118.77425
#
# Poissons Ratio (x) = 0.75784 0.61847
# Poissons Ratio (y) = 0.24419 0.07520
# Poissons Ratio (z) = 0.16549 0.06245
#
# Static dielectric constant tensor:
#      x y z
#    x 3.287850 0.000000 0.057260 
#    y 0.000000 3.920120 0.000000 
#    z 0.057260 0.000000 4.918190 
# 
# 
# High freq. dielectric constant tensor:
#      x y z
#    x 1.744560 0.000000 -0.003020 
#    y 0.000000 1.802990 0.000000 
#    z -0.003020 0.000000 1.837140 
# 
# From -- ./inp_files/232577.got.cif
#   From: 2010.06.25/outbox.cif.g09.slc.cpg/sg15_117_cif.got.tgz:232577.got - 2010.06.28 07:06:18.
