data_PCOD8138944
_publ_section_title
;
Structure prediction by ZEFSAII (Michael W. Deem and Ramdas Pophale) SiO2 
 PCOD8138944
Probable space group: C 2/C
;
_chemical_formula_sum "Si O2"
_cell_formula_units_Z 32
_cell_length_a 13.216072
_cell_length_b 7.591666
_cell_length_c 19.079270
_cell_angle_alpha 90.000000
_cell_angle_beta 76.803641
_cell_angle_gamma 90.000000
_cell_volume 1863.712291
_symmetry_space_group_name_H-M "C 2/C"
_symmetry_group_IT_number 15
_symmetry_cell_setting 'monoclinic'
loop_
_space_group_symop_operation_xyz
x,y,z
-x,y,1/2-z
-x,-y,-z
x,-y,1/2+z
1/2+x,1/2+y,z
1/2-x,1/2+y,1/2-z
1/2-x,1/2-y,-z
1/2+x,1/2-y,1/2+z
loop_
_atom_site_type_symbol
_atom_site_label
_atom_site_fract_x
_atom_site_fract_y
_atom_site_fract_z
Si Si1 0.466628 0.555104 0.928369
Si Si2 0.774640 0.863352 0.928362
Si Si3 0.952131 0.562305 0.080688
Si Si4 0.472909 0.243220 0.834959
O O1 0.341017 0.535839 0.941615
O O2 0.500282 0.751155 0.904583
O O3 0.520413 0.417554 0.865414
O O4 0.500000 0.500000 0.000000
O O5 0.847326 0.744028 0.865587
O O6 0.750000 0.750000 0.000000
O O7 0.828147 0.576067 0.095032
O O8 0.977804 0.429465 0.138538
O O9 0.000000 0.500000 0.000000
O O10 0.500000 0.246204 0.750000
#
# Coordination Sequence:
#
# PCOD8138944 Si02
#       4
#     8   8   8   8
#     4  10  20  38  63  88 118 157 198 247 291 355
#     4  10  20  39  62  90 117 157 205 242 292 365
#     4  12  20  39  66  90 115 161 205 240 299 365
#     4  10  24  44  56  89 130 149 199 262 293 350
#
# _framework density 17.170031999999999
#
# number of rings (size 3 to 8) (size 9 to 14) (size 15 to 20)
#    1.500    0.000    7.500    0.000    0.000    2.000 
#    9.000    0.000    0.000    0.000    0.000    0.000 
#    0.000    0.000    0.000    0.000    0.000    0.000 
#
# Total GULP energy -198272.812191 kJ/mol
# GULP energy per Si atom -12392.050762 kJ/mol
# Density = 1.713095 g / cm^3
# Si number density = 17.170032 Si / 1000 Ang^3
#
#
#
# Elastic Constant Matrix: (Units=GPa)
#
#
# Indices 1 2 3 4 5 6 
#
# 1 160.3433 65.0566 51.3775 0.0000 2.0464 0.0000
# 2 65.0566 159.4050 68.2893 0.0000 12.0553 0.0000
# 3 51.3775 68.2893 160.8434 0.0000 -5.5300 0.0000
# 4 0.0000 0.0000 0.0000 28.8960 0.0000 7.8074
# 5 2.0464 12.0553 -5.5300 0.0000 23.9501 0.0000
# 6 0.0000 0.0000 0.0000 7.8074 0.0000 36.7794
#
#
#
# Elastic Compliance Matrix: (Units=1/GPa)
#
#
# Indices 1 2 3 4 5 6 
#
# 1 0.007719 -0.002597 -0.001352 0.000000 0.000335 0.000000
# 2 -0.002597 0.009092 -0.003206 0.000000 -0.005095 0.000000
# 3 -0.001352 -0.003206 0.008134 0.000000 0.003607 0.000000
# 4 0.000000 0.000000 0.000000 0.036713 0.000000 -0.007793
# 5 0.000335 -0.005095 0.003607 0.000000 0.045122 0.000000
# 6 0.000000 0.000000 0.000000 -0.007793 0.000000 0.028843
#
#
# Mechanical properties :
#
#
# Convention : Reuss Voigt Hill
#
# Bulk Modulus (GPa) = 94.01462 94.44872 94.23167
# Shear Modulus (GPa) = 32.57825 37.64965 35.11395
#
# Velocity S-wave (km/s) = 4.36063 4.68776 4.52715
# Velocity P-wave (km/s) = 8.95697 9.18844 9.07345
#
# Compressibility (1/GPa) = 0.01063664
#
# Stress axis : x y z
#
# Youngs Moduli (GPa) = 129.55102 109.99012 122.93912
#
# Poissons Ratio (x) = 0.28560 0.16617
# Poissons Ratio (y) = 0.33639 0.39412
# Poissons Ratio (z) = 0.17511 0.35261
#
# Static dielectric constant tensor:
#      x y z
#    x 3.246700 0.000000 0.038830 
#    y 0.000000 3.419740 0.000000 
#    z 0.038830 0.000000 2.977430 
# 
# 
# High freq. dielectric constant tensor:
#      x y z
#    x 1.663280 0.000000 0.003040 
#    y 0.000000 1.665750 0.000000 
#    z 0.003040 0.000000 1.648320 
# 
# From -- ./inp_files/194747.got.cif
#   From: 2010.06.25/outbox.cif.g09.slc.cpg/sg15_98_cif.got.tgz:194747.got - 2010.06.28 07:06:18.
