data_PCOD8138787
_publ_section_title
;
Structure prediction by ZEFSAII (Michael W. Deem and Ramdas Pophale) SiO2 
 PCOD8138787
Probable space group: C 2/C
;
_chemical_formula_sum "Si O2"
_cell_formula_units_Z 44
_cell_length_a 11.883047
_cell_length_b 14.901185
_cell_length_c 12.090285
_cell_angle_alpha 90.000000
_cell_angle_beta 107.128412
_cell_angle_gamma 90.000000
_cell_volume 2045.891983
_symmetry_space_group_name_H-M "C 2/C"
_symmetry_group_IT_number 15
_symmetry_cell_setting 'monoclinic'
loop_
_space_group_symop_operation_xyz
x,y,z
-x,y,1/2-z
-x,-y,-z
x,-y,1/2+z
1/2+x,1/2+y,z
1/2-x,1/2+y,1/2-z
1/2-x,1/2-y,-z
1/2+x,1/2-y,1/2+z
loop_
_atom_site_type_symbol
_atom_site_label
_atom_site_fract_x
_atom_site_fract_y
_atom_site_fract_z
Si Si1 0.885894 0.033582 0.529371
Si Si2 0.365260 0.991000 0.599302
Si Si3 0.497536 0.134334 0.976069
Si Si4 0.884272 0.660638 0.269781
Si Si5 0.632336 0.688919 0.122766
Si Si6 0.500000 0.557329 0.250000
O O1 0.770664 0.980168 0.453671
O O2 0.865309 0.139786 0.497099
O O3 0.000000 0.000000 0.500000
O O4 0.906917 0.009409 0.663486
O O5 0.396203 0.920528 0.510103
O O6 0.382070 0.942537 0.722856
O O7 0.446853 0.078486 0.609590
O O8 0.442395 0.221434 0.904337
O O9 0.601647 0.158532 0.093504
O O10 0.765143 0.712139 0.201020
O O11 0.000000 0.709158 0.250000
O O12 0.574241 0.619831 0.190614
#
# Coordination Sequence:
#
# PCOD8138787 Si02
#       6
#     8   8   8   8   8   4
#     4   9  19  37  61  83 118 160 198 241 302 361
#     4   9  19  37  58  84 121 159 200 248 298 355
#     4  10  20  38  61  90 121 155 202 252 297 356
#     4   9  19  36  61  85 119 157 195 248 300 354
#     4  10  21  39  61  92 118 153 205 252 292 365
#     4  10  20  40  60  82 124 158 186 248 306 364
#
# _framework density 21.506511
#
# number of rings (size 3 to 8) (size 9 to 14) (size 15 to 20)
#    0.000    2.545    0.000    1.091    0.000    6.545 
#   16.364    8.182    8.000    0.000    0.000    0.000 
#    0.000    0.000    0.000    0.000    0.000    0.000 
#
# Total GULP energy -272651.566877 kJ/mol
# GULP energy per Si atom -12393.253040 kJ/mol
# Density = 2.145756 g / cm^3
# Si number density = 21.506511 Si / 1000 Ang^3
#
#
#
# Elastic Constant Matrix: (Units=GPa)
#
#
# Indices 1 2 3 4 5 6 
#
# 1 114.4755 44.5921 39.7032 0.0000 30.5792 0.0000
# 2 44.5921 104.1668 49.0604 0.0000 13.6313 0.0000
# 3 39.7032 49.0604 105.4347 0.0000 24.0861 0.0000
# 4 0.0000 0.0000 0.0000 22.5793 0.0000 2.5168
# 5 30.5792 13.6313 24.0861 0.0000 37.8257 0.0000
# 6 0.0000 0.0000 0.0000 2.5168 0.0000 28.9743
#
#
#
# Elastic Compliance Matrix: (Units=1/GPa)
#
#
# Indices 1 2 3 4 5 6 
#
# 1 0.012851 -0.003880 -0.001147 0.000000 -0.008261 0.000000
# 2 -0.003880 0.013494 -0.005176 0.000000 0.001570 0.000000
# 3 -0.001147 -0.005176 0.013676 0.000000 -0.005916 0.000000
# 4 0.000000 0.000000 0.000000 0.044721 0.000000 -0.003885
# 5 -0.008261 0.001570 -0.005916 0.000000 0.036317 0.000000
# 6 0.000000 0.000000 0.000000 -0.003885 0.000000 0.034851
#
#
# Mechanical properties :
#
#
# Convention : Reuss Voigt Hill
#
# Bulk Modulus (GPa) = 50.98195 65.64314 58.31254
# Shear Modulus (GPa) = 27.34405 30.59062 28.96733
#
# Velocity S-wave (km/s) = 3.56958 3.77555 3.67401
# Velocity P-wave (km/s) = 6.38326 7.04238 6.72090
#
# Compressibility (1/GPa) = 0.01961479
#
# Stress axis : x y z
#
# Youngs Moduli (GPa) = 77.81248 74.10959 73.11817
#
# Poissons Ratio (x) = 0.28758 0.08384
# Poissons Ratio (y) = 0.30194 0.37848
# Poissons Ratio (z) = 0.08922 0.38361
#
# Static dielectric constant tensor:
#      x y z
#    x 3.730120 0.000000 0.681450 
#    y 0.000000 3.597100 0.000000 
#    z 0.681450 0.000000 3.337750 
# 
# 
# High freq. dielectric constant tensor:
#      x y z
#    x 1.855850 0.000000 0.014740 
#    y 0.000000 1.808170 0.000000 
#    z 0.014740 0.000000 1.841850 
# 
# From -- ./inp_files/87548.got.cif
#   From: 2010.06.25/outbox.cif.g09.slc.cpg/sg15_44_cif.got.tgz:87548.got - 2010.06.28 07:06:18.
