data_PCOD8138459
_publ_section_title
;
Structure prediction by ZEFSAII (Michael W. Deem and Ramdas Pophale) SiO2 
 PCOD8138459
Probable space group: C 2/C
;
_chemical_formula_sum "Si O2"
_cell_formula_units_Z 56
_cell_length_a 9.141921
_cell_length_b 24.296422
_cell_length_c 18.983722
_cell_angle_alpha 90.000000
_cell_angle_beta 140.938825
_cell_angle_gamma 90.000000
_cell_volume 2657.081960
_symmetry_space_group_name_H-M "C 2/C"
_symmetry_group_IT_number 15
_symmetry_cell_setting 'monoclinic'
loop_
_space_group_symop_operation_xyz
x,y,z
-x,y,1/2-z
-x,-y,-z
x,-y,1/2+z
1/2+x,1/2+y,z
1/2-x,1/2+y,1/2-z
1/2-x,1/2-y,-z
1/2+x,1/2-y,1/2+z
loop_
_atom_site_type_symbol
_atom_site_label
_atom_site_fract_x
_atom_site_fract_y
_atom_site_fract_z
Si Si1 0.890674 0.971031 0.319911
Si Si2 0.555721 0.670546 0.194963
Si Si3 0.690693 0.790598 0.263917
Si Si4 0.649759 0.046709 0.588980
Si Si5 0.398582 0.149038 0.551328
Si Si6 0.892497 0.121062 0.924305
Si Si7 0.265761 0.581713 0.340326
O O1 0.915743 0.029826 0.368404
O O2 0.710980 0.975504 0.189164
O O3 0.792973 0.927036 0.338236
O O4 0.130050 0.946331 0.379341
O O5 0.500000 0.644055 0.250000
O O6 0.714689 0.725069 0.265280
O O7 0.712984 0.629529 0.209440
O O8 0.305433 0.683372 0.064690
O O9 0.500000 0.805748 0.250000
O O10 0.611728 0.812559 0.157268
O O11 0.910598 0.823076 0.381618
O O12 0.506146 0.103564 0.539354
O O13 0.500000 0.000000 0.500000
O O14 0.282447 0.121911 0.575783
O O15 0.143113 0.104366 0.050231
O O16 0.000000 0.564088 0.250000
#
# Coordination Sequence:
#
# PCOD8138459 Si02
#       7
#     8   8   8   8   8   8   8
#     4  11  25  40  60  91 129 166 214 253 321 383
#     4  10  22  39  61  92 123 160 208 256 316 374
#     4   9  18  37  65  90 118 156 207 265 310 368
#     4  11  24  38  59  91 129 163 203 257 316 376
#     4  10  20  37  65  91 122 156 207 259 313 374
#     4  10  21  41  63  92 119 162 215 259 311 377
#     4  11  26  40  62  88 128 170 215 261 316 378
#
# _framework density 21.075752000000001
#
# number of rings (size 3 to 8) (size 9 to 14) (size 15 to 20)
#    0.000    1.714    1.429    2.571    8.000    1.143 
#    0.000    2.143    0.000    0.000    0.000    0.000 
#    0.000    0.000    0.000    0.000    0.000    0.000 
#
# Total GULP energy -347027.862303 kJ/mol
# GULP energy per Si atom -12393.852225 kJ/mol
# Density = 2.102778 g / cm^3
# Si number density = 21.075752 Si / 1000 Ang^3
#
#
#
# Elastic Constant Matrix: (Units=GPa)
#
#
# Indices 1 2 3 4 5 6 
#
# 1 62.6194 30.9544 40.2448 0.0002 -8.1520 0.0001
# 2 30.9544 122.3211 42.7454 0.0000 -10.2847 0.0000
# 3 40.2448 42.7454 94.8882 0.0023 -16.4499 0.0010
# 4 0.0002 0.0000 0.0023 35.6460 0.0006 -5.2018
# 5 -8.1520 -10.2847 -16.4499 0.0006 30.0619 0.0004
# 6 0.0001 0.0000 0.0010 -5.2018 0.0004 28.8833
#
#
#
# Elastic Compliance Matrix: (Units=1/GPa)
#
#
# Indices 1 2 3 4 5 6 
#
# 1 0.022764 -0.002813 -0.008268 0.000000 0.000686 0.000000
# 2 -0.002813 0.010079 -0.003184 0.000000 0.000943 0.000000
# 3 -0.008268 -0.003184 0.016464 -0.000001 0.005678 -0.000001
# 4 0.000000 0.000000 -0.000001 0.028811 -0.000001 0.005189
# 5 0.000686 0.000943 0.005678 -0.000001 0.036880 -0.000001
# 6 0.000000 0.000000 -0.000001 0.005189 -0.000001 0.035556
#
#
# Mechanical properties :
#
#
# Convention : Reuss Voigt Hill
#
# Bulk Modulus (GPa) = 48.13315 56.41311 52.27313
# Shear Modulus (GPa) = 26.88024 29.97720 28.42872
#
# Velocity S-wave (km/s) = 3.57516 3.77550 3.67670
# Velocity P-wave (km/s) = 6.31903 6.76985 6.54832
#
# Compressibility (1/GPa) = 0.02077570
#
# Stress axis : x y z
#
# Youngs Moduli (GPa) = 43.92991 99.21618 60.73840
#
# Poissons Ratio (x) = 0.27914 0.50221
# Poissons Ratio (y) = 0.12359 0.19337
# Poissons Ratio (z) = 0.36323 0.31587
#
# Static dielectric constant tensor:
#      x y z
#    x 4.736980 -0.000010 -0.053480 
#    y -0.000010 3.825330 0.000000 
#    z -0.053480 0.000000 4.327210 
# 
# 
# High freq. dielectric constant tensor:
#      x y z
#    x 1.799780 0.000000 -0.021860 
#    y 0.000000 1.821790 0.000000 
#    z -0.021860 0.000000 1.839110 
# 
# From -- ./inp_files/193321.got.cif
#   From: 2010.06.25/outbox.cif.g09.slc.cpg/sg15_97_cif.got.tgz:193321.got - 2010.06.28 07:06:18.
