data_PCOD8138177
_publ_section_title
;
Structure prediction by ZEFSAII (Michael W. Deem and Ramdas Pophale) SiO2 
 PCOD8138177
Probable space group: C 2/C
;
_chemical_formula_sum "Si O2"
_cell_formula_units_Z 48
_cell_length_a 14.822699
_cell_length_b 22.757469
_cell_length_c 11.836808
_cell_angle_alpha 90.000000
_cell_angle_beta 37.173440
_cell_angle_gamma 90.000000
_cell_volume 2412.614874
_symmetry_space_group_name_H-M "C 2/C"
_symmetry_group_IT_number 15
_symmetry_cell_setting 'monoclinic'
loop_
_space_group_symop_operation_xyz
x,y,z
-x,y,1/2-z
-x,-y,-z
x,-y,1/2+z
1/2+x,1/2+y,z
1/2-x,1/2+y,1/2-z
1/2-x,1/2-y,-z
1/2+x,1/2-y,1/2+z
loop_
_atom_site_type_symbol
_atom_site_label
_atom_site_fract_x
_atom_site_fract_y
_atom_site_fract_z
Si Si1 0.409527 0.674315 0.545738
Si Si2 0.452759 0.424184 0.166434
Si Si3 0.222099 0.014551 0.286976
Si Si4 0.778173 0.227489 0.342396
Si Si5 0.392486 0.889731 0.507563
Si Si6 0.714789 0.086418 0.622513
O O1 0.425923 0.643539 0.652751
O O2 0.272147 0.720070 0.690509
O O3 0.552578 0.708455 0.352156
O O4 0.363144 0.623361 0.503337
O O5 0.500000 0.425312 0.250000
O O6 0.311249 0.467518 0.282209
O O7 0.578916 0.446255 0.955431
O O8 0.356550 0.060917 0.136295
O O9 0.270045 0.979679 0.350291
O O10 0.750000 0.250000 0.500000
O O11 0.671651 0.174638 0.410504
O O12 0.304796 0.918018 0.490218
O O13 0.569202 0.881936 0.320495
#
# Coordination Sequence:
#
# PCOD8138177 Si02
#       6
#     8   8   8   8   8   8
#     4  11  23  40  58  88 119 158 201 252 302 368
#     4  10  21  39  62  90 122 162 207 251 307 365
#     4  10  20  37  60  89 123 160 201 251 301 367
#     4  12  23  36  61  87 122 157 201 251 309 361
#     4  11  21  37  58  91 124 160 195 249 306 366
#     4  10  22  35  57  89 123 158 196 242 312 363
#
# _framework density 19.895427000000002
#
# number of rings (size 3 to 8) (size 9 to 14) (size 15 to 20)
#    0.000    1.333    3.333    3.000    2.333    0.000 
#    0.000    0.833    0.000    0.000    0.000    0.000 
#    0.000    0.000    0.000    0.000    0.000    0.000 
#
# Total GULP energy -297399.726835 kJ/mol
# GULP energy per Si atom -12391.655285 kJ/mol
# Density = 1.985014 g / cm^3
# Si number density = 19.895427 Si / 1000 Ang^3
#
#
#
# Elastic Constant Matrix: (Units=GPa)
#
#
# Indices 1 2 3 4 5 6 
#
# 1 79.0455 34.6751 8.6555 -0.0035 7.6203 0.0033
# 2 34.6751 120.7514 19.2868 0.0005 12.0403 -0.0007
# 3 8.6555 19.2868 44.4879 -0.0006 -2.4982 0.0011
# 4 -0.0035 0.0005 -0.0006 34.5141 0.0016 -5.6653
# 5 7.6203 12.0403 -2.4982 0.0016 24.6759 -0.0017
# 6 0.0033 -0.0007 0.0011 -5.6653 -0.0017 38.8091
#
#
#
# Elastic Compliance Matrix: (Units=1/GPa)
#
#
# Indices 1 2 3 4 5 6 
#
# 1 0.014711 -0.003712 -0.001414 0.000001 -0.002875 -0.000001
# 2 -0.003712 0.010427 -0.004042 0.000000 -0.004351 0.000000
# 3 -0.001414 -0.004042 0.024782 0.000000 0.004918 0.000000
# 4 0.000001 0.000000 0.000000 0.029685 -0.000002 0.004333
# 5 -0.002875 -0.004351 0.004918 -0.000002 0.044034 0.000002
# 6 -0.000001 0.000000 0.000000 0.004333 0.000002 0.026400
#
#
# Mechanical properties :
#
#
# Convention : Reuss Voigt Hill
#
# Bulk Modulus (GPa) = 31.66316 41.05774 36.36045
# Shear Modulus (GPa) = 27.94795 31.71097 29.82946
#
# Velocity S-wave (km/s) = 3.75206 3.99668 3.87630
# Velocity P-wave (km/s) = 5.89236 6.47916 6.19271
#
# Compressibility (1/GPa) = 0.03158244
#
# Stress axis : x y z
#
# Youngs Moduli (GPa) = 67.97491 95.90588 40.35204
#
# Poissons Ratio (x) = 0.35600 0.05707
# Poissons Ratio (y) = 0.25232 0.16312
# Poissons Ratio (z) = 0.09615 0.38770
#
# Static dielectric constant tensor:
#      x y z
#    x 3.653410 0.000000 -0.260950 
#    y 0.000000 3.878240 0.000000 
#    z -0.260950 0.000000 3.408080 
# 
# 
# High freq. dielectric constant tensor:
#      x y z
#    x 1.766100 0.000000 -0.026910 
#    y 0.000000 1.795300 0.000000 
#    z -0.026910 0.000000 1.749600 
# 
# From -- ./inp_files/99965.got.cif
#   From: 2010.06.25/outbox.cif.g09.slc.cpg/sg15_50_cif.got.tgz:99965.got - 2010.06.28 07:06:18.
