data_PCOD8138333
_publ_section_title
;
Structure prediction by ZEFSAII (Michael W. Deem and Ramdas Pophale) SiO2 
 PCOD8138333
Probable space group: C 2/C
;
_chemical_formula_sum "Si O2"
_cell_formula_units_Z 56
_cell_length_a 21.500086
_cell_length_b 14.216117
_cell_length_c 9.336794
_cell_angle_alpha 90.000000
_cell_angle_beta 77.792301
_cell_angle_gamma 90.000000
_cell_volume 2789.239063
_symmetry_space_group_name_H-M "C 2/C"
_symmetry_group_IT_number 15
_symmetry_cell_setting 'monoclinic'
loop_
_space_group_symop_operation_xyz
x,y,z
-x,y,1/2-z
-x,-y,-z
x,-y,1/2+z
1/2+x,1/2+y,z
1/2-x,1/2+y,1/2-z
1/2-x,1/2-y,-z
1/2+x,1/2-y,1/2+z
loop_
_atom_site_type_symbol
_atom_site_label
_atom_site_fract_x
_atom_site_fract_y
_atom_site_fract_z
Si Si1 0.000000 0.784976 0.750000
Si Si2 0.612400 0.440536 0.376819
Si Si3 0.614012 0.241664 0.533535
Si Si4 0.204976 0.591326 0.404425
Si Si5 0.500000 0.383197 0.250000
Si Si6 0.243442 0.575746 0.716964
Si Si7 0.580259 0.359359 0.958885
Si Si8 0.303764 0.726824 0.232370
O O1 0.045128 0.716813 0.633535
O O2 0.043462 0.852146 0.826225
O O3 0.607128 0.339823 0.454677
O O4 0.557970 0.445463 0.282505
O O5 0.683760 0.452635 0.281698
O O6 0.597083 0.531139 0.483403
O O7 0.639443 0.152433 0.430119
O O8 0.666151 0.256313 0.628286
O O9 0.230166 0.573796 0.553287
O O10 0.195267 0.492425 0.327381
O O11 0.255263 0.642355 0.276900
O O12 0.466144 0.320902 0.391884
O O13 0.232857 0.678237 0.791739
O O14 0.644864 0.298332 0.916009
#
# Coordination Sequence:
#
# PCOD8138333 Si02
#       8
#     4   8   8   8   4   8   8   8
#     4  10  21  40  60  87 114 172 203 234 288 363
#     4  12  22  35  58  88 125 162 187 243 295 363
#     4  10  20  37  63  83 118 159 205 234 286 365
#     4  11  21  41  62  90 117 158 200 249 295 353
#     4  12  27  36  50  95 132 156 193 242 310 343
#     4  11  23  39  64  89 123 155 199 248 299 346
#     4  11  24  36  59  86 127 157 202 242 292 365
#     4  10  20  39  62  88 114 161 206 237 290 365
#
# _framework density 20.077159000000002
#
# number of rings (size 3 to 8) (size 9 to 14) (size 15 to 20)
#    0.000    1.143    5.714    1.714    6.000    0.000 
#    2.571    1.429    0.000    8.571    0.000    0.000 
#    0.000    0.000    0.000    0.000    0.000    0.000 
#
# Total GULP energy -346934.395895 kJ/mol
# GULP energy per Si atom -12390.514139 kJ/mol
# Density = 2.003146 g / cm^3
# Si number density = 20.077159 Si / 1000 Ang^3
#
#
#
# Elastic Constant Matrix: (Units=GPa)
#
#
# Indices 1 2 3 4 5 6 
#
# 1 95.2115 41.8163 39.5644 0.0000 -25.4636 0.0000
# 2 41.8163 93.9757 48.3518 0.0000 -14.4546 0.0000
# 3 39.5644 48.3518 106.2853 0.0000 -37.3301 0.0000
# 4 0.0000 0.0000 0.0000 23.1285 0.0000 -8.0376
# 5 -25.4636 -14.4546 -37.3301 0.0000 29.8920 0.0000
# 6 0.0000 0.0000 0.0000 -8.0376 0.0000 15.5246
#
#
#
# Elastic Compliance Matrix: (Units=1/GPa)
#
#
# Indices 1 2 3 4 5 6 
#
# 1 0.015777 -0.005632 0.000807 0.000000 0.011724 0.000000
# 2 -0.005632 0.015977 -0.007381 0.000000 -0.006289 0.000000
# 3 0.000807 -0.007381 0.020403 0.000000 0.022598 0.000000
# 4 0.000000 0.000000 0.000000 0.052723 0.000000 0.027296
# 5 0.011724 -0.006289 0.022598 0.000000 0.068621 0.000000
# 6 0.000000 0.000000 0.000000 0.027296 0.000000 0.078546
#
#
# Mechanical properties :
#
#
# Convention : Reuss Voigt Hill
#
# Bulk Modulus (GPa) = 36.04219 61.65971 48.85095
# Shear Modulus (GPa) = 17.50043 24.75836 21.12940
#
# Velocity S-wave (km/s) = 2.95559 3.51545 3.24761
# Velocity P-wave (km/s) = 5.44409 6.87429 6.20057
#
# Compressibility (1/GPa) = 0.02774526
#
# Stress axis : x y z
#
# Youngs Moduli (GPa) = 63.38523 62.58856 49.01213
#
# Poissons Ratio (x) = 0.35250 -0.03956
# Poissons Ratio (y) = 0.35699 0.36175
# Poissons Ratio (z) = -0.05116 0.46196
#
# Static dielectric constant tensor:
#      x y z
#    x 3.910730 0.000000 -0.299890 
#    y 0.000000 3.623750 0.000000 
#    z -0.299890 0.000000 3.660300 
# 
# 
# High freq. dielectric constant tensor:
#      x y z
#    x 1.780150 0.000000 -0.019500 
#    y 0.000000 1.758710 0.000000 
#    z -0.019500 0.000000 1.780740 
# 
# From -- ./inp_files/61515.got.cif
#   From: 2010.06.25/outbox.cif.g09.slc.cpg/sg15_31_cif.got.tgz:61515.got - 2010.06.28 07:06:18.
