data_PCOD8138834
_publ_section_title
;
Structure prediction by ZEFSAII (Michael W. Deem and Ramdas Pophale) SiO2 
 PCOD8138834
Probable space group: C 2/C
;
_chemical_formula_sum "Si O2"
_cell_formula_units_Z 48
_cell_length_a 15.832756
_cell_length_b 9.086411
_cell_length_c 29.269157
_cell_angle_alpha 90.000000
_cell_angle_beta 145.645774
_cell_angle_gamma 90.000000
_cell_volume 2376.156472
_symmetry_space_group_name_H-M "C 2/C"
_symmetry_group_IT_number 15
_symmetry_cell_setting 'monoclinic'
loop_
_space_group_symop_operation_xyz
x,y,z
-x,y,1/2-z
-x,-y,-z
x,-y,1/2+z
1/2+x,1/2+y,z
1/2-x,1/2+y,1/2-z
1/2-x,1/2-y,-z
1/2+x,1/2-y,1/2+z
loop_
_atom_site_type_symbol
_atom_site_label
_atom_site_fract_x
_atom_site_fract_y
_atom_site_fract_z
Si Si1 0.392564 0.818578 0.160751
Si Si2 0.132870 0.017391 0.593913
Si Si3 0.380736 0.562442 0.093038
Si Si4 0.059243 0.519292 0.907702
Si Si5 0.438362 0.700208 0.847657
Si Si6 0.638912 0.741324 0.157841
O O1 0.500000 0.784064 0.250000
O O2 0.258147 0.913455 0.118853
O O3 0.340327 0.656793 0.119956
O O4 0.473490 0.915031 0.157458
O O5 0.092172 0.123441 0.617672
O O6 0.185018 0.854238 0.634128
O O7 0.000000 0.000000 0.500000
O O8 0.452823 0.401909 0.135244
O O9 0.509101 0.649103 0.124018
O O10 0.231443 0.550846 0.996282
O O11 0.029796 0.347698 0.897644
O O12 0.939827 0.601157 0.888349
O O13 0.283391 0.734974 0.753660
#
# Coordination Sequence:
#
# PCOD8138834 Si02
#       6
#     8   8   8   8   8   8
#     4  11  21  37  59  85 115 151 193 245 296 345
#     4  11  22  39  61  89 119 152 197 251 298 347
#     4  10  21  38  58  84 116 156 195 233 292 365
#     4  11  21  39  62  85 115 158 198 239 295 362
#     4  11  22  39  61  87 117 157 200 243 294 364
#     4  10  20  38  62  86 116 160 201 235 291 369
#
# _framework density 20.200690000000002
#
# number of rings (size 3 to 8) (size 9 to 14) (size 15 to 20)
#    0.000    1.333    0.000   10.500    0.000    0.000 
#    0.000    9.167    0.000    0.000    0.000    0.000 
#    0.000    0.000    0.000    0.000    0.000    0.000 
#
# Total GULP energy -297454.378092 kJ/mol
# GULP energy per Si atom -12393.932421 kJ/mol
# Density = 2.015471 g / cm^3
# Si number density = 20.200690 Si / 1000 Ang^3
#
#
#
# Elastic Constant Matrix: (Units=GPa)
#
#
# Indices 1 2 3 4 5 6 
#
# 1 92.8632 81.0540 48.5742 0.0003 -14.2031 0.0002
# 2 81.0540 184.4041 63.5030 0.0005 -20.1963 0.0003
# 3 48.5742 63.5030 164.4098 -0.0004 -12.8101 -0.0002
# 4 0.0003 0.0005 -0.0004 197.7743 -0.0001 81.3426
# 5 -14.2031 -20.1963 -12.8101 -0.0001 37.3294 0.0000
# 6 0.0002 0.0003 -0.0002 81.3426 0.0000 88.7278
#
#
#
# Elastic Compliance Matrix: (Units=1/GPa)
#
#
# Indices 1 2 3 4 5 6 
#
# 1 0.018634 -0.007032 -0.002603 0.000000 0.002392 0.000000
# 2 -0.007032 0.009169 -0.001321 0.000000 0.001832 0.000000
# 3 -0.002603 -0.001321 0.007427 0.000000 0.000844 0.000000
# 4 0.000000 0.000000 0.000000 0.008117 0.000000 -0.007441
# 5 0.002392 0.001832 0.000844 0.000000 0.028979 0.000000
# 6 0.000000 0.000000 0.000000 -0.007441 0.000000 0.018092
#
#
# Mechanical properties :
#
#
# Convention : Reuss Voigt Hill
#
# Bulk Modulus (GPa) = 75.08509 91.99327 83.53918
# Shear Modulus (GPa) = 42.81908 81.33601 62.07754
#
# Velocity S-wave (km/s) = 4.60900 6.35227 5.54952
# Velocity P-wave (km/s) = 8.09778 9.97198 9.08335
#
# Compressibility (1/GPa) = 0.01331822
#
# Stress axis : x y z
#
# Youngs Moduli (GPa) = 53.66658 109.05792 134.63600
#
# Poissons Ratio (x) = 0.76690 0.35042
# Poissons Ratio (y) = 0.37738 0.17790
# Poissons Ratio (z) = 0.13968 0.14410
#
# Static dielectric constant tensor:
#      x y z
#    x 3.834940 0.000000 0.037730 
#    y 0.000000 4.369120 0.000000 
#    z 0.037730 0.000000 3.795750 
# 
# 
# High freq. dielectric constant tensor:
#      x y z
#    x 1.766620 0.000000 0.014270 
#    y 0.000000 1.807020 0.000000 
#    z 0.014270 0.000000 1.803090 
# 
# From -- ./inp_files/208913.got.cif
#   From: 2010.06.25/outbox.cif.g09.slc.cpg/sg15_105_cif.got.tgz:208913.got - 2010.06.28 07:06:18.
