data_PCOD8138217
_publ_section_title
;
Structure prediction by ZEFSAII (Michael W. Deem and Ramdas Pophale) SiO2 
 PCOD8138217
Probable space group: C 2/C
;
_chemical_formula_sum "Si O2"
_cell_formula_units_Z 60
_cell_length_a 20.526034
_cell_length_b 23.912487
_cell_length_c 14.045094
_cell_angle_alpha 90.000000
_cell_angle_beta 24.889800
_cell_angle_gamma 90.000000
_cell_volume 2901.395149
_symmetry_space_group_name_H-M "C 2/C"
_symmetry_group_IT_number 15
_symmetry_cell_setting 'monoclinic'
loop_
_space_group_symop_operation_xyz
x,y,z
-x,y,1/2-z
-x,-y,-z
x,-y,1/2+z
1/2+x,1/2+y,z
1/2-x,1/2+y,1/2-z
1/2-x,1/2-y,-z
1/2+x,1/2-y,1/2+z
loop_
_atom_site_type_symbol
_atom_site_label
_atom_site_fract_x
_atom_site_fract_y
_atom_site_fract_z
Si Si1 0.060822 0.857000 0.563914
Si Si2 0.115512 0.619762 0.424766
Si Si3 0.500000 0.954721 0.250000
Si Si4 0.069748 0.077314 0.440295
Si Si5 0.234140 0.025857 0.642044
Si Si6 0.608476 0.112100 0.938632
Si Si7 0.933656 0.730953 0.437844
Si Si8 0.089510 0.255586 0.925398
O O1 0.242796 0.870883 0.322222
O O2 0.033980 0.791923 0.572641
O O3 0.000000 0.868920 0.750000
O O4 0.968031 0.895556 0.612290
O O5 0.049795 0.584503 0.598516
O O6 0.304742 0.615540 0.169412
O O7 0.053123 0.683525 0.517917
O O8 0.038950 0.595428 0.430392
O O9 0.348713 0.992216 0.418393
O O10 0.903898 0.066642 0.716531
O O11 0.148079 0.017115 0.325617
O O12 0.356140 0.059705 0.543091
O O13 0.562219 0.163752 0.067132
O O14 0.766805 0.755718 0.667599
O O15 0.000000 0.753046 0.250000
O O16 0.017821 0.756500 0.417620
#
# Coordination Sequence:
#
# PCOD8138217 Si02
#       8
#     8   8   4   8   8   8   8   8
#     4  10  21  36  59  88 128 171 200 243 305 379
#     4  10  21  37  58  89 126 153 201 256 301 372
#     4  10  22  32  60  90 112 162 208 242 318 360
#     4   9  19  37  60  81 116 160 202 254 298 350
#     4   9  19  38  59  81 112 158 204 254 303 357
#     4   9  21  37  57  87 119 156 210 251 312 365
#     4  10  20  37  61  86 115 161 204 256 300 366
#     4  10  21  38  57  92 124 162 202 244 310 364
#
# _framework density 20.679705999999999
#
# number of rings (size 3 to 8) (size 9 to 14) (size 15 to 20)
#    0.000    2.400    0.000    1.200    5.600    2.133 
#    0.000    2.667    0.000    0.000    0.000    0.000 
#    0.000    0.000    0.000    0.000    0.000    0.000 
#
# Total GULP energy -371678.032326 kJ/mol
# GULP energy per Si atom -12389.267744 kJ/mol
# Density = 2.063264 g / cm^3
# Si number density = 20.679706 Si / 1000 Ang^3
#
#
#
# Elastic Constant Matrix: (Units=GPa)
#
#
# Indices 1 2 3 4 5 6 
#
# 1 109.2854 26.0281 40.5366 0.0006 -29.0809 0.0204
# 2 26.0281 58.5487 3.2935 0.0019 -3.0911 0.0120
# 3 40.5366 3.2935 78.5222 0.0146 -8.2618 0.0273
# 4 0.0006 0.0019 0.0146 31.9373 -0.0041 4.3554
# 5 -29.0809 -3.0911 -8.2618 -0.0041 34.9738 -0.0160
# 6 0.0204 0.0120 0.0273 4.3554 -0.0160 26.6494
#
#
#
# Elastic Compliance Matrix: (Units=1/GPa)
#
#
# Indices 1 2 3 4 5 6 
#
# 1 0.016199 -0.006217 -0.006914 0.000004 0.011287 0.000004
# 2 -0.006217 0.019571 0.002078 -0.000001 -0.002948 -0.000008
# 3 -0.006914 0.002078 0.016030 -0.000006 -0.001779 -0.000012
# 4 0.000004 -0.000001 -0.000006 0.032025 0.000003 -0.005234
# 5 0.011287 -0.002948 -0.001779 0.000003 0.037297 0.000016
# 6 0.000004 -0.000008 -0.000012 -0.005234 0.000016 0.038380
#
#
# Mechanical properties :
#
#
# Convention : Reuss Voigt Hill
#
# Bulk Modulus (GPa) = 33.67592 42.89696 38.28644
# Shear Modulus (GPa) = 26.10887 30.47865 28.29376
#
# Velocity S-wave (km/s) = 3.55707 3.84323 3.70292
# Velocity P-wave (km/s) = 5.76110 6.36258 6.06929
#
# Compressibility (1/GPa) = 0.02969480
#
# Stress axis : x y z
#
# Youngs Moduli (GPa) = 61.73215 51.09652 62.38142
#
# Poissons Ratio (x) = 0.31764 0.43133
# Poissons Ratio (y) = 0.38376 -0.12964
# Poissons Ratio (z) = 0.42684 -0.10619
#
# Static dielectric constant tensor:
#      x y z
#    x 3.678160 -0.000110 -0.477960 
#    y -0.000110 3.998690 0.000160 
#    z -0.477960 0.000160 3.956780 
# 
# 
# High freq. dielectric constant tensor:
#      x y z
#    x 1.791550 -0.000010 -0.034650 
#    y -0.000010 1.822000 0.000010 
#    z -0.034650 0.000010 1.803440 
# 
# From -- ./inp_files/108421.got.cif
#   From: 2010.06.25/outbox.cif.g09.slc.cpg/sg15_55_cif.got.tgz:108421.got - 2010.06.28 07:06:18.
