data_PCOD8138585
_publ_section_title
;
Structure prediction by ZEFSAII (Michael W. Deem and Ramdas Pophale) SiO2 
 PCOD8138585
Probable space group: C 2/C
;
_chemical_formula_sum "Si O2"
_cell_formula_units_Z 56
_cell_length_a 17.391608
_cell_length_b 14.774466
_cell_length_c 12.071650
_cell_angle_alpha 90.000000
_cell_angle_beta 70.194345
_cell_angle_gamma 90.000000
_cell_volume 2918.349648
_symmetry_space_group_name_H-M "C 2/C"
_symmetry_group_IT_number 15
_symmetry_cell_setting 'monoclinic'
loop_
_space_group_symop_operation_xyz
x,y,z
-x,y,1/2-z
-x,-y,-z
x,-y,1/2+z
1/2+x,1/2+y,z
1/2-x,1/2+y,1/2-z
1/2-x,1/2-y,-z
1/2+x,1/2-y,1/2+z
loop_
_atom_site_type_symbol
_atom_site_label
_atom_site_fract_x
_atom_site_fract_y
_atom_site_fract_z
Si Si1 0.721742 0.885799 0.482146
Si Si2 0.379823 0.740285 0.074507
Si Si3 0.015568 0.605821 0.869637
Si Si4 0.270790 0.601467 0.210669
Si Si5 0.631276 0.443023 0.220002
Si Si6 0.377596 0.959091 0.581081
Si Si7 0.978726 0.075520 0.922742
O O1 0.671377 0.791570 0.497956
O O2 0.754167 0.909620 0.587787
O O3 0.795749 0.878160 0.357135
O O4 0.665158 0.969807 0.478348
O O5 0.432663 0.810201 0.115639
O O6 0.318194 0.696870 0.195743
O O7 0.435502 0.663661 0.992834
O O8 0.063840 0.511465 0.861372
O O9 0.000000 0.620502 0.750000
O O10 0.930989 0.606968 0.978778
O O11 0.331448 0.525087 0.227189
O O12 0.186645 0.602194 0.319945
O O13 0.580799 0.475180 0.135964
O O14 0.564793 0.390220 0.327634
O O15 0.000000 0.000000 0.000000
#
# Coordination Sequence:
#
# PCOD8138585 Si02
#       7
#     8   8   8   8   8   8   8
#     4  10  20  38  58  85 115 148 190 246 282 336
#     4  11  23  36  57  87 118 152 188 239 295 327
#     4  10  21  41  59  86 117 149 188 240 282 341
#     4  11  20  37  58  86 114 150 189 238 281 341
#     4  10  21  35  59  81 111 153 197 228 284 343
#     4   9  21  38  64  84 109 153 196 225 291 341
#     4  11  21  38  56  84 116 156 194 235 281 347
#
# _framework density 19.188928000000001
#
# number of rings (size 3 to 8) (size 9 to 14) (size 15 to 20)
#    0.000    1.714    2.857    1.286    0.000    2.286 
#    2.571    0.714    0.000    0.000    0.000    0.000 
#    0.000    0.000    0.000    0.000    0.000    0.000 
#
# Total GULP energy -347036.426192 kJ/mol
# GULP energy per Si atom -12394.158078 kJ/mol
# Density = 1.914525 g / cm^3
# Si number density = 19.188928 Si / 1000 Ang^3
#
#
#
# Elastic Constant Matrix: (Units=GPa)
#
#
# Indices 1 2 3 4 5 6 
#
# 1 124.5268 57.6007 77.1492 0.0000 -10.2971 0.0000
# 2 57.6007 93.7228 68.6669 0.0000 -6.1980 0.0000
# 3 77.1492 68.6669 132.1595 0.0000 -11.0479 0.0000
# 4 0.0000 0.0000 0.0000 24.6986 0.0000 -11.1428
# 5 -10.2971 -6.1980 -11.0479 0.0000 44.6173 0.0000
# 6 0.0000 0.0000 0.0000 -11.1428 0.0000 29.0223
#
#
#
# Elastic Compliance Matrix: (Units=1/GPa)
#
#
# Indices 1 2 3 4 5 6 
#
# 1 0.013534 -0.004075 -0.005687 0.000000 0.001149 0.000000
# 2 -0.004075 0.018456 -0.007225 0.000000 -0.000165 0.000000
# 3 -0.005687 -0.007225 0.014752 0.000000 0.001337 0.000000
# 4 0.000000 0.000000 0.000000 0.048971 0.000000 0.018802
# 5 0.001149 -0.000165 0.001337 0.000000 0.022986 0.000000
# 6 0.000000 0.000000 0.000000 0.018802 0.000000 0.041675
#
#
# Mechanical properties :
#
#
# Convention : Reuss Voigt Hill
#
# Bulk Modulus (GPa) = 78.31562 84.13810 81.22686
# Shear Modulus (GPa) = 25.17585 29.46713 27.32149
#
# Velocity S-wave (km/s) = 3.62608 3.92297 3.77744
# Velocity P-wave (km/s) = 7.64414 8.02882 7.83884
#
# Compressibility (1/GPa) = 0.01276885
#
# Stress axis : x y z
#
# Youngs Moduli (GPa) = 73.88973 54.18201 67.78764
#
# Poissons Ratio (x) = 0.22079 0.38552
# Poissons Ratio (y) = 0.30109 0.48973
# Poissons Ratio (z) = 0.42022 0.39144
#
# Static dielectric constant tensor:
#      x y z
#    x 4.001920 0.000000 -0.205600 
#    y 0.000000 3.373230 0.000000 
#    z -0.205600 0.000000 3.642110 
# 
# 
# High freq. dielectric constant tensor:
#      x y z
#    x 1.775430 0.000000 -0.008200 
#    y 0.000000 1.723160 0.000000 
#    z -0.008200 0.000000 1.748380 
# 
# From -- ./inp_files/105267.got.cif
#   From: 2010.06.25/outbox.cif.g09.slc.cpg/sg15_53_cif.got.tgz:105267.got - 2010.06.28 07:06:18.
