data_PCOD8138868
_publ_section_title
;
Structure prediction by ZEFSAII (Michael W. Deem and Ramdas Pophale) SiO2 
 PCOD8138868
Probable space group: C 2/C
;
_chemical_formula_sum "Si O2"
_cell_formula_units_Z 52
_cell_length_a 6.292368
_cell_length_b 26.249564
_cell_length_c 17.025189
_cell_angle_alpha 90.000000
_cell_angle_beta 116.835985
_cell_angle_gamma 90.000000
_cell_volume 2509.228681
_symmetry_space_group_name_H-M "C 2/C"
_symmetry_group_IT_number 15
_symmetry_cell_setting 'monoclinic'
loop_
_space_group_symop_operation_xyz
x,y,z
-x,y,1/2-z
-x,-y,-z
x,-y,1/2+z
1/2+x,1/2+y,z
1/2-x,1/2+y,1/2-z
1/2-x,1/2-y,-z
1/2+x,1/2-y,1/2+z
loop_
_atom_site_type_symbol
_atom_site_label
_atom_site_fract_x
_atom_site_fract_y
_atom_site_fract_z
Si Si1 0.048665 0.693935 0.617359
Si Si2 0.494144 0.559991 0.494348
Si Si3 0.064977 0.107766 0.342153
Si Si4 0.905378 0.638190 0.040619
Si Si5 0.721729 0.884286 0.339419
Si Si6 0.500000 0.643910 0.750000
Si Si7 0.747801 0.801453 0.836443
O O1 0.065723 0.668428 0.535426
O O2 0.268830 0.678093 0.707596
O O3 0.066435 0.754755 0.618902
O O4 0.820633 0.671865 0.627589
O O5 0.500000 0.500000 0.500000
O O6 0.502483 0.572001 0.403962
O O7 0.265278 0.588412 0.494465
O O8 0.732338 0.578275 0.579666
O O9 0.341362 0.120220 0.387105
O O10 0.000000 0.078676 0.250000
O O11 0.898843 0.157928 0.312757
O O12 0.799454 0.678064 0.084533
O O13 0.500000 0.903791 0.250000
O O14 0.958356 0.887217 0.323890
O O15 0.500000 0.787921 0.750000
#
# Coordination Sequence:
#
# PCOD8138868 Si02
#       7
#     8   8   8   8   8   4   8
#     4  11  21  38  64  96 131 177 215 262 330 401
#     4  11  25  47  69  96 127 175 232 285 344 404
#     4  11  24  45  66  97 137 178 221 280 334 400
#     4  11  23  43  66  91 139 172 221 280 335 386
#     4  10  22  41  64  96 134 168 213 280 338 395
#     4  10  20  38  62  88 132 168 206 264 330 382
#     4  11  23  38  64  98 134 176 221 261 324 409
#
# _framework density 20.723500999999999
#
# number of rings (size 3 to 8) (size 9 to 14) (size 15 to 20)
#    0.000    1.231    5.385    0.462    0.000    4.308 
#    4.154    0.000    0.000    0.000    0.000    0.000 
#    0.000    0.000    0.000    0.000    0.000    0.000 
#
# Total GULP energy -322198.422233 kJ/mol
# GULP energy per Si atom -12392.247009 kJ/mol
# Density = 2.067633 g / cm^3
# Si number density = 20.723501 Si / 1000 Ang^3
#
#
#
# Elastic Constant Matrix: (Units=GPa)
#
#
# Indices 1 2 3 4 5 6 
#
# 1 96.6904 41.4381 45.5443 0.0000 -11.0893 0.0000
# 2 41.4381 131.6573 58.5083 0.0000 -3.2003 0.0000
# 3 45.5443 58.5083 138.1825 0.0000 -12.4162 0.0000
# 4 0.0000 0.0000 0.0000 14.4754 0.0000 2.8237
# 5 -11.0893 -3.2003 -12.4162 0.0000 40.5844 0.0000
# 6 0.0000 0.0000 0.0000 2.8237 0.0000 14.2350
#
#
#
# Elastic Compliance Matrix: (Units=1/GPa)
#
#
# Indices 1 2 3 4 5 6 
#
# 1 0.013212 -0.002786 -0.002951 0.000000 0.002487 0.000000
# 2 -0.002786 0.009953 -0.003387 0.000000 -0.001013 0.000000
# 3 -0.002951 -0.003387 0.009817 0.000000 0.001930 0.000000
# 4 0.000000 0.000000 0.000000 0.071863 0.000000 -0.014255
# 5 0.002487 -0.001013 0.001930 0.000000 0.025830 0.000000
# 6 0.000000 0.000000 0.000000 -0.014255 0.000000 0.073077
#
#
# Mechanical properties :
#
#
# Convention : Reuss Voigt Hill
#
# Bulk Modulus (GPa) = 67.87550 73.05685 70.46618
# Shear Modulus (GPa) = 22.03497 28.59494 25.31496
#
# Velocity S-wave (km/s) = 3.26434 3.71864 3.49887
# Velocity P-wave (km/s) = 6.85798 7.33262 7.09927
#
# Compressibility (1/GPa) = 0.01473286
#
# Stress axis : x y z
#
# Youngs Moduli (GPa) = 75.68974 100.47290 101.86429
#
# Poissons Ratio (x) = 0.27995 0.30063
# Poissons Ratio (y) = 0.21089 0.34500
# Poissons Ratio (z) = 0.22338 0.34029
#
# Static dielectric constant tensor:
#      x y z
#    x 4.119510 0.000000 -0.129650 
#    y 0.000000 3.426660 0.000000 
#    z -0.129650 0.000000 4.092860 
# 
# 
# High freq. dielectric constant tensor:
#      x y z
#    x 1.818320 0.000000 -0.007070 
#    y 0.000000 1.771310 0.000000 
#    z -0.007070 0.000000 1.840940 
# 
# From -- ./inp_files/185949.got.cif
#   From: 2010.06.25/outbox.cif.g09.slc.cpg/sg15_93_cif.got.tgz:185949.got - 2010.06.28 07:06:18.
