data_PCOD8138411
_publ_section_title
;
Structure prediction by ZEFSAII (Michael W. Deem and Ramdas Pophale) SiO2 
 PCOD8138411
Probable space group: C 2/C
;
_chemical_formula_sum "Si O2"
_cell_formula_units_Z 56
_cell_length_a 12.717864
_cell_length_b 13.302571
_cell_length_c 14.805036
_cell_angle_alpha 90.000000
_cell_angle_beta 91.789675
_cell_angle_gamma 90.000000
_cell_volume 2503.498475
_symmetry_space_group_name_H-M "C 2/C"
_symmetry_group_IT_number 15
_symmetry_cell_setting 'monoclinic'
loop_
_space_group_symop_operation_xyz
x,y,z
-x,y,1/2-z
-x,-y,-z
x,-y,1/2+z
1/2+x,1/2+y,z
1/2-x,1/2+y,1/2-z
1/2-x,1/2-y,-z
1/2+x,1/2-y,1/2+z
loop_
_atom_site_type_symbol
_atom_site_label
_atom_site_fract_x
_atom_site_fract_y
_atom_site_fract_z
Si Si1 0.268610 0.593750 0.572779
Si Si2 0.720264 0.234058 0.733006
Si Si3 0.012734 0.051164 0.857607
Si Si4 0.823318 0.079919 0.379845
Si Si5 0.933267 0.739462 0.336599
Si Si6 0.574389 0.024791 0.126061
Si Si7 0.866927 0.452696 0.183387
O O1 0.260640 0.686135 0.640783
O O2 0.368108 0.526882 0.609285
O O3 0.289015 0.633853 0.472043
O O4 0.162790 0.526958 0.566787
O O5 0.672438 0.341767 0.703423
O O6 0.812713 0.244319 0.806929
O O7 0.635012 0.162348 0.780074
O O8 0.000000 0.049210 0.750000
O O9 0.978430 0.163048 0.890252
O O10 0.938734 0.966151 0.898506
O O11 0.744622 0.986803 0.359453
O O12 0.940737 0.641818 0.402373
O O13 0.000000 0.715466 0.250000
O O14 0.462478 0.965509 0.113911
O O15 0.611802 0.025072 0.231099
#
# Coordination Sequence:
#
# PCOD8138411 Si02
#       7
#     8   8   8   8   8   8   8
#     4  11  24  40  61  94 135 167 201 256 328 382
#     4  11  21  39  64  92 118 164 219 258 306 374
#     4  11  22  41  65  92 120 169 219 255 300 382
#     4  12  23  40  65  94 132 164 202 272 325 366
#     4  11  17  35  68  87 111 162 223 251 289 369
#     4  10  20  39  62  90 120 164 211 255 305 375
#     4  10  20  37  64  91 120 160 219 263 300 366
#
# _framework density 22.368698999999999
#
# number of rings (size 3 to 8) (size 9 to 14) (size 15 to 20)
#    0.000    1.143    7.143    1.714    0.000    0.571 
#    5.143    0.714    0.000    0.000    0.000    0.000 
#    0.000    0.000    0.000    0.000    0.000    0.000 
#
# Total GULP energy -347151.789985 kJ/mol
# GULP energy per Si atom -12398.278214 kJ/mol
# Density = 2.231779 g / cm^3
# Si number density = 22.368699 Si / 1000 Ang^3
#
#
#
# Elastic Constant Matrix: (Units=GPa)
#
#
# Indices 1 2 3 4 5 6 
#
# 1 129.2012 57.2450 12.0868 0.0000 -9.4213 0.0000
# 2 57.2450 118.5134 18.2548 0.0000 -17.5882 0.0000
# 3 12.0868 18.2548 34.5094 0.0000 -3.7364 0.0000
# 4 0.0000 0.0000 0.0000 16.6941 0.0000 -1.9927
# 5 -9.4213 -17.5882 -3.7364 0.0000 21.2766 0.0000
# 6 0.0000 0.0000 0.0000 -1.9927 0.0000 22.8123
#
#
#
# Elastic Compliance Matrix: (Units=1/GPa)
#
#
# Indices 1 2 3 4 5 6 
#
# 1 0.009884 -0.004555 -0.001005 0.000000 0.000435 0.000000
# 2 -0.004555 0.012389 -0.004147 0.000000 0.007496 0.000000
# 3 -0.001005 -0.004147 0.031707 0.000000 0.001695 0.000000
# 4 0.000000 0.000000 0.000000 0.060533 0.000000 0.005288
# 5 0.000435 0.007496 0.001695 0.000000 0.053687 0.000000
# 6 0.000000 0.000000 0.000000 0.005288 0.000000 0.044298
#
#
# Mechanical properties :
#
#
# Convention : Reuss Voigt Hill
#
# Bulk Modulus (GPa) = 28.93000 50.82191 39.87595
# Shear Modulus (GPa) = 20.53958 25.13243 22.83600
#
# Velocity S-wave (km/s) = 3.03352 3.35558 3.19860
# Velocity P-wave (km/s) = 5.02304 6.14676 5.61309
#
# Compressibility (1/GPa) = 0.03456619
#
# Stress axis : x y z
#
# Youngs Moduli (GPa) = 101.17718 80.71597 31.53903
#
# Poissons Ratio (x) = 0.36763 0.03171
# Poissons Ratio (y) = 0.46083 0.13078
# Poissons Ratio (z) = 0.10171 0.33470
#
# Static dielectric constant tensor:
#      x y z
#    x 4.243030 0.000000 0.002750 
#    y 0.000000 3.958980 0.000000 
#    z 0.002750 0.000000 3.581230 
# 
# 
# High freq. dielectric constant tensor:
#      x y z
#    x 1.890550 0.000000 0.005490 
#    y 0.000000 1.872560 0.000000 
#    z 0.005490 0.000000 1.843970 
# 
# From -- ./inp_files/144229.got.cif
#   From: 2010.06.25/outbox.cif.g09.slc.cpg/sg15_73_cif.got.tgz:144229.got - 2010.06.28 07:06:18.
