data_PCOD8138652
_publ_section_title
;
Structure prediction by ZEFSAII (Michael W. Deem and Ramdas Pophale) SiO2 
 PCOD8138652
Probable space group: C 2/C
;
_chemical_formula_sum "Si O2"
_cell_formula_units_Z 48
_cell_length_a 30.487915
_cell_length_b 15.812252
_cell_length_c 15.542398
_cell_angle_alpha 90.000000
_cell_angle_beta 18.767767
_cell_angle_gamma 90.000000
_cell_volume 2410.655786
_symmetry_space_group_name_H-M "C 2/C"
_symmetry_group_IT_number 15
_symmetry_cell_setting 'monoclinic'
loop_
_space_group_symop_operation_xyz
x,y,z
-x,y,1/2-z
-x,-y,-z
x,-y,1/2+z
1/2+x,1/2+y,z
1/2-x,1/2+y,1/2-z
1/2-x,1/2-y,-z
1/2+x,1/2-y,1/2+z
loop_
_atom_site_type_symbol
_atom_site_label
_atom_site_fract_x
_atom_site_fract_y
_atom_site_fract_z
Si Si1 0.615028 0.801680 0.264769
Si Si2 0.784297 0.053764 0.767439
Si Si3 0.049807 0.975705 0.313071
Si Si4 0.459448 0.059713 0.729370
Si Si5 0.694101 0.059936 0.746292
Si Si6 0.635357 0.315841 0.238551
O O1 0.583029 0.856063 0.240114
O O2 0.624746 0.859488 0.331330
O O3 0.500115 0.733322 0.489921
O O4 0.750000 0.750000 0.000000
O O5 0.729310 0.086084 0.778256
O O6 0.822367 0.134490 0.753799
O O7 0.914893 0.992017 0.505535
O O8 0.667857 0.003912 0.035212
O O9 0.103845 0.879181 0.216703
O O10 0.000000 0.000000 0.500000
O O11 0.171753 0.035377 0.055826
O O12 0.500000 0.086222 0.750000
O O13 0.587032 0.017100 0.443824
O O14 0.750000 0.250000 0.000000
#
# Coordination Sequence:
#
# PCOD8138652 Si02
#       6
#     8   8   8   8   8   8
#     4  12  23  36  57  86 119 150 183 237 298 345
#     4  10  21  40  61  84 113 153 200 240 281 345
#     4  10  20  38  60  82 111 151 197 234 277 345
#     4  10  22  40  62  84 111 151 199 238 277 343
#     4  11  22  39  62  83 112 156 198 238 284 344
#     4  11  22  37  59  87 120 151 185 239 298 346
#
# _framework density 19.911594000000001
#
# number of rings (size 3 to 8) (size 9 to 14) (size 15 to 20)
#    0.000    1.333    0.000    8.000    0.000    1.333 
#    0.000    3.333    0.000    0.000    0.000    0.000 
#    0.000    0.000    0.000    0.000    0.000    0.000 
#
# Total GULP energy -297644.070058 kJ/mol
# GULP energy per Si atom -12401.836252 kJ/mol
# Density = 1.986627 g / cm^3
# Si number density = 19.911594 Si / 1000 Ang^3
#
#
#
# Elastic Constant Matrix: (Units=GPa)
#
#
# Indices 1 2 3 4 5 6 
#
# 1 85.4239 50.6598 13.1829 -0.0001 -21.0461 0.0003
# 2 50.6598 110.5855 31.6387 -0.0001 -15.8132 0.0001
# 3 13.1829 31.6387 118.1227 0.0001 -19.1250 0.0000
# 4 -0.0001 -0.0001 0.0001 45.5666 -0.0001 -12.9647
# 5 -21.0461 -15.8132 -19.1250 -0.0001 28.4768 -0.0002
# 6 0.0003 0.0001 0.0000 -12.9647 -0.0002 29.1200
#
#
#
# Elastic Compliance Matrix: (Units=1/GPa)
#
#
# Indices 1 2 3 4 5 6 
#
# 1 0.018468 -0.007410 0.001646 0.000000 0.010640 0.000000
# 2 -0.007410 0.013218 -0.002706 0.000000 0.000046 0.000000
# 3 0.001646 -0.002706 0.010054 0.000000 0.006466 0.000000
# 4 0.000000 0.000000 0.000000 0.025129 0.000000 0.011188
# 5 0.010640 0.000046 0.006466 0.000000 0.047348 0.000000
# 6 0.000000 0.000000 0.000000 0.011188 0.000000 0.039322
#
#
# Mechanical properties :
#
#
# Convention : Reuss Voigt Hill
#
# Bulk Modulus (GPa) = 40.32124 56.12167 48.22146
# Shear Modulus (GPa) = 27.97285 35.20938 31.59112
#
# Velocity S-wave (km/s) = 3.75220 4.20966 3.98750
# Velocity P-wave (km/s) = 6.25029 7.20243 6.74318
#
# Compressibility (1/GPa) = 0.02480082
#
# Stress axis : x y z
#
# Youngs Moduli (GPa) = 54.14780 75.65399 99.46553
#
# Poissons Ratio (x) = 0.56058 -0.16375
# Poissons Ratio (y) = 0.40123 0.26915
# Poissons Ratio (z) = -0.08914 0.20471
#
# Static dielectric constant tensor:
#      x y z
#    x 3.899220 0.000000 -0.299280 
#    y 0.000000 3.751240 0.000000 
#    z -0.299280 0.000000 3.962880 
# 
# 
# High freq. dielectric constant tensor:
#      x y z
#    x 1.781060 0.000000 -0.013230 
#    y 0.000000 1.771720 0.000000 
#    z -0.013230 0.000000 1.801190 
# 
# From -- ./inp_files/182457.got.cif
#   From: 2010.06.25/outbox.cif.g09.slc.cpg/sg15_92_cif.got.tgz:182457.got - 2010.06.28 07:06:18.
