data_PCOD8138570
_publ_section_title
;
Structure prediction by ZEFSAII (Michael W. Deem and Ramdas Pophale) SiO2 
 PCOD8138570
Probable space group: C 2/C
;
_chemical_formula_sum "Si O2"
_cell_formula_units_Z 56
_cell_length_a 24.961329
_cell_length_b 16.896375
_cell_length_c 20.893936
_cell_angle_alpha 90.000000
_cell_angle_beta 20.689605
_cell_angle_gamma 90.000000
_cell_volume 3113.375040
_symmetry_space_group_name_H-M "C 2/C"
_symmetry_group_IT_number 15
_symmetry_cell_setting 'monoclinic'
loop_
_space_group_symop_operation_xyz
x,y,z
-x,y,1/2-z
-x,-y,-z
x,-y,1/2+z
1/2+x,1/2+y,z
1/2-x,1/2+y,1/2-z
1/2-x,1/2-y,-z
1/2+x,1/2-y,1/2+z
loop_
_atom_site_type_symbol
_atom_site_label
_atom_site_fract_x
_atom_site_fract_y
_atom_site_fract_z
Si Si1 0.391440 0.573545 0.130011
Si Si2 0.428006 0.983568 0.184405
Si Si3 0.282154 0.735483 0.582538
Si Si4 0.672969 0.415719 0.546392
Si Si5 0.410255 0.893971 0.604531
Si Si6 0.027478 0.229323 0.013979
Si Si7 0.814780 0.587953 0.023776
O O1 0.253847 0.573300 0.233672
O O2 0.483598 0.655397 0.018419
O O3 0.330017 0.568826 0.270775
O O4 0.500000 0.500000 0.000000
O O5 0.255525 0.968521 0.400111
O O6 0.441476 0.073126 0.141381
O O7 0.462442 0.924564 0.087135
O O8 0.544683 0.967702 0.112254
O O9 0.324037 0.676059 0.478406
O O10 0.102320 0.744987 0.790521
O O11 0.335861 0.704349 0.592016
O O12 0.361065 0.820034 0.479887
O O13 0.500000 0.443664 0.750000
O O14 0.769730 0.429338 0.501913
O O15 0.418873 0.799013 0.593937
#
# Coordination Sequence:
#
# PCOD8138570 Si02
#       7
#     8   8   8   8   8   8   8
#     4  10  22  36  57  85 120 148 191 253 296 346
#     4  10  21  36  56  75 111 157 197 241 276 339
#     4  11  20  34  50  79 117 159 191 231 277 351
#     4  12  23  32  53  81 118 159 193 234 289 344
#     4  10  20  38  58  81 110 155 199 240 296 333
#     4  11  19  36  57  81 116 150 199 234 289 349
#     4  10  21  38  50  82 113 159 201 230 286 348
#
# _framework density 17.986910000000002
#
# number of rings (size 3 to 8) (size 9 to 14) (size 15 to 20)
#    0.000    1.429    5.714    2.571    4.000    2.286 
#    0.000    0.000    0.000    0.000    0.000    1.000 
#    0.000    0.000    0.000    0.000    0.000    0.000 
#
# Total GULP energy -347150.282629 kJ/mol
# GULP energy per Si atom -12398.224380 kJ/mol
# Density = 1.794597 g / cm^3
# Si number density = 17.986910 Si / 1000 Ang^3
#
#
#
# Elastic Constant Matrix: (Units=GPa)
#
#
# Indices 1 2 3 4 5 6 
#
# 1 102.4123 48.7917 34.4252 0.0015 -4.9982 -0.0005
# 2 48.7917 92.5396 54.5973 0.0019 0.7985 -0.0032
# 3 34.4252 54.5973 98.0365 -0.0013 1.5731 -0.0060
# 4 0.0015 0.0019 -0.0013 26.7101 -0.0037 1.6979
# 5 -4.9982 0.7985 1.5731 -0.0037 18.8986 0.0022
# 6 -0.0005 -0.0032 -0.0060 1.6979 0.0022 33.7178
#
#
#
# Elastic Compliance Matrix: (Units=1/GPa)
#
#
# Indices 1 2 3 4 5 6 
#
# 1 0.013406 -0.006386 -0.001214 0.000000 0.003916 -0.000001
# 2 -0.006386 0.019136 -0.008386 -0.000002 -0.001799 0.000000
# 3 -0.001214 -0.008386 0.015317 0.000001 -0.001242 0.000002
# 4 0.000000 -0.000002 0.000001 0.037559 0.000008 -0.001891
# 5 0.003916 -0.001799 -0.001242 0.000008 0.054129 -0.000004
# 6 -0.000001 0.000000 0.000002 -0.001891 -0.000004 0.029753
#
#
# Mechanical properties :
#
#
# Convention : Reuss Voigt Hill
#
# Bulk Modulus (GPa) = 62.94280 63.17966 63.06123
# Shear Modulus (GPa) = 24.20513 26.21026 25.20770
#
# Velocity S-wave (km/s) = 3.67237 3.82145 3.74765
# Velocity P-wave (km/s) = 7.28364 7.39411 7.33908
#
# Compressibility (1/GPa) = 0.01588744
#
# Stress axis : x y z
#
# Youngs Moduli (GPa) = 74.59313 52.25682 65.28845
#
# Poissons Ratio (x) = 0.33371 0.07926
# Poissons Ratio (y) = 0.47635 0.54750
# Poissons Ratio (z) = 0.09055 0.43822
#
# Static dielectric constant tensor:
#      x y z
#    x 3.254880 -0.000010 -0.136910 
#    y -0.000010 3.223090 0.000020 
#    z -0.136910 0.000020 3.373950 
# 
# 
# High freq. dielectric constant tensor:
#      x y z
#    x 1.682180 0.000000 -0.020300 
#    y 0.000000 1.667940 0.000000 
#    z -0.020300 0.000000 1.700160 
# 
# From -- ./inp_files/56071.got.cif
#   From: 2010.06.25/outbox.cif.g09.slc.cpg/sg15_29_cif.got.tgz:56071.got - 2010.06.28 07:06:18.
