data_PCOD8138437
_publ_section_title
;
Structure prediction by ZEFSAII (Michael W. Deem and Ramdas Pophale) SiO2 
 PCOD8138437
Probable space group: C 2/C
;
_chemical_formula_sum "Si O2"
_cell_formula_units_Z 32
_cell_length_a 11.505880
_cell_length_b 9.140571
_cell_length_c 24.421407
_cell_angle_alpha 90.000000
_cell_angle_beta 150.429445
_cell_angle_gamma 90.000000
_cell_volume 1267.495912
_symmetry_space_group_name_H-M "C 2/C"
_symmetry_group_IT_number 15
_symmetry_cell_setting 'monoclinic'
loop_
_space_group_symop_operation_xyz
x,y,z
-x,y,1/2-z
-x,-y,-z
x,-y,1/2+z
1/2+x,1/2+y,z
1/2-x,1/2+y,1/2-z
1/2-x,1/2-y,-z
1/2+x,1/2-y,1/2+z
loop_
_atom_site_type_symbol
_atom_site_label
_atom_site_fract_x
_atom_site_fract_y
_atom_site_fract_z
Si Si1 0.183981 0.709964 0.601667
Si Si2 0.226255 0.115011 0.371394
Si Si3 0.492366 0.735920 0.630283
Si Si4 0.390688 0.581618 0.325924
O O1 0.209396 0.541035 0.630880
O O2 0.425328 0.747024 0.667892
O O3 0.958089 0.718021 0.466659
O O4 0.127208 0.819725 0.627459
O O5 0.320245 0.132553 0.302681
O O6 0.000000 0.189466 0.250000
O O7 0.147453 0.094538 0.402854
O O8 0.250000 0.750000 0.500000
O O9 0.635554 0.589920 0.672037
#
# Coordination Sequence:
#
# PCOD8138437 Si02
#       4
#     8   8   8   8
#     4  10  21  39  63  95 136 178 226 284 340 404
#     4  10  20  37  64  96 130 177 231 279 338 406
#     4  11  25  44  67 100 140 181 231 287 344 411
#     4  11  23  42  69  97 136 183 228 284 348 408
#
# _framework density 25.246628000000001
#
# number of rings (size 3 to 8) (size 9 to 14) (size 15 to 20)
#    0.000    1.500    0.000    6.000    0.000    7.000 
#    0.000    5.000    0.000    0.000    0.000    0.000 
#    0.000    0.000    0.000    0.000    0.000    0.000 
#
# Total GULP energy -198292.814865 kJ/mol
# GULP energy per Si atom -12393.300929 kJ/mol
# Density = 2.518917 g / cm^3
# Si number density = 25.246628 Si / 1000 Ang^3
#
#
#
# Elastic Constant Matrix: (Units=GPa)
#
#
# Indices 1 2 3 4 5 6 
#
# 1 130.6985 75.5693 6.0571 0.0002 6.2799 0.0001
# 2 75.5693 152.9300 63.7498 0.0001 7.3176 0.0001
# 3 6.0571 63.7498 104.6062 0.0002 33.9107 0.0006
# 4 0.0002 0.0001 0.0002 42.7164 0.0003 -2.5131
# 5 6.2799 7.3176 33.9107 0.0003 44.3585 0.0003
# 6 0.0001 0.0001 0.0006 -2.5131 0.0003 51.5220
#
#
#
# Elastic Compliance Matrix: (Units=1/GPa)
#
#
# Indices 1 2 3 4 5 6 
#
# 1 0.012505 -0.008465 0.006057 0.000000 -0.005004 0.000000
# 2 -0.008465 0.014926 -0.010897 0.000000 0.007066 0.000000
# 3 0.006057 -0.010897 0.020667 0.000000 -0.014859 0.000000
# 4 0.000000 0.000000 0.000000 0.023478 0.000000 0.001145
# 5 -0.005004 0.007066 -0.014859 0.000000 0.033446 0.000000
# 6 0.000000 0.000000 0.000000 0.001145 0.000000 0.019465
#
#
# Mechanical properties :
#
#
# Convention : Reuss Voigt Hill
#
# Bulk Modulus (GPa) = 46.53725 75.44303 60.99014
# Shear Modulus (GPa) = 31.59383 43.90994 37.75188
#
# Velocity S-wave (km/s) = 3.54136 4.17494 3.87114
# Velocity P-wave (km/s) = 5.93251 7.29298 6.64764
#
# Compressibility (1/GPa) = 0.02148816
#
# Stress axis : x y z
#
# Youngs Moduli (GPa) = 79.96670 66.99691 48.38690
#
# Poissons Ratio (x) = 0.56711 -0.29307
# Poissons Ratio (y) = 0.67689 0.52727
# Poissons Ratio (z) = -0.48434 0.73006
#
# Static dielectric constant tensor:
#      x y z
#    x 5.130220 0.000000 0.049690 
#    y 0.000000 4.156300 0.000000 
#    z 0.049690 0.000000 4.885080 
# 
# 
# High freq. dielectric constant tensor:
#      x y z
#    x 2.038680 0.000000 0.004110 
#    y 0.000000 1.967890 0.000000 
#    z 0.004110 0.000000 2.026950 
# 
# From -- ./inp_files/84295.got.cif
#   From: 2010.06.25/outbox.cif.g09.slc.cpg/sg15_43_cif.got.tgz:84295.got - 2010.06.28 07:06:18.
