data_PCOD8138756
_publ_section_title
;
Structure prediction by ZEFSAII (Michael W. Deem and Ramdas Pophale) SiO2 
 PCOD8138756
Probable space group: C 2/C
;
_chemical_formula_sum "Si O2"
_cell_formula_units_Z 60
_cell_length_a 18.523055
_cell_length_b 8.293255
_cell_length_c 19.076627
_cell_angle_alpha 90.000000
_cell_angle_beta 74.619387
_cell_angle_gamma 90.000000
_cell_volume 2825.528463
_symmetry_space_group_name_H-M "C 2/C"
_symmetry_group_IT_number 15
_symmetry_cell_setting 'monoclinic'
loop_
_space_group_symop_operation_xyz
x,y,z
-x,y,1/2-z
-x,-y,-z
x,-y,1/2+z
1/2+x,1/2+y,z
1/2-x,1/2+y,1/2-z
1/2-x,1/2-y,-z
1/2+x,1/2-y,1/2+z
loop_
_atom_site_type_symbol
_atom_site_label
_atom_site_fract_x
_atom_site_fract_y
_atom_site_fract_z
Si Si1 0.053702 0.450927 0.423531
Si Si2 0.645299 0.357303 0.732797
Si Si3 0.535373 0.187815 0.135267
Si Si4 0.810943 0.627951 0.156020
Si Si5 0.063161 0.134725 0.485565
Si Si6 0.000000 0.942849 0.250000
Si Si7 0.183808 0.992543 0.370210
Si Si8 0.152624 0.510679 0.202349
O O1 0.140881 0.509216 0.407309
O O2 0.049630 0.257025 0.423163
O O3 0.000000 0.500000 0.500000
O O4 0.021435 0.538646 0.362674
O O5 0.721315 0.399753 0.669159
O O6 0.574863 0.452867 0.719659
O O7 0.658273 0.400443 0.810457
O O8 0.625109 0.168725 0.729539
O O9 0.490254 0.331622 0.184009
O O10 0.597005 0.116155 0.170673
O O11 0.568927 0.261828 0.055136
O O12 0.830335 0.604675 0.231705
O O13 0.838495 0.807325 0.133504
O O14 0.142726 0.051353 0.451328
O O15 0.000000 0.000000 0.500000
O O16 0.271685 0.003331 0.362434
#
# Coordination Sequence:
#
# PCOD8138756 Si02
#       8
#     8   8   8   8   8   4   8   8
#     4  10  21  38  61  84 114 154 194 237 292 353
#     4  10  22  38  62  90 120 158 200 246 295 355
#     4  11  24  39  59  88 121 154 195 251 299 351
#     4  10  20  39  63  89 120 157 201 245 296 355
#     4  11  23  39  61  86 116 158 204 246 295 359
#     4  12  24  40  62  92 124 152 198 252 298 344
#     4  10  20  38  61  86 118 157 200 243 293 358
#     4  10  22  38  59  88 121 156 195 246 304 352
#
# _framework density 21.234964999999999
#
# number of rings (size 3 to 8) (size 9 to 14) (size 15 to 20)
#    0.000    1.600    0.000    5.600    0.000    7.467 
#    0.000    1.333    0.000    8.800    0.000    0.000 
#    0.000    0.000    0.000    0.000    0.000    0.000 
#
# Total GULP energy -371829.124504 kJ/mol
# GULP energy per Si atom -12394.304150 kJ/mol
# Density = 2.118663 g / cm^3
# Si number density = 21.234965 Si / 1000 Ang^3
#
#
#
# Elastic Constant Matrix: (Units=GPa)
#
#
# Indices 1 2 3 4 5 6 
#
# 1 103.0821 60.2806 30.5997 0.0000 -15.3305 0.0000
# 2 60.2806 156.0349 45.0074 0.0000 -10.8884 0.0000
# 3 30.5997 45.0074 67.7739 0.0000 -21.7159 0.0000
# 4 0.0000 0.0000 0.0000 45.6084 0.0000 -5.0457
# 5 -15.3305 -10.8884 -21.7159 0.0000 35.7733 0.0000
# 6 0.0000 0.0000 0.0000 -5.0457 0.0000 29.6252
#
#
#
# Elastic Compliance Matrix: (Units=1/GPa)
#
#
# Indices 1 2 3 4 5 6 
#
# 1 0.013321 -0.004306 -0.002167 0.000000 0.003082 0.000000
# 2 -0.004306 0.009347 -0.004894 0.000000 -0.001972 0.000000
# 3 -0.002167 -0.004894 0.022606 0.000000 0.011304 0.000000
# 4 0.000000 0.000000 0.000000 0.022347 0.000000 0.003806
# 5 0.003082 -0.001972 0.011304 0.000000 0.035537 0.000000
# 6 0.000000 0.000000 0.000000 0.003806 0.000000 0.034403
#
#
# Mechanical properties :
#
#
# Convention : Reuss Voigt Hill
#
# Bulk Modulus (GPa) = 44.36955 66.51846 55.44401
# Shear Modulus (GPa) = 29.79598 34.93492 32.36545
#
# Velocity S-wave (km/s) = 3.74994 4.06046 3.90828
# Velocity P-wave (km/s) = 6.29994 7.30589 6.82149
#
# Compressibility (1/GPa) = 0.02253798
#
# Stress axis : x y z
#
# Youngs Moduli (GPa) = 75.07055 106.99129 44.23652
#
# Poissons Ratio (x) = 0.46071 0.09586
# Poissons Ratio (y) = 0.32326 0.21651
# Poissons Ratio (z) = 0.16268 0.52367
#
# Static dielectric constant tensor:
#      x y z
#    x 3.904830 0.000000 -0.401810 
#    y 0.000000 4.257920 0.000000 
#    z -0.401810 0.000000 3.917680 
# 
# 
# High freq. dielectric constant tensor:
#      x y z
#    x 1.823350 0.000000 -0.034840 
#    y 0.000000 1.854160 0.000000 
#    z -0.034840 0.000000 1.824670 
# 
# From -- ./inp_files/247421.got.cif
#   From: 2010.06.25/outbox.cif.g09.slc.cpg/sg15_124_cif.got.tgz:247421.got - 2010.06.28 07:06:18.
