data_PCOD8138071
_publ_section_title
;
Structure prediction by ZEFSAII (Michael W. Deem and Ramdas Pophale) SiO2 
 PCOD8138071
Probable space group: C 2/C
;
_chemical_formula_sum "Si O2"
_cell_formula_units_Z 56
_cell_length_a 23.476634
_cell_length_b 8.628828
_cell_length_c 31.158017
_cell_angle_alpha 90.000000
_cell_angle_beta 155.259988
_cell_angle_gamma 90.000000
_cell_volume 2641.522948
_symmetry_space_group_name_H-M "C 2/C"
_symmetry_group_IT_number 15
_symmetry_cell_setting 'monoclinic'
loop_
_space_group_symop_operation_xyz
x,y,z
-x,y,1/2-z
-x,-y,-z
x,-y,1/2+z
1/2+x,1/2+y,z
1/2-x,1/2+y,1/2-z
1/2-x,1/2-y,-z
1/2+x,1/2-y,1/2+z
loop_
_atom_site_type_symbol
_atom_site_label
_atom_site_fract_x
_atom_site_fract_y
_atom_site_fract_z
Si Si1 0.632550 0.906140 0.318500
Si Si2 0.067727 0.843733 0.974344
Si Si3 0.910537 0.648506 0.428360
Si Si4 0.514104 0.310516 0.417551
Si Si5 0.601408 0.295923 0.720609
Si Si6 0.683552 0.254030 0.379967
Si Si7 0.530698 0.392848 0.204165
O O1 0.500000 0.830237 0.250000
O O2 0.773404 0.828775 0.431597
O O3 0.615993 0.865425 0.256504
O O4 0.632162 0.088347 0.327357
O O5 0.970126 0.754940 0.873671
O O6 0.027290 0.023080 0.949028
O O7 0.046189 0.776022 0.006923
O O8 0.748548 0.620395 0.316898
O O9 0.000000 0.500000 0.500000
O O10 0.942217 0.699109 0.401655
O O11 0.659041 0.243420 0.501977
O O12 0.431864 0.318749 0.316575
O O13 0.506853 0.422763 0.680604
O O14 0.657508 0.372096 0.322900
O O15 0.602827 0.311740 0.366743
#
# Coordination Sequence:
#
# PCOD8138071 Si02
#       7
#     8   8   8   8   8   8   8
#     4  10  20  38  60  86 121 152 193 242 295 352
#     4   9  22  41  59  87 117 159 198 239 297 352
#     4  11  23  40  59  89 122 154 200 250 291 346
#     4  10  21  38  62  84 115 156 196 241 289 349
#     4  10  23  39  60  88 121 156 198 241 298 351
#     4  10  20  37  59  88 119 147 197 239 291 349
#     4  10  20  37  58  87 115 155 190 236 296 347
#
# _framework density 21.199891000000001
#
# number of rings (size 3 to 8) (size 9 to 14) (size 15 to 20)
#    0.000    2.000    1.429    1.714    2.000    5.143 
#    0.000    1.429    0.000    0.000    0.000    0.000 
#    0.000    0.000    0.000    0.000    0.000    0.000 
#
# Total GULP energy -347018.061005 kJ/mol
# GULP energy per Si atom -12393.502179 kJ/mol
# Density = 2.115164 g / cm^3
# Si number density = 21.199891 Si / 1000 Ang^3
#
#
#
# Elastic Constant Matrix: (Units=GPa)
#
#
# Indices 1 2 3 4 5 6 
#
# 1 123.2135 46.9975 31.7373 0.0002 -13.1974 -0.0025
# 2 46.9975 55.8550 5.5654 0.0016 2.0171 -0.0056
# 3 31.7373 5.5654 76.7154 -0.0003 -8.9045 -0.0019
# 4 0.0002 0.0016 -0.0003 27.2414 -0.0006 -4.7833
# 5 -13.1974 2.0171 -8.9045 -0.0006 37.7966 0.0004
# 6 -0.0025 -0.0056 -0.0019 -4.7833 0.0004 31.9273
#
#
#
# Elastic Compliance Matrix: (Units=1/GPa)
#
#
# Indices 1 2 3 4 5 6 
#
# 1 0.014215 -0.011675 -0.004509 0.000000 0.004524 -0.000001
# 2 -0.011675 0.027686 0.002238 -0.000001 -0.005027 0.000004
# 3 -0.004509 0.002238 0.014950 0.000000 0.001828 0.000001
# 4 0.000000 -0.000001 0.000000 0.037701 0.000001 0.005648
# 5 0.004524 -0.005027 0.001828 0.000001 0.028736 -0.000001
# 6 -0.000001 0.000004 0.000001 0.005648 -0.000001 0.032167
#
#
# Mechanical properties :
#
#
# Convention : Reuss Voigt Hill
#
# Bulk Modulus (GPa) = 34.53076 47.15382 40.84229
# Shear Modulus (GPa) = 25.90672 30.82532 28.36602
#
# Velocity S-wave (km/s) = 3.49953 3.81731 3.66187
# Velocity P-wave (km/s) = 5.71424 6.45910 6.09805
#
# Compressibility (1/GPa) = 0.02895968
#
# Stress axis : x y z
#
# Youngs Moduli (GPa) = 70.34722 36.11976 66.88821
#
# Poissons Ratio (x) = 0.42170 0.30158
# Poissons Ratio (y) = 0.82131 -0.14970
# Poissons Ratio (z) = 0.31718 -0.08084
#
# Static dielectric constant tensor:
#      x y z
#    x 3.815270 0.000000 -0.001010 
#    y 0.000000 3.704490 0.000000 
#    z -0.001010 0.000000 3.968830 
# 
# 
# High freq. dielectric constant tensor:
#      x y z
#    x 1.828630 0.000000 -0.005720 
#    y 0.000000 1.816550 0.000000 
#    z -0.005720 0.000000 1.837470 
# 
# From -- ./inp_files/317578.got.cif
#   From: 2010.06.25/outbox.cif.g09.slc.cpg/sg15_159_cif.got.tgz:317578.got - 2010.06.28 07:06:18.
