data_PCOD8138736
_publ_section_title
;
Structure prediction by ZEFSAII (Michael W. Deem and Ramdas Pophale) SiO2 
 PCOD8138736
Probable space group: C 2/C
;
_chemical_formula_sum "Si O2"
_cell_formula_units_Z 60
_cell_length_a 14.619955
_cell_length_b 13.697004
_cell_length_c 14.759640
_cell_angle_alpha 90.000000
_cell_angle_beta 104.816469
_cell_angle_gamma 90.000000
_cell_volume 2857.337426
_symmetry_space_group_name_H-M "C 2/C"
_symmetry_group_IT_number 15
_symmetry_cell_setting 'monoclinic'
loop_
_space_group_symop_operation_xyz
x,y,z
-x,y,1/2-z
-x,-y,-z
x,-y,1/2+z
1/2+x,1/2+y,z
1/2-x,1/2+y,1/2-z
1/2-x,1/2-y,-z
1/2+x,1/2-y,1/2+z
loop_
_atom_site_type_symbol
_atom_site_label
_atom_site_fract_x
_atom_site_fract_y
_atom_site_fract_z
Si Si1 0.824440 0.333211 0.631297
Si Si2 0.000000 0.222695 0.750000
Si Si3 0.515137 0.364575 0.437196
Si Si4 0.350380 0.207805 0.948552
Si Si5 0.100188 0.317767 0.227344
Si Si6 0.252830 0.477638 0.324019
Si Si7 0.872776 0.940166 0.525140
Si Si8 0.611623 0.592073 0.272008
O O1 0.744708 0.249788 0.620722
O O2 0.830722 0.367227 0.526243
O O3 0.810458 0.426312 0.690974
O O4 0.917910 0.291104 0.696437
O O5 0.968210 0.157793 0.827771
O O6 0.599744 0.295299 0.486041
O O7 0.434161 0.354597 0.493178
O O8 0.556447 0.471517 0.440971
O O9 0.411846 0.159640 0.883515
O O10 0.188309 0.384334 0.282536
O O11 0.125691 0.202577 0.239485
O O12 0.000000 0.343016 0.250000
O O13 0.287946 0.463581 0.435722
O O14 0.339250 0.507212 0.277417
O O15 0.838422 0.907797 0.616040
O O16 0.500000 0.568142 0.250000
#
# Coordination Sequence:
#
# PCOD8138736 Si02
#       8
#     8   4   8   8   8   8   8   8
#     4  10  22  41  64  97 130 172 224 285 328 393
#     4  10  24  36  68  92 132 168 226 280 336 390
#     4  10  20  38  61 102 126 166 219 277 337 394
#     4  10  20  43  70  89 130 180 225 273 341 403
#     4  11  25  45  71  95 134 189 224 270 345 415
#     4  12  26  42  67 102 137 171 234 278 333 405
#     4  11  23  36  63  96 137 162 212 283 340 396
#     4  11  24  45  69  97 136 178 222 276 345 406
#
# _framework density 20.998569
#
# number of rings (size 3 to 8) (size 9 to 14) (size 15 to 20)
#    0.000    1.333    2.667    3.200    7.467    0.533 
#    0.000    3.333    0.000    0.000    0.000    0.000 
#    0.000    0.000    0.000    0.000    0.000    0.000 
#
# Total GULP energy -371695.364266 kJ/mol
# GULP energy per Si atom -12389.845476 kJ/mol
# Density = 2.095078 g / cm^3
# Si number density = 20.998569 Si / 1000 Ang^3
#
#
#
# Elastic Constant Matrix: (Units=GPa)
#
#
# Indices 1 2 3 4 5 6 
#
# 1 105.0118 38.2965 52.3377 0.0000 -4.3286 0.0000
# 2 38.2965 52.4185 20.7192 0.0000 7.2965 0.0000
# 3 52.3377 20.7192 156.6948 0.0000 -7.0893 0.0000
# 4 0.0000 0.0000 0.0000 31.8254 0.0000 4.8427
# 5 -4.3286 7.2965 -7.0893 0.0000 37.2493 0.0000
# 6 0.0000 0.0000 0.0000 4.8427 0.0000 22.3994
#
#
#
# Elastic Compliance Matrix: (Units=1/GPa)
#
#
# Indices 1 2 3 4 5 6 
#
# 1 0.015089 -0.010034 -0.003576 0.000000 0.003038 0.000000
# 2 -0.010034 0.027574 -0.000597 0.000000 -0.006681 0.000000
# 3 -0.003576 -0.000597 0.007708 0.000000 0.001168 0.000000
# 4 0.000000 0.000000 0.000000 0.032490 0.000000 -0.007024
# 5 0.003038 -0.006681 0.001168 0.000000 0.028730 0.000000
# 6 0.000000 0.000000 0.000000 -0.007024 0.000000 0.046163
#
#
# Mechanical properties :
#
#
# Convention : Reuss Voigt Hill
#
# Bulk Modulus (GPa) = 45.54108 59.64801 52.59454
# Shear Modulus (GPa) = 25.84164 31.81293 28.82729
#
# Velocity S-wave (km/s) = 3.51185 3.89653 3.70918
# Velocity P-wave (km/s) = 6.17891 6.97935 6.59129
#
# Compressibility (1/GPa) = 0.02195820
#
# Stress axis : x y z
#
# Youngs Moduli (GPa) = 66.27209 36.26660 129.73579
#
# Poissons Ratio (x) = 0.36389 0.46391
# Poissons Ratio (y) = 0.66495 0.07744
# Poissons Ratio (z) = 0.23698 0.02165
#
# Static dielectric constant tensor:
#      x y z
#    x 3.888020 0.000000 -0.361990 
#    y 0.000000 3.678340 0.000000 
#    z -0.361990 0.000000 4.334350 
# 
# 
# High freq. dielectric constant tensor:
#      x y z
#    x 1.815910 0.000000 -0.010970 
#    y 0.000000 1.800280 0.000000 
#    z -0.010970 0.000000 1.844090 
# 
# From -- ./inp_files/153996.got.cif
#   From: 2010.06.25/outbox.cif.g09.slc.cpg/sg15_77_cif.got.tgz:153996.got - 2010.06.28 07:06:18.
