data_PCOD8138891
_publ_section_title
;
Structure prediction by ZEFSAII (Michael W. Deem and Ramdas Pophale) SiO2 
 PCOD8138891
Probable space group: C 2/C
;
_chemical_formula_sum "Si O2"
_cell_formula_units_Z 44
_cell_length_a 5.487400
_cell_length_b 20.914971
_cell_length_c 19.177946
_cell_angle_alpha 90.000000
_cell_angle_beta 105.192288
_cell_angle_gamma 90.000000
_cell_volume 2124.107985
_symmetry_space_group_name_H-M "C 2/C"
_symmetry_group_IT_number 15
_symmetry_cell_setting 'monoclinic'
loop_
_space_group_symop_operation_xyz
x,y,z
-x,y,1/2-z
-x,-y,-z
x,-y,1/2+z
1/2+x,1/2+y,z
1/2-x,1/2+y,1/2-z
1/2-x,1/2-y,-z
1/2+x,1/2-y,1/2+z
loop_
_atom_site_type_symbol
_atom_site_label
_atom_site_fract_x
_atom_site_fract_y
_atom_site_fract_z
Si Si1 0.858854 0.031579 0.385444
Si Si2 0.178005 0.445053 0.487711
Si Si3 0.500000 0.548717 0.250000
Si Si4 0.063106 0.241057 0.587877
Si Si5 0.443941 0.132703 0.324369
Si Si6 0.964195 0.309663 0.440550
O O1 0.655964 0.088228 0.374865
O O2 0.103412 0.063886 0.438965
O O3 0.882436 0.008416 0.305582
O O4 0.785843 0.966763 0.420550
O O5 0.000000 0.500000 0.500000
O O6 0.013917 0.381202 0.470566
O O7 0.689959 0.592681 0.306930
O O8 0.095261 0.304317 0.634628
O O9 0.335481 0.204467 0.607347
O O10 0.002913 0.257154 0.503368
O O11 0.833439 0.197727 0.603042
O O12 0.500000 0.153633 0.250000
#
# Coordination Sequence:
#
# PCOD8138891 Si02
#       6
#     8   8   4   8   8   8
#     4  10  22  36  62  91 123 161 212 264 311 371
#     4  11  23  38  61  91 130 162 210 260 317 370
#     4  10  20  38  62  92 118 156 218 254 324 364
#     4  10  22  38  59  90 123 156 205 246 313 369
#     4  10  22  38  64  89 118 160 207 263 308 373
#     4  10  23  36  61  89 124 161 195 255 308 372
#
# _framework density 20.714577999999999
#
# number of rings (size 3 to 8) (size 9 to 14) (size 15 to 20)
#    0.000    1.818    0.000    3.273   17.818    0.000 
#    0.000    0.000    2.000    2.182    0.000    0.000 
#    0.000    0.000    0.000    0.000    0.000    0.000 
#
# Total GULP energy -272659.298807 kJ/mol
# GULP energy per Si atom -12393.604491 kJ/mol
# Density = 2.066743 g / cm^3
# Si number density = 20.714578 Si / 1000 Ang^3
#
#
#
# Elastic Constant Matrix: (Units=GPa)
#
#
# Indices 1 2 3 4 5 6 
#
# 1 159.1289 51.3199 40.0060 0.0000 9.7319 0.0000
# 2 51.3199 79.7134 28.3978 0.0000 3.4275 0.0000
# 3 40.0060 28.3978 87.2490 0.0000 1.1588 0.0000
# 4 0.0000 0.0000 0.0000 26.5326 0.0000 38.8180
# 5 9.7319 3.4275 1.1588 0.0000 31.5067 0.0000
# 6 0.0000 0.0000 0.0000 38.8180 0.0000 -329.8705
#
#
#
# Elastic Compliance Matrix: (Units=1/GPa)
#
#
# Indices 1 2 3 4 5 6 
#
# 1 0.008463 -0.004511 -0.002385 0.000000 -0.002036 0.000000
# 2 -0.004511 0.016655 -0.003348 0.000000 -0.000295 0.000000
# 3 -0.002385 -0.003348 0.013637 0.000000 0.000599 0.000000
# 4 0.000000 0.000000 0.000000 0.032154 0.000000 0.003784
# 5 -0.002036 -0.000295 0.000599 0.000000 0.032378 0.000000
# 6 0.000000 0.000000 0.000000 0.003784 0.000000 -0.002586
#
#
# Mechanical properties :
#
#
# Convention : Reuss Voigt Hill
#
# Bulk Modulus (GPa) = 54.74871 62.83764 58.79318
# Shear Modulus (GPa) = 39.28363 -40.60840 -0.66238
#
# Velocity S-wave (km/s) = 4.35952 -4.43242 -0.56609
# Velocity P-wave (km/s) = 7.19916 2.05079 5.29309
#
# Compressibility (1/GPa) = 0.01826527
#
# Stress axis : x y z
#
# Youngs Moduli (GPa) = 118.15645 60.04204 73.33002
#
# Poissons Ratio (x) = 0.27088 0.17491
# Poissons Ratio (y) = 0.53306 0.24553
# Poissons Ratio (z) = 0.28183 0.20104
#
# Static dielectric constant tensor:
#      x y z
#    x 4.413030 0.000000 -0.226840 
#    y 0.000000 3.457280 0.000000 
#    z -0.226840 0.000000 3.748570 
# 
# 
# High freq. dielectric constant tensor:
#      x y z
#    x 1.838370 0.000000 -0.012420 
#    y 0.000000 1.783320 0.000000 
#    z -0.012420 0.000000 1.794480 
# 
# From -- ./inp_files/184828.got.cif
#   From: 2010.06.25/outbox.cif.g09.slc.cpg/sg15_93_cif.got.tgz:184828.got - 2010.06.28 07:06:18.
