data_PCOD8138855
_publ_section_title
;
Structure prediction by ZEFSAII (Michael W. Deem and Ramdas Pophale) SiO2 
 PCOD8138855
Probable space group: C 2/C
;
_chemical_formula_sum "Si O2"
_cell_formula_units_Z 60
_cell_length_a 10.330537
_cell_length_b 13.336277
_cell_length_c 25.855789
_cell_angle_alpha 90.000000
_cell_angle_beta 124.531520
_cell_angle_gamma 90.000000
_cell_volume 2934.571631
_symmetry_space_group_name_H-M "C 2/C"
_symmetry_group_IT_number 15
_symmetry_cell_setting 'monoclinic'
loop_
_space_group_symop_operation_xyz
x,y,z
-x,y,1/2-z
-x,-y,-z
x,-y,1/2+z
1/2+x,1/2+y,z
1/2-x,1/2+y,1/2-z
1/2-x,1/2-y,-z
1/2+x,1/2-y,1/2+z
loop_
_atom_site_type_symbol
_atom_site_label
_atom_site_fract_x
_atom_site_fract_y
_atom_site_fract_z
Si Si1 0.407293 0.093967 0.591890
Si Si2 0.249761 0.269703 0.620122
Si Si3 0.500000 0.631294 0.250000
Si Si4 0.476870 0.735718 0.846713
Si Si5 0.462559 0.048819 0.301101
Si Si6 0.254899 0.378325 0.125690
Si Si7 0.673619 0.041649 0.034309
Si Si8 0.850725 0.947519 0.254842
O O1 0.331070 0.185207 0.604660
O O2 0.576162 0.130447 0.605577
O O3 0.292874 0.061732 0.518664
O O4 0.408259 0.997168 0.630176
O O5 0.368338 0.300350 0.693105
O O6 0.084151 0.234617 0.608029
O O7 0.199875 0.357665 0.571401
O O8 0.428196 0.558372 0.278386
O O9 0.417910 0.839156 0.807991
O O10 0.667032 0.723984 0.880543
O O11 0.397424 0.637896 0.804800
O O12 0.500000 0.052784 0.250000
O O13 0.331707 0.964663 0.277568
O O14 0.281938 0.457630 0.085409
O O15 0.370976 0.412028 0.199121
O O16 0.500000 0.000000 0.000000
#
# Coordination Sequence:
#
# PCOD8138855 Si02
#       8
#     8   8   4   8   8   8   8   8
#     4  10  24  41  64  88 128 165 215 259 319 384
#     4  12  24  39  63  99 124 169 209 267 322 376
#     4  12  22  38  62  88 126 164 214 252 310 390
#     4  12  22  37  63  92 131 163 211 260 323 381
#     4  11  23  38  57  93 127 161 203 268 324 366
#     4  10  20  38  62  88 118 168 208 255 313 378
#     4  10  20  44  68  89 123 171 219 264 311 388
#     4  11  20  37  57  86 120 166 206 250 305 383
#
# _framework density 20.445913999999998
#
# number of rings (size 3 to 8) (size 9 to 14) (size 15 to 20)
#    0.000    1.067    4.000    3.600    4.667    1.067 
#    0.000    8.000    0.000    0.000    0.000    0.000 
#    0.000    0.000    0.000    0.000    0.000    0.000 
#
# Total GULP energy -371656.032116 kJ/mol
# GULP energy per Si atom -12388.534404 kJ/mol
# Density = 2.039938 g / cm^3
# Si number density = 20.445914 Si / 1000 Ang^3
#
#
#
# Elastic Constant Matrix: (Units=GPa)
#
#
# Indices 1 2 3 4 5 6 
#
# 1 81.9361 38.2532 34.5007 0.0000 -28.2182 0.0000
# 2 38.2532 108.8878 42.9712 0.0000 -19.2595 0.0000
# 3 34.5007 42.9712 116.9049 0.0000 -22.5949 0.0000
# 4 0.0000 0.0000 0.0000 13.0382 0.0000 0.0966
# 5 -28.2182 -19.2595 -22.5949 0.0000 26.4330 0.0000
# 6 0.0000 0.0000 0.0000 0.0966 0.0000 30.9172
#
#
#
# Elastic Compliance Matrix: (Units=1/GPa)
#
#
# Indices 1 2 3 4 5 6 
#
# 1 0.020754 -0.003522 -0.001251 0.000000 0.018520 0.000000
# 2 -0.003522 0.012006 -0.002887 0.000000 0.002521 0.000000
# 3 -0.001251 -0.002887 0.011164 0.000000 0.006104 0.000000
# 4 0.000000 0.000000 0.000000 0.076700 0.000000 -0.000240
# 5 0.018520 0.002521 0.006104 0.000000 0.064657 0.000000
# 6 0.000000 0.000000 0.000000 -0.000240 0.000000 0.032345
#
#
# Mechanical properties :
#
#
# Convention : Reuss Voigt Hill
#
# Bulk Modulus (GPa) = 34.95813 59.90879 47.43346
# Shear Modulus (GPa) = 20.62037 26.87792 23.74914
#
# Velocity S-wave (km/s) = 3.17919 3.62966 3.41186
# Velocity P-wave (km/s) = 5.53274 6.85059 6.22663
#
# Compressibility (1/GPa) = 0.02860565
#
# Stress axis : x y z
#
# Youngs Moduli (GPa) = 48.18442 83.29197 89.57388
#
# Poissons Ratio (x) = 0.29332 0.11204
# Poissons Ratio (y) = 0.16968 0.25856
# Poissons Ratio (z) = 0.06027 0.24043
#
# Static dielectric constant tensor:
#      x y z
#    x 3.972980 0.000000 -0.165930 
#    y 0.000000 3.888140 0.000000 
#    z -0.165930 0.000000 4.383630 
# 
# 
# High freq. dielectric constant tensor:
#      x y z
#    x 1.795250 0.000000 -0.006100 
#    y 0.000000 1.802830 0.000000 
#    z -0.006100 0.000000 1.797430 
# 
# From -- ./inp_files/268971.got.cif
#   From: 2010.06.25/outbox.cif.g09.slc.cpg/sg15_135_cif.got.tgz:268971.got - 2010.06.28 07:06:18.
