data_PCOD8138830
_publ_section_title
;
Structure prediction by ZEFSAII (Michael W. Deem and Ramdas Pophale) SiO2 
 PCOD8138830
Probable space group: C 2/C
;
_chemical_formula_sum "Si O2"
_cell_formula_units_Z 48
_cell_length_a 16.025634
_cell_length_b 20.132448
_cell_length_c 8.474905
_cell_angle_alpha 90.000000
_cell_angle_beta 55.756894
_cell_angle_gamma 90.000000
_cell_volume 2260.332006
_symmetry_space_group_name_H-M "C 2/C"
_symmetry_group_IT_number 15
_symmetry_cell_setting 'monoclinic'
loop_
_space_group_symop_operation_xyz
x,y,z
-x,y,1/2-z
-x,-y,-z
x,-y,1/2+z
1/2+x,1/2+y,z
1/2-x,1/2+y,1/2-z
1/2-x,1/2-y,-z
1/2+x,1/2-y,1/2+z
loop_
_atom_site_type_symbol
_atom_site_label
_atom_site_fract_x
_atom_site_fract_y
_atom_site_fract_z
Si Si1 0.913148 0.118257 0.444618
Si Si2 0.785275 0.804698 0.838164
Si Si3 0.529818 0.121429 0.042432
Si Si4 0.524866 0.274916 0.044646
Si Si5 0.846448 0.578751 0.063380
Si Si6 0.783634 0.552285 0.778749
O O1 0.847511 0.144868 0.373599
O O2 0.835417 0.070718 0.620616
O O3 0.000000 0.079864 0.250000
O O4 0.956979 0.177802 0.505644
O O5 0.855536 0.779607 0.620216
O O6 0.694052 0.846488 0.857887
O O7 0.750000 0.750000 0.000000
O O8 0.500000 0.101250 0.250000
O O9 0.501936 0.197990 0.038285
O O10 0.464170 0.078654 0.987315
O O11 0.647610 0.101662 0.900579
O O12 0.500000 0.295803 0.250000
O O13 0.787735 0.524588 0.229328
O O14 0.830685 0.559597 0.900581
#
# Coordination Sequence:
#
# PCOD8138830 Si02
#       6
#     8   8   8   8   8   8
#     4   9  20  39  60  84 116 157 201 243 296 363
#     4  10  20  38  62  86 115 158 204 244 298 364
#     4  11  23  38  58  87 122 158 197 246 301 357
#     4  10  21  36  59  91 120 151 200 258 305 343
#     4  11  23  39  60  87 118 159 201 243 295 359
#     4  11  23  40  60  85 118 157 196 244 300 358
#
# _framework density 21.235818999999999
#
# number of rings (size 3 to 8) (size 9 to 14) (size 15 to 20)
#    0.000    1.667    0.000    5.000    0.000    5.333 
#    0.000   12.500    0.000    0.000    0.000    0.000 
#    0.000    0.000    0.000    0.000    0.000    0.000 
#
# Total GULP energy -297338.336657 kJ/mol
# GULP energy per Si atom -12389.097361 kJ/mol
# Density = 2.118749 g / cm^3
# Si number density = 21.235819 Si / 1000 Ang^3
#
#
#
# Elastic Constant Matrix: (Units=GPa)
#
#
# Indices 1 2 3 4 5 6 
#
# 1 68.7004 32.8629 37.0990 0.0000 -16.2651 0.0000
# 2 32.8629 98.6693 47.0843 0.0000 -12.1231 0.0000
# 3 37.0990 47.0843 151.9459 0.0000 -22.0475 0.0000
# 4 0.0000 0.0000 0.0000 27.9926 0.0000 -2.6833
# 5 -16.2651 -12.1231 -22.0475 0.0000 37.4010 0.0000
# 6 0.0000 0.0000 0.0000 -2.6833 0.0000 28.9779
#
#
#
# Elastic Compliance Matrix: (Units=1/GPa)
#
#
# Indices 1 2 3 4 5 6 
#
# 1 0.019407 -0.004588 -0.002524 0.000000 0.005465 0.000000
# 2 -0.004588 0.013095 -0.002856 0.000000 0.000566 0.000000
# 3 -0.002524 -0.002856 0.008517 0.000000 0.002998 0.000000
# 4 0.000000 0.000000 0.000000 0.036044 0.000000 0.003338
# 5 0.005465 0.000566 0.002998 0.000000 0.031065 0.000000
# 6 0.000000 0.000000 0.000000 0.003338 0.000000 0.034818
#
#
# Mechanical properties :
#
#
# Convention : Reuss Voigt Hill
#
# Bulk Modulus (GPa) = 47.42669 61.48977 54.45823
# Shear Modulus (GPa) = 29.42747 32.35893 30.89320
#
# Velocity S-wave (km/s) = 3.72660 3.90781 3.81828
# Velocity P-wave (km/s) = 6.39520 7.02708 6.71857
#
# Compressibility (1/GPa) = 0.02108517
#
# Stress axis : x y z
#
# Youngs Moduli (GPa) = 51.52678 76.36415 117.40781
#
# Poissons Ratio (x) = 0.35036 0.29631
# Poissons Ratio (y) = 0.23641 0.33526
# Poissons Ratio (z) = 0.13004 0.21806
#
# Static dielectric constant tensor:
#      x y z
#    x 4.062170 0.000000 -0.401320 
#    y 0.000000 4.082420 0.000000 
#    z -0.401320 0.000000 4.290090 
# 
# 
# High freq. dielectric constant tensor:
#      x y z
#    x 1.828600 0.000000 -0.010190 
#    y 0.000000 1.825290 0.000000 
#    z -0.010190 0.000000 1.845940 
# 
# From -- ./inp_files/50062.got.cif
#   From: 2010.06.25/outbox.cif.g09.slc.cpg/sg15_26_cif.got.tgz:50062.got - 2010.06.28 07:06:18.
