data_PCOD8138728
_publ_section_title
;
Structure prediction by ZEFSAII (Michael W. Deem and Ramdas Pophale) SiO2 
 PCOD8138728
Probable space group: C 2/C
;
_chemical_formula_sum "Si O2"
_cell_formula_units_Z 60
_cell_length_a 13.103494
_cell_length_b 13.986711
_cell_length_c 16.071987
_cell_angle_alpha 90.000000
_cell_angle_beta 73.992367
_cell_angle_gamma 90.000000
_cell_volume 2831.374593
_symmetry_space_group_name_H-M "C 2/C"
_symmetry_group_IT_number 15
_symmetry_cell_setting 'monoclinic'
loop_
_space_group_symop_operation_xyz
x,y,z
-x,y,1/2-z
-x,-y,-z
x,-y,1/2+z
1/2+x,1/2+y,z
1/2-x,1/2+y,1/2-z
1/2-x,1/2-y,-z
1/2+x,1/2-y,1/2+z
loop_
_atom_site_type_symbol
_atom_site_label
_atom_site_fract_x
_atom_site_fract_y
_atom_site_fract_z
Si Si1 0.060210 0.550070 0.910906
Si Si2 0.911194 0.082080 0.090251
Si Si3 0.120069 0.998727 0.575204
Si Si4 0.412288 0.305757 0.340624
Si Si5 0.504597 0.229950 0.006142
Si Si6 0.801113 0.620459 0.098693
Si Si7 0.796983 0.650137 0.280204
Si Si8 0.000000 0.484276 0.750000
O O1 0.165031 0.486319 0.879049
O O2 0.000054 0.548588 0.834439
O O3 0.000000 0.500000 0.000000
O O4 0.082323 0.657917 0.937562
O O5 0.814540 0.104540 0.171095
O O6 0.863414 0.020660 0.025661
O O7 0.996098 0.021004 0.123332
O O8 0.983716 0.169715 0.041776
O O9 0.143157 0.094831 0.621797
O O10 0.191752 0.904278 0.576145
O O11 0.500000 0.319517 0.250000
O O12 0.463082 0.244257 0.405041
O O13 0.312830 0.246279 0.328761
O O14 0.386041 0.182070 0.025478
O O15 0.784285 0.679896 0.186774
O O16 0.895975 0.581306 0.276512
#
# Coordination Sequence:
#
# PCOD8138728 Si02
#       8
#     8   8   8   8   8   8   8   4
#     4   9  19  34  60  91 129 164 211 266 328 383
#     4  10  25  42  61  92 129 167 221 264 318 387
#     4  10  25  42  62  91 125 175 214 261 324 387
#     4  11  21  39  66  93 128 164 215 265 319 382
#     4  10  21  40  64  94 129 166 215 268 322 387
#     4  10  21  38  63  93 126 171 209 266 323 381
#     4  11  21  38  63  96 126 160 215 272 311 382
#     4  10  20  38  60  96 134 168 214 272 336 388
#
# _framework density 21.191120999999999
#
# number of rings (size 3 to 8) (size 9 to 14) (size 15 to 20)
#    0.000    1.867    2.000    1.600    9.333    1.600 
#    0.000    1.333    0.000    0.000    0.000    0.000 
#    0.000    0.000    0.000    0.000    0.000    0.000 
#
# Total GULP energy -371717.537004 kJ/mol
# GULP energy per Si atom -12390.584567 kJ/mol
# Density = 2.114289 g / cm^3
# Si number density = 21.191121 Si / 1000 Ang^3
#
#
#
# Elastic Constant Matrix: (Units=GPa)
#
#
# Indices 1 2 3 4 5 6 
#
# 1 48.8439 28.8788 38.2318 0.0000 -6.3457 0.0000
# 2 28.8788 72.8716 23.9376 0.0000 7.2727 0.0000
# 3 38.2318 23.9376 88.2704 0.0000 5.6088 0.0000
# 4 0.0000 0.0000 0.0000 3.2751 0.0000 1.4582
# 5 -6.3457 7.2727 5.6088 0.0000 35.6879 0.0000
# 6 0.0000 0.0000 0.0000 1.4582 0.0000 20.8063
#
#
#
# Elastic Compliance Matrix: (Units=1/GPa)
#
#
# Indices 1 2 3 4 5 6 
#
# 1 0.041614 -0.012679 -0.015373 0.000000 0.012399 0.000000
# 2 -0.012679 0.019143 0.000698 0.000000 -0.006265 0.000000
# 3 -0.015373 0.000698 0.018162 0.000000 -0.005730 0.000000
# 4 0.000000 0.000000 0.000000 0.315168 0.000000 -0.022088
# 5 0.012399 -0.006265 -0.005730 0.000000 0.032403 0.000000
# 6 0.000000 0.000000 0.000000 -0.022088 0.000000 0.049610
#
#
# Mechanical properties :
#
#
# Convention : Reuss Voigt Hill
#
# Bulk Modulus (GPa) = 41.30323 43.56470 42.43396
# Shear Modulus (GPa) = 9.27851 19.88304 14.58077
#
# Velocity S-wave (km/s) = 2.09475 3.06645 2.62594
# Velocity P-wave (km/s) = 5.03823 5.75674 5.40943
#
# Compressibility (1/GPa) = 0.02421118
#
# Stress axis : x y z
#
# Youngs Moduli (GPa) = 24.03039 52.23753 55.05962
#
# Poissons Ratio (x) = 0.66232 0.84645
# Poissons Ratio (y) = 0.30468 -0.03844
# Poissons Ratio (z) = 0.36943 -0.03647
#
# Static dielectric constant tensor:
#      x y z
#    x 3.692380 0.000000 0.095560 
#    y 0.000000 4.111230 0.000000 
#    z 0.095560 0.000000 3.944080 
# 
# 
# High freq. dielectric constant tensor:
#      x y z
#    x 1.818140 0.000000 0.001190 
#    y 0.000000 1.826040 0.000000 
#    z 0.001190 0.000000 1.832510 
# 
# From -- ./inp_files/198306.got.cif
#   From: 2010.06.25/outbox.cif.g09.slc.cpg/sg15_100_cif.got.tgz:198306.got - 2010.06.28 07:06:18.
