data_PCOD8138902
_publ_section_title
;
Structure prediction by ZEFSAII (Michael W. Deem and Ramdas Pophale) SiO2 
 PCOD8138902
Probable space group: C 2/C
;
_chemical_formula_sum "Si O2"
_cell_formula_units_Z 60
_cell_length_a 13.905815
_cell_length_b 19.325656
_cell_length_c 11.192474
_cell_angle_alpha 90.000000
_cell_angle_beta 69.640820
_cell_angle_gamma 90.000000
_cell_volume 2819.953853
_symmetry_space_group_name_H-M "C 2/C"
_symmetry_group_IT_number 15
_symmetry_cell_setting 'monoclinic'
loop_
_space_group_symop_operation_xyz
x,y,z
-x,y,1/2-z
-x,-y,-z
x,-y,1/2+z
1/2+x,1/2+y,z
1/2-x,1/2+y,1/2-z
1/2-x,1/2-y,-z
1/2+x,1/2-y,1/2+z
loop_
_atom_site_type_symbol
_atom_site_label
_atom_site_fract_x
_atom_site_fract_y
_atom_site_fract_z
Si Si1 0.325162 0.628691 0.654108
Si Si2 0.425242 0.865157 0.601393
Si Si3 0.211868 0.264705 0.715614
Si Si4 0.256862 0.581983 0.932192
Si Si5 0.979202 0.050982 0.897021
Si Si6 0.500000 0.975653 0.750000
Si Si7 0.123964 0.715014 0.015420
Si Si8 0.171569 0.555208 0.560451
O O1 0.305697 0.710742 0.668973
O O2 0.269602 0.591486 0.787085
O O3 0.446506 0.615649 0.608402
O O4 0.273092 0.594847 0.560912
O O5 0.324432 0.839203 0.718576
O O6 0.482094 0.927564 0.643190
O O7 0.504401 0.801291 0.549157
O O8 0.393640 0.889432 0.485022
O O9 0.141200 0.242478 0.631495
O O10 0.330283 0.258851 0.617178
O O11 0.364129 0.579612 0.957837
O O12 0.186706 0.643564 0.013228
O O13 0.203554 0.507873 0.963239
O O14 0.000000 0.021914 0.750000
O O15 0.000000 0.000000 0.000000
O O16 0.598998 0.024953 0.695412
#
# Coordination Sequence:
#
# PCOD8138902 Si02
#       8
#     8   8   8   8   8   4   8   8
#     4  10  23  39  63  90 127 172 214 266 328 382
#     4  12  23  40  65  94 132 169 214 273 328 390
#     4  10  22  40  61  86 125 163 221 262 314 392
#     4  10  20  38  62  93 125 163 216 269 330 385
#     4  10  20  38  63  91 124 166 215 271 321 385
#     4  12  24  40  64 100 130 168 212 266 330 398
#     4  10  21  39  65  93 119 165 217 274 314 386
#     4  12  24  37  64  94 136 166 208 266 339 403
#
# _framework density 21.276942999999999
#
# number of rings (size 3 to 8) (size 9 to 14) (size 15 to 20)
#    0.000    1.333    4.000    1.200    3.733    6.933 
#    0.000    0.000    0.000    0.000    0.000    0.000 
#    0.000    0.000    0.000    0.000    0.000    0.000 
#
# Total GULP energy -371821.524665 kJ/mol
# GULP energy per Si atom -12394.050822 kJ/mol
# Density = 2.122852 g / cm^3
# Si number density = 21.276943 Si / 1000 Ang^3
#
#
#
# Elastic Constant Matrix: (Units=GPa)
#
#
# Indices 1 2 3 4 5 6 
#
# 1 87.3988 14.4844 22.1210 0.0000 -0.9581 0.0000
# 2 14.4844 48.4855 14.4317 0.0000 -1.6183 0.0000
# 3 22.1210 14.4317 59.9982 0.0000 -3.2256 0.0000
# 4 0.0000 0.0000 0.0000 29.3039 0.0000 -6.2339
# 5 -0.9581 -1.6183 -3.2256 0.0000 34.1218 0.0000
# 6 0.0000 0.0000 0.0000 -6.2339 0.0000 33.3337
#
#
#
# Elastic Compliance Matrix: (Units=1/GPa)
#
#
# Indices 1 2 3 4 5 6 
#
# 1 0.012924 -0.002634 -0.004140 0.000000 -0.000153 0.000000
# 2 -0.002634 0.022762 -0.004473 0.000000 0.000583 0.000000
# 3 -0.004140 -0.004473 0.019350 0.000000 0.001501 0.000000
# 4 0.000000 0.000000 0.000000 0.035539 0.000000 0.006646
# 5 -0.000153 0.000583 0.001501 0.000000 0.029472 0.000000
# 6 0.000000 0.000000 0.000000 0.006646 0.000000 0.031243
#
#
# Mechanical properties :
#
#
# Convention : Reuss Voigt Hill
#
# Bulk Modulus (GPa) = 30.72776 33.10630 31.91703
# Shear Modulus (GPa) = 27.08100 29.00826 28.04463
#
# Velocity S-wave (km/s) = 3.57148 3.69638 3.63447
# Velocity P-wave (km/s) = 5.61075 5.81474 5.71365
#
# Compressibility (1/GPa) = 0.03254386
#
# Stress axis : x y z
#
# Youngs Moduli (GPa) = 77.37273 43.93228 51.67944
#
# Poissons Ratio (x) = 0.11571 0.21395
# Poissons Ratio (y) = 0.20379 0.23115
# Poissons Ratio (z) = 0.32031 0.19650
#
# Static dielectric constant tensor:
#      x y z
#    x 3.908440 0.000000 -0.205440 
#    y 0.000000 3.871920 0.000000 
#    z -0.205440 0.000000 3.827210 
# 
# 
# High freq. dielectric constant tensor:
#      x y z
#    x 1.829050 0.000000 -0.016520 
#    y 0.000000 1.823690 0.000000 
#    z -0.016520 0.000000 1.824770 
# 
# From -- ./inp_files/98731.got.cif
#   From: 2010.06.25/outbox.cif.g09.slc.cpg/sg15_50_cif.got.tgz:98731.got - 2010.06.28 07:06:18.
