data_PCOD8138577
_publ_section_title
;
Structure prediction by ZEFSAII (Michael W. Deem and Ramdas Pophale) SiO2 
 PCOD8138577
Probable space group: C 2/C
;
_chemical_formula_sum "Si O2"
_cell_formula_units_Z 60
_cell_length_a 27.604785
_cell_length_b 14.088191
_cell_length_c 8.808337
_cell_angle_alpha 90.000000
_cell_angle_beta 80.494967
_cell_angle_gamma 90.000000
_cell_volume 3378.545945
_symmetry_space_group_name_H-M "C 2/C"
_symmetry_group_IT_number 15
_symmetry_cell_setting 'monoclinic'
loop_
_space_group_symop_operation_xyz
x,y,z
-x,y,1/2-z
-x,-y,-z
x,-y,1/2+z
1/2+x,1/2+y,z
1/2-x,1/2+y,1/2-z
1/2-x,1/2-y,-z
1/2+x,1/2-y,1/2+z
loop_
_atom_site_type_symbol
_atom_site_label
_atom_site_fract_x
_atom_site_fract_y
_atom_site_fract_z
Si Si1 0.565008 0.576073 0.472368
Si Si2 0.853548 0.932841 0.064904
Si Si3 0.800038 0.219279 0.752032
Si Si4 0.689969 0.576345 0.212536
Si Si5 0.000000 0.985796 0.750000
Si Si6 0.294042 0.086931 0.078752
Si Si7 0.152311 0.222719 0.444411
Si Si8 0.195175 0.387776 0.270860
O O1 0.596083 0.482128 0.410520
O O2 0.536027 0.557365 0.642356
O O3 0.527484 0.586312 0.351262
O O4 0.599389 0.669541 0.475429
O O5 0.843915 0.827142 0.128712
O O6 0.808905 0.993341 0.163414
O O7 0.855021 0.937603 0.881300
O O8 0.799580 0.326485 0.692916
O O9 0.748029 0.163730 0.769480
O O10 0.819008 0.216895 0.913316
O O11 0.736295 0.575523 0.077298
O O12 0.687302 0.674720 0.301483
O O13 0.311157 0.991617 0.153309
O O14 0.318142 0.105100 0.901750
O O15 0.151506 0.330055 0.380819
#
# Coordination Sequence:
#
# PCOD8138577 Si02
#       8
#     8   8   8   8   4   8   8   8
#     4  10  21  36  58  84 113 143 175 227 284 347
#     4  11  20  32  52  77 107 146 188 225 269 325
#     4  12  22  34  53  74 108 152 197 235 263 310
#     4  11  19  31  48  71 105 144 196 229 256 306
#     4  10  20  38  58  84 114 136 172 228 296 346
#     4  12  23  35  49  73 104 154 199 234 266 291
#     4  11  23  35  53  77 107 147 190 222 275 329
#     4  12  24  36  50  72 111 150 198 238 261 309
#
# _framework density 17.759118000000001
#
# number of rings (size 3 to 8) (size 9 to 14) (size 15 to 20)
#    0.000    0.800    4.000    6.400    1.867    0.000 
#    0.000    0.000    0.000    0.000    0.000    0.000 
#    0.000   36.267    0.000    0.000    0.000    0.000 
#
# Total GULP energy -371669.080271 kJ/mol
# GULP energy per Si atom -12388.969342 kJ/mol
# Density = 1.771870 g / cm^3
# Si number density = 17.759118 Si / 1000 Ang^3
#
#
#
# Elastic Constant Matrix: (Units=GPa)
#
#
# Indices 1 2 3 4 5 6 
#
# 1 57.1396 34.6338 25.5206 0.0000 -6.0883 0.0000
# 2 34.6338 115.6317 36.1249 0.0000 -0.5346 0.0000
# 3 25.5206 36.1249 117.8260 0.0000 9.8964 0.0000
# 4 0.0000 0.0000 0.0000 34.4871 0.0000 -5.0790
# 5 -6.0883 -0.5346 9.8964 0.0000 30.4447 0.0000
# 6 0.0000 0.0000 0.0000 -5.0790 0.0000 20.1240
#
#
#
# Elastic Compliance Matrix: (Units=1/GPa)
#
#
# Indices 1 2 3 4 5 6 
#
# 1 0.023298 -0.005777 -0.003761 0.000000 0.005780 0.000000
# 2 -0.005777 0.011036 -0.002109 0.000000 -0.000276 0.000000
# 3 -0.003761 -0.002109 0.010296 0.000000 -0.004136 0.000000
# 4 0.000000 0.000000 0.000000 0.030116 0.000000 0.007601
# 5 0.005780 -0.000276 -0.004136 0.000000 0.035342 0.000000
# 6 0.000000 0.000000 0.000000 0.007601 0.000000 0.051610
#
#
# Mechanical properties :
#
#
# Convention : Reuss Voigt Hill
#
# Bulk Modulus (GPa) = 46.86762 53.68399 50.27580
# Shear Modulus (GPa) = 26.02778 29.96569 27.99673
#
# Velocity S-wave (km/s) = 3.83247 4.11218 3.97479
# Velocity P-wave (km/s) = 6.78467 7.26920 7.03111
#
# Compressibility (1/GPa) = 0.02133669
#
# Stress axis : x y z
#
# Youngs Moduli (GPa) = 42.92243 90.61246 97.12794
#
# Poissons Ratio (x) = 0.52343 0.36526
# Poissons Ratio (y) = 0.24794 0.20487
# Poissons Ratio (z) = 0.16142 0.19112
#
# Static dielectric constant tensor:
#      x y z
#    x 3.065250 0.000000 -0.065980 
#    y 0.000000 3.411500 0.000000 
#    z -0.065980 0.000000 3.500650 
# 
# 
# High freq. dielectric constant tensor:
#      x y z
#    x 1.639460 0.000000 0.003450 
#    y 0.000000 1.679080 0.000000 
#    z 0.003450 0.000000 1.718950 
# 
# From -- ./inp_files/65968.got.cif
#   From: 2010.06.25/outbox.cif.g09.slc.cpg/sg15_33_cif.got.tgz:65968.got - 2010.06.28 07:06:18.
