data_PCOD8138962
_publ_section_title
;
Structure prediction by ZEFSAII (Michael W. Deem and Ramdas Pophale) SiO2 
 PCOD8138962
Probable space group: C 2/C
;
_chemical_formula_sum "Si O2"
_cell_formula_units_Z 44
_cell_length_a 6.495781
_cell_length_b 28.528009
_cell_length_c 9.089510
_cell_angle_alpha 90.000000
_cell_angle_beta 78.636376
_cell_angle_gamma 90.000000
_cell_volume 1651.372493
_symmetry_space_group_name_H-M "C 2/C"
_symmetry_group_IT_number 15
_symmetry_cell_setting 'monoclinic'
loop_
_space_group_symop_operation_xyz
x,y,z
-x,y,1/2-z
-x,-y,-z
x,-y,1/2+z
1/2+x,1/2+y,z
1/2-x,1/2+y,1/2-z
1/2-x,1/2-y,-z
1/2+x,1/2-y,1/2+z
loop_
_atom_site_type_symbol
_atom_site_label
_atom_site_fract_x
_atom_site_fract_y
_atom_site_fract_z
Si Si1 0.048590 0.196082 0.576115
Si Si2 0.985979 0.717339 0.920268
Si Si3 0.500000 0.532508 0.750000
Si Si4 0.219127 0.551671 0.303703
Si Si5 0.956170 0.387542 0.424443
Si Si6 0.402200 0.402158 0.510226
O O1 0.898325 0.237969 0.530841
O O2 0.291764 0.209123 0.530906
O O3 0.992797 0.148997 0.493687
O O4 0.000000 0.185534 0.750000
O O5 0.000000 0.734657 0.750000
O O6 0.870477 0.666701 0.941574
O O7 0.706616 0.501664 0.680669
O O8 0.456224 0.565128 0.615486
O O9 0.211251 0.580186 0.460830
O O10 0.000000 0.551274 0.250000
O O11 0.393394 0.574684 0.171768
O O12 0.000000 0.403337 0.250000
O O13 0.172622 0.394202 0.476719
#
# Coordination Sequence:
#
# PCOD8138962 Si02
#       6
#     8   8   4   8   8   8
#     4  10  20  38  63  90 129 177 210 270 328 383
#     4   9  20  38  61  96 127 169 222 259 323 395
#     4  12  24  42  68  98 128 174 226 274 330 398
#     4  10  24  44  67  97 131 174 218 276 331 390
#     4   9  20  40  66  95 131 173 214 266 327 391
#     4  10  22  41  63  91 134 168 218 273 329 388
#
# _framework density 26.644501999999999
#
# number of rings (size 3 to 8) (size 9 to 14) (size 15 to 20)
#    0.000    2.182    0.909    0.545    0.000   12.364 
#    4.909    0.000    0.000    0.000    0.000    0.000 
#    0.000    0.000    0.000    0.000    0.000    0.000 
#
# Total GULP energy -272753.091362 kJ/mol
# GULP energy per Si atom -12397.867789 kJ/mol
# Density = 2.658386 g / cm^3
# Si number density = 26.644502 Si / 1000 Ang^3
#
#
#
# Elastic Constant Matrix: (Units=GPa)
#
#
# Indices 1 2 3 4 5 6 
#
# 1 35.3871 36.8130 36.0218 0.0000 -2.0572 0.0000
# 2 36.8130 164.6023 72.1950 0.0000 -3.7978 0.0000
# 3 36.0218 72.1950 154.2761 0.0000 -7.9890 0.0000
# 4 0.0000 0.0000 0.0000 58.3943 0.0000 -8.5167
# 5 -2.0572 -3.7978 -7.9890 0.0000 46.0360 0.0000
# 6 0.0000 0.0000 0.0000 -8.5167 0.0000 8.1676
#
#
#
# Elastic Compliance Matrix: (Units=1/GPa)
#
#
# Indices 1 2 3 4 5 6 
#
# 1 0.041786 -0.006374 -0.006765 0.000000 0.000167 0.000000
# 2 -0.006374 0.008617 -0.002545 0.000000 -0.000016 0.000000
# 3 -0.006765 -0.002545 0.009309 0.000000 0.001103 0.000000
# 4 0.000000 0.000000 0.000000 0.020196 0.000000 0.021060
# 5 0.000167 -0.000016 0.001103 0.000000 0.021920 0.000000
# 6 0.000000 0.000000 0.000000 0.021060 0.000000 0.144395
#
#
# Mechanical properties :
#
#
# Convention : Reuss Voigt Hill
#
# Bulk Modulus (GPa) = 35.28080 71.59169 53.43625
# Shear Modulus (GPa) = 17.41921 36.46863 26.94392
#
# Velocity S-wave (km/s) = 2.55965 3.70362 3.18345
# Velocity P-wave (km/s) = 4.69104 6.72433 5.79752
#
# Compressibility (1/GPa) = 0.02834403
#
# Stress axis : x y z
#
# Youngs Moduli (GPa) = 23.93137 116.05474 107.41863
#
# Poissons Ratio (x) = 0.73978 0.72668
# Poissons Ratio (y) = 0.15255 0.27335
# Poissons Ratio (z) = 0.16189 0.29532
#
# Static dielectric constant tensor:
#      x y z
#    x 5.296170 0.000000 -0.001360 
#    y 0.000000 5.314700 0.000000 
#    z -0.001360 0.000000 4.791980 
# 
# 
# High freq. dielectric constant tensor:
#      x y z
#    x 2.122780 0.000000 0.017140 
#    y 0.000000 2.081270 0.000000 
#    z 0.017140 0.000000 2.057660 
# 
# From -- ./inp_files/25555.got.cif
#   From: 2010.06.25/outbox.cif.g09.slc.cpg/sg15_13_cif.got.tgz:25555.got - 2010.06.28 07:06:18.
