data_PCOD8138915
_publ_section_title
;
Structure prediction by ZEFSAII (Michael W. Deem and Ramdas Pophale) SiO2 
 PCOD8138915
Probable space group: C 2/C
;
_chemical_formula_sum "Si O2"
_cell_formula_units_Z 60
_cell_length_a 12.057512
_cell_length_b 19.885892
_cell_length_c 14.157184
_cell_angle_alpha 90.000000
_cell_angle_beta 56.687737
_cell_angle_gamma 90.000000
_cell_volume 2836.774246
_symmetry_space_group_name_H-M "C 2/C"
_symmetry_group_IT_number 15
_symmetry_cell_setting 'monoclinic'
loop_
_space_group_symop_operation_xyz
x,y,z
-x,y,1/2-z
-x,-y,-z
x,-y,1/2+z
1/2+x,1/2+y,z
1/2-x,1/2+y,1/2-z
1/2-x,1/2-y,-z
1/2+x,1/2-y,1/2+z
loop_
_atom_site_type_symbol
_atom_site_label
_atom_site_fract_x
_atom_site_fract_y
_atom_site_fract_z
Si Si1 0.939021 0.692921 0.679185
Si Si2 0.000000 0.651326 0.250000
Si Si3 0.369946 0.052582 0.670075
Si Si4 0.616140 0.957270 0.557599
Si Si5 0.853326 0.047312 0.206173
Si Si6 0.349349 0.451561 0.933217
Si Si7 0.787729 0.319508 0.527375
Si Si8 0.251393 0.311447 0.734610
O O1 0.856898 0.623931 0.730643
O O2 0.851550 0.749806 0.667488
O O3 0.000000 0.719822 0.750000
O O4 0.056032 0.668833 0.555817
O O5 0.921104 0.607643 0.364271
O O6 0.890317 0.698993 0.251015
O O7 0.366201 0.064055 0.559382
O O8 0.504533 0.012967 0.629270
O O9 0.248170 0.011642 0.774022
O O10 0.756405 0.990724 0.522176
O O11 0.844204 0.050602 0.322851
O O12 0.810904 0.116797 0.175189
O O13 0.002328 0.032557 0.100742
O O14 0.296875 0.377351 0.986241
O O15 0.750000 0.250000 0.500000
O O16 0.763180 0.315459 0.648055
#
# Coordination Sequence:
#
# PCOD8138915 Si02
#       8
#     8   4   8   8   8   8   8   8
#     4  12  24  38  64  97 126 156 213 277 326 366
#     4  12  24  42  64  84 128 186 220 248 304 416
#     4  10  20  38  62  96 124 160 210 270 314 375
#     4  10  20  38  63  89 120 168 219 254 314 378
#     4   9  18  36  62  89 125 163 206 249 320 383
#     4   9  18  33  62  92 121 156 201 267 317 370
#     4  11  20  38  62  90 127 161 205 265 325 376
#     4  11  24  41  60  93 125 175 215 251 320 392
#
# _framework density 21.150782
#
# number of rings (size 3 to 8) (size 9 to 14) (size 15 to 20)
#    0.000    1.600    4.000    1.600    2.800    0.000 
#    0.000    7.333    0.000    0.000    0.000    0.000 
#    0.000    0.000    0.000    0.000    0.000    0.000 
#
# Total GULP energy -371869.857263 kJ/mol
# GULP energy per Si atom -12395.661909 kJ/mol
# Density = 2.110264 g / cm^3
# Si number density = 21.150782 Si / 1000 Ang^3
#
#
#
# Elastic Constant Matrix: (Units=GPa)
#
#
# Indices 1 2 3 4 5 6 
#
# 1 125.6530 60.0048 31.9537 0.0000 -37.9970 0.0000
# 2 60.0048 124.3821 21.3190 0.0000 -22.2284 0.0000
# 3 31.9537 21.3190 53.6092 0.0000 -25.7447 0.0000
# 4 0.0000 0.0000 0.0000 19.0515 0.0000 -8.3931
# 5 -37.9970 -22.2284 -25.7447 0.0000 40.4882 0.0000
# 6 0.0000 0.0000 0.0000 -8.3931 0.0000 40.6484
#
#
#
# Elastic Compliance Matrix: (Units=1/GPa)
#
#
# Indices 1 2 3 4 5 6 
#
# 1 0.013232 -0.004495 -0.001902 0.000000 0.008741 0.000000
# 2 -0.004495 0.010553 -0.001095 0.000000 0.000879 0.000000
# 3 -0.001902 -0.001095 0.027463 0.000000 0.015076 0.000000
# 4 0.000000 0.000000 0.000000 0.057742 0.000000 0.011923
# 5 0.008741 0.000879 0.015076 0.000000 0.042970 0.000000
# 6 0.000000 0.000000 0.000000 0.011923 0.000000 0.027063
#
#
# Mechanical properties :
#
#
# Convention : Reuss Voigt Hill
#
# Bulk Modulus (GPa) = 27.57650 58.91102 43.24376
# Shear Modulus (GPa) = 24.26067 32.72874 28.49471
#
# Velocity S-wave (km/s) = 3.39046 3.93797 3.67443
# Velocity P-wave (km/s) = 5.32854 6.97066 6.20417
#
# Compressibility (1/GPa) = 0.03626276
#
# Stress axis : x y z
#
# Youngs Moduli (GPa) = 75.57508 94.75835 36.41313
#
# Poissons Ratio (x) = 0.42598 0.06925
# Poissons Ratio (y) = 0.33974 0.03989
# Poissons Ratio (z) = 0.14372 0.10379
#
# Static dielectric constant tensor:
#      x y z
#    x 4.066300 0.000000 -0.409880 
#    y 0.000000 3.542050 0.000000 
#    z -0.409880 0.000000 3.922300 
# 
# 
# High freq. dielectric constant tensor:
#      x y z
#    x 1.825650 0.000000 -0.012830 
#    y 0.000000 1.820090 0.000000 
#    z -0.012830 0.000000 1.823280 
# 
# From -- ./inp_files/147087.got.cif
#   From: 2010.06.25/outbox.cif.g09.slc.cpg/sg15_74_cif.got.tgz:147087.got - 2010.06.28 07:06:18.
