data_PCOD8139271
_publ_section_title
;
Structure prediction by ZEFSAII (Michael W. Deem and Ramdas Pophale) SiO2 
 PCOD8139271
Probable space group: C 2/C
;
_chemical_formula_sum "Si O2"
_cell_formula_units_Z 32
_cell_length_a 14.666341
_cell_length_b 13.398925
_cell_length_c 10.639607
_cell_angle_alpha 90.000000
_cell_angle_beta 144.157875
_cell_angle_gamma 90.000000
_cell_volume 1224.289557
_symmetry_space_group_name_H-M "C 2/C"
_symmetry_group_IT_number 15
_symmetry_cell_setting 'monoclinic'
loop_
_space_group_symop_operation_xyz
x,y,z
-x,y,1/2-z
-x,-y,-z
x,-y,1/2+z
1/2+x,1/2+y,z
1/2-x,1/2+y,1/2-z
1/2-x,1/2-y,-z
1/2+x,1/2-y,1/2+z
loop_
_atom_site_type_symbol
_atom_site_label
_atom_site_fract_x
_atom_site_fract_y
_atom_site_fract_z
Si Si1 0.105295 0.706882 0.690965
Si Si2 0.846990 0.188731 0.510745
Si Si3 0.646833 0.063722 0.119649
Si Si4 0.165392 0.910207 0.899016
O O1 0.119957 0.732253 0.561534
O O2 0.123139 0.803858 0.792785
O O3 0.927658 0.668459 0.513435
O O4 0.224301 0.614607 0.857595
O O5 0.750000 0.250000 0.500000
O O6 0.760042 0.087782 0.364528
O O7 0.000000 0.148641 0.750000
O O8 0.745096 0.023171 0.108510
O O9 0.500000 0.000000 0.000000
O O10 0.000000 0.961599 0.750000
#
# Coordination Sequence:
#
# PCOD8139271 Si02
#       4
#     8   8   8   8
#     4  10  20  39  68 101 138 182 238 294 355 433
#     4  11  22  41  71 105 140 195 245 288 359 456
#     4  11  24  43  66 105 150 186 235 305 376 421
#     4  10  20  38  71 101 130 182 249 299 347 430
#
# _framework density 26.137606000000002
#
# number of rings (size 3 to 8) (size 9 to 14) (size 15 to 20)
#    0.000    1.500    2.500    5.250    3.500    0.000 
#    9.000    2.500    0.000    0.000    0.000    0.000 
#    0.000    0.000    0.000    0.000    0.000    0.000 
#
# Total GULP energy -198368.802220 kJ/mol
# GULP energy per Si atom -12398.050139 kJ/mol
# Density = 2.607812 g / cm^3
# Si number density = 26.137606 Si / 1000 Ang^3
#
#
#
# Elastic Constant Matrix: (Units=GPa)
#
#
# Indices 1 2 3 4 5 6 
#
# 1 209.6038 27.7067 63.9550 0.0000 16.7905 0.0000
# 2 27.7067 47.1965 20.4714 0.0000 9.4173 0.0000
# 3 63.9550 20.4714 208.7874 0.0000 7.0255 0.0000
# 4 0.0000 0.0000 0.0000 17.5775 0.0000 15.4075
# 5 16.7905 9.4173 7.0255 0.0000 47.1079 0.0000
# 6 0.0000 0.0000 0.0000 15.4075 0.0000 27.1909
#
#
#
# Elastic Compliance Matrix: (Units=1/GPa)
#
#
# Indices 1 2 3 4 5 6 
#
# 1 0.005637 -0.002421 -0.001445 0.000000 -0.001310 0.000000
# 2 -0.002421 0.023995 -0.001486 0.000000 -0.003712 0.000000
# 3 -0.001445 -0.001486 0.005378 0.000000 0.000010 0.000000
# 4 0.000000 0.000000 0.000000 0.113032 0.000000 -0.064048
# 5 -0.001310 -0.003712 0.000010 0.000000 0.022435 0.000000
# 6 0.000000 0.000000 0.000000 -0.064048 0.000000 0.073069
#
#
# Mechanical properties :
#
#
# Convention : Reuss Voigt Hill
#
# Bulk Modulus (GPa) = 41.14483 76.65043 58.89763
# Shear Modulus (GPa) = 19.05840 41.93891 30.49865
#
# Velocity S-wave (km/s) = 2.70322 4.01002 3.41962
# Velocity P-wave (km/s) = 5.05163 7.12950 6.17854
#
# Compressibility (1/GPa) = 0.02430439
#
# Stress axis : x y z
#
# Youngs Moduli (GPa) = 177.40596 41.67618 185.95574
#
# Poissons Ratio (x) = 0.10089 0.26874
# Poissons Ratio (y) = 0.42948 0.27636
# Poissons Ratio (z) = 0.25639 0.06194
#
# Static dielectric constant tensor:
#      x y z
#    x 5.496010 0.000000 0.212320 
#    y 0.000000 4.482910 0.000000 
#    z 0.212320 0.000000 5.426660 
# 
# 
# High freq. dielectric constant tensor:
#      x y z
#    x 2.056270 0.000000 0.006010 
#    y 0.000000 2.028400 0.000000 
#    z 0.006010 0.000000 2.073510 
# 
# From -- ./inp_files/28877.got.cif
#   From: 2010.06.25/outbox.cif.g09.slc.cpg/sg15_15_cif.got.tgz:28877.got - 2010.06.28 07:06:18.
