data_PCOD8139592
_publ_section_title
;
Structure prediction by ZEFSAII (Michael W. Deem and Ramdas Pophale) SiO2 
 PCOD8139592
Probable space group: C 2/C
;
_chemical_formula_sum "Si O2"
_cell_formula_units_Z 60
_cell_length_a 22.711947
_cell_length_b 10.182584
_cell_length_c 20.829818
_cell_angle_alpha 90.000000
_cell_angle_beta 30.480107
_cell_angle_gamma 90.000000
_cell_volume 2443.490367
_symmetry_space_group_name_H-M "C 2/C"
_symmetry_group_IT_number 15
_symmetry_cell_setting 'monoclinic'
loop_
_space_group_symop_operation_xyz
x,y,z
-x,y,1/2-z
-x,-y,-z
x,-y,1/2+z
1/2+x,1/2+y,z
1/2-x,1/2+y,1/2-z
1/2-x,1/2-y,-z
1/2+x,1/2-y,1/2+z
loop_
_atom_site_type_symbol
_atom_site_label
_atom_site_fract_x
_atom_site_fract_y
_atom_site_fract_z
Si Si1 0.000000 0.343878 0.750000
Si Si2 0.510501 0.201652 0.671372
Si Si3 0.044054 0.138265 0.596955
Si Si4 0.752146 0.403575 0.983944
Si Si5 0.187553 0.234391 0.907530
Si Si6 0.849315 0.063445 0.303770
Si Si7 0.885523 0.450940 0.185319
Si Si8 0.016021 0.696612 0.460520
O O1 0.012360 0.249520 0.677534
O O2 0.112949 0.436200 0.657630
O O3 0.500000 0.130271 0.750000
O O4 0.631155 0.267173 0.532568
O O5 0.415547 0.314316 0.771982
O O6 0.483777 0.091515 0.643531
O O7 0.164287 0.068023 0.506966
O O8 0.055315 0.201777 0.516346
O O9 0.941051 0.033438 0.685121
O O10 0.750000 0.250000 0.000000
O O11 0.720199 0.488100 0.075919
O O12 0.263491 0.370044 0.831283
O O13 0.262417 0.101757 0.826938
O O14 0.089413 0.227788 0.945426
O O15 0.895765 0.608044 0.166048
O O16 0.914509 0.388411 0.088596
#
# Coordination Sequence:
#
# PCOD8139592 Si02
#       8
#     4   8   8   8   8   8   8   8
#     4  10  22  40  60 106 150 174 234 284 362 454
#     4  10  22  44  68  95 136 187 239 295 359 427
#     4  11  21  40  66 109 139 187 233 296 376 431
#     4  10  20  39  64  98 148 176 227 288 365 437
#     4  10  24  45  70 100 136 192 253 294 354 440
#     4  11  22  43  71 100 148 189 231 308 364 428
#     4   9  22  46  62  96 134 182 245 286 358 431
#     4  10  23  42  69  97 142 186 233 312 356 427
#
# _framework density 24.555039000000001
#
# number of rings (size 3 to 8) (size 9 to 14) (size 15 to 20)
#    0.000    1.867    2.667    0.800    1.867    9.600 
#   12.000    2.000    0.000    0.000    0.000    0.000 
#    0.000    0.000    0.000    0.000    0.000    0.000 
#
# Total GULP energy -371785.943338 kJ/mol
# GULP energy per Si atom -12392.864778 kJ/mol
# Density = 2.449915 g / cm^3
# Si number density = 24.555039 Si / 1000 Ang^3
#
#
#
# Elastic Constant Matrix: (Units=GPa)
#
#
# Indices 1 2 3 4 5 6 
#
# 1 107.1298 9.8097 38.3919 0.0000 5.7759 0.0000
# 2 9.8097 55.7543 17.1778 0.0002 6.1957 -0.0002
# 3 38.3919 17.1778 118.0574 0.0001 -7.4859 -0.0001
# 4 0.0000 0.0002 0.0001 40.4299 0.0000 7.0569
# 5 5.7759 6.1957 -7.4859 0.0000 42.0536 0.0000
# 6 0.0000 -0.0002 -0.0001 7.0569 0.0000 8.2226
#
#
#
# Elastic Compliance Matrix: (Units=1/GPa)
#
#
# Indices 1 2 3 4 5 6 
#
# 1 0.010767 -0.000577 -0.003546 0.000000 -0.002025 0.000000
# 2 -0.000577 0.019270 -0.002823 0.000000 -0.003262 0.000001
# 3 -0.003546 -0.002823 0.010207 0.000000 0.002720 0.000000
# 4 0.000000 0.000000 0.000000 0.029092 0.000000 -0.024968
# 5 -0.002025 -0.003262 0.002720 0.000000 0.025022 0.000000
# 6 0.000000 0.000001 0.000000 -0.024968 0.000000 0.143045
#
#
# Mechanical properties :
#
#
# Convention : Reuss Voigt Hill
#
# Bulk Modulus (GPa) = 37.94793 45.74446 41.84619
# Shear Modulus (GPa) = 19.22498 32.51204 25.86851
#
# Velocity S-wave (km/s) = 2.80113 3.64269 3.24927
# Velocity P-wave (km/s) = 5.09407 6.03010 5.58174
#
# Compressibility (1/GPa) = 0.02635190
#
# Stress axis : x y z
#
# Youngs Moduli (GPa) = 92.87451 51.89508 97.97389
#
# Poissons Ratio (x) = 0.02994 0.34741
# Poissons Ratio (y) = 0.05358 0.27658
# Poissons Ratio (z) = 0.32933 0.14650
#
# Static dielectric constant tensor:
#      x y z
#    x 4.633860 0.000000 -0.418820 
#    y 0.000000 4.366930 0.000000 
#    z -0.418820 0.000000 4.802860 
# 
# 
# High freq. dielectric constant tensor:
#      x y z
#    x 1.966850 0.000000 -0.004380 
#    y 0.000000 1.976860 0.000000 
#    z -0.004380 0.000000 1.978080 
# 
# From -- ./inp_files/255550.got.cif
#   From: 2010.06.25/outbox.cif.g09.slc.cpg/sg15_128_cif.got.tgz:255550.got - 2010.06.28 07:06:18.
