data_PCOD8139949
_publ_section_title
;
Structure prediction by ZEFSAII (Michael W. Deem and Ramdas Pophale) SiO2 
 PCOD8139949
Probable space group: C 2/C
;
_chemical_formula_sum "Si O2"
_cell_formula_units_Z 56
_cell_length_a 10.064674
_cell_length_b 12.688979
_cell_length_c 25.272143
_cell_angle_alpha 90.000000
_cell_angle_beta 126.851854
_cell_angle_gamma 90.000000
_cell_volume 2582.622861
_symmetry_space_group_name_H-M "C 2/C"
_symmetry_group_IT_number 15
_symmetry_cell_setting 'monoclinic'
loop_
_space_group_symop_operation_xyz
x,y,z
-x,y,1/2-z
-x,-y,-z
x,-y,1/2+z
1/2+x,1/2+y,z
1/2-x,1/2+y,1/2-z
1/2-x,1/2-y,-z
1/2+x,1/2-y,1/2+z
loop_
_atom_site_type_symbol
_atom_site_label
_atom_site_fract_x
_atom_site_fract_y
_atom_site_fract_z
Si Si1 0.892733 0.983329 0.773289
Si Si2 0.753362 0.501483 0.027472
Si Si3 0.620757 0.755250 0.233717
Si Si4 0.516947 0.338000 0.008416
Si Si5 0.059366 0.835569 0.138321
Si Si6 0.806667 0.637544 0.939197
Si Si7 0.592887 0.067536 0.647995
O O1 0.933866 0.862379 0.793399
O O2 0.000000 0.029482 0.750000
O O3 0.931496 0.045900 0.836306
O O4 0.699482 0.993261 0.711964
O O5 0.650213 0.390164 0.999449
O O6 0.912794 0.483243 0.101814
O O7 0.645200 0.588957 0.031238
O O8 0.810447 0.545456 0.984241
O O9 0.500000 0.802199 0.250000
O O10 0.812396 0.761669 0.299241
O O11 0.589863 0.816234 0.172143
O O12 0.603581 0.337126 0.086939
O O13 0.461229 0.219127 0.980442
O O14 0.867519 0.797565 0.098964
O O15 0.821169 0.574696 0.888425
#
# Coordination Sequence:
#
# PCOD8139949 Si02
#       7
#     8   8   8   8   8   8   8
#     4  10  21  40  62  88 119 166 204 264 321 373
#     4  10  22  41  60  93 129 165 209 272 318 391
#     4  10  23  39  63  93 119 168 212 265 326 380
#     4  10  23  40  63  92 129 172 217 259 337 394
#     4  10  20  40  64  86 131 163 214 270 314 399
#     4  11  23  40  65  95 125 177 211 266 336 392
#     4  11  23  40  64  92 129 157 219 260 318 397
#
# _framework density 21.683384
#
# number of rings (size 3 to 8) (size 9 to 14) (size 15 to 20)
#    0.000    1.714    1.429    3.000    4.000    4.000 
#    0.000    0.000    3.143    0.000    0.000    0.000 
#    0.000    0.000    0.000    0.000    0.000    0.000 
#
# Total GULP energy -347178.770455 kJ/mol
# GULP energy per Si atom -12399.241802 kJ/mol
# Density = 2.163403 g / cm^3
# Si number density = 21.683384 Si / 1000 Ang^3
#
#
#
# Elastic Constant Matrix: (Units=GPa)
#
#
# Indices 1 2 3 4 5 6 
#
# 1 63.1245 20.2605 19.4636 0.0000 1.1193 0.0000
# 2 20.2605 75.2946 28.1413 0.0000 -9.2623 0.0000
# 3 19.4636 28.1413 99.1143 0.0000 5.9586 0.0000
# 4 0.0000 0.0000 0.0000 19.2825 0.0000 0.6418
# 5 1.1193 -9.2623 5.9586 0.0000 31.8209 0.0000
# 6 0.0000 0.0000 0.0000 0.6418 0.0000 35.6442
#
#
#
# Elastic Compliance Matrix: (Units=1/GPa)
#
#
# Indices 1 2 3 4 5 6 
#
# 1 0.017892 -0.004147 -0.002251 0.000000 -0.001415 0.000000
# 2 -0.004147 0.016712 -0.004280 0.000000 0.005812 0.000000
# 3 -0.002251 -0.004280 0.011951 0.000000 -0.003405 0.000000
# 4 0.000000 0.000000 0.000000 0.051891 0.000000 -0.000934
# 5 -0.001415 0.005812 -0.003405 0.000000 0.033805 0.000000
# 6 0.000000 0.000000 0.000000 -0.000934 0.000000 0.028072
#
#
# Mechanical properties :
#
#
# Convention : Reuss Voigt Hill
#
# Bulk Modulus (GPa) = 39.68451 41.47380 40.57916
# Shear Modulus (GPa) = 26.30491 28.66072 27.48282
#
# Velocity S-wave (km/s) = 3.48679 3.63958 3.56400
# Velocity P-wave (km/s) = 5.87808 6.06882 5.97421
#
# Compressibility (1/GPa) = 0.02519875
#
# Stress axis : x y z
#
# Youngs Moduli (GPa) = 55.89111 59.83871 83.67328
#
# Poissons Ratio (x) = 0.24816 0.18835
# Poissons Ratio (y) = 0.23179 0.35811
# Poissons Ratio (z) = 0.12581 0.25610
#
# Static dielectric constant tensor:
#      x y z
#    x 4.008490 0.000000 0.115810 
#    y 0.000000 3.689820 0.000000 
#    z 0.115810 0.000000 3.861740 
# 
# 
# High freq. dielectric constant tensor:
#      x y z
#    x 1.851020 0.000000 0.011470 
#    y 0.000000 1.837280 0.000000 
#    z 0.011470 0.000000 1.855890 
# 
# From -- ./inp_files/292294.got.cif
#   From: 2010.06.25/outbox.cif.g09.slc.cpg/sg15_147_cif.got.tgz:292294.got - 2010.06.28 07:06:18.
