data_PCOD8139757
_publ_section_title
;
Structure prediction by ZEFSAII (Michael W. Deem and Ramdas Pophale) SiO2 
 PCOD8139757
Probable space group: C 2/C
;
_chemical_formula_sum "Si O2"
_cell_formula_units_Z 48
_cell_length_a 9.814727
_cell_length_b 25.450796
_cell_length_c 14.455375
_cell_angle_alpha 90.000000
_cell_angle_beta 39.092954
_cell_angle_gamma 90.000000
_cell_volume 2276.928546
_symmetry_space_group_name_H-M "C 2/C"
_symmetry_group_IT_number 15
_symmetry_cell_setting 'monoclinic'
loop_
_space_group_symop_operation_xyz
x,y,z
-x,y,1/2-z
-x,-y,-z
x,-y,1/2+z
1/2+x,1/2+y,z
1/2-x,1/2+y,1/2-z
1/2-x,1/2-y,-z
1/2+x,1/2-y,1/2+z
loop_
_atom_site_type_symbol
_atom_site_label
_atom_site_fract_x
_atom_site_fract_y
_atom_site_fract_z
Si Si1 0.609770 0.189992 0.350042
Si Si2 0.500000 0.359843 0.750000
Si Si3 0.718394 0.929320 0.025073
Si Si4 0.122136 0.965500 0.010825
Si Si5 0.209720 0.203911 0.694867
Si Si6 0.500000 0.108749 0.250000
Si Si7 0.239666 0.398692 0.227369
O O1 0.414038 0.205497 0.519658
O O2 0.676496 0.238412 0.251561
O O3 0.536151 0.142708 0.322899
O O4 0.816498 0.176358 0.302722
O O5 0.596670 0.397151 0.621700
O O6 0.726908 0.909230 0.125469
O O7 0.481143 0.918400 0.107508
O O8 0.755992 0.991789 0.989763
O O9 0.290825 0.927179 0.872875
O O10 0.945288 0.930844 0.160052
O O11 0.000000 0.000000 0.000000
O O12 0.239687 0.163135 0.763251
O O13 0.000000 0.185321 0.750000
#
# Coordination Sequence:
#
# PCOD8139757 Si02
#       7
#     8   4   8   8   8   4   8
#     4  12  28  45  72 102 138 184 229 292 345 414
#     4  12  26  46  66 110 144 174 234 292 344 406
#     4  10  22  43  68  98 140 178 225 279 342 408
#     4  10  20  39  71  99 132 182 227 273 340 414
#     4  12  26  46  70 100 135 178 237 284 347 410
#     4  12  24  46  72 104 140 184 232 284 352 408
#     4  10  21  42  70  95 131 183 227 278 341 412
#
# _framework density 21.081029999999998
#
# number of rings (size 3 to 8) (size 9 to 14) (size 15 to 20)
#    0.000    1.000    2.500    5.500    4.667    2.000 
#    4.500    1.667    0.000    0.000    0.000    0.000 
#    0.000    0.000    0.000    0.000    0.000    0.000 
#
# Total GULP energy -297600.033270 kJ/mol
# GULP energy per Si atom -12400.001386 kJ/mol
# Density = 2.103305 g / cm^3
# Si number density = 21.081030 Si / 1000 Ang^3
#
#
#
# Elastic Constant Matrix: (Units=GPa)
#
#
# Indices 1 2 3 4 5 6 
#
# 1 72.9982 43.3668 45.0430 0.0000 -13.4335 0.0000
# 2 43.3668 145.2713 68.6299 0.0000 -13.4416 0.0000
# 3 45.0430 68.6299 164.1300 0.0000 -27.3609 0.0000
# 4 0.0000 0.0000 0.0000 46.2210 0.0000 -6.2988
# 5 -13.4335 -13.4416 -27.3609 0.0000 30.4852 0.0000
# 6 0.0000 0.0000 0.0000 -6.2988 0.0000 27.4039
#
#
#
# Elastic Compliance Matrix: (Units=1/GPa)
#
#
# Indices 1 2 3 4 5 6 
#
# 1 0.018415 -0.003808 -0.002809 0.000000 0.003915 0.000000
# 2 -0.003808 0.009377 -0.002900 0.000000 -0.000147 0.000000
# 3 -0.002809 -0.002900 0.009004 0.000000 0.005565 0.000000
# 4 0.000000 0.000000 0.000000 0.022335 0.000000 0.005134
# 5 0.003915 -0.000147 0.005565 0.000000 0.039458 0.000000
# 6 0.000000 0.000000 0.000000 0.005134 0.000000 0.037671
#
#
# Mechanical properties :
#
#
# Convention : Reuss Voigt Hill
#
# Bulk Modulus (GPa) = 56.30160 77.38653 66.84407
# Shear Modulus (GPa) = 31.01462 35.84600 33.43031
#
# Velocity S-wave (km/s) = 3.83980 4.12805 3.98653
# Velocity P-wave (km/s) = 6.81351 7.71426 7.27784
#
# Compressibility (1/GPa) = 0.01776148
#
# Stress axis : x y z
#
# Youngs Moduli (GPa) = 54.30413 106.64270 111.06234
#
# Poissons Ratio (x) = 0.40611 0.31195
# Poissons Ratio (y) = 0.20680 0.32212
# Poissons Ratio (z) = 0.15253 0.30930
#
# Static dielectric constant tensor:
#      x y z
#    x 4.442310 0.000000 -0.638630 
#    y 0.000000 4.148020 0.000000 
#    z -0.638630 0.000000 4.375190 
# 
# 
# High freq. dielectric constant tensor:
#      x y z
#    x 1.816800 0.000000 -0.021480 
#    y 0.000000 1.841160 0.000000 
#    z -0.021480 0.000000 1.845440 
# 
# From -- ./inp_files/200908.got.cif
#   From: 2010.06.25/outbox.cif.g09.slc.cpg/sg15_101_cif.got.tgz:200908.got - 2010.06.28 07:06:18.
