data_PCOD8139447
_publ_section_title
;
Structure prediction by ZEFSAII (Michael W. Deem and Ramdas Pophale) SiO2 
 PCOD8139447
Probable space group: C 2/C
;
_chemical_formula_sum "Si O2"
_cell_formula_units_Z 40
_cell_length_a 15.588075
_cell_length_b 8.929726
_cell_length_c 25.112035
_cell_angle_alpha 90.000000
_cell_angle_beta 30.644000
_cell_angle_gamma 90.000000
_cell_volume 1781.677493
_symmetry_space_group_name_H-M "C 2/C"
_symmetry_group_IT_number 15
_symmetry_cell_setting 'monoclinic'
loop_
_space_group_symop_operation_xyz
x,y,z
-x,y,1/2-z
-x,-y,-z
x,-y,1/2+z
1/2+x,1/2+y,z
1/2-x,1/2+y,1/2-z
1/2-x,1/2-y,-z
1/2+x,1/2-y,1/2+z
loop_
_atom_site_type_symbol
_atom_site_label
_atom_site_fract_x
_atom_site_fract_y
_atom_site_fract_z
Si Si1 0.176353 0.082799 0.914827
Si Si2 0.526894 0.721593 0.846573
Si Si3 0.467365 0.147918 0.550356
Si Si4 0.248630 0.290847 0.582778
Si Si5 0.297678 0.972937 0.238226
O O1 0.285633 0.102868 0.802825
O O2 0.276777 0.972452 0.901410
O O3 0.133508 0.246748 0.960549
O O4 0.000000 0.000000 0.000000
O O5 0.428987 0.724420 0.842482
O O6 0.617551 0.560660 0.805345
O O7 0.670030 0.850454 0.774000
O O8 0.397075 0.754119 0.963396
O O9 0.300606 0.227363 0.613399
O O10 0.440029 0.108108 0.626790
O O11 0.500000 0.000000 0.500000
#
# Coordination Sequence:
#
# PCOD8139447 Si02
#       5
#     8   8   8   8   8
#     4  10  20  39  62  90 130 172 206 265 317 388
#     4  11  23  40  67  96 122 170 216 268 313 399
#     4  11  21  38  63  98 130 164 209 275 318 371
#     4  10  22  43  64  91 133 166 212 262 328 373
#     4  12  22  38  66  94 122 171 220 250 331 383
#
# _framework density 22.450752000000001
#
# number of rings (size 3 to 8) (size 9 to 14) (size 15 to 20)
#    0.000    1.200    6.000    2.400    0.000    3.200 
#    0.000    3.000    0.000    4.800    0.000    0.000 
#    0.000    0.000    0.000    0.000    0.000    0.000 
#
# Total GULP energy -247876.695325 kJ/mol
# GULP energy per Si atom -12393.834766 kJ/mol
# Density = 2.239965 g / cm^3
# Si number density = 22.450752 Si / 1000 Ang^3
#
#
#
# Elastic Constant Matrix: (Units=GPa)
#
#
# Indices 1 2 3 4 5 6 
#
# 1 80.2795 31.6531 30.5640 0.0000 -3.9357 0.0000
# 2 31.6531 108.1561 37.0601 0.0000 -6.6258 0.0001
# 3 30.5640 37.0601 98.3578 -0.0004 19.7790 0.0002
# 4 0.0000 0.0000 -0.0004 41.8734 0.0002 -0.7152
# 5 -3.9357 -6.6258 19.7790 0.0002 42.7441 0.0000
# 6 0.0000 0.0001 0.0002 -0.7152 0.0000 37.3294
#
#
#
# Elastic Compliance Matrix: (Units=1/GPa)
#
#
# Indices 1 2 3 4 5 6 
#
# 1 0.015358 -0.002841 -0.004298 0.000000 0.002963 0.000000
# 2 -0.002841 0.011751 -0.004255 0.000000 0.003529 0.000000
# 3 -0.004298 -0.004255 0.014684 0.000000 -0.007850 0.000000
# 4 0.000000 0.000000 0.000000 0.023889 0.000000 0.000458
# 5 0.002963 0.003529 -0.007850 0.000000 0.027847 0.000000
# 6 0.000000 0.000000 0.000000 0.000458 0.000000 0.026797
#
#
# Mechanical properties :
#
#
# Convention : Reuss Voigt Hill
#
# Bulk Modulus (GPa) = 52.61131 53.92754 53.26943
# Shear Modulus (GPa) = 33.45616 36.89045 35.17330
#
# Velocity S-wave (km/s) = 3.86450 4.05800 3.96243
# Velocity P-wave (km/s) = 6.58768 6.78447 6.68680
#
# Compressibility (1/GPa) = 0.01900732
#
# Stress axis : x y z
#
# Youngs Moduli (GPa) = 65.11281 85.09716 68.10042
#
# Poissons Ratio (x) = 0.24172 0.29269
# Poissons Ratio (y) = 0.18495 0.28975
# Poissons Ratio (z) = 0.27984 0.36206
#
# Static dielectric constant tensor:
#      x y z
#    x 4.076240 0.000000 0.178210 
#    y 0.000000 4.403530 0.000000 
#    z 0.178210 0.000000 4.255950 
# 
# 
# High freq. dielectric constant tensor:
#      x y z
#    x 1.849970 0.000000 0.025440 
#    y 0.000000 1.876440 0.000000 
#    z 0.025440 0.000000 1.902350 
# 
# From -- ./inp_files/159115.got.cif
#   From: 2010.06.25/outbox.cif.g09.slc.cpg/sg15_80_cif.got.tgz:159115.got - 2010.06.28 07:06:18.
