data_PCOD8139220
_publ_section_title
;
Structure prediction by ZEFSAII (Michael W. Deem and Ramdas Pophale) SiO2 
 PCOD8139220
Probable space group: C 2/C
;
_chemical_formula_sum "Si O2"
_cell_formula_units_Z 44
_cell_length_a 20.897966
_cell_length_b 7.001855
_cell_length_c 18.140135
_cell_angle_alpha 90.000000
_cell_angle_beta 121.182278
_cell_angle_gamma 90.000000
_cell_volume 2270.858486
_symmetry_space_group_name_H-M "C 2/C"
_symmetry_group_IT_number 15
_symmetry_cell_setting 'monoclinic'
loop_
_space_group_symop_operation_xyz
x,y,z
-x,y,1/2-z
-x,-y,-z
x,-y,1/2+z
1/2+x,1/2+y,z
1/2-x,1/2+y,1/2-z
1/2-x,1/2-y,-z
1/2+x,1/2-y,1/2+z
loop_
_atom_site_type_symbol
_atom_site_label
_atom_site_fract_x
_atom_site_fract_y
_atom_site_fract_z
Si Si1 0.930195 0.928993 0.663784
Si Si2 0.500000 0.935663 0.250000
Si Si3 0.072395 0.640584 0.163241
Si Si4 0.675776 0.474540 0.273815
Si Si5 0.166261 0.303347 0.151758
Si Si6 0.449262 0.626442 0.522421
O O1 0.946396 0.700803 0.668076
O O2 0.000000 0.026315 0.750000
O O3 0.854596 0.972787 0.663319
O O4 0.923491 0.006735 0.577837
O O5 0.553472 0.066534 0.233220
O O6 0.121675 0.830866 0.198159
O O7 0.115215 0.479372 0.144199
O O8 0.996035 0.687951 0.074667
O O9 0.755907 0.379271 0.333501
O O10 0.681471 0.668291 0.230553
O O11 0.126281 0.187809 0.063032
O O12 0.500000 0.500000 0.500000
#
# Coordination Sequence:
#
# PCOD8139220 Si02
#       6
#     8   4   8   8   8   8
#     4  10  20  41  66  93 131 171 222 272 326 398
#     4  10  20  38  68 100 120 174 228 266 324 396
#     4  12  21  40  70  92 127 174 226 270 331 391
#     4  12  23  43  67  94 132 184 217 272 335 404
#     4  12  25  41  66  98 136 175 224 274 338 396
#     4  12  23  41  68 102 133 170 225 288 323 385
#
# _framework density 19.375931999999999
#
# number of rings (size 3 to 8) (size 9 to 14) (size 15 to 20)
#    0.545    0.000    7.273    2.727    0.000    0.727 
#    0.000    0.000    0.000    4.364    0.000    0.000 
#    0.000    0.000    0.000    0.000    0.000    0.000 
#
# Total GULP energy -272853.198385 kJ/mol
# GULP energy per Si atom -12402.418108 kJ/mol
# Density = 1.933183 g / cm^3
# Si number density = 19.375932 Si / 1000 Ang^3
#
#
#
# Elastic Constant Matrix: (Units=GPa)
#
#
# Indices 1 2 3 4 5 6 
#
# 1 140.8037 39.9288 46.8080 -0.0002 -8.4714 0.0000
# 2 39.9288 85.7556 17.0961 -0.0005 -2.8212 0.0000
# 3 46.8080 17.0961 74.1178 0.0001 -3.5848 0.0000
# 4 -0.0002 -0.0005 0.0001 171.8711 0.0000 -0.3781
# 5 -8.4714 -2.8212 -3.5848 0.0000 34.8088 0.0000
# 6 0.0000 0.0000 0.0000 -0.3781 0.0000 38.9039
#
#
#
# Elastic Compliance Matrix: (Units=1/GPa)
#
#
# Indices 1 2 3 4 5 6 
#
# 1 0.010000 -0.003522 -0.005426 0.000000 0.001590 0.000000
# 2 -0.003522 0.013481 -0.000878 0.000000 0.000145 0.000000
# 3 -0.005426 -0.000878 0.017140 0.000000 0.000373 0.000000
# 4 0.000000 0.000000 0.000000 0.005818 0.000000 0.000057
# 5 0.001590 0.000145 0.000373 0.000000 0.029165 0.000000
# 6 0.000000 0.000000 0.000000 0.000057 0.000000 0.025705
#
#
# Mechanical properties :
#
#
# Convention : Reuss Voigt Hill
#
# Bulk Modulus (GPa) = 47.69269 56.48254 52.08762
# Shear Modulus (GPa) = 39.07712 62.23969 50.65841
#
# Velocity S-wave (km/s) = 4.49574 5.67379 5.11877
# Velocity P-wave (km/s) = 7.18448 8.49333 7.86617
#
# Compressibility (1/GPa) = 0.02096757
#
# Stress axis : x y z
#
# Youngs Moduli (GPa) = 99.99561 74.17924 58.34461
#
# Poissons Ratio (x) = 0.26128 0.31660
# Poissons Ratio (y) = 0.35221 0.05123
# Poissons Ratio (z) = 0.54261 0.06514
#
# Static dielectric constant tensor:
#      x y z
#    x 3.840860 0.000000 -0.228380 
#    y 0.000000 3.705680 0.000000 
#    z -0.228380 0.000000 3.606450 
# 
# 
# High freq. dielectric constant tensor:
#      x y z
#    x 1.761750 0.000000 -0.010420 
#    y 0.000000 1.770370 0.000000 
#    z -0.010420 0.000000 1.733530 
# 
# From -- ./inp_files/217847.got.cif
#   From: 2010.06.25/outbox.cif.g09.slc.cpg/sg15_109_cif.got.tgz:217847.got - 2010.06.28 07:06:18.
