data_PCOD8139557
_publ_section_title
;
Structure prediction by ZEFSAII (Michael W. Deem and Ramdas Pophale) SiO2 
 PCOD8139557
Probable space group: C 2/C
;
_chemical_formula_sum "Si O2"
_cell_formula_units_Z 32
_cell_length_a 11.950950
_cell_length_b 22.667864
_cell_length_c 5.166734
_cell_angle_alpha 90.000000
_cell_angle_beta 113.276061
_cell_angle_gamma 90.000000
_cell_volume 1285.763344
_symmetry_space_group_name_H-M "C 2/C"
_symmetry_group_IT_number 15
_symmetry_cell_setting 'monoclinic'
loop_
_space_group_symop_operation_xyz
x,y,z
-x,y,1/2-z
-x,-y,-z
x,-y,1/2+z
1/2+x,1/2+y,z
1/2-x,1/2+y,1/2-z
1/2-x,1/2-y,-z
1/2+x,1/2-y,1/2+z
loop_
_atom_site_type_symbol
_atom_site_label
_atom_site_fract_x
_atom_site_fract_y
_atom_site_fract_z
Si Si1 0.500000 0.308948 0.250000
Si Si2 0.000000 0.115489 0.250000
Si Si3 0.135841 0.650653 0.074415
Si Si4 0.632166 0.200745 0.570122
Si Si5 0.733880 0.538295 0.419190
O O1 0.459201 0.346449 0.462359
O O2 0.611674 0.267388 0.450672
O O3 0.888890 0.074992 0.237534
O O4 0.204406 0.665958 0.408071
O O5 0.151945 0.582037 0.018469
O O6 0.198471 0.692569 0.907899
O O7 0.995513 0.666907 0.990797
O O8 0.739646 0.513471 0.714179
#
# Coordination Sequence:
#
# PCOD8139557 Si02
#       5
#     4   4   8   8   8
#     4  10  20  39  64  88 118 151 186 234 296 356
#     4  12  24  41  60  84 114 157 204 244 282 330
#     4   9  18  36  60  84 118 152 184 231 290 348
#     4   9  18  38  60  90 124 144 170 235 298 360
#     4  12  25  42  59  82 115 158 205 248 280 322
#
# _framework density 24.887937000000001
#
# number of rings (size 3 to 8) (size 9 to 14) (size 15 to 20)
#    0.000    2.000    0.000    6.750    0.000    0.000 
#    0.000   32.500    0.000    0.000    0.000    0.000 
#    0.000    0.000    0.000    0.000    0.000    0.000 
#
# Total GULP energy -198243.003591 kJ/mol
# GULP energy per Si atom -12390.187724 kJ/mol
# Density = 2.483129 g / cm^3
# Si number density = 24.887937 Si / 1000 Ang^3
#
#
#
# Elastic Constant Matrix: (Units=GPa)
#
#
# Indices 1 2 3 4 5 6 
#
# 1 53.6444 46.8978 31.2218 0.0000 -18.2342 0.0000
# 2 46.8978 128.1618 39.1217 0.0000 -17.2116 0.0000
# 3 31.2218 39.1217 170.5729 0.0000 -67.6700 0.0000
# 4 0.0000 0.0000 0.0000 84.1715 0.0000 -39.4129
# 5 -18.2342 -17.2116 -67.6700 0.0000 42.3707 0.0000
# 6 0.0000 0.0000 0.0000 -39.4129 0.0000 31.5228
#
#
#
# Elastic Compliance Matrix: (Units=1/GPa)
#
#
# Indices 1 2 3 4 5 6 
#
# 1 0.030413 -0.009993 0.000838 0.000000 0.010368 0.000000
# 2 -0.009993 0.011686 -0.001839 0.000000 -0.002491 0.000000
# 3 0.000838 -0.001839 0.016315 0.000000 0.025670 0.000000
# 4 0.000000 0.000000 0.000000 0.028658 0.000000 0.035831
# 5 0.010368 -0.002491 0.025670 0.000000 0.068048 0.000000
# 6 0.000000 0.000000 0.000000 0.035831 0.000000 0.076523
#
#
# Mechanical properties :
#
#
# Convention : Reuss Voigt Hill
#
# Bulk Modulus (GPa) = 27.45253 65.20686 46.32969
# Shear Modulus (GPa) = 18.81296 47.28886 33.05091
#
# Velocity S-wave (km/s) = 2.75236 4.36371 3.64811
# Velocity P-wave (km/s) = 4.59946 7.18654 6.03330
#
# Compressibility (1/GPa) = 0.03642651
#
# Stress axis : x y z
#
# Youngs Moduli (GPa) = 32.88022 85.57148 61.29369
#
# Poissons Ratio (x) = 0.85508 -0.05137
# Poissons Ratio (y) = 0.32856 0.11275
# Poissons Ratio (z) = -0.02756 0.15741
#
# Static dielectric constant tensor:
#      x y z
#    x 4.396460 0.000000 -1.256640 
#    y 0.000000 4.474910 0.000000 
#    z -1.256640 0.000000 8.935220 
# 
# 
# High freq. dielectric constant tensor:
#      x y z
#    x 1.979870 0.000000 -0.030750 
#    y 0.000000 1.982860 0.000000 
#    z -0.030750 0.000000 2.021240 
# 
# From -- ./inp_files/6584.got.cif
#   From: 2010.06.25/outbox.cif.g09.slc.cpg/sg15_4_cif.got.tgz:6584.got - 2010.06.28 07:06:18.
