data_PCOD8139804
_publ_section_title
;
Structure prediction by ZEFSAII (Michael W. Deem and Ramdas Pophale) SiO2 
 PCOD8139804
Probable space group: C 2/C
;
_chemical_formula_sum "Si O2"
_cell_formula_units_Z 52
_cell_length_a 16.092794
_cell_length_b 12.931453
_cell_length_c 14.976931
_cell_angle_alpha 90.000000
_cell_angle_beta 124.785676
_cell_angle_gamma 90.000000
_cell_volume 2559.759282
_symmetry_space_group_name_H-M "C 2/C"
_symmetry_group_IT_number 15
_symmetry_cell_setting 'monoclinic'
loop_
_space_group_symop_operation_xyz
x,y,z
-x,y,1/2-z
-x,-y,-z
x,-y,1/2+z
1/2+x,1/2+y,z
1/2-x,1/2+y,1/2-z
1/2-x,1/2-y,-z
1/2+x,1/2-y,1/2+z
loop_
_atom_site_type_symbol
_atom_site_label
_atom_site_fract_x
_atom_site_fract_y
_atom_site_fract_z
Si Si1 0.096096 0.280381 0.369681
Si Si2 0.868528 0.232397 0.815420
Si Si3 0.186768 0.088310 0.964308
Si Si4 0.318071 0.215443 0.920733
Si Si5 0.298703 0.625402 0.940416
Si Si6 0.500000 0.629597 0.750000
Si Si7 0.478451 0.881831 0.006060
O O1 0.188385 0.322220 0.366510
O O2 0.131609 0.175786 0.440299
O O3 0.000000 0.254057 0.250000
O O4 0.069975 0.369086 0.425916
O O5 0.764496 0.254054 0.700537
O O6 0.852721 0.140188 0.877900
O O7 0.955455 0.203148 0.799446
O O8 0.900506 0.338157 0.884449
O O9 0.279570 0.117371 0.955685
O O10 0.088809 0.057860 0.844562
O O11 0.155042 0.189012 0.999942
O O12 0.215632 0.995373 0.047361
O O13 0.418325 0.183168 0.930455
O O14 0.500000 0.000000 0.000000
#
# Coordination Sequence:
#
# PCOD8139804 Si02
#       7
#     8   8   8   8   8   4   8
#     4  10  22  40  59  86 124 162 200 249 303 365
#     4  10  22  39  61  89 126 160 200 260 298 362
#     4  10  21  38  63  89 121 159 202 252 301 364
#     4  10  21  39  60  91 125 154 202 255 303 353
#     4  10  22  40  60  90 124 159 208 247 302 365
#     4  10  20  40  60  90 122 156 206 248 312 350
#     4  11  22  40  62  90 122 159 208 250 306 367
#
# _framework density 20.314411
#
# number of rings (size 3 to 8) (size 9 to 14) (size 15 to 20)
#    0.000    1.846    1.538    1.846    1.077    3.077 
#    1.385    3.077    0.000    0.000    0.000    0.000 
#    0.000    0.000    0.000    0.000    0.000    0.000 
#
# Total GULP energy -322462.478828 kJ/mol
# GULP energy per Si atom -12402.403032 kJ/mol
# Density = 2.026817 g / cm^3
# Si number density = 20.314411 Si / 1000 Ang^3
#
#
#
# Elastic Constant Matrix: (Units=GPa)
#
#
# Indices 1 2 3 4 5 6 
#
# 1 107.6178 29.4381 43.7371 0.0000 -6.1571 0.0000
# 2 29.4381 76.6583 26.1159 0.0000 -1.1977 0.0000
# 3 43.7371 26.1159 102.9914 0.0000 9.5872 0.0000
# 4 0.0000 0.0000 0.0000 15.9174 0.0000 0.3222
# 5 -6.1571 -1.1977 9.5872 0.0000 40.3126 0.0000
# 6 0.0000 0.0000 0.0000 0.3222 0.0000 23.7973
#
#
#
# Elastic Compliance Matrix: (Units=1/GPa)
#
#
# Indices 1 2 3 4 5 6 
#
# 1 0.012189 -0.003044 -0.004673 0.000000 0.002882 0.000000
# 2 -0.003044 0.015107 -0.002594 0.000000 0.000601 0.000000
# 3 -0.004673 -0.002594 0.012707 0.000000 -0.003813 0.000000
# 4 0.000000 0.000000 0.000000 0.062842 0.000000 -0.000851
# 5 0.002882 0.000601 -0.003813 0.000000 0.026171 0.000000
# 6 0.000000 0.000000 0.000000 -0.000851 0.000000 0.042033
#
#
# Mechanical properties :
#
#
# Convention : Reuss Voigt Hill
#
# Bulk Modulus (GPa) = 51.59635 53.98331 52.78983
# Shear Modulus (GPa) = 25.23608 28.53723 26.88665
#
# Velocity S-wave (km/s) = 3.52842 3.75210 3.64198
# Velocity P-wave (km/s) = 6.48488 6.73815 6.61273
#
# Compressibility (1/GPa) = 0.01938121
#
# Stress axis : x y z
#
# Youngs Moduli (GPa) = 82.04340 66.19503 78.69950
#
# Poissons Ratio (x) = 0.20148 0.36773
# Poissons Ratio (y) = 0.24972 0.20415
# Poissons Ratio (z) = 0.38336 0.17171
#
# Static dielectric constant tensor:
#      x y z
#    x 3.908040 0.000000 0.007930 
#    y 0.000000 3.286130 0.000000 
#    z 0.007930 0.000000 3.764430 
# 
# 
# High freq. dielectric constant tensor:
#      x y z
#    x 1.810720 0.000000 0.003630 
#    y 0.000000 1.766540 0.000000 
#    z 0.003630 0.000000 1.802170 
# 
# From -- ./inp_files/161068.got.cif
#   From: 2010.06.25/outbox.cif.g09.slc.cpg/sg15_81_cif.got.tgz:161068.got - 2010.06.28 07:06:18.
