data_PCOD8139439
_publ_section_title
;
Structure prediction by ZEFSAII (Michael W. Deem and Ramdas Pophale) SiO2 
 PCOD8139439
Probable space group: C 2/C
;
_chemical_formula_sum "Si O2"
_cell_formula_units_Z 64
_cell_length_a 26.655768
_cell_length_b 13.880270
_cell_length_c 9.136100
_cell_angle_alpha 90.000000
_cell_angle_beta 111.083546
_cell_angle_gamma 90.000000
_cell_volume 3153.973773
_symmetry_space_group_name_H-M "C 2/C"
_symmetry_group_IT_number 15
_symmetry_cell_setting 'monoclinic'
loop_
_space_group_symop_operation_xyz
x,y,z
-x,y,1/2-z
-x,-y,-z
x,-y,1/2+z
1/2+x,1/2+y,z
1/2-x,1/2+y,1/2-z
1/2-x,1/2-y,-z
1/2+x,1/2-y,1/2+z
loop_
_atom_site_type_symbol
_atom_site_label
_atom_site_fract_x
_atom_site_fract_y
_atom_site_fract_z
Si Si1 0.245436 0.213912 0.829709
Si Si2 0.686405 0.975359 0.119481
Si Si3 0.280878 0.401481 0.712807
Si Si4 0.477432 0.912032 0.385409
Si Si5 0.156000 0.010115 0.473197
Si Si6 0.873881 0.868039 0.302564
Si Si7 0.114746 0.528068 0.285032
Si Si8 0.037824 0.709814 0.155099
O O1 0.286503 0.128444 0.838568
O O2 0.265786 0.292860 0.735483
O O3 0.183665 0.184588 0.736091
O O4 0.250000 0.250000 0.000000
O O5 0.729001 0.046338 0.090396
O O6 0.670504 0.029081 0.254295
O O7 0.630861 0.971328 0.971170
O O8 0.322615 0.410673 0.621902
O O9 0.298764 0.458381 0.879062
O O10 0.500000 0.917988 0.250000
O O11 0.495238 0.812479 0.480104
O O12 0.500000 0.000000 0.500000
O O13 0.413518 0.927842 0.296378
O O14 0.116336 0.064603 0.544615
O O15 0.125407 0.927837 0.348379
O O16 0.923850 0.796544 0.350274
O O17 0.075463 0.618305 0.224259
O O18 0.000000 0.738457 0.250000
#
# Coordination Sequence:
#
# PCOD8139439 Si02
#       8
#     8   8   8   8   8   8   8   8
#     4  12  22  36  60  91 134 175 225 258 311 393
#     4  12  22  36  59  93 131 177 214 253 314 397
#     4  11  21  39  58  87 134 181 214 266 310 380
#     4  10  20  39  62  88 130 173 208 266 325 380
#     4  10  21  42  62  84 130 172 218 268 332 369
#     4  11  23  42  67  92 124 176 222 274 334 394
#     4  11  22  37  61  94 133 170 207 253 331 399
#     4  11  23  44  69  96 124 168 222 282 338 398
#
# _framework density 20.291861999999998
#
# number of rings (size 3 to 8) (size 9 to 14) (size 15 to 20)
#    0.000    1.000    3.750    6.750    0.000    0.500 
#    4.500    1.875    0.000    0.000    0.000    0.000 
#    0.000    0.000    0.000    0.000    0.000    0.000 
#
# Total GULP energy -396553.765898 kJ/mol
# GULP energy per Si atom -12392.305184 kJ/mol
# Density = 2.024568 g / cm^3
# Si number density = 20.291862 Si / 1000 Ang^3
#
#
#
# Elastic Constant Matrix: (Units=GPa)
#
#
# Indices 1 2 3 4 5 6 
#
# 1 94.4817 58.6350 40.0907 0.0000 -1.0343 0.0000
# 2 58.6350 106.0920 49.6400 0.0000 12.4780 0.0000
# 3 40.0907 49.6400 96.3310 0.0000 -14.0598 0.0000
# 4 0.0000 0.0000 0.0000 15.7267 0.0000 3.1046
# 5 -1.0343 12.4780 -14.0598 0.0000 29.5260 0.0000
# 6 0.0000 0.0000 0.0000 3.1046 0.0000 47.1477
#
#
#
# Elastic Compliance Matrix: (Units=1/GPa)
#
#
# Indices 1 2 3 4 5 6 
#
# 1 0.016950 -0.008818 -0.002020 0.000000 0.003358 0.000000
# 2 -0.008818 0.019658 -0.008294 0.000000 -0.012566 0.000000
# 3 -0.002020 -0.008294 0.017192 0.000000 0.011621 0.000000
# 4 0.000000 0.000000 0.000000 0.064423 0.000000 -0.004242
# 5 0.003358 -0.012566 0.011621 0.000000 0.044830 0.000000
# 6 0.000000 0.000000 0.000000 -0.004242 0.000000 0.021489
#
#
# Mechanical properties :
#
#
# Convention : Reuss Voigt Hill
#
# Bulk Modulus (GPa) = 64.36850 65.95959 65.16404
# Shear Modulus (GPa) = 21.93114 28.38270 25.15692
#
# Velocity S-wave (km/s) = 3.29110 3.74401 3.52483
# Velocity P-wave (km/s) = 6.79941 7.16004 6.98205
#
# Compressibility (1/GPa) = 0.01553555
#
# Stress axis : x y z
#
# Youngs Moduli (GPa) = 58.99563 50.86995 58.16712
#
# Poissons Ratio (x) = 0.44856 0.11752
# Poissons Ratio (y) = 0.52021 0.48245
# Poissons Ratio (z) = 0.11919 0.42192
#
# Static dielectric constant tensor:
#      x y z
#    x 3.625670 0.000000 0.000450 
#    y 0.000000 3.762350 0.000000 
#    z 0.000450 0.000000 3.970100 
# 
# 
# High freq. dielectric constant tensor:
#      x y z
#    x 1.785660 0.000000 -0.011830 
#    y 0.000000 1.776950 0.000000 
#    z -0.011830 0.000000 1.805400 
# 
# From -- ./inp_files/66261.got.cif
#   From: 2010.06.25/outbox.cif.g09.slc.cpg/sg15_34_cif.got.tgz:66261.got - 2010.06.28 07:06:18.
