data_PCOD8139612
_publ_section_title
;
Structure prediction by ZEFSAII (Michael W. Deem and Ramdas Pophale) SiO2 
 PCOD8139612
Probable space group: C 2/C
;
_chemical_formula_sum "Si O2"
_cell_formula_units_Z 60
_cell_length_a 25.083579
_cell_length_b 17.642749
_cell_length_c 11.343328
_cell_angle_alpha 90.000000
_cell_angle_beta 33.109465
_cell_angle_gamma 90.000000
_cell_volume 2742.079356
_symmetry_space_group_name_H-M "C 2/C"
_symmetry_group_IT_number 15
_symmetry_cell_setting 'monoclinic'
loop_
_space_group_symop_operation_xyz
x,y,z
-x,y,1/2-z
-x,-y,-z
x,-y,1/2+z
1/2+x,1/2+y,z
1/2-x,1/2+y,1/2-z
1/2-x,1/2-y,-z
1/2+x,1/2-y,1/2+z
loop_
_atom_site_type_symbol
_atom_site_label
_atom_site_fract_x
_atom_site_fract_y
_atom_site_fract_z
Si Si1 0.898813 0.526097 0.628040
Si Si2 0.389381 0.453672 0.974874
Si Si3 0.500000 0.106851 0.250000
Si Si4 0.706062 0.715819 0.262629
Si Si5 0.258336 0.417269 0.653667
Si Si6 0.667346 0.652396 0.710453
Si Si7 0.229005 0.136678 0.984642
Si Si8 0.377176 0.778637 0.867324
O O1 0.840882 0.449363 0.715427
O O2 0.831397 0.590162 0.818972
O O3 0.000000 0.500000 0.500000
O O4 0.916274 0.556633 0.463504
O O5 0.500000 0.479945 0.750000
O O6 0.319410 0.526465 0.127635
O O7 0.386108 0.393551 0.087617
O O8 0.349983 0.418048 0.926635
O O9 0.542580 0.155569 0.280352
O O10 0.772439 0.659448 0.220115
O O11 0.758146 0.793234 0.128845
O O12 0.614969 0.735932 0.518275
O O13 0.679347 0.668108 0.195622
O O14 0.325049 0.401453 0.416671
O O15 0.604306 0.725004 0.780285
O O16 0.770542 0.683565 0.563287
#
# Coordination Sequence:
#
# PCOD8139612 Si02
#       8
#     8   8   4   8   8   8   8   8
#     4  11  24  39  63  97 128 168 201 263 322 376
#     4  11  24  42  62  93 124 164 206 263 316 371
#     4  12  22  38  60  96 132 150 212 258 312 378
#     4  10  20  42  65  89 122 169 210 250 317 370
#     4  10  24  41  67  89 125 171 208 258 316 376
#     4  10  21  42  65  85 121 163 210 256 308 378
#     4  10  22  42  64  90 129 165 204 263 316 373
#     4  10  20  39  65  91 119 164 207 256 310 373
#
# _framework density 21.881204
#
# number of rings (size 3 to 8) (size 9 to 14) (size 15 to 20)
#    0.000    1.600    2.667    1.600    5.600    1.600 
#    4.800    0.000    0.000    0.000    0.000    0.000 
#    0.000    0.000    0.000    0.000    0.000    0.000 
#
# Total GULP energy -371681.539950 kJ/mol
# GULP energy per Si atom -12389.384665 kJ/mol
# Density = 2.183140 g / cm^3
# Si number density = 21.881204 Si / 1000 Ang^3
#
#
#
# Elastic Constant Matrix: (Units=GPa)
#
#
# Indices 1 2 3 4 5 6 
#
# 1 80.4940 32.8587 22.7884 0.0000 -3.7901 0.0000
# 2 32.8587 101.1652 14.4047 0.0000 -10.1649 0.0000
# 3 22.7884 14.4047 48.0682 0.0000 -3.5526 0.0000
# 4 0.0000 0.0000 0.0000 18.7127 0.0000 7.7020
# 5 -3.7901 -10.1649 -3.5526 0.0000 37.5773 0.0000
# 6 0.0000 0.0000 0.0000 7.7020 0.0000 38.0948
#
#
#
# Elastic Compliance Matrix: (Units=1/GPa)
#
#
# Indices 1 2 3 4 5 6 
#
# 1 0.015951 -0.004301 -0.006284 0.000000 -0.000149 0.000000
# 2 -0.004301 0.011727 -0.001282 0.000000 0.002617 0.000000
# 3 -0.006284 -0.001282 0.024264 0.000000 0.001313 0.000000
# 4 0.000000 0.000000 0.000000 0.058290 0.000000 -0.011785
# 5 -0.000149 0.002617 0.001313 0.000000 0.027429 0.000000
# 6 0.000000 0.000000 0.000000 -0.011785 0.000000 0.028633
#
#
# Mechanical properties :
#
#
# Convention : Reuss Voigt Hill
#
# Bulk Modulus (GPa) = 35.45050 41.09233 38.27141
# Shear Modulus (GPa) = 25.07114 29.52199 27.29657
#
# Velocity S-wave (km/s) = 3.38862 3.67712 3.53581
# Velocity P-wave (km/s) = 5.61665 6.07032 5.84789
#
# Compressibility (1/GPa) = 0.02820834
#
# Stress axis : x y z
#
# Youngs Moduli (GPa) = 62.69126 85.27086 41.21284
#
# Poissons Ratio (x) = 0.36676 0.25899
# Poissons Ratio (y) = 0.26964 0.05283
# Poissons Ratio (z) = 0.39397 0.10930
#
# Static dielectric constant tensor:
#      x y z
#    x 3.963710 0.000000 0.215460 
#    y 0.000000 4.364620 0.000000 
#    z 0.215460 0.000000 3.640170 
# 
# 
# High freq. dielectric constant tensor:
#      x y z
#    x 1.857790 0.000000 0.015700 
#    y 0.000000 1.883610 0.000000 
#    z 0.015700 0.000000 1.826450 
# 
# From -- ./inp_files/123970.got.cif
#   From: 2010.06.25/outbox.cif.g09.slc.cpg/sg15_62_cif.got.tgz:123970.got - 2010.06.28 07:06:18.
