data_PCOD8139851
_publ_section_title
;
Structure prediction by ZEFSAII (Michael W. Deem and Ramdas Pophale) SiO2 
 PCOD8139851
Probable space group: C 2/C
;
_chemical_formula_sum "Si O2"
_cell_formula_units_Z 52
_cell_length_a 6.587392
_cell_length_b 29.905283
_cell_length_c 14.147850
_cell_angle_alpha 90.000000
_cell_angle_beta 114.661882
_cell_angle_gamma 90.000000
_cell_volume 2532.873430
_symmetry_space_group_name_H-M "C 2/C"
_symmetry_group_IT_number 15
_symmetry_cell_setting 'monoclinic'
loop_
_space_group_symop_operation_xyz
x,y,z
-x,y,1/2-z
-x,-y,-z
x,-y,1/2+z
1/2+x,1/2+y,z
1/2-x,1/2+y,1/2-z
1/2-x,1/2-y,-z
1/2+x,1/2-y,1/2+z
loop_
_atom_site_type_symbol
_atom_site_label
_atom_site_fract_x
_atom_site_fract_y
_atom_site_fract_z
Si Si1 0.727657 0.231648 0.345903
Si Si2 0.933297 0.107455 0.955050
Si Si3 0.237586 0.180435 0.952017
Si Si4 0.170423 0.371952 0.580016
Si Si5 0.561257 0.037182 0.865686
Si Si6 0.143202 0.551957 0.487054
Si Si7 0.000000 0.814796 0.750000
O O1 0.500000 0.217958 0.250000
O O2 0.752216 0.205797 0.447535
O O3 0.729014 0.284997 0.363853
O O4 0.941204 0.218082 0.324800
O O5 0.726599 0.078678 0.874859
O O6 0.015326 0.148788 0.904792
O O7 0.873460 0.125839 0.046194
O O8 0.141333 0.075524 0.011178
O O9 0.463125 0.151916 0.987946
O O10 0.278851 0.345039 0.688209
O O11 0.080660 0.421438 0.592629
O O12 0.500000 0.018955 0.750000
O O13 0.666686 0.997305 0.947898
O O14 0.359901 0.052541 0.897121
#
# Coordination Sequence:
#
# PCOD8139851 Si02
#       7
#     8   8   8   8   8   8   4
#     4  11  23  40  61  89 119 158 211 257 311 375
#     4  10  20  40  62  84 120 166 200 249 317 369
#     4  10  22  41  62  83 123 164 200 258 313 367
#     4  10  21  37  61  90 120 157 205 256 318 371
#     4  10  21  39  62  91 124 162 206 255 303 377
#     4   9  21  40  61  90 125 161 204 253 312 372
#     4  12  22  36  62  92 122 158 214 266 310 382
#
# _framework density 20.530042999999999
#
# number of rings (size 3 to 8) (size 9 to 14) (size 15 to 20)
#    0.000    1.846    3.077    0.462    0.000    3.692 
#    8.308    0.000    0.000    0.000    0.000    0.000 
#    0.000    0.000    0.000    0.000    0.000    0.000 
#
# Total GULP energy -322186.449887 kJ/mol
# GULP energy per Si atom -12391.786534 kJ/mol
# Density = 2.048332 g / cm^3
# Si number density = 20.530043 Si / 1000 Ang^3
#
#
#
# Elastic Constant Matrix: (Units=GPa)
#
#
# Indices 1 2 3 4 5 6 
#
# 1 104.8836 35.1128 27.4759 0.0000 -13.3513 0.0000
# 2 35.1128 104.5215 23.0935 0.0000 -12.9095 0.0000
# 3 27.4759 23.0935 73.7067 0.0000 -15.6407 0.0000
# 4 0.0000 0.0000 0.0000 3.4852 0.0000 7.3193
# 5 -13.3513 -12.9095 -15.6407 0.0000 22.7266 0.0000
# 6 0.0000 0.0000 0.0000 7.3193 0.0000 29.5488
#
#
#
# Elastic Compliance Matrix: (Units=1/GPa)
#
#
# Indices 1 2 3 4 5 6 
#
# 1 0.011641 -0.002899 -0.002728 0.000000 0.003315 0.000000
# 2 -0.002899 0.011362 -0.001723 0.000000 0.003566 0.000000
# 3 -0.002728 -0.001723 0.017069 0.000000 0.009166 0.000000
# 4 0.000000 0.000000 0.000000 0.598036 0.000000 -0.148135
# 5 0.003315 0.003566 0.009166 0.000000 0.054282 0.000000
# 6 0.000000 0.000000 0.000000 -0.148135 0.000000 0.070536
#
#
# Mechanical properties :
#
#
# Convention : Reuss Voigt Hill
#
# Bulk Modulus (GPa) = 39.41061 50.49734 44.95397
# Shear Modulus (GPa) = 6.36064 24.31409 15.33737
#
# Velocity S-wave (km/s) = 1.76208 3.44512 2.73622
# Velocity P-wave (km/s) = 4.83510 6.36203 5.65038
#
# Compressibility (1/GPa) = 0.02537388
#
# Stress axis : x y z
#
# Youngs Moduli (GPa) = 85.90026 88.01111 58.58574
#
# Poissons Ratio (x) = 0.25511 0.15982
# Poissons Ratio (y) = 0.24899 0.10093
# Poissons Ratio (z) = 0.23433 0.15163
#
# Static dielectric constant tensor:
#      x y z
#    x 3.867350 0.000000 -0.140070 
#    y 0.000000 4.124670 0.000000 
#    z -0.140070 0.000000 3.378090 
# 
# 
# High freq. dielectric constant tensor:
#      x y z
#    x 1.812120 0.000000 -0.013450 
#    y 0.000000 1.820930 0.000000 
#    z -0.013450 0.000000 1.765140 
# 
# From -- ./inp_files/130843.got.cif
#   From: 2010.06.25/outbox.cif.g09.slc.cpg/sg15_66_cif.got.tgz:130843.got - 2010.06.28 07:06:18.
