data_PCOD8139137
_publ_section_title
;
Structure prediction by ZEFSAII (Michael W. Deem and Ramdas Pophale) SiO2 
 PCOD8139137
Probable space group: C 2/C
;
_chemical_formula_sum "Si O2"
_cell_formula_units_Z 60
_cell_length_a 28.694904
_cell_length_b 20.797229
_cell_length_c 9.229401
_cell_angle_alpha 90.000000
_cell_angle_beta 29.046405
_cell_angle_gamma 90.000000
_cell_volume 2674.169628
_symmetry_space_group_name_H-M "C 2/C"
_symmetry_group_IT_number 15
_symmetry_cell_setting 'monoclinic'
loop_
_space_group_symop_operation_xyz
x,y,z
-x,y,1/2-z
-x,-y,-z
x,-y,1/2+z
1/2+x,1/2+y,z
1/2-x,1/2+y,1/2-z
1/2-x,1/2-y,-z
1/2+x,1/2-y,1/2+z
loop_
_atom_site_type_symbol
_atom_site_label
_atom_site_fract_x
_atom_site_fract_y
_atom_site_fract_z
Si Si1 0.392321 0.318112 0.879020
Si Si2 0.734018 0.874993 0.121943
Si Si3 0.167811 0.934249 0.903526
Si Si4 0.089345 0.874481 0.371279
Si Si5 0.151605 0.517156 0.024570
Si Si6 0.000000 0.991155 0.750000
Si Si7 0.068197 0.700081 0.933028
Si Si8 0.501035 0.092784 0.590357
O O1 0.486135 0.358709 0.580549
O O2 0.408032 0.249617 0.760136
O O3 0.291897 0.348581 0.102182
O O4 0.384880 0.320253 0.076801
O O5 0.668053 0.935800 0.343035
O O6 0.668474 0.819788 0.231540
O O7 0.815482 0.894751 0.787271
O O8 0.246803 0.989573 0.702216
O O9 0.170597 0.881334 0.026737
O O10 0.061063 0.964655 0.194142
O O11 0.081318 0.946527 0.456695
O O12 0.082013 0.459964 0.168903
O O13 0.103350 0.558543 0.284808
O O14 0.017185 0.640175 0.993784
O O15 0.000000 0.725895 0.250000
O O16 0.500000 0.128452 0.750000
#
# Coordination Sequence:
#
# PCOD8139137 Si02
#       8
#     8   8   8   8   8   4   8   8
#     4  10  25  46  70  91 138 179 232 287 334 392
#     4  12  24  43  67 104 134 180 229 275 340 417
#     4  12  22  38  69 103 140 177 220 274 353 412
#     4  10  23  44  67 101 137 176 230 277 342 412
#     4  11  23  42  69 103 149 172 220 286 343 427
#     4  10  20  38  66 102 142 180 216 270 352 426
#     4  12  26  49  69  96 134 181 240 282 339 409
#     4  11  25  42  71 101 136 184 226 285 353 401
#
# _framework density 22.436872000000001
#
# number of rings (size 3 to 8) (size 9 to 14) (size 15 to 20)
#    0.000    1.067    2.667    4.800    5.600    1.067 
#    0.000    0.667    0.000    0.000    0.000    0.000 
#    0.000    0.000    0.000    0.000    0.000    0.000 
#
# Total GULP energy -371848.142007 kJ/mol
# GULP energy per Si atom -12394.938067 kJ/mol
# Density = 2.238580 g / cm^3
# Si number density = 22.436872 Si / 1000 Ang^3
#
#
#
# Elastic Constant Matrix: (Units=GPa)
#
#
# Indices 1 2 3 4 5 6 
#
# 1 122.7779 41.2602 53.6572 0.0000 -5.0118 0.0000
# 2 41.2602 86.2113 41.1045 0.0000 -0.2006 0.0000
# 3 53.6572 41.1045 96.6997 0.0000 10.4524 0.0000
# 4 0.0000 0.0000 0.0000 22.2762 0.0000 11.0288
# 5 -5.0118 -0.2006 10.4524 0.0000 39.8221 0.0000
# 6 0.0000 0.0000 0.0000 11.0288 0.0000 38.7726
#
#
#
# Elastic Compliance Matrix: (Units=1/GPa)
#
#
# Indices 1 2 3 4 5 6 
#
# 1 0.011673 -0.002937 -0.005543 0.000000 0.002909 0.000000
# 2 -0.002937 0.015406 -0.005030 0.000000 0.001028 0.000000
# 3 -0.005543 -0.005030 0.016090 0.000000 -0.004946 0.000000
# 4 0.000000 0.000000 0.000000 0.052249 0.000000 -0.014862
# 5 0.002909 0.001028 -0.004946 0.000000 0.026781 0.000000
# 6 0.000000 0.000000 0.000000 -0.014862 0.000000 0.030019
#
#
# Mechanical properties :
#
#
# Convention : Reuss Voigt Hill
#
# Bulk Modulus (GPa) = 61.92631 64.19252 63.05942
# Shear Modulus (GPa) = 27.08249 31.48532 29.28390
#
# Velocity S-wave (km/s) = 3.47804 3.75011 3.61663
# Velocity P-wave (km/s) = 6.61734 6.88647 6.75324
#
# Compressibility (1/GPa) = 0.01614822
#
# Stress axis : x y z
#
# Youngs Moduli (GPa) = 85.66714 64.91128 62.15055
#
# Poissons Ratio (x) = 0.19064 0.34452
# Poissons Ratio (y) = 0.25160 0.31262
# Poissons Ratio (z) = 0.47488 0.32650
#
# Static dielectric constant tensor:
#      x y z
#    x 4.072130 0.000000 0.134560 
#    y 0.000000 3.870510 0.000000 
#    z 0.134560 0.000000 4.093190 
# 
# 
# High freq. dielectric constant tensor:
#      x y z
#    x 1.890340 0.000000 0.003390 
#    y 0.000000 1.864420 0.000000 
#    z 0.003390 0.000000 1.889300 
# 
# From -- ./inp_files/70950.got.cif
#   From: 2010.06.25/outbox.cif.g09.slc.cpg/sg15_36_cif.got.tgz:70950.got - 2010.06.28 07:06:18.
