data_PCOD8139286
_publ_section_title
;
Structure prediction by ZEFSAII (Michael W. Deem and Ramdas Pophale) SiO2 
 PCOD8139286
Probable space group: C 2/C
;
_chemical_formula_sum "Si O2"
_cell_formula_units_Z 56
_cell_length_a 14.722811
_cell_length_b 24.735414
_cell_length_c 14.984418
_cell_angle_alpha 90.000000
_cell_angle_beta 149.855633
_cell_angle_gamma 90.000000
_cell_volume 2740.372871
_symmetry_space_group_name_H-M "C 2/C"
_symmetry_group_IT_number 15
_symmetry_cell_setting 'monoclinic'
loop_
_space_group_symop_operation_xyz
x,y,z
-x,y,1/2-z
-x,-y,-z
x,-y,1/2+z
1/2+x,1/2+y,z
1/2-x,1/2+y,1/2-z
1/2-x,1/2-y,-z
1/2+x,1/2-y,1/2+z
loop_
_atom_site_type_symbol
_atom_site_label
_atom_site_fract_x
_atom_site_fract_y
_atom_site_fract_z
Si Si1 0.655011 0.074762 0.181495
Si Si2 0.196854 0.518217 0.570284
Si Si3 0.000000 0.535910 0.750000
Si Si4 0.287797 0.823602 0.882730
Si Si5 0.209516 0.104543 0.588274
Si Si6 0.116746 0.713353 0.762153
Si Si7 0.000000 0.119590 0.250000
Si Si8 0.998101 0.052220 0.938352
O O1 0.702611 0.135569 0.191810
O O2 0.788545 0.067683 0.381880
O O3 0.688411 0.032128 0.130620
O O4 0.448738 0.065851 0.035282
O O5 0.154070 0.498219 0.433346
O O6 0.399693 0.543405 0.758194
O O7 0.898980 0.572450 0.738530
O O8 0.204720 0.765066 0.788750
O O9 0.172964 0.846013 0.867476
O O10 0.493157 0.816743 0.086196
O O11 0.229005 0.168903 0.585644
O O12 0.067825 0.083498 0.391658
O O13 0.125737 0.096002 0.614356
O O14 0.000000 0.730486 0.750000
O O15 0.000000 0.000000 0.000000
#
# Coordination Sequence:
#
# PCOD8139286 Si02
#       8
#     8   8   4   8   8   8   4   8
#     4  10  20  39  55  75 109 148 188 229 278 329
#     4  10  21  38  55  79 106 142 190 233 283 334
#     4  12  22  35  56  80 110 146 187 236 278 332
#     4  12  22  34  50  73 108 148 186 230 264 312
#     4  12  22  34  53  75 108 153 186 227 274 320
#     4  12  22  34  47  72 109 148 191 225 263 312
#     4  12  20  31  48  74 102 142 193 222 252 312
#     4  10  21  35  56  76 104 148 187 233 281 330
#
# _framework density 20.435175000000001
#
# number of rings (size 3 to 8) (size 9 to 14) (size 15 to 20)
#    0.000    0.857    4.286    6.429    2.000    0.000 
#    0.000    0.000    0.000    0.000    0.000    0.000 
#    0.000    4.571    0.000    0.143    0.000    0.000 
#
# Total GULP energy -346869.531339 kJ/mol
# GULP energy per Si atom -12388.197548 kJ/mol
# Density = 2.038866 g / cm^3
# Si number density = 20.435175 Si / 1000 Ang^3
#
#
#
# Elastic Constant Matrix: (Units=GPa)
#
#
# Indices 1 2 3 4 5 6 
#
# 1 20.8126 24.8778 8.2347 0.0000 0.9128 0.0000
# 2 24.8778 99.7694 32.9260 0.0000 0.6766 0.0000
# 3 8.2347 32.9260 153.5500 0.0000 -10.0317 0.0000
# 4 0.0000 0.0000 0.0000 22.6800 0.0000 5.5345
# 5 0.9128 0.6766 -10.0317 0.0000 22.8521 0.0000
# 6 0.0000 0.0000 0.0000 5.5345 0.0000 23.9838
#
#
#
# Elastic Compliance Matrix: (Units=1/GPa)
#
#
# Indices 1 2 3 4 5 6 
#
# 1 0.068568 -0.017023 -0.000178 0.000000 -0.002313 0.000000
# 2 -0.017023 0.015055 -0.002368 0.000000 -0.000805 0.000000
# 3 -0.000178 -0.002368 0.007243 0.000000 0.003257 0.000000
# 4 0.000000 0.000000 0.000000 0.046723 0.000000 -0.010782
# 5 -0.002313 -0.000805 0.003257 0.000000 0.045306 0.000000
# 6 0.000000 0.000000 0.000000 -0.010782 0.000000 0.044183
#
#
# Mechanical properties :
#
#
# Convention : Reuss Voigt Hill
#
# Bulk Modulus (GPa) = 19.33225 45.13434 32.23330
# Shear Modulus (GPa) = 17.63939 27.77608 22.70773
#
# Velocity S-wave (km/s) = 2.94119 3.69077 3.33710
# Velocity P-wave (km/s) = 4.58421 6.34799 5.53678
#
# Compressibility (1/GPa) = 0.05172703
#
# Stress axis : x y z
#
# Youngs Moduli (GPa) = 14.58412 66.42405 138.07199
#
# Poissons Ratio (x) = 1.13074 0.02458
# Poissons Ratio (y) = 0.24827 0.32694
# Poissons Ratio (z) = 0.00260 0.15729
#
# Static dielectric constant tensor:
#      x y z
#    x 3.141500 0.000000 0.109180 
#    y 0.000000 3.548740 0.000000 
#    z 0.109180 0.000000 4.380560 
# 
# 
# High freq. dielectric constant tensor:
#      x y z
#    x 1.729800 0.000000 0.016860 
#    y 0.000000 1.775460 0.000000 
#    z 0.016860 0.000000 1.836280 
# 
# From -- ./inp_files/157258.got.cif
#   From: 2010.06.25/outbox.cif.g09.slc.cpg/sg15_79_cif.got.tgz:157258.got - 2010.06.28 07:06:18.
