data_PCOD8139896
_publ_section_title
;
Structure prediction by ZEFSAII (Michael W. Deem and Ramdas Pophale) SiO2 
 PCOD8139896
Probable space group: C 2/C
;
_chemical_formula_sum "Si O2"
_cell_formula_units_Z 56
_cell_length_a 13.947299
_cell_length_b 21.909466
_cell_length_c 8.668537
_cell_angle_alpha 90.000000
_cell_angle_beta 71.872440
_cell_angle_gamma 90.000000
_cell_volume 2517.437431
_symmetry_space_group_name_H-M "C 2/C"
_symmetry_group_IT_number 15
_symmetry_cell_setting 'monoclinic'
loop_
_space_group_symop_operation_xyz
x,y,z
-x,y,1/2-z
-x,-y,-z
x,-y,1/2+z
1/2+x,1/2+y,z
1/2-x,1/2+y,1/2-z
1/2-x,1/2-y,-z
1/2+x,1/2-y,1/2+z
loop_
_atom_site_type_symbol
_atom_site_label
_atom_site_fract_x
_atom_site_fract_y
_atom_site_fract_z
Si Si1 0.242122 0.592171 0.183749
Si Si2 0.719318 0.149803 0.867073
Si Si3 0.337691 0.729634 0.572224
Si Si4 0.421086 0.945631 0.520017
Si Si5 0.499452 0.819002 0.079349
Si Si6 0.107592 0.119392 0.138650
Si Si7 0.244233 0.958746 0.379855
O O1 0.125597 0.580513 0.295073
O O2 0.307695 0.631205 0.272266
O O3 0.291030 0.524561 0.162191
O O4 0.253096 0.629603 0.020113
O O5 0.794504 0.199646 0.751783
O O6 0.611857 0.184001 0.937425
O O7 0.712840 0.087876 0.769924
O O8 0.250000 0.750000 0.500000
O O9 0.415259 0.785325 0.569033
O O10 0.406770 0.681056 0.449419
O O11 0.473749 0.889619 0.410494
O O12 0.330765 0.971316 0.461972
O O13 0.500000 0.000000 0.500000
O O14 0.500000 0.789203 0.250000
O O15 0.000000 0.097172 0.250000
O O16 0.144165 0.067527 0.004713
#
# Coordination Sequence:
#
# PCOD8139896 Si02
#       7
#     8   8   8   8   8   8   8
#     4  11  23  41  64  99 140 168 215 290 343 391
#     4  11  23  39  67  99 136 173 224 287 335 404
#     4  11  22  42  68  89 123 175 235 274 319 411
#     4  11  23  38  64 100 140 174 218 267 344 429
#     4  12  21  39  68  95 122 182 229 257 336 411
#     4  10  23  42  67  91 124 176 229 272 333 402
#     4  10  20  40  62  97 135 180 217 265 342 414
#
# _framework density 22.244842999999999
#
# number of rings (size 3 to 8) (size 9 to 14) (size 15 to 20)
#    0.000    1.143    2.857    5.571    0.000    2.286 
#    0.000    6.429    9.429    0.000    0.000    0.000 
#    0.000    0.000    0.000    0.000    0.000    0.000 
#
# Total GULP energy -347087.124356 kJ/mol
# GULP energy per Si atom -12395.968727 kJ/mol
# Density = 2.219421 g / cm^3
# Si number density = 22.244843 Si / 1000 Ang^3
#
#
#
# Elastic Constant Matrix: (Units=GPa)
#
#
# Indices 1 2 3 4 5 6 
#
# 1 80.6487 34.2484 38.1015 0.0000 -27.7654 0.0000
# 2 34.2484 93.8164 33.1711 0.0000 -13.1675 0.0000
# 3 38.1015 33.1711 122.2085 0.0000 -12.7332 0.0000
# 4 0.0000 0.0000 0.0000 35.9807 0.0000 -4.1775
# 5 -27.7654 -13.1675 -12.7332 0.0000 37.0056 0.0000
# 6 0.0000 0.0000 0.0000 -4.1775 0.0000 27.3353
#
#
#
# Elastic Compliance Matrix: (Units=1/GPa)
#
#
# Indices 1 2 3 4 5 6 
#
# 1 0.020324 -0.004311 -0.003876 0.000000 0.012381 0.000000
# 2 -0.004311 0.013084 -0.002136 0.000000 0.000686 0.000000
# 3 -0.003876 -0.002136 0.009945 0.000000 -0.000246 0.000000
# 4 0.000000 0.000000 0.000000 0.028295 0.000000 0.004324
# 5 0.012381 0.000686 -0.000246 0.000000 0.036472 0.000000
# 6 0.000000 0.000000 0.000000 0.004324 0.000000 0.037244
#
#
# Mechanical properties :
#
#
# Convention : Reuss Voigt Hill
#
# Bulk Modulus (GPa) = 44.03888 56.41286 50.22587
# Shear Modulus (GPa) = 28.80511 32.80783 30.80647
#
# Velocity S-wave (km/s) = 3.60239 3.84455 3.72544
# Velocity P-wave (km/s) = 6.09453 6.71732 6.41349
#
# Compressibility (1/GPa) = 0.02270721
#
# Stress axis : x y z
#
# Youngs Moduli (GPa) = 49.20242 76.42667 100.54928
#
# Poissons Ratio (x) = 0.32949 0.38976
# Poissons Ratio (y) = 0.21212 0.21477
# Poissons Ratio (z) = 0.19073 0.16324
#
# Static dielectric constant tensor:
#      x y z
#    x 3.623260 0.000000 -0.148670 
#    y 0.000000 4.125170 0.000000 
#    z -0.148670 0.000000 4.203220 
# 
# 
# High freq. dielectric constant tensor:
#      x y z
#    x 1.845790 0.000000 -0.016500 
#    y 0.000000 1.885130 0.000000 
#    z -0.016500 0.000000 1.884910 
# 
# From -- ./inp_files/42532.got.cif
#   From: 2010.06.25/outbox.cif.g09.slc.cpg/sg15_22_cif.got.tgz:42532.got - 2010.06.28 07:06:18.
