data_PCOD8139971
_publ_section_title
;
Structure prediction by ZEFSAII (Michael W. Deem and Ramdas Pophale) SiO2 
 PCOD8139971
Probable space group: C 2/C
;
_chemical_formula_sum "Si O2"
_cell_formula_units_Z 48
_cell_length_a 13.958224
_cell_length_b 12.239752
_cell_length_c 27.629008
_cell_angle_alpha 90.000000
_cell_angle_beta 28.898302
_cell_angle_gamma 90.000000
_cell_volume 2281.107343
_symmetry_space_group_name_H-M "C 2/C"
_symmetry_group_IT_number 15
_symmetry_cell_setting 'monoclinic'
loop_
_space_group_symop_operation_xyz
x,y,z
-x,y,1/2-z
-x,-y,-z
x,-y,1/2+z
1/2+x,1/2+y,z
1/2-x,1/2+y,1/2-z
1/2-x,1/2-y,-z
1/2+x,1/2-y,1/2+z
loop_
_atom_site_type_symbol
_atom_site_label
_atom_site_fract_x
_atom_site_fract_y
_atom_site_fract_z
Si Si1 0.620866 0.164366 0.430855
Si Si2 0.869790 0.827781 0.482566
Si Si3 0.500000 0.795607 0.250000
Si Si4 0.269889 0.076865 0.768702
Si Si5 0.864892 0.561631 0.619015
Si Si6 0.500000 0.320143 0.250000
Si Si7 0.001087 0.389315 0.696388
O O1 0.466720 0.256901 0.482329
O O2 0.832692 0.217830 0.345916
O O3 0.563305 0.112860 0.508213
O O4 0.627238 0.070134 0.386660
O O5 0.750000 0.750000 0.500000
O O6 0.711304 0.911986 0.576400
O O7 0.038914 0.897756 0.380199
O O8 0.586050 0.864405 0.256824
O O9 0.329890 0.109726 0.687828
O O10 0.316486 0.946188 0.750618
O O11 0.688720 0.602031 0.661590
O O12 0.524265 0.242309 0.287063
O O13 0.000000 0.444508 0.750000
#
# Coordination Sequence:
#
# PCOD8139971 Si02
#       7
#     8   8   4   8   8   4   8
#     4  10  22  41  65  90 132 166 215 264 320 377
#     4  11  22  40  68  94 127 170 213 264 322 383
#     4  10  22  46  60  90 132 164 206 272 318 378
#     4  11  24  41  65  95 128 166 217 265 318 383
#     4  11  22  39  65  93 124 170 216 263 319 381
#     4  10  20  40  64  90 130 162 216 264 316 384
#     4  10  21  41  62  90 129 162 213 259 321 371
#
# _framework density 21.042411999999999
#
# number of rings (size 3 to 8) (size 9 to 14) (size 15 to 20)
#    0.500    1.000    2.500    2.500    0.000    2.667 
#    6.000    0.000    0.000    0.000    0.000    0.000 
#    0.000    0.000    0.000    0.000    0.000    0.000 
#
# Total GULP energy -297439.747615 kJ/mol
# GULP energy per Si atom -12393.322817 kJ/mol
# Density = 2.099452 g / cm^3
# Si number density = 21.042412 Si / 1000 Ang^3
#
#
#
# Elastic Constant Matrix: (Units=GPa)
#
#
# Indices 1 2 3 4 5 6 
#
# 1 74.7425 26.3172 59.8513 -0.0008 5.9163 -0.0004
# 2 26.3172 80.2131 52.0346 -0.0010 -5.3674 0.0000
# 3 59.8513 52.0346 166.1523 -0.0045 6.9474 0.0009
# 4 -0.0008 -0.0010 -0.0045 34.6588 0.0002 -9.3157
# 5 5.9163 -5.3674 6.9474 0.0002 40.3997 0.0005
# 6 -0.0004 0.0000 0.0009 -9.3157 0.0005 27.4950
#
#
#
# Elastic Compliance Matrix: (Units=1/GPa)
#
#
# Indices 1 2 3 4 5 6 
#
# 1 0.019300 -0.002537 -0.006069 0.000000 -0.002120 0.000000
# 2 -0.002537 0.016334 -0.004339 0.000000 0.003288 0.000000
# 3 -0.006069 -0.004339 0.009620 0.000001 -0.001342 0.000000
# 4 0.000000 0.000000 0.000001 0.031743 0.000000 0.010755
# 5 -0.002120 0.003288 -0.001342 0.000000 0.025731 -0.000001
# 6 0.000000 0.000000 0.000000 0.010755 -0.000001 0.040014
#
#
# Mechanical properties :
#
#
# Convention : Reuss Voigt Hill
#
# Bulk Modulus (GPa) = 51.64303 66.39045 59.01674
# Shear Modulus (GPa) = 28.55720 32.70437 30.63078
#
# Velocity S-wave (km/s) = 3.68792 3.94663 3.81946
# Velocity P-wave (km/s) = 6.53681 7.23789 6.89627
#
# Compressibility (1/GPa) = 0.01936370
#
# Stress axis : x y z
#
# Youngs Moduli (GPa) = 51.81247 61.22257 103.95258
#
# Poissons Ratio (x) = 0.15532 0.63091
# Poissons Ratio (y) = 0.13145 0.45104
# Poissons Ratio (z) = 0.31446 0.26564
#
# Static dielectric constant tensor:
#      x y z
#    x 3.581680 0.000000 -0.027650 
#    y 0.000000 3.791260 0.000020 
#    z -0.027650 0.000020 4.101970 
# 
# 
# High freq. dielectric constant tensor:
#      x y z
#    x 1.808890 0.000000 0.005250 
#    y 0.000000 1.819460 0.000000 
#    z 0.005250 0.000000 1.836880 
# 
# From -- ./inp_files/313553.got.cif
#   From: 2010.06.25/outbox.cif.g09.slc.cpg/sg15_157_cif.got.tgz:313553.got - 2010.06.28 07:06:18.
