data_PCOD8139441
_publ_section_title
;
Structure prediction by ZEFSAII (Michael W. Deem and Ramdas Pophale) SiO2 
 PCOD8139441
Probable space group: C 2/C
;
_chemical_formula_sum "Si O2"
_cell_formula_units_Z 60
_cell_length_a 22.708792
_cell_length_b 11.066657
_cell_length_c 18.329861
_cell_angle_alpha 90.000000
_cell_angle_beta 40.512454
_cell_angle_gamma 90.000000
_cell_volume 2992.433949
_symmetry_space_group_name_H-M "C 2/C"
_symmetry_group_IT_number 15
_symmetry_cell_setting 'monoclinic'
loop_
_space_group_symop_operation_xyz
x,y,z
-x,y,1/2-z
-x,-y,-z
x,-y,1/2+z
1/2+x,1/2+y,z
1/2-x,1/2+y,1/2-z
1/2-x,1/2-y,-z
1/2+x,1/2-y,1/2+z
loop_
_atom_site_type_symbol
_atom_site_label
_atom_site_fract_x
_atom_site_fract_y
_atom_site_fract_z
Si Si1 0.474125 0.330760 0.190868
Si Si2 0.167019 0.108028 0.475125
Si Si3 0.331353 0.754537 0.367894
Si Si4 0.978768 0.569808 0.133256
Si Si5 0.500000 0.905607 0.250000
Si Si6 0.186172 0.983446 0.120021
Si Si7 0.825349 0.623166 0.585966
Si Si8 0.700919 0.064816 0.730799
O O1 0.500000 0.314405 0.250000
O O2 0.446298 0.201599 0.186566
O O3 0.383682 0.406199 0.266933
O O4 0.557485 0.398615 0.071312
O O5 0.199148 0.063764 0.524960
O O6 0.192054 0.247283 0.435900
O O7 0.216294 0.022403 0.370243
O O8 0.250000 0.750000 0.500000
O O9 0.413001 0.820877 0.330625
O O10 0.356544 0.615943 0.331140
O O11 0.305217 0.822346 0.318126
O O12 0.008963 0.490102 0.172456
O O13 0.893959 0.507679 0.173430
O O14 0.069189 0.588516 0.999725
O O15 0.282417 0.974220 0.070495
O O16 0.777098 0.618224 0.710246
#
# Coordination Sequence:
#
# PCOD8139441 Si02
#       8
#     8   8   8   8   4   8   8   8
#     4   9  19  36  65  93 118 150 200 266 302 344
#     4  10  22  40  65  90 122 155 210 250 301 361
#     4  11  23  39  60  88 125 161 206 243 301 360
#     4  10  20  39  62  89 122 158 211 248 305 353
#     4  10  22  36  62  92 118 164 206 256 290 362
#     4  11  22  39  65  93 119 157 206 254 303 362
#     4  11  24  39  64  90 124 162 201 257 310 353
#     4  11  24  40  61  88 130 164 200 250 305 370
#
# _framework density 20.050567000000001
#
# number of rings (size 3 to 8) (size 9 to 14) (size 15 to 20)
#    0.000    1.600    2.000    2.400    6.533    0.000 
#    0.000    0.667    5.867    0.000    0.000    0.000 
#    0.000    0.000    0.000    0.000    0.000    0.000 
#
# Total GULP energy -371900.145144 kJ/mol
# GULP energy per Si atom -12396.671505 kJ/mol
# Density = 2.000493 g / cm^3
# Si number density = 20.050567 Si / 1000 Ang^3
#
#
#
# Elastic Constant Matrix: (Units=GPa)
#
#
# Indices 1 2 3 4 5 6 
#
# 1 55.8869 35.1224 33.5781 0.0000 5.1046 0.0000
# 2 35.1224 116.6495 57.2530 -0.0001 11.8210 0.0001
# 3 33.5781 57.2530 112.6546 0.0000 2.4052 0.0000
# 4 0.0000 -0.0001 0.0000 42.2878 0.0000 -0.4522
# 5 5.1046 11.8210 2.4052 0.0000 20.9461 0.0000
# 6 0.0000 0.0001 0.0000 -0.4522 0.0000 18.8878
#
#
#
# Elastic Compliance Matrix: (Units=1/GPa)
#
#
# Indices 1 2 3 4 5 6 
#
# 1 0.023862 -0.004597 -0.004719 0.000000 -0.002679 0.000000
# 2 -0.004597 0.013055 -0.005144 0.000000 -0.005656 0.000000
# 3 -0.004719 -0.005144 0.012842 0.000000 0.002578 0.000000
# 4 0.000000 0.000000 0.000000 0.023654 0.000000 0.000566
# 5 -0.002679 -0.005656 0.002578 0.000000 0.051291 0.000000
# 6 0.000000 0.000000 0.000000 0.000566 0.000000 0.052958
#
#
# Mechanical properties :
#
#
# Convention : Reuss Voigt Hill
#
# Bulk Modulus (GPa) = 47.98497 59.67754 53.83126
# Shear Modulus (GPa) = 23.41623 27.04016 25.22820
#
# Velocity S-wave (km/s) = 3.42110 3.67631 3.55100
# Velocity P-wave (km/s) = 6.29199 6.91726 6.61202
#
# Compressibility (1/GPa) = 0.02083986
#
# Stress axis : x y z
#
# Youngs Moduli (GPa) = 41.90700 76.60126 77.86817
#
# Poissons Ratio (x) = 0.35215 0.36745
# Poissons Ratio (y) = 0.19266 0.40052
# Poissons Ratio (z) = 0.19775 0.39400
#
# Static dielectric constant tensor:
#      x y z
#    x 3.343940 0.000000 -0.130810 
#    y 0.000000 2.498990 0.000000 
#    z -0.130810 0.000000 3.821770 
# 
# 
# High freq. dielectric constant tensor:
#      x y z
#    x 1.764270 0.000000 -0.009780 
#    y 0.000000 1.792180 0.000000 
#    z -0.009780 0.000000 1.794130 
# 
# From -- ./inp_files/215178.got.cif
#   From: 2010.06.25/outbox.cif.g09.slc.cpg/sg15_108_cif.got.tgz:215178.got - 2010.06.28 07:06:18.
