data_PCOD8139534
_publ_section_title
;
Structure prediction by ZEFSAII (Michael W. Deem and Ramdas Pophale) SiO2 
 PCOD8139534
Probable space group: C 2/C
;
_chemical_formula_sum "Si O2"
_cell_formula_units_Z 56
_cell_length_a 12.524146
_cell_length_b 16.132179
_cell_length_c 14.473482
_cell_angle_alpha 90.000000
_cell_angle_beta 64.242346
_cell_angle_gamma 90.000000
_cell_volume 2633.695154
_symmetry_space_group_name_H-M "C 2/C"
_symmetry_group_IT_number 15
_symmetry_cell_setting 'monoclinic'
loop_
_space_group_symop_operation_xyz
x,y,z
-x,y,1/2-z
-x,-y,-z
x,-y,1/2+z
1/2+x,1/2+y,z
1/2-x,1/2+y,1/2-z
1/2-x,1/2-y,-z
1/2+x,1/2-y,1/2+z
loop_
_atom_site_type_symbol
_atom_site_label
_atom_site_fract_x
_atom_site_fract_y
_atom_site_fract_z
Si Si1 0.635310 0.400408 0.966834
Si Si2 0.784812 0.399036 0.735766
Si Si3 0.684826 0.298269 0.604336
Si Si4 0.714010 0.093519 0.755851
Si Si5 0.877432 0.822454 0.337570
Si Si6 0.000000 0.327794 0.250000
Si Si7 0.500000 0.835218 0.750000
Si Si8 0.135549 0.917170 0.472573
O O1 0.661768 0.343934 0.044439
O O2 0.687746 0.491115 0.966219
O O3 0.696810 0.367040 0.850242
O O4 0.495386 0.410454 0.016326
O O5 0.761982 0.335890 0.659535
O O6 0.762757 0.497126 0.725152
O O7 0.924995 0.392015 0.707731
O O8 0.750000 0.250000 0.500000
O O9 0.584482 0.234577 0.666591
O O10 0.631470 0.378785 0.575482
O O11 0.767002 0.152082 0.815266
O O12 0.574362 0.113938 0.793384
O O13 0.778249 0.123492 0.636704
O O14 0.000000 0.864242 0.250000
O O15 0.899397 0.723247 0.334639
#
# Coordination Sequence:
#
# PCOD8139534 Si02
#       8
#     8   8   8   8   8   4   4   8
#     4  10  21  38  66  94 126 172 230 275 335 407
#     4  11  25  44  65  98 132 178 227 283 335 414
#     4  12  25  43  69  98 140 174 228 278 346 403
#     4  11  22  44  68  94 138 175 232 273 342 410
#     4  10  21  39  66  89 127 173 214 275 336 397
#     4  12  25  44  69 104 136 188 222 288 347 410
#     4  10  23  42  63  90 134 170 212 274 351 384
#     4  10  20  39  63  95 132 174 215 286 340 396
#
# _framework density 21.262902
#
# number of rings (size 3 to 8) (size 9 to 14) (size 15 to 20)
#    0.429    0.857    2.857    3.000    2.000    0.571 
#    5.143    0.714    0.000    0.000    0.000    0.000 
#    0.000    0.000    0.000    0.000    0.000    0.000 
#
# Total GULP energy -346882.749590 kJ/mol
# GULP energy per Si atom -12388.669628 kJ/mol
# Density = 2.121451 g / cm^3
# Si number density = 21.262902 Si / 1000 Ang^3
#
#
#
# Elastic Constant Matrix: (Units=GPa)
#
#
# Indices 1 2 3 4 5 6 
#
# 1 101.8372 28.5470 26.7581 0.0000 0.3741 0.0000
# 2 28.5470 68.3078 43.1931 0.0000 0.7886 0.0000
# 3 26.7581 43.1931 93.0387 0.0000 9.6306 0.0000
# 4 0.0000 0.0000 0.0000 30.9435 0.0000 0.9422
# 5 0.3741 0.7886 9.6306 0.0000 28.1904 0.0000
# 6 0.0000 0.0000 0.0000 0.9422 0.0000 35.2713
#
#
#
# Elastic Compliance Matrix: (Units=1/GPa)
#
#
# Indices 1 2 3 4 5 6 
#
# 1 0.011274 -0.003730 -0.001561 0.000000 0.000488 0.000000
# 2 -0.003730 0.022173 -0.009498 0.000000 0.002674 0.000000
# 3 -0.001561 -0.009498 0.016148 0.000000 -0.005230 0.000000
# 4 0.000000 0.000000 0.000000 0.032343 0.000000 -0.000864
# 5 0.000488 0.002674 -0.005230 0.000000 0.037179 0.000000
# 6 0.000000 0.000000 0.000000 -0.000864 0.000000 0.028375
#
#
# Mechanical properties :
#
#
# Convention : Reuss Voigt Hill
#
# Bulk Modulus (GPa) = 49.95811 51.13114 50.54463
# Shear Modulus (GPa) = 27.21203 29.86007 28.53605
#
# Velocity S-wave (km/s) = 3.58129 3.75150 3.66739
# Velocity P-wave (km/s) = 6.37553 6.54709 6.46188
#
# Compressibility (1/GPa) = 0.02001677
#
# Stress axis : x y z
#
# Youngs Moduli (GPa) = 88.70306 45.09905 61.92683
#
# Poissons Ratio (x) = 0.16821 0.09668
# Poissons Ratio (y) = 0.33085 0.58819
# Poissons Ratio (z) = 0.13849 0.42835
#
# Static dielectric constant tensor:
#      x y z
#    x 3.835090 0.000000 0.197460 
#    y 0.000000 4.407250 0.000000 
#    z 0.197460 0.000000 4.050360 
# 
# 
# High freq. dielectric constant tensor:
#      x y z
#    x 1.833230 0.000000 0.001700 
#    y 0.000000 1.842280 0.000000 
#    z 0.001700 0.000000 1.822970 
# 
# From -- ./inp_files/145600.got.cif
#   From: 2010.06.25/outbox.cif.g09.slc.cpg/sg15_73_cif.got.tgz:145600.got - 2010.06.28 07:06:18.
