data_PCOD8139141
_publ_section_title
;
Structure prediction by ZEFSAII (Michael W. Deem and Ramdas Pophale) SiO2 
 PCOD8139141
Probable space group: C 2/C
;
_chemical_formula_sum "Si O2"
_cell_formula_units_Z 52
_cell_length_a 6.393509
_cell_length_b 29.832827
_cell_length_c 15.445182
_cell_angle_alpha 90.000000
_cell_angle_beta 118.928765
_cell_angle_gamma 90.000000
_cell_volume 2578.367636
_symmetry_space_group_name_H-M "C 2/C"
_symmetry_group_IT_number 15
_symmetry_cell_setting 'monoclinic'
loop_
_space_group_symop_operation_xyz
x,y,z
-x,y,1/2-z
-x,-y,-z
x,-y,1/2+z
1/2+x,1/2+y,z
1/2-x,1/2+y,1/2-z
1/2-x,1/2-y,-z
1/2+x,1/2-y,1/2+z
loop_
_atom_site_type_symbol
_atom_site_label
_atom_site_fract_x
_atom_site_fract_y
_atom_site_fract_z
Si Si1 0.468859 0.163048 0.145063
Si Si2 0.500000 0.996300 0.750000
Si Si3 0.509138 0.537807 0.155798
Si Si4 0.572524 0.313281 0.987504
Si Si5 0.638502 0.968742 0.094551
Si Si6 0.855628 0.607588 0.475463
Si Si7 0.716132 0.257217 0.853385
O O1 0.500000 0.146943 0.250000
O O2 0.591089 0.125356 0.110014
O O3 0.604451 0.210175 0.161409
O O4 0.193875 0.167300 0.061674
O O5 0.438284 0.025923 0.820941
O O6 0.280774 0.964231 0.677470
O O7 0.500000 0.558356 0.250000
O O8 0.410202 0.486143 0.137864
O O9 0.357147 0.571021 0.065587
O O10 0.770644 0.352395 0.020418
O O11 0.591057 0.281159 0.908960
O O12 0.630071 0.285759 0.086076
O O13 0.594151 0.916623 0.061049
O O14 0.500000 0.000000 0.000000
O O15 0.500000 0.240684 0.750000
#
# Coordination Sequence:
#
# PCOD8139141 Si02
#       7
#     8   4   8   8   8   8   8
#     4  11  22  37  61  91 119 161 193 247 316 359
#     4  10  20  38  66  82 110 170 204 234 316 350
#     4   9  20  36  59  88 114 154 206 246 290 367
#     4  10  22  37  60  89 118 157 198 246 311 359
#     4   9  20  40  56  84 118 155 202 248 289 362
#     4  10  23  37  56  87 128 145 196 260 296 354
#     4  10  20  40  62  84 118 153 204 249 289 372
#
# _framework density 20.1678
#
# number of rings (size 3 to 8) (size 9 to 14) (size 15 to 20)
#    0.000    2.154    1.538    0.462    2.154    7.385 
#    6.923    0.000    0.000    0.000    0.000    0.000 
#    0.000    0.000    0.000    0.000    0.000    0.000 
#
# Total GULP energy -322297.997467 kJ/mol
# GULP energy per Si atom -12396.076826 kJ/mol
# Density = 2.012190 g / cm^3
# Si number density = 20.167800 Si / 1000 Ang^3
#
#
#
# Elastic Constant Matrix: (Units=GPa)
#
#
# Indices 1 2 3 4 5 6 
#
# 1 104.9241 39.2252 26.3453 0.0000 9.8121 0.0000
# 2 39.2252 99.1493 41.1765 0.0000 4.0839 0.0000
# 3 26.3453 41.1765 84.5116 0.0000 0.9283 0.0000
# 4 0.0000 0.0000 0.0000 25.2344 0.0000 3.5903
# 5 9.8121 4.0839 0.9283 0.0000 29.1031 0.0000
# 6 0.0000 0.0000 0.0000 3.5903 0.0000 13.6942
#
#
#
# Elastic Compliance Matrix: (Units=1/GPa)
#
#
# Indices 1 2 3 4 5 6 
#
# 1 0.011693 -0.003747 -0.001782 0.000000 -0.003360 0.000000
# 2 -0.003747 0.013918 -0.005608 0.000000 -0.000511 0.000000
# 3 -0.001782 -0.005608 0.015111 0.000000 0.000906 0.000000
# 4 0.000000 0.000000 0.000000 0.041164 0.000000 -0.010792
# 5 -0.003360 -0.000511 0.000906 0.000000 0.035536 0.000000
# 6 0.000000 0.000000 0.000000 -0.010792 0.000000 0.075853
#
#
# Mechanical properties :
#
#
# Convention : Reuss Voigt Hill
#
# Bulk Modulus (GPa) = 54.20870 55.78656 54.99763
# Shear Modulus (GPa) = 22.55306 25.72886 24.14096
#
# Velocity S-wave (km/s) = 3.34768 3.57562 3.46353
# Velocity P-wave (km/s) = 6.47146 6.69089 6.58209
#
# Compressibility (1/GPa) = 0.01844722
#
# Stress axis : x y z
#
# Youngs Moduli (GPa) = 85.51822 71.84836 66.17890
#
# Poissons Ratio (x) = 0.26925 0.11796
# Poissons Ratio (y) = 0.32048 0.37110
# Poissons Ratio (z) = 0.15243 0.40289
#
# Static dielectric constant tensor:
#      x y z
#    x 3.817330 0.000000 0.229140 
#    y 0.000000 3.690550 0.000000 
#    z 0.229140 0.000000 3.772280 
# 
# 
# High freq. dielectric constant tensor:
#      x y z
#    x 1.790030 0.000000 0.007100 
#    y 0.000000 1.770530 0.000000 
#    z 0.007100 0.000000 1.782990 
# 
# From -- ./inp_files/130876.got.cif
#   From: 2010.06.25/outbox.cif.g09.slc.cpg/sg15_66_cif.got.tgz:130876.got - 2010.06.28 07:06:18.
