data_PCOD8139879
_publ_section_title
;
Structure prediction by ZEFSAII (Michael W. Deem and Ramdas Pophale) SiO2 
 PCOD8139879
Probable space group: C 2/C
;
_chemical_formula_sum "Si O2"
_cell_formula_units_Z 56
_cell_length_a 13.924811
_cell_length_b 14.507657
_cell_length_c 20.341765
_cell_angle_alpha 90.000000
_cell_angle_beta 140.006524
_cell_angle_gamma 90.000000
_cell_volume 2641.093508
_symmetry_space_group_name_H-M "C 2/C"
_symmetry_group_IT_number 15
_symmetry_cell_setting 'monoclinic'
loop_
_space_group_symop_operation_xyz
x,y,z
-x,y,1/2-z
-x,-y,-z
x,-y,1/2+z
1/2+x,1/2+y,z
1/2-x,1/2+y,1/2-z
1/2-x,1/2-y,-z
1/2+x,1/2-y,1/2+z
loop_
_atom_site_type_symbol
_atom_site_label
_atom_site_fract_x
_atom_site_fract_y
_atom_site_fract_z
Si Si1 0.689731 0.308817 0.216096
Si Si2 0.552322 0.906380 0.559059
Si Si3 0.269566 0.989846 0.732478
Si Si4 0.500000 0.067250 0.250000
Si Si5 0.687519 0.259250 0.069239
Si Si6 0.094048 0.700466 0.411262
Si Si7 0.000000 0.800847 0.750000
Si Si8 0.562689 0.659303 0.143345
O O1 0.734433 0.414886 0.251272
O O2 0.651233 0.305750 0.119251
O O3 0.538918 0.274781 0.173100
O O4 0.828450 0.246424 0.312330
O O5 0.664859 0.920980 0.678491
O O6 0.630382 0.846874 0.542457
O O7 0.419249 0.850431 0.524783
O O8 0.500000 0.000000 0.500000
O O9 0.382281 0.997297 0.729071
O O10 0.118940 0.932771 0.634647
O O11 0.594484 0.128927 0.350722
O O12 0.865972 0.263229 0.151307
O O13 0.603339 0.316299 0.968855
O O14 0.250000 0.750000 0.500000
O O15 0.055796 0.862196 0.718093
#
# Coordination Sequence:
#
# PCOD8139879 Si02
#       8
#     8   8   8   4   8   8   4   8
#     4  10  22  41  64  93 128 170 216 268 325 395
#     4  10  20  40  62  91 127 170 216 267 320 392
#     4  11  22  40  65  95 131 171 222 272 327 391
#     4  10  22  41  65  94 132 170 216 279 319 398
#     4  10  21  38  64  87 124 170 207 267 333 382
#     4  10  22  41  63  95 130 171 219 267 333 390
#     4  10  20  41  59  90 126 162 216 263 321 400
#     4  11  21  41  64  89 130 170 212 271 332 385
#
# _framework density 21.203339
#
# number of rings (size 3 to 8) (size 9 to 14) (size 15 to 20)
#    0.000    1.714    5.714    1.286    4.000    4.000 
#    2.571    2.143    0.000    0.000    0.000    0.000 
#    0.000    0.000    0.000    0.000    0.000    0.000 
#
# Total GULP energy -347019.684736 kJ/mol
# GULP energy per Si atom -12393.560169 kJ/mol
# Density = 2.115508 g / cm^3
# Si number density = 21.203339 Si / 1000 Ang^3
#
#
#
# Elastic Constant Matrix: (Units=GPa)
#
#
# Indices 1 2 3 4 5 6 
#
# 1 90.2400 26.0586 22.4873 0.0000 21.4278 0.0000
# 2 26.0586 93.7122 5.6257 0.0000 19.9073 0.0000
# 3 22.4873 5.6257 71.2954 0.0000 22.4282 0.0000
# 4 0.0000 0.0000 0.0000 26.9440 0.0000 -0.9532
# 5 21.4278 19.9073 22.4282 0.0000 34.6932 0.0000
# 6 0.0000 0.0000 0.0000 -0.9532 0.0000 23.5399
#
#
#
# Elastic Compliance Matrix: (Units=1/GPa)
#
#
# Indices 1 2 3 4 5 6 
#
# 1 0.013703 -0.002503 -0.002403 0.000000 -0.005474 0.000000
# 2 -0.002503 0.012748 0.002006 0.000000 -0.007066 0.000000
# 3 -0.002403 0.002006 0.018228 0.000000 -0.011451 0.000000
# 4 0.000000 0.000000 0.000000 0.037167 0.000000 0.001505
# 5 -0.005474 -0.007066 -0.011451 0.000000 0.043662 0.000000
# 6 0.000000 0.000000 0.000000 0.001505 0.000000 0.042542
#
#
# Mechanical properties :
#
#
# Convention : Reuss Voigt Hill
#
# Bulk Modulus (GPa) = 25.72051 40.39899 33.05975
# Shear Modulus (GPa) = 26.76535 30.44049 28.60292
#
# Velocity S-wave (km/s) = 3.55677 3.79310 3.67683
# Velocity P-wave (km/s) = 5.38741 6.18692 5.80096
#
# Compressibility (1/GPa) = 0.03887948
#
# Stress axis : x y z
#
# Youngs Moduli (GPa) = 72.97707 78.44626 54.86080
#
# Poissons Ratio (x) = 0.19638 0.13181
# Poissons Ratio (y) = 0.18269 -0.11007
# Poissons Ratio (z) = 0.17533 -0.15740
#
# Static dielectric constant tensor:
#      x y z
#    x 4.019330 0.000000 0.095900 
#    y 0.000000 3.762010 0.000000 
#    z 0.095900 0.000000 3.791840 
# 
# 
# High freq. dielectric constant tensor:
#      x y z
#    x 1.829200 0.000000 0.006080 
#    y 0.000000 1.813710 0.000000 
#    z 0.006080 0.000000 1.828900 
# 
# From -- ./inp_files/244580.got.cif
#   From: 2010.06.25/outbox.cif.g09.slc.cpg/sg15_123_cif.got.tgz:244580.got - 2010.06.28 07:06:18.
