data_PCOD8139196
_publ_section_title
;
Structure prediction by ZEFSAII (Michael W. Deem and Ramdas Pophale) SiO2 
 PCOD8139196
Probable space group: C 2/C
;
_chemical_formula_sum "Si O2"
_cell_formula_units_Z 60
_cell_length_a 10.708588
_cell_length_b 21.352347
_cell_length_c 21.456818
_cell_angle_alpha 90.000000
_cell_angle_beta 36.483853
_cell_angle_gamma 90.000000
_cell_volume 2917.193862
_symmetry_space_group_name_H-M "C 2/C"
_symmetry_group_IT_number 15
_symmetry_cell_setting 'monoclinic'
loop_
_space_group_symop_operation_xyz
x,y,z
-x,y,1/2-z
-x,-y,-z
x,-y,1/2+z
1/2+x,1/2+y,z
1/2-x,1/2+y,1/2-z
1/2-x,1/2-y,-z
1/2+x,1/2-y,1/2+z
loop_
_atom_site_type_symbol
_atom_site_label
_atom_site_fract_x
_atom_site_fract_y
_atom_site_fract_z
Si Si1 0.362420 0.924685 0.162443
Si Si2 0.697263 0.862472 0.713646
Si Si3 0.277356 0.295641 0.805045
Si Si4 0.957057 0.072799 0.007533
Si Si5 0.276566 0.156759 0.809160
Si Si6 0.451199 0.042832 0.390280
Si Si7 0.870355 0.411274 0.563635
Si Si8 0.500000 0.508598 0.250000
O O1 0.291357 0.865925 0.231829
O O2 0.519639 0.969615 0.139811
O O3 0.154360 0.964315 0.227668
O O4 0.504283 0.898317 0.049550
O O5 0.500000 0.838194 0.750000
O O6 0.784559 0.810919 0.727535
O O7 0.890776 0.887991 0.595020
O O8 0.630545 0.921977 0.780567
O O9 0.500000 0.298017 0.750000
O O10 0.175037 0.226259 0.850750
O O11 0.132347 0.344734 0.899559
O O12 0.769805 0.074505 0.033099
O O13 0.152048 0.107067 0.899603
O O14 0.000000 0.000000 0.000000
O O15 0.500000 0.162999 0.750000
O O16 0.489105 0.043000 0.449601
O O17 0.639588 0.444423 0.649579
#
# Coordination Sequence:
#
# PCOD8139196 Si02
#       8
#     8   8   8   8   8   8   8   4
#     4  11  23  37  63  94 133 156 209 261 325 367
#     4   9  20  41  62  90 119 163 212 258 313 383
#     4  10  22  43  66  86 125 170 220 261 307 378
#     4  11  22  37  64  88 124 168 204 252 330 375
#     4  11  26  43  56  91 130 166 211 262 305 378
#     4   9  19  37  60  92 127 151 202 265 314 379
#     4  10  21  39  64  96 122 165 209 261 317 373
#     4  10  20  38  66  98 126 158 204 266 322 372
#
# _framework density 20.567710999999999
#
# number of rings (size 3 to 8) (size 9 to 14) (size 15 to 20)
#    0.000    1.867    0.667    3.200    3.733    4.267 
#    1.200    8.667    0.000    0.000    0.000    0.000 
#    0.000    0.000    0.000    0.000    0.000    0.000 
#
# Total GULP energy -371764.529764 kJ/mol
# GULP energy per Si atom -12392.150992 kJ/mol
# Density = 2.052090 g / cm^3
# Si number density = 20.567711 Si / 1000 Ang^3
#
#
#
# Elastic Constant Matrix: (Units=GPa)
#
#
# Indices 1 2 3 4 5 6 
#
# 1 91.7056 40.0698 37.2689 -0.0373 15.1759 -0.0075
# 2 40.0698 131.5746 47.8938 -0.3238 6.4357 0.0717
# 3 37.2689 47.8938 119.2003 -0.3260 17.3762 0.1243
# 4 -0.0373 -0.3238 -0.3260 22.3204 0.0707 5.0405
# 5 15.1759 6.4357 17.3762 0.0707 24.6227 -0.0079
# 6 -0.0075 0.0717 0.1243 5.0405 -0.0079 37.3925
#
#
#
# Elastic Compliance Matrix: (Units=1/GPa)
#
#
# Indices 1 2 3 4 5 6 
#
# 1 0.014277 -0.003221 -0.002240 -0.000040 -0.006377 0.000021
# 2 -0.003221 0.009630 -0.003104 0.000088 0.001658 -0.000020
# 3 -0.002240 -0.003104 0.011166 0.000144 -0.005688 -0.000052
# 4 -0.000040 0.000088 0.000144 0.046213 -0.000235 -0.006230
# 5 -0.006377 0.001658 -0.005688 -0.000235 0.048125 0.000056
# 6 0.000021 -0.000020 -0.000052 -0.006230 0.000056 0.027583
#
#
# Mechanical properties :
#
#
# Convention : Reuss Voigt Hill
#
# Bulk Modulus (GPa) = 55.72859 65.88283 60.80571
# Shear Modulus (GPa) = 27.76136 31.35032 29.55584
#
# Velocity S-wave (km/s) = 3.67789 3.90840 3.79489
# Velocity P-wave (km/s) = 6.72234 7.24356 6.98781
#
# Compressibility (1/GPa) = 0.01794411
#
# Stress axis : x y z
#
# Youngs Moduli (GPa) = 70.04029 103.84228 89.55381
#
# Poissons Ratio (x) = 0.33445 0.20064
# Poissons Ratio (y) = 0.22558 0.27795
# Poissons Ratio (z) = 0.15692 0.32230
#
# Static dielectric constant tensor:
#      x y z
#    x 3.954190 -0.000150 -0.052520 
#    y -0.000150 3.977490 0.000350 
#    z -0.052520 0.000350 3.824770 
# 
# 
# High freq. dielectric constant tensor:
#      x y z
#    x 1.806610 -0.000010 0.000710 
#    y -0.000010 1.800440 0.000020 
#    z 0.000710 0.000020 1.797660 
# 
# From -- ./inp_files/271001.got.cif
#   From: 2010.06.25/outbox.cif.g09.slc.cpg/sg15_136_cif.got.tgz:271001.got - 2010.06.28 07:06:18.
