data_PCOD8139607
_publ_section_title
;
Structure prediction by ZEFSAII (Michael W. Deem and Ramdas Pophale) SiO2 
 PCOD8139607
Probable space group: C 2/C
;
_chemical_formula_sum "Si O2"
_cell_formula_units_Z 60
_cell_length_a 25.583558
_cell_length_b 8.524532
_cell_length_c 19.948792
_cell_angle_alpha 90.000000
_cell_angle_beta 137.495153
_cell_angle_gamma 90.000000
_cell_volume 2939.486890
_symmetry_space_group_name_H-M "C 2/C"
_symmetry_group_IT_number 15
_symmetry_cell_setting 'monoclinic'
loop_
_space_group_symop_operation_xyz
x,y,z
-x,y,1/2-z
-x,-y,-z
x,-y,1/2+z
1/2+x,1/2+y,z
1/2-x,1/2+y,1/2-z
1/2-x,1/2-y,-z
1/2+x,1/2-y,1/2+z
loop_
_atom_site_type_symbol
_atom_site_label
_atom_site_fract_x
_atom_site_fract_y
_atom_site_fract_z
Si Si1 0.523599 0.624774 0.396084
Si Si2 0.000000 0.315118 0.250000
Si Si3 0.771815 0.499149 0.632690
Si Si4 0.681933 0.197743 0.075939
Si Si5 0.884244 0.580215 0.354345
Si Si6 0.645142 0.019421 0.426968
Si Si7 0.466527 0.232560 0.968026
Si Si8 0.613062 0.675548 0.977112
O O1 0.477231 0.705295 0.291378
O O2 0.601331 0.719575 0.484477
O O3 0.471708 0.632843 0.414927
O O4 0.545596 0.448711 0.394591
O O5 0.071250 0.422320 0.335528
O O6 0.753283 0.679021 0.637900
O O7 0.836705 0.421279 0.740775
O O8 0.797554 0.477638 0.580943
O O9 0.695182 0.400574 0.564384
O O10 0.677021 0.110799 0.143287
O O11 0.693976 0.061889 0.032440
O O12 0.935913 0.424245 0.404242
O O13 0.948862 0.716953 0.417091
O O14 0.615548 0.189740 0.423225
O O15 0.403582 0.266155 0.964172
#
# Coordination Sequence:
#
# PCOD8139607 Si02
#       8
#     8   4   8   8   8   8   8   8
#     4   9  20  39  61  90 125 159 202 257 317 373
#     4  10  22  40  64  92 116 166 216 258 306 384
#     4  11  24  38  61  92 127 164 214 261 315 383
#     4   9  20  39  60  84 124 166 203 255 317 373
#     4  10  21  37  64  94 119 163 220 261 309 380
#     4  11  22  40  64  88 124 173 212 257 321 380
#     4  10  20  39  65  90 125 167 205 262 319 374
#     4  11  23  39  63  91 132 163 203 264 325 370
#
# _framework density 20.411726000000002
#
# number of rings (size 3 to 8) (size 9 to 14) (size 15 to 20)
#    0.000    1.867    1.333    2.000    5.600    0.533 
#    0.000    0.000    2.933    0.000    0.000    0.000 
#    0.000    0.000    0.000    0.000    0.000    0.000 
#
# Total GULP energy -371874.051801 kJ/mol
# GULP energy per Si atom -12395.801727 kJ/mol
# Density = 2.036527 g / cm^3
# Si number density = 20.411726 Si / 1000 Ang^3
#
#
#
# Elastic Constant Matrix: (Units=GPa)
#
#
# Indices 1 2 3 4 5 6 
#
# 1 137.1575 34.0344 37.2775 0.0000 -5.7167 0.0000
# 2 34.0344 95.4944 31.1313 0.0000 -2.5589 0.0001
# 3 37.2775 31.1313 61.1752 0.0000 -12.3045 0.0000
# 4 0.0000 0.0000 0.0000 20.7225 0.0000 1.2941
# 5 -5.7167 -2.5589 -12.3045 0.0000 19.3430 0.0000
# 6 0.0000 0.0001 0.0000 1.2941 0.0000 -18.7060
#
#
#
# Elastic Compliance Matrix: (Units=1/GPa)
#
#
# Indices 1 2 3 4 5 6 
#
# 1 0.008967 -0.001669 -0.004731 0.000000 -0.000580 0.000000
# 2 -0.001669 0.012995 -0.006134 0.000000 -0.002676 0.000000
# 3 -0.004731 -0.006134 0.025121 0.000000 0.013770 0.000000
# 4 0.000000 0.000000 0.000000 0.048049 0.000000 0.003324
# 5 -0.000580 -0.002676 0.013770 0.000000 0.059932 0.000000
# 6 0.000000 0.000000 0.000000 0.003324 0.000000 -0.053229
#
#
# Mechanical properties :
#
#
# Convention : Reuss Voigt Hill
#
# Bulk Modulus (GPa) = 45.42696 55.41260 50.41978
# Shear Modulus (GPa) = 37.24632 17.03084 27.13858
#
# Velocity S-wave (km/s) = 4.27635 2.89167 3.65027
# Velocity P-wave (km/s) = 6.83275 6.19317 6.52081
#
# Compressibility (1/GPa) = 0.02201336
#
# Stress axis : x y z
#
# Youngs Moduli (GPa) = 111.52320 76.95479 39.80747
#
# Poissons Ratio (x) = 0.12843 0.18835
# Poissons Ratio (y) = 0.18612 0.24419
# Poissons Ratio (z) = 0.52766 0.47205
#
# Static dielectric constant tensor:
#      x y z
#    x 3.688140 0.000000 -0.084770 
#    y 0.000000 3.904290 0.000000 
#    z -0.084770 0.000000 3.535500 
# 
# 
# High freq. dielectric constant tensor:
#      x y z
#    x 1.809450 0.000000 -0.009030 
#    y 0.000000 1.796870 0.000000 
#    z -0.009030 0.000000 1.780530 
# 
# From -- ./inp_files/257211.got.cif
#   From: 2010.06.25/outbox.cif.g09.slc.cpg/sg15_129_cif.got.tgz:257211.got - 2010.06.28 07:06:18.
