data_PCOD8139909
_publ_section_title
;
Structure prediction by ZEFSAII (Michael W. Deem and Ramdas Pophale) SiO2 
 PCOD8139909
Probable space group: C 2/C
;
_chemical_formula_sum "Si O2"
_cell_formula_units_Z 48
_cell_length_a 17.945980
_cell_length_b 18.337349
_cell_length_c 14.087539
_cell_angle_alpha 90.000000
_cell_angle_beta 149.037259
_cell_angle_gamma 90.000000
_cell_volume 2385.106786
_symmetry_space_group_name_H-M "C 2/C"
_symmetry_group_IT_number 15
_symmetry_cell_setting 'monoclinic'
loop_
_space_group_symop_operation_xyz
x,y,z
-x,y,1/2-z
-x,-y,-z
x,-y,1/2+z
1/2+x,1/2+y,z
1/2-x,1/2+y,1/2-z
1/2-x,1/2-y,-z
1/2+x,1/2-y,1/2+z
loop_
_atom_site_type_symbol
_atom_site_label
_atom_site_fract_x
_atom_site_fract_y
_atom_site_fract_z
Si Si1 0.360437 0.153122 0.547652
Si Si2 0.865696 0.186198 0.043267
Si Si3 0.197149 0.078999 0.198913
Si Si4 0.179602 0.320313 0.038150
Si Si5 0.148358 0.323631 0.782069
Si Si6 0.369148 0.410671 0.369417
O O1 0.500000 0.115272 0.750000
O O2 0.268865 0.179811 0.535714
O O3 0.397305 0.231378 0.538017
O O4 0.283920 0.097977 0.390724
O O5 0.000000 0.155375 0.250000
O O6 0.825608 0.134559 0.913213
O O7 0.287607 0.108927 0.208020
O O8 0.171037 0.993882 0.155095
O O9 0.035086 0.110565 0.026759
O O10 0.267299 0.247670 0.160842
O O11 0.268282 0.388943 0.172042
O O12 0.173912 0.335500 0.920733
O O13 0.024048 0.315363 0.920303
#
# Coordination Sequence:
#
# PCOD8139909 Si02
#       6
#     8   8   8   8   8   8
#     4  10  22  38  63  93 119 159 206 259 308 361
#     4  10  20  40  63  87 123 160 204 255 305 365
#     4  11  24  41  59  93 127 166 208 248 313 377
#     4  10  22  41  65  92 120 162 208 262 311 362
#     4  10  22  41  65  92 122 158 211 260 308 365
#     4  11  24  40  62  89 128 170 204 251 311 373
#
# _framework density 20.124884999999999
#
# number of rings (size 3 to 8) (size 9 to 14) (size 15 to 20)
#    0.000    1.667    1.667    2.000    2.333    4.000 
#    3.000    0.000    0.000    0.000    0.000    0.000 
#    0.000    0.000    0.000    0.000    0.000    0.000 
#
# Total GULP energy -297492.336897 kJ/mol
# GULP energy per Si atom -12395.514037 kJ/mol
# Density = 2.007908 g / cm^3
# Si number density = 20.124885 Si / 1000 Ang^3
#
#
#
# Elastic Constant Matrix: (Units=GPa)
#
#
# Indices 1 2 3 4 5 6 
#
# 1 89.8028 44.2202 42.4511 0.0000 17.9682 0.0000
# 2 44.2202 74.1223 42.4823 0.0000 2.2552 0.0000
# 3 42.4511 42.4823 147.5946 0.0000 16.3729 0.0000
# 4 0.0000 0.0000 0.0000 35.2773 0.0000 -0.0085
# 5 17.9682 2.2552 16.3729 0.0000 29.6744 0.0000
# 6 0.0000 0.0000 0.0000 -0.0085 0.0000 28.7689
#
#
#
# Elastic Compliance Matrix: (Units=1/GPa)
#
#
# Indices 1 2 3 4 5 6 
#
# 1 0.018712 -0.010063 -0.001399 0.000000 -0.009793 0.000000
# 2 -0.010063 0.021625 -0.004073 0.000000 0.006697 0.000000
# 3 -0.001399 -0.004073 0.008758 0.000000 -0.003676 0.000000
# 4 0.000000 0.000000 0.000000 0.028347 0.000000 0.000008
# 5 -0.009793 0.006697 -0.003676 0.000000 0.041148 0.000000
# 6 0.000000 0.000000 0.000000 0.000008 0.000000 0.034760
#
#
# Mechanical properties :
#
#
# Convention : Reuss Voigt Hill
#
# Bulk Modulus (GPa) = 55.48040 63.31409 59.39725
# Shear Modulus (GPa) = 26.25659 30.90184 28.57921
#
# Velocity S-wave (km/s) = 3.61596 3.92280 3.77250
# Velocity P-wave (km/s) = 6.71278 7.21434 6.96808
#
# Compressibility (1/GPa) = 0.01802438
#
# Stress axis : x y z
#
# Youngs Moduli (GPa) = 53.44259 46.24171 114.18480
#
# Poissons Ratio (x) = 0.46535 0.15973
# Poissons Ratio (y) = 0.53781 0.46508
# Poissons Ratio (z) = 0.07476 0.18834
#
# Static dielectric constant tensor:
#      x y z
#    x 3.581170 0.000000 0.118220 
#    y 0.000000 3.563470 0.000000 
#    z 0.118220 0.000000 3.853990 
# 
# 
# High freq. dielectric constant tensor:
#      x y z
#    x 1.788810 0.000000 0.005670 
#    y 0.000000 1.772820 0.000000 
#    z 0.005670 0.000000 1.803560 
# 
# From -- ./inp_files/70548.got.cif
#   From: 2010.06.25/outbox.cif.g09.slc.cpg/sg15_36_cif.got.tgz:70548.got - 2010.06.28 07:06:18.
