data_PCOD8139436
_publ_section_title
;
Structure prediction by ZEFSAII (Michael W. Deem and Ramdas Pophale) SiO2 
 PCOD8139436
Probable space group: C 2/C
;
_chemical_formula_sum "Si O2"
_cell_formula_units_Z 48
_cell_length_a 15.564933
_cell_length_b 27.035888
_cell_length_c 9.152333
_cell_angle_alpha 90.000000
_cell_angle_beta 37.665040
_cell_angle_gamma 90.000000
_cell_volume 2353.381290
_symmetry_space_group_name_H-M "C 2/C"
_symmetry_group_IT_number 15
_symmetry_cell_setting 'monoclinic'
loop_
_space_group_symop_operation_xyz
x,y,z
-x,y,1/2-z
-x,-y,-z
x,-y,1/2+z
1/2+x,1/2+y,z
1/2-x,1/2+y,1/2-z
1/2-x,1/2-y,-z
1/2+x,1/2-y,1/2+z
loop_
_atom_site_type_symbol
_atom_site_label
_atom_site_fract_x
_atom_site_fract_y
_atom_site_fract_z
Si Si1 0.438170 0.660581 0.989911
Si Si2 0.592373 0.246951 0.766532
Si Si3 0.212959 0.409809 0.685673
Si Si4 0.546098 0.152541 0.022886
Si Si5 0.391196 0.501659 0.018208
Si Si6 0.684009 0.598197 0.774005
O O1 0.500000 0.673648 0.750000
O O2 0.532489 0.622962 0.956933
O O3 0.425728 0.711101 0.090215
O O4 0.287207 0.636201 0.165147
O O5 0.500000 0.257251 0.750000
O O6 0.750000 0.250000 0.500000
O O7 0.539219 0.197031 0.916874
O O8 0.259394 0.459904 0.708958
O O9 0.259349 0.420393 0.457710
O O10 0.048514 0.394231 0.906279
O O11 0.500000 0.168567 0.250000
O O12 0.708609 0.137306 0.802486
O O13 0.325278 0.446835 0.097377
O O14 0.500000 0.518944 0.750000
O O15 0.500000 0.500000 0.000000
#
# Coordination Sequence:
#
# PCOD8139436 Si02
#       6
#     8   8   8   8   8   8
#     4  10  20  39  66  86 114 163 212 242 295 369
#     4  12  25  41  60  92 129 155 198 262 313 361
#     4  10  20  39  62  88 119 156 203 255 290 364
#     4  10  23  43  63  84 123 168 208 243 306 375
#     4  12  21  38  64  93 122 155 206 256 303 354
#     4  10  21  38  62  91 115 156 208 254 293 359
#
# _framework density 20.396184000000002
#
# number of rings (size 3 to 8) (size 9 to 14) (size 15 to 20)
#    0.000    1.333    3.333    3.000    0.000    2.667 
#    3.000    6.667    0.000    0.000    0.000    0.000 
#    0.000    0.000    0.000    0.000    0.000    0.000 
#
# Total GULP energy -297409.274463 kJ/mol
# GULP energy per Si atom -12392.053103 kJ/mol
# Density = 2.034976 g / cm^3
# Si number density = 20.396184 Si / 1000 Ang^3
#
#
#
# Elastic Constant Matrix: (Units=GPa)
#
#
# Indices 1 2 3 4 5 6 
#
# 1 104.1377 31.0544 25.8160 0.0000 -7.8710 0.0000
# 2 31.0544 109.7040 31.3537 0.0000 12.7235 0.0000
# 3 25.8160 31.3537 57.4180 0.0000 -10.5111 0.0000
# 4 0.0000 0.0000 0.0000 10.6272 0.0000 13.4320
# 5 -7.8710 12.7235 -10.5111 0.0000 20.6857 0.0000
# 6 0.0000 0.0000 0.0000 13.4320 0.0000 34.1678
#
#
#
# Elastic Compliance Matrix: (Units=1/GPa)
#
#
# Indices 1 2 3 4 5 6 
#
# 1 0.011547 -0.003112 -0.002578 0.000000 0.004998 0.000000
# 2 -0.003112 0.014277 -0.009065 0.000000 -0.014572 0.000000
# 3 -0.002578 -0.009065 0.026865 0.000000 0.018246 0.000000
# 4 0.000000 0.000000 0.000000 0.187028 0.000000 -0.073524
# 5 0.004998 -0.014572 0.018246 0.000000 0.068478 0.000000
# 6 0.000000 0.000000 0.000000 -0.073524 0.000000 0.058171
#
#
# Mechanical properties :
#
#
# Convention : Reuss Voigt Hill
#
# Bulk Modulus (GPa) = 43.13810 49.74532 46.44171
# Shear Modulus (GPa) = 12.38846 25.29852 18.84349
#
# Velocity S-wave (km/s) = 2.46720 3.52569 3.04283
# Velocity P-wave (km/s) = 5.41407 6.40441 5.92995
#
# Compressibility (1/GPa) = 0.02318136
#
# Stress axis : x y z
#
# Youngs Moduli (GPa) = 86.59965 70.04297 37.22322
#
# Poissons Ratio (x) = 0.21795 0.09595
# Poissons Ratio (y) = 0.26947 0.33741
# Poissons Ratio (z) = 0.22323 0.63490
#
# Static dielectric constant tensor:
#      x y z
#    x 3.960390 0.000000 -0.344000 
#    y 0.000000 4.317570 0.000000 
#    z -0.344000 0.000000 4.638430 
# 
# 
# High freq. dielectric constant tensor:
#      x y z
#    x 1.814550 0.000000 -0.006900 
#    y 0.000000 1.798560 0.000000 
#    z -0.006900 0.000000 1.779630 
# 
# From -- ./inp_files/33374.got.cif
#   From: 2010.06.25/outbox.cif.g09.slc.cpg/sg15_17_cif.got.tgz:33374.got - 2010.06.28 07:06:18.
