data_PCOD8139634
_publ_section_title
;
Structure prediction by ZEFSAII (Michael W. Deem and Ramdas Pophale) SiO2 
 PCOD8139634
Probable space group: C 2/C
;
_chemical_formula_sum "Si O2"
_cell_formula_units_Z 40
_cell_length_a 8.916751
_cell_length_b 27.161305
_cell_length_c 8.019894
_cell_angle_alpha 90.000000
_cell_angle_beta 108.156901
_cell_angle_gamma 90.000000
_cell_volume 1845.627278
_symmetry_space_group_name_H-M "C 2/C"
_symmetry_group_IT_number 15
_symmetry_cell_setting 'monoclinic'
loop_
_space_group_symop_operation_xyz
x,y,z
-x,y,1/2-z
-x,-y,-z
x,-y,1/2+z
1/2+x,1/2+y,z
1/2-x,1/2+y,1/2-z
1/2-x,1/2-y,-z
1/2+x,1/2-y,1/2+z
loop_
_atom_site_type_symbol
_atom_site_label
_atom_site_fract_x
_atom_site_fract_y
_atom_site_fract_z
Si Si1 0.812338 0.135734 0.202484
Si Si2 0.156438 0.153432 0.639297
Si Si3 0.809091 0.194750 0.517265
Si Si4 0.166295 0.046816 0.768585
Si Si5 0.315531 0.045068 0.170924
O O1 0.740264 0.168529 0.327833
O O2 0.763507 0.079490 0.216386
O O3 0.000000 0.138791 0.250000
O O4 0.747042 0.156859 0.002194
O O5 0.259061 0.171465 0.833580
O O6 0.116753 0.095805 0.650291
O O7 0.998165 0.186828 0.578170
O O8 0.750000 0.250000 0.500000
O O9 0.000000 0.019803 0.750000
O O10 0.270516 0.011503 0.689163
O O11 0.261089 0.060830 0.968238
O O12 0.500000 0.051518 0.250000
#
# Coordination Sequence:
#
# PCOD8139634 Si02
#       5
#     8   8   8   8   8
#     4  10  20  41  68  96 132 180 232 272 325 417
#     4  10  20  40  67  95 128 171 231 278 323 412
#     4  10  20  39  65  95 131 166 220 293 338 384
#     4  12  21  41  68  97 134 189 233 269 329 420
#     4  12  25  40  64 104 149 176 223 288 347 392
#
# _framework density 21.672848999999999
#
# number of rings (size 3 to 8) (size 9 to 14) (size 15 to 20)
#    0.000    1.200    4.000    4.200    0.000    0.800 
#    3.600    0.000    0.000    0.000    0.000    0.000 
#    0.000    0.000    0.000    0.000    0.000    0.000 
#
# Total GULP energy -247888.835996 kJ/mol
# GULP energy per Si atom -12394.441800 kJ/mol
# Density = 2.162352 g / cm^3
# Si number density = 21.672849 Si / 1000 Ang^3
#
#
#
# Elastic Constant Matrix: (Units=GPa)
#
#
# Indices 1 2 3 4 5 6 
#
# 1 54.4929 35.7003 39.5390 0.0000 5.6408 0.0000
# 2 35.7003 139.5532 55.1148 0.0000 -15.1244 0.0000
# 3 39.5390 55.1148 177.4566 0.0000 -25.8210 0.0000
# 4 0.0000 0.0000 0.0000 54.0142 0.0000 -2.4593
# 5 5.6408 -15.1244 -25.8210 0.0000 28.1627 0.0000
# 6 0.0000 0.0000 0.0000 -2.4593 0.0000 32.7837
#
#
#
# Elastic Compliance Matrix: (Units=1/GPa)
#
#
# Indices 1 2 3 4 5 6 
#
# 1 0.029049 -0.006453 -0.006715 0.000000 -0.015440 0.000000
# 2 -0.006453 0.009741 -0.000737 0.000000 0.005848 0.000000
# 3 -0.006715 -0.000737 0.008653 0.000000 0.008882 0.000000
# 4 0.000000 0.000000 0.000000 0.018577 0.000000 0.001394
# 5 -0.015440 0.005848 0.008882 0.000000 0.049885 0.000000
# 6 0.000000 0.000000 0.000000 0.001394 0.000000 0.030608
#
#
# Mechanical properties :
#
#
# Convention : Reuss Voigt Hill
#
# Bulk Modulus (GPa) = 50.93197 70.24566 60.58881
# Shear Modulus (GPa) = 27.64479 39.06869 33.35674
#
# Velocity S-wave (km/s) = 3.57536 4.25038 3.92740
# Velocity P-wave (km/s) = 6.37147 7.52129 6.97013
#
# Compressibility (1/GPa) = 0.01963403
#
# Stress axis : x y z
#
# Youngs Moduli (GPa) = 34.42470 102.65638 115.57211
#
# Poissons Ratio (x) = 0.66240 0.77606
# Poissons Ratio (y) = 0.22213 0.08515
# Poissons Ratio (z) = 0.23116 0.07563
#
# Static dielectric constant tensor:
#      x y z
#    x 3.543020 0.000000 -0.405500 
#    y 0.000000 3.714590 0.000000 
#    z -0.405500 0.000000 4.932490 
# 
# 
# High freq. dielectric constant tensor:
#      x y z
#    x 1.807960 0.000000 -0.015950 
#    y 0.000000 1.842360 0.000000 
#    z -0.015950 0.000000 1.880300 
# 
# From -- ./inp_files/23725.got.cif
#   From: 2010.06.25/outbox.cif.g09.slc.cpg/sg15_12_cif.got.tgz:23725.got - 2010.06.28 07:06:18.
