data_PCOD8139934
_publ_section_title
;
Structure prediction by ZEFSAII (Michael W. Deem and Ramdas Pophale) SiO2 
 PCOD8139934
Probable space group: C 2/C
;
_chemical_formula_sum "Si O2"
_cell_formula_units_Z 40
_cell_length_a 9.511012
_cell_length_b 24.158015
_cell_length_c 11.956660
_cell_angle_alpha 90.000000
_cell_angle_beta 39.087856
_cell_angle_gamma 90.000000
_cell_volume 1732.170891
_symmetry_space_group_name_H-M "C 2/C"
_symmetry_group_IT_number 15
_symmetry_cell_setting 'monoclinic'
loop_
_space_group_symop_operation_xyz
x,y,z
-x,y,1/2-z
-x,-y,-z
x,-y,1/2+z
1/2+x,1/2+y,z
1/2-x,1/2+y,1/2-z
1/2-x,1/2-y,-z
1/2+x,1/2-y,1/2+z
loop_
_atom_site_type_symbol
_atom_site_label
_atom_site_fract_x
_atom_site_fract_y
_atom_site_fract_z
Si Si1 0.753491 0.831394 0.608477
Si Si2 0.127619 0.551148 0.275416
Si Si3 0.304210 0.059600 0.673793
Si Si4 0.500000 0.119376 0.750000
Si Si5 0.396079 0.695928 0.432148
Si Si6 0.000000 0.138454 0.750000
O O1 0.500000 0.810149 0.750000
O O2 0.761691 0.893913 0.655996
O O3 0.902045 0.794217 0.602533
O O4 0.838013 0.824819 0.427289
O O5 0.276990 0.502912 0.242467
O O6 0.000000 0.524215 0.250000
O O7 0.927426 0.565839 0.480927
O O8 0.477688 0.081227 0.656766
O O9 0.096135 0.099718 0.789496
O O10 0.726288 0.153350 0.592719
O O11 0.500000 0.675145 0.250000
O O12 0.250000 0.750000 0.500000
#
# Coordination Sequence:
#
# PCOD8139934 Si02
#       6
#     8   8   8   4   8   4
#     4  11  24  46  72 103 142 184 234 291 358 427
#     4  10  20  40  64 100 149 190 238 281 339 427
#     4  11  22  39  67 100 145 194 236 285 345 420
#     4  12  24  46  74 103 144 189 244 296 358 418
#     4  12  27  49  77 102 137 181 240 309 366 426
#     4  12  22  40  68  97 142 189 230 286 348 416
#
# _framework density 23.092410000000001
#
# number of rings (size 3 to 8) (size 9 to 14) (size 15 to 20)
#    0.000    0.800    8.000    1.200    0.000    0.800 
#    9.000    1.000    2.200    0.000    0.000    0.000 
#    0.000    0.000    0.000    0.000    0.000    0.000 
#
# Total GULP energy -247776.861578 kJ/mol
# GULP energy per Si atom -12388.843079 kJ/mol
# Density = 2.303985 g / cm^3
# Si number density = 23.092410 Si / 1000 Ang^3
#
#
#
# Elastic Constant Matrix: (Units=GPa)
#
#
# Indices 1 2 3 4 5 6 
#
# 1 165.0833 29.3520 52.0365 0.0000 -2.9992 0.0000
# 2 29.3520 48.3165 18.4936 0.0000 -1.8706 0.0000
# 3 52.0365 18.4936 150.9335 0.0000 16.7276 0.0000
# 4 0.0000 0.0000 0.0000 -9.9160 0.0000 -3.5645
# 5 -2.9992 -1.8706 16.7276 0.0000 45.2487 0.0000
# 6 0.0000 0.0000 0.0000 -3.5645 0.0000 38.7866
#
#
#
# Elastic Compliance Matrix: (Units=1/GPa)
#
#
# Indices 1 2 3 4 5 6 
#
# 1 0.007429 -0.003607 -0.002250 0.000000 0.001175 0.000000
# 2 -0.003607 0.023635 -0.001808 0.000000 0.001406 0.000000
# 3 -0.002250 -0.001808 0.007974 0.000000 -0.003172 0.000000
# 4 0.000000 0.000000 0.000000 -0.097622 0.000000 -0.008972
# 5 0.001175 0.001406 -0.003172 0.000000 0.023409 0.000000
# 6 0.000000 0.000000 0.000000 -0.008972 0.000000 0.024958
#
#
# Mechanical properties :
#
#
# Convention : Reuss Voigt Hill
#
# Bulk Modulus (GPa) = 42.17878 62.67750 52.42814
# Shear Modulus (GPa) = 384.19891 32.45393 208.32642
#
# Velocity S-wave (km/s) = 12.91262 3.75293 9.50842
# Velocity P-wave (km/s) = 15.51190 6.78087 11.97078
#
# Compressibility (1/GPa) = 0.02370861
#
# Stress axis : x y z
#
# Youngs Moduli (GPa) = 134.60234 42.31102 125.40562
#
# Poissons Ratio (x) = 0.15260 0.28212
# Poissons Ratio (y) = 0.48547 0.22677
# Poissons Ratio (z) = 0.30281 0.07651
#
# Static dielectric constant tensor:
#      x y z
#    x 4.212920 0.000000 0.168780 
#    y 0.000000 3.902370 0.000000 
#    z 0.168780 0.000000 4.287780 
# 
# 
# High freq. dielectric constant tensor:
#      x y z
#    x 1.920870 0.000000 0.018160 
#    y 0.000000 1.888930 0.000000 
#    z 0.018160 0.000000 1.927020 
# 
# From -- ./inp_files/24470.got.cif
#   From: 2010.06.25/outbox.cif.g09.slc.cpg/sg15_13_cif.got.tgz:24470.got - 2010.06.28 07:06:18.
