data_PCOD8139872
_publ_section_title
;
Structure prediction by ZEFSAII (Michael W. Deem and Ramdas Pophale) SiO2 
 PCOD8139872
Probable space group: C 2/C
;
_chemical_formula_sum "Si O2"
_cell_formula_units_Z 56
_cell_length_a 26.287996
_cell_length_b 5.567119
_cell_length_c 18.583883
_cell_angle_alpha 90.000000
_cell_angle_beta 71.431202
_cell_angle_gamma 90.000000
_cell_volume 2578.138226
_symmetry_space_group_name_H-M "C 2/C"
_symmetry_group_IT_number 15
_symmetry_cell_setting 'monoclinic'
loop_
_space_group_symop_operation_xyz
x,y,z
-x,y,1/2-z
-x,-y,-z
x,-y,1/2+z
1/2+x,1/2+y,z
1/2-x,1/2+y,1/2-z
1/2-x,1/2-y,-z
1/2+x,1/2-y,1/2+z
loop_
_atom_site_type_symbol
_atom_site_label
_atom_site_fract_x
_atom_site_fract_y
_atom_site_fract_z
Si Si1 0.552267 0.280945 0.684620
Si Si2 0.652301 0.033064 0.103001
Si Si3 0.888206 0.436042 0.026234
Si Si4 0.776537 0.702383 0.821027
Si Si5 0.173056 0.603989 0.319782
Si Si6 0.636858 0.582346 0.720181
Si Si7 0.550353 0.438397 0.526193
O O1 0.500000 0.181594 0.750000
O O2 0.580864 0.453445 0.729787
O O3 0.536292 0.415784 0.617390
O O4 0.593052 0.066069 0.649914
O O5 0.655276 0.292518 0.137732
O O6 0.701357 0.873831 0.110439
O O7 0.657231 0.038864 0.014901
O O8 0.859505 0.416498 0.116583
O O9 0.914369 0.177702 0.000229
O O10 0.924484 0.680909 0.010255
O O11 0.785975 0.500791 0.756903
O O12 0.712668 0.746959 0.855030
O O13 0.812862 0.922593 0.778813
O O14 0.128314 0.748757 0.293937
O O15 0.500000 0.500000 0.500000
#
# Coordination Sequence:
#
# PCOD8139872 Si02
#       7
#     8   8   8   8   8   8   8
#     4  10  22  39  67  92 126 172 219 269 331 395
#     4   9  21  42  61  90 132 168 218 267 330 396
#     4  11  25  44  67  97 134 178 214 278 338 397
#     4  10  21  39  63  96 126 171 218 275 326 384
#     4  11  23  37  68  94 132 166 227 270 334 396
#     4  10  20  40  62  89 128 167 212 276 316 398
#     4  11  25  45  65  97 136 171 223 276 334 397
#
# _framework density 21.721101999999998
#
# number of rings (size 3 to 8) (size 9 to 14) (size 15 to 20)
#    0.000    1.714    2.857    0.429    4.000    3.429 
#    0.000    0.714    0.000    0.000    0.000    0.000 
#    0.000    0.000    0.000    0.000    0.000    0.000 
#
# Total GULP energy -346878.057729 kJ/mol
# GULP energy per Si atom -12388.502062 kJ/mol
# Density = 2.167166 g / cm^3
# Si number density = 21.721102 Si / 1000 Ang^3
#
#
#
# Elastic Constant Matrix: (Units=GPa)
#
#
# Indices 1 2 3 4 5 6 
#
# 1 89.8127 5.0797 23.7854 0.0000 28.1453 0.0000
# 2 5.0797 68.4850 -8.8357 0.0000 3.6785 0.0000
# 3 23.7854 -8.8357 63.6475 0.0000 15.3832 0.0000
# 4 0.0000 0.0000 0.0000 18.9193 0.0000 -1.1939
# 5 28.1453 3.6785 15.3832 0.0000 29.5254 0.0000
# 6 0.0000 0.0000 0.0000 -1.1939 0.0000 24.3008
#
#
#
# Elastic Compliance Matrix: (Units=1/GPa)
#
#
# Indices 1 2 3 4 5 6 
#
# 1 0.016308 -0.000825 -0.002833 0.000000 -0.013967 0.000000
# 2 -0.000825 0.015205 0.003074 0.000000 -0.002710 0.000000
# 3 -0.002833 0.003074 0.019034 0.000000 -0.007599 0.000000
# 4 0.000000 0.000000 0.000000 0.053020 0.000000 0.002605
# 5 -0.013967 -0.002710 -0.007599 0.000000 0.051480 0.000000
# 6 0.000000 0.000000 0.000000 0.002605 0.000000 0.041279
#
#
# Mechanical properties :
#
#
# Convention : Reuss Voigt Hill
#
# Bulk Modulus (GPa) = 20.25175 29.11156 24.68166
# Shear Modulus (GPa) = 23.36948 28.01015 25.68981
#
# Velocity S-wave (km/s) = 3.28363 3.59491 3.44279
# Velocity P-wave (km/s) = 4.87033 5.53739 5.21454
#
# Compressibility (1/GPa) = 0.04937844
#
# Stress axis : x y z
#
# Youngs Moduli (GPa) = 61.31882 65.76757 52.53841
#
# Poissons Ratio (x) = 0.05426 0.14885
# Poissons Ratio (y) = 0.05059 -0.16150
# Poissons Ratio (z) = 0.17373 -0.20217
#
# Static dielectric constant tensor:
#      x y z
#    x 3.956560 0.000000 0.472280 
#    y 0.000000 4.129980 0.000000 
#    z 0.472280 0.000000 3.771260 
# 
# 
# High freq. dielectric constant tensor:
#      x y z
#    x 1.856180 0.000000 0.036190 
#    y 0.000000 1.855800 0.000000 
#    z 0.036190 0.000000 1.840040 
# 
# From -- ./inp_files/221227.got.cif
#   From: 2010.06.25/outbox.cif.g09.slc.cpg/sg15_111_cif.got.tgz:221227.got - 2010.06.28 07:06:18.
