data_PCOD8139247
_publ_section_title
;
Structure prediction by ZEFSAII (Michael W. Deem and Ramdas Pophale) SiO2 
 PCOD8139247
Probable space group: C 2/C
;
_chemical_formula_sum "Si O2"
_cell_formula_units_Z 44
_cell_length_a 10.388249
_cell_length_b 20.569236
_cell_length_c 10.858849
_cell_angle_alpha 90.000000
_cell_angle_beta 56.269991
_cell_angle_gamma 90.000000
_cell_volume 1929.709336
_symmetry_space_group_name_H-M "C 2/C"
_symmetry_group_IT_number 15
_symmetry_cell_setting 'monoclinic'
loop_
_space_group_symop_operation_xyz
x,y,z
-x,y,1/2-z
-x,-y,-z
x,-y,1/2+z
1/2+x,1/2+y,z
1/2-x,1/2+y,1/2-z
1/2-x,1/2-y,-z
1/2+x,1/2-y,1/2+z
loop_
_atom_site_type_symbol
_atom_site_label
_atom_site_fract_x
_atom_site_fract_y
_atom_site_fract_z
Si Si1 0.001866 0.377056 0.542493
Si Si2 0.712312 0.920251 0.649351
Si Si3 0.274078 0.948473 0.246057
Si Si4 0.068034 0.742566 0.585611
Si Si5 0.459480 0.615846 0.478774
Si Si6 0.500000 0.516716 0.250000
O O1 0.117349 0.381376 0.597288
O O2 0.067513 0.426461 0.404515
O O3 0.833748 0.396244 0.686703
O O4 0.985780 0.305308 0.494840
O O5 0.890811 0.907360 0.523847
O O6 0.681783 0.997876 0.673531
O O7 0.194214 0.885843 0.354389
O O8 0.145628 0.974504 0.218388
O O9 0.250000 0.750000 0.500000
O O10 0.000231 0.813134 0.592048
O O11 0.000000 0.716368 0.750000
O O12 0.428629 0.563066 0.391004
#
# Coordination Sequence:
#
# PCOD8139247 Si02
#       6
#     8   8   8   8   8   4
#     4  11  24  43  64  96 138 173 217 278 334 393
#     4  10  23  43  65  98 137 172 214 274 348 390
#     4  11  21  39  67 104 131 172 222 274 336 398
#     4  12  26  46  66  94 133 178 233 273 323 401
#     4  11  22  41  68  95 128 180 224 271 326 397
#     4  10  20  38  68  96 138 172 218 276 328 406
#
# _framework density 22.801362000000001
#
# number of rings (size 3 to 8) (size 9 to 14) (size 15 to 20)
#    0.000    1.091    0.909    7.091    2.545    0.727 
#   13.091    3.636    0.000    0.000    0.000    0.000 
#    0.000    0.000    0.000    0.000    0.000    0.000 
#
# Total GULP energy -272690.552371 kJ/mol
# GULP energy per Si atom -12395.025108 kJ/mol
# Density = 2.274947 g / cm^3
# Si number density = 22.801362 Si / 1000 Ang^3
#
#
#
# Elastic Constant Matrix: (Units=GPa)
#
#
# Indices 1 2 3 4 5 6 
#
# 1 87.0148 29.7154 25.3737 0.0000 8.4726 0.0000
# 2 29.7154 104.6886 29.4157 0.0000 6.3708 0.0000
# 3 25.3737 29.4157 126.6422 0.0000 -10.4014 0.0000
# 4 0.0000 0.0000 0.0000 36.0402 0.0000 -2.3955
# 5 8.4726 6.3708 -10.4014 0.0000 29.7574 0.0000
# 6 0.0000 0.0000 0.0000 -2.3955 0.0000 27.1621
#
#
#
# Elastic Compliance Matrix: (Units=1/GPa)
#
#
# Indices 1 2 3 4 5 6 
#
# 1 0.013585 -0.002942 -0.002373 0.000000 -0.004067 0.000000
# 2 -0.002942 0.011143 -0.002189 0.000000 -0.002313 0.000000
# 3 -0.002373 -0.002189 0.009239 0.000000 0.004374 0.000000
# 4 0.000000 0.000000 0.000000 0.027910 0.000000 0.002462
# 5 -0.004067 -0.002313 0.004374 0.000000 0.036787 0.000000
# 6 0.000000 0.000000 0.000000 0.002462 0.000000 0.037033
#
#
# Mechanical properties :
#
#
# Convention : Reuss Voigt Hill
#
# Bulk Modulus (GPa) = 52.74082 54.15057 53.44569
# Shear Modulus (GPa) = 31.84225 34.18133 33.01179
#
# Velocity S-wave (km/s) = 3.74104 3.87601 3.80912
# Velocity P-wave (km/s) = 6.46848 6.62055 6.54496
#
# Compressibility (1/GPa) = 0.01896065
#
# Stress axis : x y z
#
# Youngs Moduli (GPa) = 73.61155 89.74296 108.23406
#
# Poissons Ratio (x) = 0.26401 0.25679
# Poissons Ratio (y) = 0.21655 0.23690
# Poissons Ratio (z) = 0.17465 0.19643
#
# Static dielectric constant tensor:
#      x y z
#    x 3.988420 0.000000 -0.143880 
#    y 0.000000 4.149230 0.000000 
#    z -0.143880 0.000000 4.591250 
# 
# 
# High freq. dielectric constant tensor:
#      x y z
#    x 1.895030 0.000000 -0.008570 
#    y 0.000000 1.887420 0.000000 
#    z -0.008570 0.000000 1.922040 
# 
# From -- ./inp_files/88736.got.cif
#   From: 2010.06.25/outbox.cif.g09.slc.cpg/sg15_45_cif.got.tgz:88736.got - 2010.06.28 07:06:18.
