data_PCOD8139077
_publ_section_title
;
Structure prediction by ZEFSAII (Michael W. Deem and Ramdas Pophale) SiO2 
 PCOD8139077
Probable space group: C 2/C
;
_chemical_formula_sum "Si O2"
_cell_formula_units_Z 56
_cell_length_a 10.636310
_cell_length_b 12.093656
_cell_length_c 19.835753
_cell_angle_alpha 90.000000
_cell_angle_beta 65.844332
_cell_angle_gamma 90.000000
_cell_volume 2328.092251
_symmetry_space_group_name_H-M "C 2/C"
_symmetry_group_IT_number 15
_symmetry_cell_setting 'monoclinic'
loop_
_space_group_symop_operation_xyz
x,y,z
-x,y,1/2-z
-x,-y,-z
x,-y,1/2+z
1/2+x,1/2+y,z
1/2-x,1/2+y,1/2-z
1/2-x,1/2-y,-z
1/2+x,1/2-y,1/2+z
loop_
_atom_site_type_symbol
_atom_site_label
_atom_site_fract_x
_atom_site_fract_y
_atom_site_fract_z
Si Si1 0.065910 0.233273 0.622239
Si Si2 0.127053 0.013465 0.677176
Si Si3 0.800074 0.870850 0.609538
Si Si4 0.118670 0.104558 0.932008
Si Si5 0.913693 0.830052 0.918165
Si Si6 0.143018 0.688346 0.692972
Si Si7 0.802246 0.628844 0.225017
O O1 0.116171 0.145723 0.668424
O O2 0.200410 0.309456 0.577559
O O3 0.018264 0.165957 0.566369
O O4 0.946778 0.315808 0.673970
O O5 0.000000 0.972609 0.750000
O O6 0.111172 0.950607 0.609781
O O7 0.269038 0.979954 0.685737
O O8 0.702287 0.901762 0.695111
O O9 0.926076 0.796200 0.606966
O O10 0.886814 0.971978 0.555125
O O11 0.230933 0.104237 0.845325
O O12 0.160672 0.165579 0.992297
O O13 0.856614 0.735274 0.883141
O O14 0.178339 0.784847 0.737507
O O15 0.000000 0.632246 0.750000
#
# Coordination Sequence:
#
# PCOD8139077 Si02
#       7
#     8   8   8   8   8   8   8
#     4  11  25  40  64  98 131 168 218 265 319 378
#     4  11  19  40  67  90 125 173 215 266 325 372
#     4  12  22  39  63  91 129 168 213 260 318 385
#     4  11  25  42  63  94 136 165 207 270 320 377
#     4  11  21  41  66  91 125 173 215 257 322 389
#     4  10  20  41  69  93 121 169 214 260 323 379
#     4  10  20  38  64  94 128 161 214 274 310 373
#
# _framework density 24.054030000000001
#
# number of rings (size 3 to 8) (size 9 to 14) (size 15 to 20)
#    0.000    1.143    4.286    3.000    0.000    2.857 
#    2.571    0.000    0.000    3.429    0.000    0.000 
#    0.000    0.000    0.000    0.000    0.000    0.000 
#
# Total GULP energy -346899.831825 kJ/mol
# GULP energy per Si atom -12389.279708 kJ/mol
# Density = 2.399928 g / cm^3
# Si number density = 24.054030 Si / 1000 Ang^3
#
#
#
# Elastic Constant Matrix: (Units=GPa)
#
#
# Indices 1 2 3 4 5 6 
#
# 1 100.7447 41.9316 12.4169 0.0000 0.4473 0.0000
# 2 41.9316 78.6115 16.0565 0.0000 7.5696 0.0000
# 3 12.4169 16.0565 81.9971 0.0000 11.8916 0.0000
# 4 0.0000 0.0000 0.0000 29.5435 0.0000 -1.9369
# 5 0.4473 7.5696 11.8916 0.0000 29.9835 0.0000
# 6 0.0000 0.0000 0.0000 -1.9369 0.0000 34.8503
#
#
#
# Elastic Compliance Matrix: (Units=1/GPa)
#
#
# Indices 1 2 3 4 5 6 
#
# 1 0.012889 -0.006877 -0.000880 0.000000 0.001893 0.000000
# 2 -0.006877 0.017093 -0.001798 0.000000 -0.003500 0.000000
# 3 -0.000880 -0.001798 0.013383 0.000000 -0.004841 0.000000
# 4 0.000000 0.000000 0.000000 0.033972 0.000000 0.001888
# 5 0.001893 -0.003500 -0.004841 0.000000 0.036127 0.000000
# 6 0.000000 0.000000 0.000000 0.001888 0.000000 0.028799
#
#
# Mechanical properties :
#
#
# Convention : Reuss Voigt Hill
#
# Bulk Modulus (GPa) = 41.22927 44.68481 42.95704
# Shear Modulus (GPa) = 29.50580 31.60534 30.55557
#
# Velocity S-wave (km/s) = 3.50615 3.62875 3.56798
# Velocity P-wave (km/s) = 5.79381 6.01451 5.90519
#
# Compressibility (1/GPa) = 0.02425462
#
# Stress axis : x y z
#
# Youngs Moduli (GPa) = 77.58809 58.50178 74.72245
#
# Poissons Ratio (x) = 0.40234 0.06572
# Poissons Ratio (y) = 0.53361 0.13437
# Poissons Ratio (z) = 0.06824 0.10520
#
# Static dielectric constant tensor:
#      x y z
#    x 4.358290 0.000000 0.168660 
#    y 0.000000 4.067430 0.000000 
#    z 0.168660 0.000000 4.053140 
# 
# 
# High freq. dielectric constant tensor:
#      x y z
#    x 1.954210 0.000000 0.004480 
#    y 0.000000 1.936230 0.000000 
#    z 0.004480 0.000000 1.953900 
# 
# From -- ./inp_files/237526.got.cif
#   From: 2010.06.25/outbox.cif.g09.slc.cpg/sg15_119_cif.got.tgz:237526.got - 2010.06.28 07:06:18.
