data_PCOD8139092
_publ_section_title
;
Structure prediction by ZEFSAII (Michael W. Deem and Ramdas Pophale) SiO2 
 PCOD8139092
Probable space group: C 2/C
;
_chemical_formula_sum "Si O2"
_cell_formula_units_Z 40
_cell_length_a 28.418832
_cell_length_b 8.603006
_cell_length_c 22.385685
_cell_angle_alpha 90.000000
_cell_angle_beta 161.506588
_cell_angle_gamma 90.000000
_cell_volume 1736.017153
_symmetry_space_group_name_H-M "C 2/C"
_symmetry_group_IT_number 15
_symmetry_cell_setting 'monoclinic'
loop_
_space_group_symop_operation_xyz
x,y,z
-x,y,1/2-z
-x,-y,-z
x,-y,1/2+z
1/2+x,1/2+y,z
1/2-x,1/2+y,1/2-z
1/2-x,1/2-y,-z
1/2+x,1/2-y,1/2+z
loop_
_atom_site_type_symbol
_atom_site_label
_atom_site_fract_x
_atom_site_fract_y
_atom_site_fract_z
Si Si1 0.015983 0.382930 0.965451
Si Si2 0.573257 0.408309 0.395295
Si Si3 0.671456 0.920776 0.348854
Si Si4 0.186700 0.929211 0.857074
Si Si5 0.727669 0.653443 0.806040
O O1 0.941576 0.453126 0.815185
O O2 0.942005 0.219185 0.898767
O O3 0.000000 0.500000 0.000000
O O4 0.192342 0.364692 0.162586
O O5 0.500000 0.324893 0.250000
O O6 0.664420 0.558047 0.481462
O O7 0.451033 0.458527 0.295479
O O8 0.683851 0.289422 0.556429
O O9 0.685696 0.940967 0.438084
O O10 0.624825 0.745551 0.276206
O O11 0.245367 0.992169 0.863968
#
# Coordination Sequence:
#
# PCOD8139092 Si02
#       5
#     8   8   8   8   8
#     4  11  26  46  64  93 127 169 223 257 315 384
#     4   9  19  35  58  95 131 159 208 256 315 387
#     4   9  22  38  63  94 133 165 207 267 316 385
#     4  10  20  38  64  99 128 166 206 262 335 368
#     4  11  23  42  68  93 125 171 212 269 316 379
#
# _framework density 23.041246000000001
#
# number of rings (size 3 to 8) (size 9 to 14) (size 15 to 20)
#    0.000    2.000    2.000    0.000    5.600    4.000 
#    3.600    2.000    0.000    0.000    0.000    0.000 
#    0.000    0.000    0.000    0.000    0.000    0.000 
#
# Total GULP energy -247867.073766 kJ/mol
# GULP energy per Si atom -12393.353688 kJ/mol
# Density = 2.298880 g / cm^3
# Si number density = 23.041246 Si / 1000 Ang^3
#
#
#
# Elastic Constant Matrix: (Units=GPa)
#
#
# Indices 1 2 3 4 5 6 
#
# 1 115.1928 23.1406 13.2662 0.0002 28.7027 0.0002
# 2 23.1406 74.7134 -6.1958 0.0001 5.7410 0.0001
# 3 13.2662 -6.1958 25.2520 0.0002 11.9778 0.0002
# 4 0.0002 0.0001 0.0002 20.5584 0.0002 -8.3421
# 5 28.7027 5.7410 11.9778 0.0002 31.1948 0.0002
# 6 0.0002 0.0001 0.0002 -8.3421 0.0002 23.7835
#
#
#
# Elastic Compliance Matrix: (Units=1/GPa)
#
#
# Indices 1 2 3 4 5 6 
#
# 1 0.011973 -0.003200 -0.002603 0.000000 -0.009428 0.000000
# 2 -0.003200 0.015092 0.006486 0.000000 -0.002324 0.000000
# 3 -0.002603 0.006486 0.051340 -0.000001 -0.018512 -0.000001
# 4 0.000000 0.000000 -0.000001 0.056714 0.000000 0.019892
# 5 -0.009428 -0.002324 -0.018512 0.000000 0.048267 0.000000
# 6 0.000000 0.000000 -0.000001 0.019892 0.000000 0.049023
#
#
# Mechanical properties :
#
#
# Convention : Reuss Voigt Hill
#
# Bulk Modulus (GPa) = 12.53572 30.62003 21.57787
# Shear Modulus (GPa) = 19.40745 27.43716 23.42231
#
# Velocity S-wave (km/s) = 2.90537 3.45452 3.19178
# Velocity P-wave (km/s) = 4.08746 5.40645 4.79254
#
# Compressibility (1/GPa) = 0.07977206
#
# Stress axis : x y z
#
# Youngs Moduli (GPa) = 83.52242 66.26046 19.47784
#
# Poissons Ratio (x) = 0.21201 0.05070
# Poissons Ratio (y) = 0.26725 -0.12634
# Poissons Ratio (z) = 0.21741 -0.42978
#
# Static dielectric constant tensor:
#      x y z
#    x 4.544360 0.000000 0.492270 
#    y 0.000000 4.187090 0.000000 
#    z 0.492270 0.000000 4.325430 
# 
# 
# High freq. dielectric constant tensor:
#      x y z
#    x 1.911020 0.000000 0.015730 
#    y 0.000000 1.905780 0.000000 
#    z 0.015730 0.000000 1.889360 
# 
# From -- ./inp_files/60015.got.cif
#   From: 2010.06.25/outbox.cif.g09.slc.cpg/sg15_31_cif.got.tgz:60015.got - 2010.06.28 07:06:18.
