data_PCOD8139203
_publ_section_title
;
Structure prediction by ZEFSAII (Michael W. Deem and Ramdas Pophale) SiO2 
 PCOD8139203
Probable space group: C 2/C
;
_chemical_formula_sum "Si O2"
_cell_formula_units_Z 56
_cell_length_a 18.771900
_cell_length_b 16.428578
_cell_length_c 16.970947
_cell_angle_alpha 90.000000
_cell_angle_beta 31.481721
_cell_angle_gamma 90.000000
_cell_volume 2733.211297
_symmetry_space_group_name_H-M "C 2/C"
_symmetry_group_IT_number 15
_symmetry_cell_setting 'monoclinic'
loop_
_space_group_symop_operation_xyz
x,y,z
-x,y,1/2-z
-x,-y,-z
x,-y,1/2+z
1/2+x,1/2+y,z
1/2-x,1/2+y,1/2-z
1/2-x,1/2-y,-z
1/2+x,1/2-y,1/2+z
loop_
_atom_site_type_symbol
_atom_site_label
_atom_site_fract_x
_atom_site_fract_y
_atom_site_fract_z
Si Si1 0.116258 0.723742 0.082638
Si Si2 0.226420 0.787133 0.365041
Si Si3 0.271580 0.304534 0.668827
Si Si4 0.453373 0.667643 0.205403
Si Si5 0.121510 0.954391 0.844040
Si Si6 0.989035 0.596717 0.110227
Si Si7 0.359398 0.059589 0.682569
O O1 0.000000 0.756777 0.250000
O O2 0.095492 0.627180 0.078002
O O3 0.250000 0.750000 0.000000
O O4 0.120734 0.768268 0.994461
O O5 0.219044 0.762444 0.280351
O O6 0.320973 0.726172 0.326424
O O7 0.285625 0.879072 0.311699
O O8 0.074774 0.788405 0.542940
O O9 0.361589 0.370422 0.627082
O O10 0.139880 0.344396 0.751659
O O11 0.500000 0.654837 0.250000
O O12 0.416423 0.576222 0.208375
O O13 0.257161 0.009004 0.721559
O O14 0.000000 0.000000 0.000000
O O15 0.944749 0.502005 0.158731
O O16 0.042617 0.608646 0.969843
#
# Coordination Sequence:
#
# PCOD8139203 Si02
#       7
#     8   8   8   8   8   8   8
#     4  12  24  39  62  93 134 168 207 265 325 380
#     4  11  21  39  71  92 121 171 213 264 315 382
#     4  10  22  38  65  93 123 165 226 257 307 387
#     4  11  24  41  64  98 133 158 213 267 327 377
#     4  10  21  39  64  90 124 168 213 263 311 384
#     4  10  21  39  59  93 126 159 216 267 315 383
#     4  10  20  38  67  90 118 166 222 266 311 368
#
# _framework density 20.488719
#
# number of rings (size 3 to 8) (size 9 to 14) (size 15 to 20)
#    0.000    1.429    4.286    1.286    2.000    2.286 
#    0.000    4.286    0.000    0.000    0.000    0.000 
#    0.000    0.000    0.000    0.000    0.000    0.000 
#
# Total GULP energy -347013.076714 kJ/mol
# GULP energy per Si atom -12393.324168 kJ/mol
# Density = 2.044209 g / cm^3
# Si number density = 20.488719 Si / 1000 Ang^3
#
#
#
# Elastic Constant Matrix: (Units=GPa)
#
#
# Indices 1 2 3 4 5 6 
#
# 1 97.7240 37.7877 18.4301 -0.0005 2.1262 0.0003
# 2 37.7877 87.5223 24.4274 -0.0001 -1.1153 0.0001
# 3 18.4301 24.4274 104.5763 -0.0002 3.1372 0.0000
# 4 -0.0005 -0.0001 -0.0002 30.2195 0.0004 0.8633
# 5 2.1262 -1.1153 3.1372 0.0004 33.7395 -0.0002
# 6 0.0003 0.0001 0.0000 0.8633 -0.0002 28.8307
#
#
#
# Elastic Compliance Matrix: (Units=1/GPa)
#
#
# Indices 1 2 3 4 5 6 
#
# 1 0.012405 -0.005096 -0.000970 0.000000 -0.000860 0.000000
# 2 -0.005096 0.014331 -0.002480 0.000000 0.001026 0.000000
# 3 -0.000970 -0.002480 0.010342 0.000000 -0.000982 0.000000
# 4 0.000000 0.000000 0.000000 0.033120 0.000000 -0.000992
# 5 -0.000860 0.001026 -0.000982 0.000000 0.029818 0.000000
# 6 0.000000 0.000000 0.000000 -0.000992 0.000000 0.034715
#
#
# Mechanical properties :
#
#
# Convention : Reuss Voigt Hill
#
# Bulk Modulus (GPa) = 50.03566 50.12367 50.07966
# Shear Modulus (GPa) = 31.54854 32.50310 32.02582
#
# Velocity S-wave (km/s) = 3.92829 3.98727 3.95789
# Velocity P-wave (km/s) = 6.71188 6.76128 6.73663
#
# Compressibility (1/GPa) = 0.01998575
#
# Stress axis : x y z
#
# Youngs Moduli (GPa) = 80.61187 69.77787 96.69163
#
# Poissons Ratio (x) = 0.35560 0.09380
# Poissons Ratio (y) = 0.41081 0.23981
# Poissons Ratio (z) = 0.07820 0.17306
#
# Static dielectric constant tensor:
#      x y z
#    x 3.023530 -0.000130 -0.295160 
#    y -0.000130 8.708460 -0.000040 
#    z -0.295160 -0.000040 3.671870 
# 
# 
# High freq. dielectric constant tensor:
#      x y z
#    x 1.786770 0.000000 -0.014150 
#    y 0.000000 1.797800 0.000000 
#    z -0.014150 0.000000 1.809640 
# 
# From -- ./inp_files/216033.got.cif
#   From: 2010.06.25/outbox.cif.g09.slc.cpg/sg15_109_cif.got.tgz:216033.got - 2010.06.28 07:06:18.
