data_PCOD8139234
_publ_section_title
;
Structure prediction by ZEFSAII (Michael W. Deem and Ramdas Pophale) SiO2 
 PCOD8139234
Probable space group: C 2/C
;
_chemical_formula_sum "Si O2"
_cell_formula_units_Z 56
_cell_length_a 10.334912
_cell_length_b 24.561988
_cell_length_c 11.402793
_cell_angle_alpha 90.000000
_cell_angle_beta 116.372145
_cell_angle_gamma 90.000000
_cell_volume 2593.310749
_symmetry_space_group_name_H-M "C 2/C"
_symmetry_group_IT_number 15
_symmetry_cell_setting 'monoclinic'
loop_
_space_group_symop_operation_xyz
x,y,z
-x,y,1/2-z
-x,-y,-z
x,-y,1/2+z
1/2+x,1/2+y,z
1/2-x,1/2+y,1/2-z
1/2-x,1/2-y,-z
1/2+x,1/2-y,1/2+z
loop_
_atom_site_type_symbol
_atom_site_label
_atom_site_fract_x
_atom_site_fract_y
_atom_site_fract_z
Si Si1 0.739508 0.568894 0.742756
Si Si2 0.500000 0.864844 0.250000
Si Si3 0.924054 0.917077 0.555658
Si Si4 0.121692 0.287022 0.493320
Si Si5 0.059643 0.188455 0.021444
Si Si6 0.782986 0.948600 0.728677
Si Si7 0.349021 0.156489 0.248739
Si Si8 0.000000 0.859970 0.250000
O O1 0.889469 0.598877 0.779703
O O2 0.645541 0.559862 0.589234
O O3 0.779613 0.509406 0.809502
O O4 0.642870 0.602480 0.796515
O O5 0.589377 0.829597 0.378007
O O6 0.807186 0.922602 0.610794
O O7 0.966395 0.853557 0.562263
O O8 0.066358 0.952187 0.640183
O O9 0.250000 0.250000 0.500000
O O10 0.166037 0.317029 0.629925
O O11 0.981959 0.249629 0.460570
O O12 0.228655 0.181679 0.114560
O O13 0.023268 0.178689 0.870591
O O14 0.671139 0.908946 0.750082
O O15 0.500000 0.169805 0.250000
#
# Coordination Sequence:
#
# PCOD8139234 Si02
#       8
#     8   4   8   8   8   8   8   4
#     4  11  23  41  64  97 134 176 220 277 333 390
#     4  12  28  44  66 102 136 174 234 272 336 422
#     4   9  19  40  64 100 121 171 233 266 314 410
#     4  12  25  48  72  93 129 180 224 279 341 407
#     4  10  23  42  71  96 133 171 220 281 337 389
#     4  10  20  38  68  89 133 175 221 271 327 389
#     4  11  26  42  63 103 137 171 224 274 336 408
#     4  10  22  42  70 102 134 172 228 278 330 406
#
# _framework density 21.594017000000001
#
# number of rings (size 3 to 8) (size 9 to 14) (size 15 to 20)
#    0.000    1.429    0.000    5.571    4.000    5.143 
#    0.000    1.429    0.000    0.000    0.000    0.000 
#    0.000    0.000    0.000    0.000    0.000    0.000 
#
# Total GULP energy -347332.569279 kJ/mol
# GULP energy per Si atom -12404.734617 kJ/mol
# Density = 2.154487 g / cm^3
# Si number density = 21.594017 Si / 1000 Ang^3
#
#
#
# Elastic Constant Matrix: (Units=GPa)
#
#
# Indices 1 2 3 4 5 6 
#
# 1 126.6652 49.8902 21.3306 0.0000 -1.1442 0.0000
# 2 49.8902 102.7338 21.5399 0.0000 5.0536 0.0000
# 3 21.3306 21.5399 83.2074 0.0000 -6.8694 0.0000
# 4 0.0000 0.0000 0.0000 23.1019 0.0000 2.7607
# 5 -1.1442 5.0536 -6.8694 0.0000 23.1724 0.0000
# 6 0.0000 0.0000 0.0000 2.7607 0.0000 28.1796
#
#
#
# Elastic Compliance Matrix: (Units=1/GPa)
#
#
# Indices 1 2 3 4 5 6 
#
# 1 0.009935 -0.004616 -0.001259 0.000000 0.001124 0.000000
# 2 -0.004616 0.012661 -0.002400 0.000000 -0.003700 0.000000
# 3 -0.001259 -0.002400 0.013326 0.000000 0.004412 0.000000
# 4 0.000000 0.000000 0.000000 0.043799 0.000000 -0.004291
# 5 0.001124 -0.003700 0.004412 0.000000 0.045325 0.000000
# 6 0.000000 0.000000 0.000000 -0.004291 0.000000 0.035907
#
#
# Mechanical properties :
#
#
# Convention : Reuss Voigt Hill
#
# Bulk Modulus (GPa) = 51.61946 55.34753 53.48350
# Shear Modulus (GPa) = 27.17965 29.54714 28.36340
#
# Velocity S-wave (km/s) = 3.55162 3.70307 3.62813
# Velocity P-wave (km/s) = 6.38554 6.63101 6.50943
#
# Compressibility (1/GPa) = 0.01937254
#
# Stress axis : x y z
#
# Youngs Moduli (GPa) = 100.65248 78.98441 75.03924
#
# Poissons Ratio (x) = 0.36460 0.09449
# Poissons Ratio (y) = 0.46462 0.18007
# Poissons Ratio (z) = 0.12674 0.18953
#
# Static dielectric constant tensor:
#      x y z
#    x 3.851280 0.000000 -0.053940 
#    y 0.000000 3.980730 0.000000 
#    z -0.053940 0.000000 3.914710 
# 
# 
# High freq. dielectric constant tensor:
#      x y z
#    x 1.846730 0.000000 -0.006330 
#    y 0.000000 1.854320 0.000000 
#    z -0.006330 0.000000 1.848600 
# 
# From -- ./inp_files/81454.got.cif
#   From: 2010.06.25/outbox.cif.g09.slc.cpg/sg15_41_cif.got.tgz:81454.got - 2010.06.28 07:06:18.
