data_PCOD8139227
_publ_section_title
;
Structure prediction by ZEFSAII (Michael W. Deem and Ramdas Pophale) SiO2 
 PCOD8139227
Probable space group: C 2/C
;
_chemical_formula_sum "Si O2"
_cell_formula_units_Z 40
_cell_length_a 10.243106
_cell_length_b 17.376120
_cell_length_c 14.322282
_cell_angle_alpha 90.000000
_cell_angle_beta 43.324947
_cell_angle_gamma 90.000000
_cell_volume 1749.066706
_symmetry_space_group_name_H-M "C 2/C"
_symmetry_group_IT_number 15
_symmetry_cell_setting 'monoclinic'
loop_
_space_group_symop_operation_xyz
x,y,z
-x,y,1/2-z
-x,-y,-z
x,-y,1/2+z
1/2+x,1/2+y,z
1/2-x,1/2+y,1/2-z
1/2-x,1/2-y,-z
1/2+x,1/2-y,1/2+z
loop_
_atom_site_type_symbol
_atom_site_label
_atom_site_fract_x
_atom_site_fract_y
_atom_site_fract_z
Si Si1 0.000000 0.623563 0.250000
Si Si2 0.273887 0.532484 0.771604
Si Si3 0.799752 0.967317 0.472189
Si Si4 0.705796 0.853396 0.816325
Si Si5 0.092995 0.618123 0.573569
Si Si6 0.000000 0.253680 0.250000
O O1 0.089060 0.676591 0.286020
O O2 0.833591 0.572752 0.383028
O O3 0.480491 0.554903 0.623002
O O4 0.247297 0.556518 0.893609
O O5 0.256669 0.441432 0.767595
O O6 0.109044 0.575730 0.798798
O O7 0.768498 0.059468 0.495198
O O8 0.888137 0.799497 0.735156
O O9 0.581657 0.849312 0.974509
O O10 0.133615 0.690122 0.619646
#
# Coordination Sequence:
#
# PCOD8139227 Si02
#       6
#     4   8   8   8   8   4
#     4  12  21  40  68  99 140 172 230 292 351 392
#     4  10  20  40  71 100 137 181 236 286 347 402
#     4  10  20  38  68 105 134 175 228 296 342 402
#     4  11  23  44  67 101 142 186 221 298 349 412
#     4  11  21  45  69 101 139 184 237 290 336 420
#     4  12  27  44  68  99 144 192 232 276 361 424
#
# _framework density 22.869337999999999
#
# number of rings (size 3 to 8) (size 9 to 14) (size 15 to 20)
#    0.000    1.200    4.000    4.800    0.000    0.800 
#    7.200    3.000    0.000    0.000    0.000    0.000 
#    0.000    0.000    0.000    0.000    0.000    0.000 
#
# Total GULP energy -247895.692743 kJ/mol
# GULP energy per Si atom -12394.784637 kJ/mol
# Density = 2.281729 g / cm^3
# Si number density = 22.869338 Si / 1000 Ang^3
#
#
#
# Elastic Constant Matrix: (Units=GPa)
#
#
# Indices 1 2 3 4 5 6 
#
# 1 83.5448 22.1878 12.8973 0.0008 13.6579 -0.0003
# 2 22.1878 70.9730 15.7169 0.0004 1.8622 -0.0001
# 3 12.8973 15.7169 114.1414 -0.0004 4.3945 -0.0004
# 4 0.0008 0.0004 -0.0004 24.7138 0.0005 -0.4899
# 5 13.6579 1.8622 4.3945 0.0005 37.9779 -0.0004
# 6 -0.0003 -0.0001 -0.0004 -0.4899 -0.0004 20.4924
#
#
#
# Elastic Compliance Matrix: (Units=1/GPa)
#
#
# Indices 1 2 3 4 5 6 
#
# 1 0.013946 -0.004051 -0.000836 0.000000 -0.004720 0.000000
# 2 -0.004051 0.015718 -0.001741 0.000000 0.000887 0.000000
# 3 -0.000836 -0.001741 0.009121 0.000000 -0.000669 0.000000
# 4 0.000000 0.000000 0.000000 0.040482 0.000000 0.000968
# 5 -0.004720 0.000887 -0.000669 0.000000 0.028062 0.000001
# 6 0.000000 0.000000 0.000000 0.000968 0.000001 0.048822
#
#
# Mechanical properties :
#
#
# Convention : Reuss Voigt Hill
#
# Bulk Modulus (GPa) = 39.17013 41.14039 40.15526
# Shear Modulus (GPa) = 28.10282 31.16064 29.63173
#
# Velocity S-wave (km/s) = 3.50929 3.69528 3.60348
# Velocity P-wave (km/s) = 5.79527 6.01956 5.90848
#
# Compressibility (1/GPa) = 0.02552966
#
# Stress axis : x y z
#
# Youngs Moduli (GPa) = 71.70421 63.61943 109.63669
#
# Poissons Ratio (x) = 0.25771 0.09169
# Poissons Ratio (y) = 0.29046 0.19086
# Poissons Ratio (z) = 0.05997 0.11075
#
# Static dielectric constant tensor:
#      x y z
#    x 4.567510 0.000000 0.139870 
#    y 0.000000 3.817990 0.000000 
#    z 0.139870 0.000000 4.215540 
# 
# 
# High freq. dielectric constant tensor:
#      x y z
#    x 1.904980 0.000000 0.010130 
#    y 0.000000 1.862280 0.000000 
#    z 0.010130 0.000000 1.915720 
# 
# From -- ./inp_files/145413.got.cif
#   From: 2010.06.25/outbox.cif.g09.slc.cpg/sg15_73_cif.got.tgz:145413.got - 2010.06.28 07:06:18.
