data_PCOD8139645
_publ_section_title
;
Structure prediction by ZEFSAII (Michael W. Deem and Ramdas Pophale) SiO2 
 PCOD8139645
Probable space group: C 2/C
;
_chemical_formula_sum "Si O2"
_cell_formula_units_Z 64
_cell_length_a 25.696925
_cell_length_b 12.842108
_cell_length_c 14.593683
_cell_angle_alpha 90.000000
_cell_angle_beta 139.273373
_cell_angle_gamma 90.000000
_cell_volume 3142.172752
_symmetry_space_group_name_H-M "C 2/C"
_symmetry_group_IT_number 15
_symmetry_cell_setting 'monoclinic'
loop_
_space_group_symop_operation_xyz
x,y,z
-x,y,1/2-z
-x,-y,-z
x,-y,1/2+z
1/2+x,1/2+y,z
1/2-x,1/2+y,1/2-z
1/2-x,1/2-y,-z
1/2+x,1/2-y,1/2+z
loop_
_atom_site_type_symbol
_atom_site_label
_atom_site_fract_x
_atom_site_fract_y
_atom_site_fract_z
Si Si1 0.820476 0.511895 0.080124
Si Si2 0.650204 0.440764 0.606563
Si Si3 0.749917 0.594745 0.649691
Si Si4 0.130302 0.518967 0.058383
Si Si5 0.509480 0.661143 0.654776
Si Si6 0.287148 0.219615 0.290290
Si Si7 0.825420 0.900112 0.202732
Si Si8 0.481559 0.893872 0.832190
O O1 0.792019 0.416958 0.107386
O O2 0.890227 0.572340 0.228329
O O3 0.853208 0.471122 0.027837
O O4 0.746356 0.589444 0.965861
O O5 0.671029 0.521786 0.552249
O O6 0.558303 0.408800 0.482426
O O7 0.703844 0.338633 0.662560
O O8 0.669813 0.495474 0.729638
O O9 0.807404 0.559364 0.810853
O O10 0.724013 0.714253 0.630539
O O11 0.140390 0.636681 0.108161
O O12 0.041340 0.476894 0.959513
O O13 0.500000 0.661939 0.750000
O O14 0.593324 0.609595 0.744061
O O15 0.504402 0.778716 0.608242
O O16 0.308652 0.296553 0.237426
O O17 0.500000 0.890931 0.750000
#
# Coordination Sequence:
#
# PCOD8139645 Si02
#       8
#     8   8   8   8   8   8   8   8
#     4  11  21  40  62  92 127 159 204 260 310 366
#     4  10  21  41  59  87 129 163 202 263 305 367
#     4  10  21  36  65  92 117 168 207 251 315 372
#     4  10  20  42  57  88 134 157 201 266 302 370
#     4  11  23  37  61  95 122 161 210 256 312 379
#     4  10  20  39  66  86 122 169 208 249 314 382
#     4  11  23  40  64  91 125 166 206 259 314 372
#     4   9  22  37  60  90 127 157 194 260 312 359
#
# _framework density 20.368071
#
# number of rings (size 3 to 8) (size 9 to 14) (size 15 to 20)
#    0.000    1.750    3.750    1.875    7.000    1.500 
#    2.250    0.000    0.000    6.000    0.000    0.000 
#    0.000    0.000    0.000    0.000    0.000    0.000 
#
# Total GULP energy -396726.066183 kJ/mol
# GULP energy per Si atom -12397.689568 kJ/mol
# Density = 2.032171 g / cm^3
# Si number density = 20.368071 Si / 1000 Ang^3
#
#
#
# Elastic Constant Matrix: (Units=GPa)
#
#
# Indices 1 2 3 4 5 6 
#
# 1 82.9921 14.4949 36.0348 0.0000 18.6242 0.0000
# 2 14.4949 97.5050 51.6658 0.0000 19.5900 0.0000
# 3 36.0348 51.6658 107.9291 0.0000 35.4852 0.0000
# 4 0.0000 0.0000 0.0000 26.2081 0.0000 7.3898
# 5 18.6242 19.5900 35.4852 0.0000 42.2978 0.0000
# 6 0.0000 0.0000 0.0000 7.3898 0.0000 24.3480
#
#
#
# Elastic Compliance Matrix: (Units=1/GPa)
#
#
# Indices 1 2 3 4 5 6 
#
# 1 0.014428 0.000662 -0.004066 0.000000 -0.003248 0.000000
# 2 0.000662 0.013814 -0.006400 0.000000 -0.001321 0.000000
# 3 -0.004066 -0.006400 0.016741 0.000000 -0.009290 0.000000
# 4 0.000000 0.000000 0.000000 0.041727 0.000000 -0.012664
# 5 -0.003248 -0.001321 -0.009290 0.000000 0.033478 0.000000
# 6 0.000000 0.000000 0.000000 -0.012664 0.000000 0.044915
#
#
# Mechanical properties :
#
#
# Convention : Reuss Voigt Hill
#
# Bulk Modulus (GPa) = 39.40768 54.75746 47.08257
# Shear Modulus (GPa) = 25.88420 30.98618 28.43519
#
# Velocity S-wave (km/s) = 3.56873 3.90463 3.74045
# Velocity P-wave (km/s) = 6.03083 6.87536 6.46689
#
# Compressibility (1/GPa) = 0.02537576
#
# Stress axis : x y z
#
# Youngs Moduli (GPa) = 69.30888 72.39162 59.73381
#
# Poissons Ratio (x) = -0.04795 0.24290
# Poissons Ratio (y) = -0.04591 0.38228
# Poissons Ratio (z) = 0.28183 0.46328
#
# Static dielectric constant tensor:
#      x y z
#    x 3.782880 0.000000 0.209240 
#    y 0.000000 3.742760 0.000000 
#    z 0.209240 0.000000 3.681270 
# 
# 
# High freq. dielectric constant tensor:
#      x y z
#    x 1.804220 0.000000 0.009740 
#    y 0.000000 1.790720 0.000000 
#    z 0.009740 0.000000 1.780970 
# 
# From -- ./inp_files/177839.got.cif
#   From: 2010.06.25/outbox.cif.g09.slc.cpg/sg15_89_cif.got.tgz:177839.got - 2010.06.28 07:06:18.
