data_PCOD8139384
_publ_section_title
;
Structure prediction by ZEFSAII (Michael W. Deem and Ramdas Pophale) SiO2 
 PCOD8139384
Probable space group: C 2/C
;
_chemical_formula_sum "Si O2"
_cell_formula_units_Z 60
_cell_length_a 27.084863
_cell_length_b 8.583836
_cell_length_c 14.297645
_cell_angle_alpha 90.000000
_cell_angle_beta 58.943392
_cell_angle_gamma 90.000000
_cell_volume 2847.607007
_symmetry_space_group_name_H-M "C 2/C"
_symmetry_group_IT_number 15
_symmetry_cell_setting 'monoclinic'
loop_
_space_group_symop_operation_xyz
x,y,z
-x,y,1/2-z
-x,-y,-z
x,-y,1/2+z
1/2+x,1/2+y,z
1/2-x,1/2+y,1/2-z
1/2-x,1/2-y,-z
1/2+x,1/2-y,1/2+z
loop_
_atom_site_type_symbol
_atom_site_label
_atom_site_fract_x
_atom_site_fract_y
_atom_site_fract_z
Si Si1 0.309901 0.009095 0.679472
Si Si2 0.925636 0.655916 0.514844
Si Si3 0.795661 0.831316 0.762942
Si Si4 0.865500 0.951169 0.532200
Si Si5 0.116757 0.000717 0.193045
Si Si6 0.984699 0.636685 0.929443
Si Si7 0.886879 0.763232 0.144522
Si Si8 0.000000 0.851396 0.750000
O O1 0.259995 0.938622 0.660084
O O2 0.334553 0.858420 0.709119
O O3 0.361642 0.083177 0.569019
O O4 0.284707 0.143643 0.774509
O O5 0.921665 0.834382 0.482369
O O6 0.968898 0.541875 0.414857
O O7 0.949304 0.657332 0.599699
O O8 0.812715 0.871448 0.638745
O O9 0.847115 0.871129 0.784107
O O10 0.850934 0.975673 0.437326
O O11 0.877660 0.114782 0.569484
O O12 0.110935 0.842378 0.256693
O O13 0.050793 0.048787 0.243877
O O14 0.970312 0.745600 0.857286
O O15 0.945666 0.675954 0.059172
#
# Coordination Sequence:
#
# PCOD8139384 Si02
#       8
#     8   8   8   8   8   8   8   4
#     4  10  20  42  68  89 116 168 200 258 312 361
#     4   9  21  39  61  88 124 164 207 252 309 359
#     4  10  21  41  65  86 126 158 209 255 308 364
#     4  10  20  40  59  92 125 157 204 255 301 364
#     4  11  24  38  61  96 123 167 204 251 307 367
#     4  10  20  39  61  86 126 169 202 253 305 361
#     4  10  21  39  63  88 127 158 207 248 308 364
#     4  12  22  36  62  90 130 160 212 246 302 368
#
# _framework density 21.070323999999999
#
# number of rings (size 3 to 8) (size 9 to 14) (size 15 to 20)
#    0.000    1.867    1.333    4.000    1.867    1.067 
#    9.600    8.667    0.000    0.000    0.000    0.000 
#    0.000    0.000    0.000    0.000    0.000    0.000 
#
# Total GULP energy -371659.150841 kJ/mol
# GULP energy per Si atom -12388.638361 kJ/mol
# Density = 2.102237 g / cm^3
# Si number density = 21.070324 Si / 1000 Ang^3
#
#
#
# Elastic Constant Matrix: (Units=GPa)
#
#
# Indices 1 2 3 4 5 6 
#
# 1 126.3440 55.1864 26.0073 0.0000 -1.6677 0.0000
# 2 55.1864 141.6782 22.7056 0.0000 6.9675 0.0000
# 3 26.0073 22.7056 85.3930 0.0000 16.2988 0.0000
# 4 0.0000 0.0000 0.0000 16.5343 0.0000 -7.6960
# 5 -1.6677 6.9675 16.2988 0.0000 24.9427 0.0000
# 6 0.0000 0.0000 0.0000 -7.6960 0.0000 42.8459
#
#
#
# Elastic Compliance Matrix: (Units=1/GPa)
#
#
# Indices 1 2 3 4 5 6 
#
# 1 0.010140 -0.003677 -0.002783 0.000000 0.003524 0.000000
# 2 -0.003677 0.008723 -0.000785 0.000000 -0.002169 0.000000
# 3 -0.002783 -0.000785 0.014579 0.000000 -0.009493 0.000000
# 4 0.000000 0.000000 0.000000 0.065998 0.000000 0.011855
# 5 0.003524 -0.002169 -0.009493 0.000000 0.047137 0.000000
# 6 0.000000 0.000000 0.000000 0.011855 0.000000 0.025469
#
#
# Mechanical properties :
#
#
# Convention : Reuss Voigt Hill
#
# Bulk Modulus (GPa) = 52.76791 62.35709 57.56250
# Shear Modulus (GPa) = 25.92617 33.49897 29.71257
#
# Velocity S-wave (km/s) = 3.51160 3.99164 3.75929
# Velocity P-wave (km/s) = 6.44514 7.13465 6.79864
#
# Compressibility (1/GPa) = 0.01895091
#
# Stress axis : x y z
#
# Youngs Moduli (GPa) = 98.61450 114.63755 68.59155
#
# Poissons Ratio (x) = 0.42154 0.19091
# Poissons Ratio (y) = 0.36262 0.05388
# Poissons Ratio (z) = 0.27447 0.09005
#
# Static dielectric constant tensor:
#      x y z
#    x 3.789970 0.000000 -0.105770 
#    y 0.000000 4.311630 0.000000 
#    z -0.105770 0.000000 3.495590 
# 
# 
# High freq. dielectric constant tensor:
#      x y z
#    x 1.823430 0.000000 -0.013200 
#    y 0.000000 1.852790 0.000000 
#    z -0.013200 0.000000 1.781410 
# 
# From -- ./inp_files/172358.got.cif
#   From: 2010.06.25/outbox.cif.g09.slc.cpg/sg15_87_cif.got.tgz:172358.got - 2010.06.28 07:06:18.
