data_PCOD8139796
_publ_section_title
;
Structure prediction by ZEFSAII (Michael W. Deem and Ramdas Pophale) SiO2 
 PCOD8139796
Probable space group: C 2/C
;
_chemical_formula_sum "Si O2"
_cell_formula_units_Z 56
_cell_length_a 19.128736
_cell_length_b 10.366858
_cell_length_c 14.036828
_cell_angle_alpha 90.000000
_cell_angle_beta 73.792714
_cell_angle_gamma 90.000000
_cell_volume 2672.947483
_symmetry_space_group_name_H-M "C 2/C"
_symmetry_group_IT_number 15
_symmetry_cell_setting 'monoclinic'
loop_
_space_group_symop_operation_xyz
x,y,z
-x,y,1/2-z
-x,-y,-z
x,-y,1/2+z
1/2+x,1/2+y,z
1/2-x,1/2+y,1/2-z
1/2-x,1/2-y,-z
1/2+x,1/2-y,1/2+z
loop_
_atom_site_type_symbol
_atom_site_label
_atom_site_fract_x
_atom_site_fract_y
_atom_site_fract_z
Si Si1 0.336021 0.452614 0.114772
Si Si2 0.291130 0.919510 0.196221
Si Si3 0.500000 0.271293 0.250000
Si Si4 0.516573 0.635385 0.946498
Si Si5 0.908318 0.207979 0.130687
Si Si6 0.240728 0.596081 0.001318
Si Si7 0.500000 0.842794 0.250000
Si Si8 0.113435 0.552197 0.190329
O O1 0.274561 0.390230 0.205495
O O2 0.396187 0.341065 0.067846
O O3 0.381408 0.561483 0.155273
O O4 0.305225 0.520391 0.031168
O O5 0.334692 0.790002 0.154915
O O6 0.344233 0.022657 0.226474
O O7 0.260137 0.963862 0.105327
O O8 0.501155 0.363065 0.158331
O O9 0.572076 0.184417 0.226149
O O10 0.500000 0.500000 0.000000
O O11 0.460082 0.734226 0.018301
O O12 0.959973 0.245926 0.196325
O O13 0.165436 0.565081 0.080942
O O14 0.250000 0.750000 0.000000
O O15 0.559635 0.936837 0.179557
#
# Coordination Sequence:
#
# PCOD8139796 Si02
#       8
#     8   8   4   8   8   8   4   8
#     4  10  23  36  57  97 121 155 217 248 301 374
#     4  10  21  38  63  87 125 158 207 258 295 370
#     4  11  22  39  66  84 126 157 202 265 300 366
#     4  10  24  38  58  91 123 159 209 245 307 371
#     4  10  20  40  60  86 124 168 199 251 316 358
#     4  11  21  37  64  83 122 166 200 248 310 358
#     4   9  20  39  62  82 130 157 196 263 308 370
#     4   9  22  39  59  98 111 159 215 246 312 368
#
# _framework density 20.950655000000001
#
# number of rings (size 3 to 8) (size 9 to 14) (size 15 to 20)
#    0.000    2.000    1.429    0.857    4.000    4.571 
#    0.000    4.286    0.000    6.000    0.000    0.000 
#    0.000    0.000    0.000    0.000    0.000    0.000 
#
# Total GULP energy -346981.456896 kJ/mol
# GULP energy per Si atom -12392.194889 kJ/mol
# Density = 2.090297 g / cm^3
# Si number density = 20.950655 Si / 1000 Ang^3
#
#
#
# Elastic Constant Matrix: (Units=GPa)
#
#
# Indices 1 2 3 4 5 6 
#
# 1 135.4534 36.7297 55.1461 0.0000 -16.7271 0.0000
# 2 36.7297 44.7576 24.4571 0.0000 -5.8136 0.0000
# 3 55.1461 24.4571 85.7190 0.0000 -13.0709 0.0000
# 4 0.0000 0.0000 0.0000 27.3864 0.0000 -1.1992
# 5 -16.7271 -5.8136 -13.0709 0.0000 42.8485 0.0000
# 6 0.0000 0.0000 0.0000 -1.1992 0.0000 31.9615
#
#
#
# Elastic Compliance Matrix: (Units=1/GPa)
#
#
# Indices 1 2 3 4 5 6 
#
# 1 0.011488 -0.006273 -0.005293 0.000000 0.002019 0.000000
# 2 -0.006273 0.029969 -0.004477 0.000000 0.000252 0.000000
# 3 -0.005293 -0.004477 0.016718 0.000000 0.002426 0.000000
# 4 0.000000 0.000000 0.000000 0.036575 0.000000 0.001372
# 5 0.002019 0.000252 0.002426 0.000000 0.024900 0.000000
# 6 0.000000 0.000000 0.000000 0.001372 0.000000 0.031339
#
#
# Mechanical properties :
#
#
# Convention : Reuss Voigt Hill
#
# Bulk Modulus (GPa) = 38.32830 55.39952 46.86391
# Shear Modulus (GPa) = 26.07272 30.41242 28.24257
#
# Velocity S-wave (km/s) = 3.53155 3.81415 3.67557
# Velocity P-wave (km/s) = 5.91299 6.77475 6.35848
#
# Compressibility (1/GPa) = 0.02609038
#
# Stress axis : x y z
#
# Youngs Moduli (GPa) = 87.04963 33.36753 59.81422
#
# Poissons Ratio (x) = 0.20931 0.31659
# Poissons Ratio (y) = 0.54604 0.26778
# Poissons Ratio (z) = 0.46074 0.14938
#
# Static dielectric constant tensor:
#      x y z
#    x 4.411340 0.000000 -0.349240 
#    y 0.000000 3.600430 0.000000 
#    z -0.349240 0.000000 4.091230 
# 
# 
# High freq. dielectric constant tensor:
#      x y z
#    x 1.848010 0.000000 -0.010630 
#    y 0.000000 1.792790 0.000000 
#    z -0.010630 0.000000 1.820160 
# 
# From -- ./inp_files/111145.got.cif
#   From: 2010.06.25/outbox.cif.g09.slc.cpg/sg15_56_cif.got.tgz:111145.got - 2010.06.28 07:06:18.
