data_PCOD8139489
_publ_section_title
;
Structure prediction by ZEFSAII (Michael W. Deem and Ramdas Pophale) SiO2 
 PCOD8139489
Probable space group: C 2/C
;
_chemical_formula_sum "Si O2"
_cell_formula_units_Z 48
_cell_length_a 13.550328
_cell_length_b 11.827178
_cell_length_c 14.407486
_cell_angle_alpha 90.000000
_cell_angle_beta 99.265190
_cell_angle_gamma 90.000000
_cell_volume 2278.851019
_symmetry_space_group_name_H-M "C 2/C"
_symmetry_group_IT_number 15
_symmetry_cell_setting 'monoclinic'
loop_
_space_group_symop_operation_xyz
x,y,z
-x,y,1/2-z
-x,-y,-z
x,-y,1/2+z
1/2+x,1/2+y,z
1/2-x,1/2+y,1/2-z
1/2-x,1/2-y,-z
1/2+x,1/2-y,1/2+z
loop_
_atom_site_type_symbol
_atom_site_label
_atom_site_fract_x
_atom_site_fract_y
_atom_site_fract_z
Si Si1 0.604196 0.398086 0.930629
Si Si2 0.027299 0.662061 0.966142
Si Si3 0.265702 0.469254 0.190588
Si Si4 0.195070 0.256456 0.086153
Si Si5 0.956555 0.541871 0.342085
Si Si6 0.383756 0.525454 0.377277
O O1 0.600686 0.261330 0.939818
O O2 0.691623 0.437283 0.874870
O O3 0.498578 0.442657 0.875976
O O4 0.628535 0.452630 0.032723
O O5 0.915046 0.702825 0.952530
O O6 0.030327 0.556361 0.894805
O O7 0.055349 0.633430 0.077172
O O8 0.262632 0.341670 0.154298
O O9 0.153436 0.500353 0.201280
O O10 0.341550 0.453301 0.286680
O O11 0.188062 0.135103 0.133529
O O12 0.250000 0.250000 0.000000
O O13 0.000000 0.587842 0.250000
#
# Coordination Sequence:
#
# PCOD8139489 Si02
#       6
#     8   8   8   8   8   8
#     4  10  21  41  60  91 131 164 208 273 321 379
#     4   9  22  41  62  87 125 170 211 260 327 372
#     4  11  23  37  65  96 121 169 217 260 324 389
#     4  10  20  39  63  87 128 172 202 259 324 382
#     4  10  23  41  62  89 125 169 215 265 312 389
#     4  10  22  38  61  92 131 166 209 262 321 389
#
# _framework density 21.063247
#
# number of rings (size 3 to 8) (size 9 to 14) (size 15 to 20)
#    0.000    2.000    1.667    0.500    2.333    7.333 
#    0.000    0.000    0.000    0.000    0.000    0.000 
#    0.000    0.000    0.000    0.000    0.000    0.000 
#
# Total GULP energy -297480.372189 kJ/mol
# GULP energy per Si atom -12395.015508 kJ/mol
# Density = 2.101531 g / cm^3
# Si number density = 21.063247 Si / 1000 Ang^3
#
#
#
# Elastic Constant Matrix: (Units=GPa)
#
#
# Indices 1 2 3 4 5 6 
#
# 1 61.0679 32.0014 36.6998 0.0000 -13.0036 0.0000
# 2 32.0014 103.1944 44.3566 0.0000 14.2222 0.0000
# 3 36.6998 44.3566 108.3664 0.0000 9.8843 0.0000
# 4 0.0000 0.0000 0.0000 23.8588 0.0000 5.0140
# 5 -13.0036 14.2222 9.8843 0.0000 26.6797 0.0000
# 6 0.0000 0.0000 0.0000 5.0140 0.0000 33.1953
#
#
#
# Elastic Compliance Matrix: (Units=1/GPa)
#
#
# Indices 1 2 3 4 5 6 
#
# 1 0.031757 -0.009185 -0.009163 0.000000 0.023769 0.000000
# 2 -0.009185 0.014999 -0.001957 0.000000 -0.011747 0.000000
# 3 -0.009163 -0.001957 0.013915 0.000000 -0.008578 0.000000
# 4 0.000000 0.000000 0.000000 0.043287 0.000000 -0.006538
# 5 0.023769 -0.011747 -0.008578 0.000000 0.058507 0.000000
# 6 0.000000 0.000000 0.000000 -0.006538 0.000000 0.031112
#
#
# Mechanical properties :
#
#
# Convention : Reuss Voigt Hill
#
# Bulk Modulus (GPa) = 49.85226 55.41602 52.63414
# Shear Modulus (GPa) = 20.75765 27.38482 24.07124
#
# Velocity S-wave (km/s) = 3.14266 3.60963 3.38421
# Velocity P-wave (km/s) = 6.07352 6.61355 6.34928
#
# Compressibility (1/GPa) = 0.02005927
#
# Stress axis : x y z
#
# Youngs Moduli (GPa) = 31.48940 66.67033 71.86612
#
# Poissons Ratio (x) = 0.61238 0.65852
# Poissons Ratio (y) = 0.28924 0.14066
# Poissons Ratio (z) = 0.28854 0.13049
#
# Static dielectric constant tensor:
#      x y z
#    x 3.729160 0.000000 0.049180 
#    y 0.000000 4.154400 0.000000 
#    z 0.049180 0.000000 3.755630 
# 
# 
# High freq. dielectric constant tensor:
#      x y z
#    x 1.823650 0.000000 0.004360 
#    y 0.000000 1.822290 0.000000 
#    z 0.004360 0.000000 1.830990 
# 
# From -- ./inp_files/152188.got.cif
#   From: 2010.06.25/outbox.cif.g09.slc.cpg/sg15_77_cif.got.tgz:152188.got - 2010.06.28 07:06:18.
