data_PCOD8139397
_publ_section_title
;
Structure prediction by ZEFSAII (Michael W. Deem and Ramdas Pophale) SiO2 
 PCOD8139397
Probable space group: C 2/C
;
_chemical_formula_sum "Si O2"
_cell_formula_units_Z 64
_cell_length_a 13.823406
_cell_length_b 25.318977
_cell_length_c 12.526610
_cell_angle_alpha 90.000000
_cell_angle_beta 45.938999
_cell_angle_gamma 90.000000
_cell_volume 3150.517335
_symmetry_space_group_name_H-M "C 2/C"
_symmetry_group_IT_number 15
_symmetry_cell_setting 'monoclinic'
loop_
_space_group_symop_operation_xyz
x,y,z
-x,y,1/2-z
-x,-y,-z
x,-y,1/2+z
1/2+x,1/2+y,z
1/2-x,1/2+y,1/2-z
1/2-x,1/2-y,-z
1/2+x,1/2-y,1/2+z
loop_
_atom_site_type_symbol
_atom_site_label
_atom_site_fract_x
_atom_site_fract_y
_atom_site_fract_z
Si Si1 0.352221 0.937287 0.356745
Si Si2 0.118453 0.738120 0.860132
Si Si3 0.823828 0.719927 0.039116
Si Si4 0.360639 0.943758 0.800315
Si Si5 0.324061 0.118372 0.680965
Si Si6 0.851563 0.097831 0.878134
Si Si7 0.116323 0.781906 0.084556
Si Si8 0.130295 0.400470 0.940085
O O1 0.500000 0.910919 0.250000
O O2 0.270364 0.896618 0.342093
O O3 0.303914 0.939211 0.518612
O O4 0.364895 0.993203 0.286861
O O5 0.247082 0.762745 0.704314
O O6 0.167617 0.679845 0.852816
O O7 0.075530 0.773098 0.994056
O O8 0.978855 0.736895 0.902529
O O9 0.821381 0.656541 0.052691
O O10 0.750000 0.750000 0.000000
O O11 0.500000 0.922841 0.750000
O O12 0.324900 0.916265 0.714033
O O13 0.231831 0.933943 0.971605
O O14 0.220374 0.092226 0.679904
O O15 0.470064 0.092310 0.554911
O O16 0.861329 0.157268 0.910950
O O17 0.000000 0.073005 0.750000
O O18 0.000000 0.758526 0.250000
O O19 0.250000 0.750000 0.000000
#
# Coordination Sequence:
#
# PCOD8139397 Si02
#       8
#     8   8   8   8   8   8   8   8
#     4   9  21  36  66  94 121 154 202 262 313 361
#     4  11  22  38  61  87 121 162 201 249 299 362
#     4  11  23  39  62  88 124 164 204 247 297 364
#     4  11  22  38  68  95 120 156 206 265 305 359
#     4  10  20  39  61  89 124 164 200 249 311 367
#     4  11  24  39  58  88 129 166 198 247 313 372
#     4  11  22  37  56  88 122 160 201 246 300 357
#     4  10  21  40  61  97 125 153 207 260 304 359
#
# _framework density 20.314125000000001
#
# number of rings (size 3 to 8) (size 9 to 14) (size 15 to 20)
#    0.000    1.500    2.500    2.625    3.500    5.000 
#    0.000    0.625    0.000    0.000    0.000    0.000 
#    0.000    0.000    0.000    0.000    0.000    0.000 
#
# Total GULP energy -396427.907085 kJ/mol
# GULP energy per Si atom -12388.372096 kJ/mol
# Density = 2.026789 g / cm^3
# Si number density = 20.314125 Si / 1000 Ang^3
#
#
#
# Elastic Constant Matrix: (Units=GPa)
#
#
# Indices 1 2 3 4 5 6 
#
# 1 105.6866 37.2149 44.2133 0.0000 25.8309 0.0000
# 2 37.2149 59.8803 18.4056 0.0000 10.0792 0.0000
# 3 44.2133 18.4056 110.4461 0.0000 7.2439 0.0000
# 4 0.0000 0.0000 0.0000 23.7780 0.0000 2.3645
# 5 25.8309 10.0792 7.2439 0.0000 47.0822 0.0000
# 6 0.0000 0.0000 0.0000 2.3645 0.0000 26.5876
#
#
#
# Elastic Compliance Matrix: (Units=1/GPa)
#
#
# Indices 1 2 3 4 5 6 
#
# 1 0.015402 -0.007120 -0.004571 0.000000 -0.006223 0.000000
# 2 -0.007120 0.021432 -0.000684 0.000000 -0.000577 0.000000
# 3 -0.004571 -0.000684 0.010934 0.000000 0.000972 0.000000
# 4 0.000000 0.000000 0.000000 0.042431 0.000000 -0.003773
# 5 -0.006223 -0.000577 0.000972 0.000000 0.024627 0.000000
# 6 0.000000 0.000000 0.000000 -0.003773 0.000000 0.037947
#
#
# Mechanical properties :
#
#
# Convention : Reuss Voigt Hill
#
# Bulk Modulus (GPa) = 43.44151 52.85340 48.14745
# Shear Modulus (GPa) = 26.99842 31.23485 29.11664
#
# Velocity S-wave (km/s) = 3.64956 3.92547 3.79003
# Velocity P-wave (km/s) = 6.26022 6.82790 6.55022
#
# Compressibility (1/GPa) = 0.02301946
#
# Stress axis : x y z
#
# Youngs Moduli (GPa) = 64.92578 46.65900 91.45576
#
# Poissons Ratio (x) = 0.33220 0.41805
# Poissons Ratio (y) = 0.46226 0.06252
# Poissons Ratio (z) = 0.29678 0.03190
#
# Static dielectric constant tensor:
#      x y z
#    x 4.076750 0.000000 0.993890 
#    y 0.000000 3.376190 0.000000 
#    z 0.993890 0.000000 10.313770 
# 
# 
# High freq. dielectric constant tensor:
#      x y z
#    x 1.796400 0.000000 0.019420 
#    y 0.000000 1.784650 0.000000 
#    z 0.019420 0.000000 1.790130 
# 
# From -- ./inp_files/101309.got.cif
#   From: 2010.06.25/outbox.cif.g09.slc.cpg/sg15_51_cif.got.tgz:101309.got - 2010.06.28 07:06:18.
