data_PCOD8139956
_publ_section_title
;
Structure prediction by ZEFSAII (Michael W. Deem and Ramdas Pophale) SiO2 
 PCOD8139956
Probable space group: C 2/C
;
_chemical_formula_sum "Si O2"
_cell_formula_units_Z 60
_cell_length_a 14.985604
_cell_length_b 8.797947
_cell_length_c 20.214618
_cell_angle_alpha 90.000000
_cell_angle_beta 70.129545
_cell_angle_gamma 90.000000
_cell_volume 2506.473325
_symmetry_space_group_name_H-M "C 2/C"
_symmetry_group_IT_number 15
_symmetry_cell_setting 'monoclinic'
loop_
_space_group_symop_operation_xyz
x,y,z
-x,y,1/2-z
-x,-y,-z
x,-y,1/2+z
1/2+x,1/2+y,z
1/2-x,1/2+y,1/2-z
1/2-x,1/2-y,-z
1/2+x,1/2-y,1/2+z
loop_
_atom_site_type_symbol
_atom_site_label
_atom_site_fract_x
_atom_site_fract_y
_atom_site_fract_z
Si Si1 0.500000 0.439657 0.250000
Si Si2 0.795178 0.147622 0.770339
Si Si3 0.533413 0.872324 0.940269
Si Si4 0.782361 0.334107 0.892282
Si Si5 0.960794 0.527241 0.834708
Si Si6 0.265861 0.160062 0.155485
Si Si7 0.424909 0.646984 0.375716
Si Si8 0.615828 0.620769 0.529204
O O1 0.593307 0.337974 0.237138
O O2 0.495023 0.545114 0.315051
O O3 0.745010 0.265552 0.832707
O O4 0.778728 0.192602 0.698646
O O5 0.747420 0.984456 0.793086
O O6 0.646392 0.851612 0.917997
O O7 0.475935 0.717734 0.970020
O O8 0.519528 0.912508 0.865980
O O9 0.500000 0.000000 0.000000
O O10 0.851439 0.476132 0.862414
O O11 0.833495 0.199226 0.920671
O O12 0.688906 0.394933 0.951206
O O13 0.972012 0.687850 0.870740
O O14 0.000000 0.534959 0.750000
O O15 0.174589 0.178230 0.134039
O O16 0.412521 0.553720 0.446931
#
# Coordination Sequence:
#
# PCOD8139956 Si02
#       8
#     4   8   8   8   8   8   8   8
#     4  10  20  40  64  88 130 180 220 266 348 408
#     4  11  23  39  61  95 130 173 219 280 336 400
#     4  11  25  45  70  99 136 174 227 283 337 402
#     4  10  21  38  67  90 124 172 229 260 323 406
#     4  11  25  41  71 100 130 176 232 277 329 407
#     4  11  25  39  64  96 137 168 221 284 339 385
#     4  11  23  42  66  96 131 173 224 276 336 404
#     4  10  21  43  67  92 127 184 220 261 335 420
#
# _framework density 23.938016000000001
#
# number of rings (size 3 to 8) (size 9 to 14) (size 15 to 20)
#    0.000    1.333    3.333    2.400   10.267    0.533 
#    0.000    0.667    0.000    0.000    0.000    0.000 
#    0.000    0.000    0.000    0.000    0.000    0.000 
#
# Total GULP energy -372040.872063 kJ/mol
# GULP energy per Si atom -12401.362402 kJ/mol
# Density = 2.388353 g / cm^3
# Si number density = 23.938016 Si / 1000 Ang^3
#
#
#
# Elastic Constant Matrix: (Units=GPa)
#
#
# Indices 1 2 3 4 5 6 
#
# 1 48.5514 10.6122 33.7631 0.0000 -13.2413 0.0000
# 2 10.6122 93.0819 28.1391 0.0000 -9.9834 0.0000
# 3 33.7631 28.1391 112.5658 0.0000 -33.6541 0.0000
# 4 0.0000 0.0000 0.0000 37.6172 0.0000 5.5981
# 5 -13.2413 -9.9834 -33.6541 0.0000 32.7178 0.0000
# 6 0.0000 0.0000 0.0000 5.5981 0.0000 12.2836
#
#
#
# Elastic Compliance Matrix: (Units=1/GPa)
#
#
# Indices 1 2 3 4 5 6 
#
# 1 0.026355 -0.000599 -0.006673 0.000000 0.003619 0.000000
# 2 -0.000599 0.011650 -0.002516 0.000000 0.000724 0.000000
# 3 -0.006673 -0.002516 0.015130 0.000000 0.012095 0.000000
# 4 0.000000 0.000000 0.000000 0.028518 0.000000 -0.012997
# 5 0.003619 0.000724 0.012095 0.000000 0.044691 0.000000
# 6 0.000000 0.000000 0.000000 -0.012997 0.000000 0.087332
#
#
# Mechanical properties :
#
#
# Convention : Reuss Voigt Hill
#
# Bulk Modulus (GPa) = 29.79847 44.35863 37.07855
# Shear Modulus (GPa) = 20.45498 28.63606 24.54552
#
# Velocity S-wave (km/s) = 2.92635 3.46245 3.20563
# Velocity P-wave (km/s) = 4.88807 5.87840 5.40596
#
# Compressibility (1/GPa) = 0.03355877
#
# Stress axis : x y z
#
# Youngs Moduli (GPa) = 37.94290 85.83832 66.09311
#
# Poissons Ratio (x) = 0.05144 0.44105
# Poissons Ratio (y) = 0.02274 0.16628
# Poissons Ratio (z) = 0.25320 0.21596
#
# Static dielectric constant tensor:
#      x y z
#    x 4.041660 0.000000 -0.213130 
#    y 0.000000 4.326570 0.000000 
#    z -0.213130 0.000000 4.334700 
# 
# 
# High freq. dielectric constant tensor:
#      x y z
#    x 1.932860 0.000000 -0.012950 
#    y 0.000000 1.951250 0.000000 
#    z -0.012950 0.000000 1.958360 
# 
# From -- ./inp_files/276549.got.cif
#   From: 2010.06.25/outbox.cif.g09.slc.cpg/sg15_139_cif.got.tgz:276549.got - 2010.06.28 07:06:18.
