data_PCOD8139465
_publ_section_title
;
Structure prediction by ZEFSAII (Michael W. Deem and Ramdas Pophale) SiO2 
 PCOD8139465
Probable space group: C 2/C
;
_chemical_formula_sum "Si O2"
_cell_formula_units_Z 44
_cell_length_a 17.124585
_cell_length_b 11.324398
_cell_length_c 29.329509
_cell_angle_alpha 90.000000
_cell_angle_beta 159.185691
_cell_angle_gamma 90.000000
_cell_volume 2021.084989
_symmetry_space_group_name_H-M "C 2/C"
_symmetry_group_IT_number 15
_symmetry_cell_setting 'monoclinic'
loop_
_space_group_symop_operation_xyz
x,y,z
-x,y,1/2-z
-x,-y,-z
x,-y,1/2+z
1/2+x,1/2+y,z
1/2-x,1/2+y,1/2-z
1/2-x,1/2-y,-z
1/2+x,1/2-y,1/2+z
loop_
_atom_site_type_symbol
_atom_site_label
_atom_site_fract_x
_atom_site_fract_y
_atom_site_fract_z
Si Si1 0.254875 0.652576 0.375630
Si Si2 0.990480 0.632856 0.515471
Si Si3 0.604966 0.481110 0.121723
Si Si4 0.000000 0.891108 0.750000
Si Si5 0.970061 0.656346 0.859074
Si Si6 0.928751 0.079259 0.112806
O O1 0.367318 0.781724 0.439751
O O2 0.295635 0.597931 0.347749
O O3 0.376279 0.561745 0.475652
O O4 0.000000 0.661439 0.250000
O O5 0.734374 0.679467 0.377877
O O6 0.000000 0.500000 0.500000
O O7 0.094908 0.648575 0.622847
O O8 0.784920 0.379140 0.221556
O O9 0.570610 0.503810 0.156155
O O10 0.995115 0.965331 0.700062
O O11 0.026155 0.783751 0.870702
O O12 0.169864 0.562985 0.962762
#
# Coordination Sequence:
#
# PCOD8139465 Si02
#       6
#     8   8   8   4   8   8
#     4  11  25  44  66  98 135 175 219 274 327 397
#     4  11  23  42  66  96 134 173 220 273 326 395
#     4  11  22  42  67  96 130 176 214 268 335 392
#     4  10  22  38  68  96 120 176 216 270 326 388
#     4  10  21  38  63  92 128 169 214 268 319 390
#     4  10  20  39  62  94 130 164 218 270 318 386
#
# _framework density 21.770485000000001
#
# number of rings (size 3 to 8) (size 9 to 14) (size 15 to 20)
#    0.000    1.455    1.818    3.273    1.273    0.000 
#    8.182    0.909    0.000    0.000    0.000    0.000 
#    0.000    0.000    0.000    0.000    0.000    0.000 
#
# Total GULP energy -272543.952625 kJ/mol
# GULP energy per Si atom -12388.361483 kJ/mol
# Density = 2.172093 g / cm^3
# Si number density = 21.770485 Si / 1000 Ang^3
#
#
#
# Elastic Constant Matrix: (Units=GPa)
#
#
# Indices 1 2 3 4 5 6 
#
# 1 141.7621 37.8756 47.6735 0.0005 1.8412 0.0001
# 2 37.8756 85.3870 32.6441 0.0039 15.0114 -0.0013
# 3 47.6735 32.6441 125.4252 0.0047 13.2421 -0.0142
# 4 0.0005 0.0039 0.0047 21.9278 -0.0020 2.8709
# 5 1.8412 15.0114 13.2421 -0.0020 38.4180 0.0023
# 6 0.0001 -0.0013 -0.0142 2.8709 0.0023 18.0531
#
#
#
# Elastic Compliance Matrix: (Units=1/GPa)
#
#
# Indices 1 2 3 4 5 6 
#
# 1 0.008787 -0.003173 -0.002699 0.000001 0.001749 -0.000003
# 2 -0.003173 0.014793 -0.002127 -0.000003 -0.004895 0.000000
# 3 -0.002699 -0.002127 0.009808 -0.000003 -0.002420 0.000008
# 4 0.000001 -0.000003 -0.000003 0.046574 0.000005 -0.007406
# 5 0.001749 -0.004895 -0.002420 0.000005 0.028692 -0.000007
# 6 -0.000003 0.000000 0.000008 -0.007406 -0.000007 0.056570
#
#
# Mechanical properties :
#
#
# Convention : Reuss Voigt Hill
#
# Bulk Modulus (GPa) = 57.50707 65.44008 61.47357
# Shear Modulus (GPa) = 26.73543 31.30519 29.02031
#
# Velocity S-wave (km/s) = 3.50817 3.79616 3.65500
# Velocity P-wave (km/s) = 6.54845 7.02416 6.79047
#
# Compressibility (1/GPa) = 0.01738917
#
# Stress axis : x y z
#
# Youngs Moduli (GPa) = 113.80829 67.60058 101.96083
#
# Poissons Ratio (x) = 0.21452 0.27514
# Poissons Ratio (y) = 0.36116 0.21688
# Poissons Ratio (z) = 0.30711 0.14379
#
# Static dielectric constant tensor:
#      x y z
#    x 4.085580 0.000000 0.053560 
#    y 0.000000 3.510920 -0.000020 
#    z 0.053560 -0.000020 4.161140 
# 
# 
# High freq. dielectric constant tensor:
#      x y z
#    x 1.865760 0.000000 0.000550 
#    y 0.000000 1.822440 0.000000 
#    z 0.000550 0.000000 1.870000 
# 
# From -- ./inp_files/104349.got.cif
#   From: 2010.06.25/outbox.cif.g09.slc.cpg/sg15_53_cif.got.tgz:104349.got - 2010.06.28 07:06:18.
