data_PCOD8139269
_publ_section_title
;
Structure prediction by ZEFSAII (Michael W. Deem and Ramdas Pophale) SiO2 
 PCOD8139269
Probable space group: C 2/C
;
_chemical_formula_sum "Si O2"
_cell_formula_units_Z 52
_cell_length_a 8.917671
_cell_length_b 17.894983
_cell_length_c 21.556059
_cell_angle_alpha 90.000000
_cell_angle_beta 134.079674
_cell_angle_gamma 90.000000
_cell_volume 2471.167480
_symmetry_space_group_name_H-M "C 2/C"
_symmetry_group_IT_number 15
_symmetry_cell_setting 'monoclinic'
loop_
_space_group_symop_operation_xyz
x,y,z
-x,y,1/2-z
-x,-y,-z
x,-y,1/2+z
1/2+x,1/2+y,z
1/2-x,1/2+y,1/2-z
1/2-x,1/2-y,-z
1/2+x,1/2-y,1/2+z
loop_
_atom_site_type_symbol
_atom_site_label
_atom_site_fract_x
_atom_site_fract_y
_atom_site_fract_z
Si Si1 0.000000 0.772933 0.750000
Si Si2 0.990137 0.181855 0.110293
Si Si3 0.505118 0.064784 0.666312
Si Si4 0.269319 0.163724 0.999963
Si Si5 0.295349 0.641319 0.840676
Si Si6 0.349337 0.900507 0.653486
Si Si7 0.485541 0.839246 0.052019
O O1 0.992857 0.823466 0.686081
O O2 0.785684 0.724960 0.697541
O O3 0.074509 0.262552 0.109047
O O4 0.120784 0.114029 0.116659
O O5 0.760118 0.167481 0.020903
O O6 0.713337 0.080865 0.766535
O O7 0.321622 0.124163 0.628595
O O8 0.554387 0.085550 0.609381
O O9 0.411391 0.985015 0.656121
O O10 0.424566 0.144022 0.989597
O O11 0.041092 0.130388 0.919473
O O12 0.250000 0.250000 0.000000
O O13 0.371279 0.137882 0.093356
O O14 0.500000 0.866341 0.750000
#
# Coordination Sequence:
#
# PCOD8139269 Si02
#       7
#     4   8   8   8   8   8   8
#     4  10  20  38  70  96 138 176 228 282 348 422
#     4  11  23  39  68 101 135 177 223 287 350 400
#     4  10  22  47  69  93 133 187 238 259 353 427
#     4  12  26  40  68 108 143 171 233 296 350 408
#     4  10  20  41  69  97 132 188 223 277 341 428
#     4  12  27  45  69 100 132 178 234 293 340 415
#     4  11  23  42  66 101 137 181 223 280 348 421
#
# _framework density 21.042684999999999
#
# number of rings (size 3 to 8) (size 9 to 14) (size 15 to 20)
#    0.000    1.231    6.154    1.846    4.308    3.692 
#    0.000    0.000    3.385    0.000    0.000    0.000 
#    0.000    0.000    0.000    0.000    0.000    0.000 
#
# Total GULP energy -322161.128336 kJ/mol
# GULP energy per Si atom -12390.812628 kJ/mol
# Density = 2.099479 g / cm^3
# Si number density = 21.042685 Si / 1000 Ang^3
#
#
#
# Elastic Constant Matrix: (Units=GPa)
#
#
# Indices 1 2 3 4 5 6 
#
# 1 108.5708 35.2042 68.3750 0.0000 -19.9638 0.0000
# 2 35.2042 90.8162 59.1514 0.0000 -11.8045 0.0000
# 3 68.3750 59.1514 135.1348 -0.0001 -23.0741 -0.0001
# 4 0.0000 0.0000 -0.0001 24.7791 0.0000 -6.0357
# 5 -19.9638 -11.8045 -23.0741 0.0000 49.6275 0.0000
# 6 0.0000 0.0000 -0.0001 -6.0357 0.0000 33.1268
#
#
#
# Elastic Compliance Matrix: (Units=1/GPa)
#
#
# Indices 1 2 3 4 5 6 
#
# 1 0.013871 -0.001062 -0.006131 0.000000 0.002477 0.000000
# 2 -0.001062 0.015499 -0.006181 0.000000 0.000386 0.000000
# 3 -0.006131 -0.006181 0.013616 0.000000 0.002394 0.000000
# 4 0.000000 0.000000 0.000000 0.042231 0.000000 0.007695
# 5 0.002477 0.000386 0.002394 0.000000 0.022352 0.000000
# 6 0.000000 0.000000 0.000000 0.007695 0.000000 0.031589
#
#
# Mechanical properties :
#
#
# Convention : Reuss Voigt Hill
#
# Bulk Modulus (GPa) = 61.57956 73.33146 67.45551
# Shear Modulus (GPa) = 29.18532 32.95942 31.07237
#
# Velocity S-wave (km/s) = 3.72823 3.96196 3.84687
# Velocity P-wave (km/s) = 6.91813 7.47356 7.20120
#
# Compressibility (1/GPa) = 0.01623915
#
# Stress axis : x y z
#
# Youngs Moduli (GPa) = 72.09064 64.52051 73.44036
#
# Poissons Ratio (x) = 0.06852 0.45025
# Poissons Ratio (y) = 0.07656 0.45394
# Poissons Ratio (z) = 0.44197 0.39880
#
# Static dielectric constant tensor:
#      x y z
#    x 3.605290 0.000000 -0.313050 
#    y 0.000000 3.784070 0.000000 
#    z -0.313050 0.000000 3.684040 
# 
# 
# High freq. dielectric constant tensor:
#      x y z
#    x 1.818920 0.000000 -0.014420 
#    y 0.000000 1.797960 0.000000 
#    z -0.014420 0.000000 1.842330 
# 
# From -- ./inp_files/233118.got.cif
#   From: 2010.06.25/outbox.cif.g09.slc.cpg/sg15_117_cif.got.tgz:233118.got - 2010.06.28 07:06:18.
