data_PCOD8139731
_publ_section_title
;
Structure prediction by ZEFSAII (Michael W. Deem and Ramdas Pophale) SiO2 
 PCOD8139731
Probable space group: C 2/C
;
_chemical_formula_sum "Si O2"
_cell_formula_units_Z 32
_cell_length_a 4.998707
_cell_length_b 13.296315
_cell_length_c 21.890424
_cell_angle_alpha 90.000000
_cell_angle_beta 77.935492
_cell_angle_gamma 90.000000
_cell_volume 1422.798256
_symmetry_space_group_name_H-M "C 2/C"
_symmetry_group_IT_number 15
_symmetry_cell_setting 'monoclinic'
loop_
_space_group_symop_operation_xyz
x,y,z
-x,y,1/2-z
-x,-y,-z
x,-y,1/2+z
1/2+x,1/2+y,z
1/2-x,1/2+y,1/2-z
1/2-x,1/2-y,-z
1/2+x,1/2-y,1/2+z
loop_
_atom_site_type_symbol
_atom_site_label
_atom_site_fract_x
_atom_site_fract_y
_atom_site_fract_z
Si Si1 0.123869 0.703218 0.177563
Si Si2 0.412515 0.613626 0.513712
Si Si3 0.341534 0.389676 0.881740
Si Si4 0.182551 0.380671 0.407162
O O1 0.896563 0.669739 0.140415
O O2 0.629390 0.622703 0.333145
O O3 0.000000 0.711518 0.250000
O O4 0.248368 0.811555 0.154052
O O5 0.500000 0.500000 0.500000
O O6 0.372341 0.661832 0.448163
O O7 0.657919 0.663354 0.540943
O O8 0.138389 0.619726 0.566033
O O9 0.277386 0.506910 0.887522
#
# Coordination Sequence:
#
# PCOD8139731 Si02
#       4
#     8   8   8   8
#     4  12  27  42  61  92 125 170 222 247 291 375
#     4  10  20  39  68  98 124 155 202 256 323 384
#     4  11  23  43  66  92 127 161 202 263 316 362
#     4  11  23  42  66  94 128 161 200 261 318 366
#
# _framework density 22.490891000000001
#
# number of rings (size 3 to 8) (size 9 to 14) (size 15 to 20)
#    0.000    1.000    0.000    9.750    0.000    8.000 
#    0.000    0.000    0.000    0.000    0.000    0.000 
#    0.000    0.000    0.000    0.000    0.000    0.000 
#
# Total GULP energy -198437.956358 kJ/mol
# GULP energy per Si atom -12402.372272 kJ/mol
# Density = 2.243970 g / cm^3
# Si number density = 22.490891 Si / 1000 Ang^3
#
#
#
# Elastic Constant Matrix: (Units=GPa)
#
#
# Indices 1 2 3 4 5 6 
#
# 1 121.6193 11.6268 18.9151 0.0000 -13.0169 0.0000
# 2 11.6268 48.1512 54.8463 0.0000 2.1502 0.0000
# 3 18.9151 54.8463 98.0572 0.0000 -28.0788 0.0000
# 4 0.0000 0.0000 0.0000 18.1009 0.0000 30.4490
# 5 -13.0169 2.1502 -28.0788 0.0000 39.5652 0.0000
# 6 0.0000 0.0000 0.0000 30.4490 0.0000 -55.2527
#
#
#
# Elastic Compliance Matrix: (Units=1/GPa)
#
#
# Indices 1 2 3 4 5 6 
#
# 1 0.008909 -0.006478 0.003570 0.000000 0.005817 0.000000
# 2 -0.006478 0.140565 -0.100617 0.000000 -0.081177 0.000000
# 3 0.003570 -0.100617 0.084954 0.000000 0.066933 0.000000
# 4 0.000000 0.000000 0.000000 0.028669 0.000000 0.015799
# 5 0.005817 -0.081177 0.066933 0.000000 0.079102 0.000000
# 6 0.000000 0.000000 0.000000 0.015799 0.000000 -0.009392
#
#
# Mechanical properties :
#
#
# Convention : Reuss Voigt Hill
#
# Bulk Modulus (GPa) = 36.52561 48.73380 42.62970
# Shear Modulus (GPa) = 9.10777 12.64531 10.87654
#
# Velocity S-wave (km/s) = 2.01453 2.37374 2.20147
# Velocity P-wave (km/s) = 4.65688 5.40630 5.04552
#
# Compressibility (1/GPa) = 0.02737805
#
# Stress axis : x y z
#
# Youngs Moduli (GPa) = 112.24674 7.11417 11.77106
#
# Poissons Ratio (x) = 0.04608 -0.04203
# Poissons Ratio (y) = 0.72709 1.18437
# Poissons Ratio (z) = -0.40075 0.71581
#
# Static dielectric constant tensor:
#      x y z
#    x 4.746980 0.000000 0.707430 
#    y 0.000000 4.103420 0.000000 
#    z 0.707430 0.000000 5.594700 
# 
# 
# High freq. dielectric constant tensor:
#      x y z
#    x 1.913530 0.000000 -0.004230 
#    y 0.000000 1.891580 0.000000 
#    z -0.004230 0.000000 1.873780 
# 
# From -- ./inp_files/226416.got.cif
#   From: 2010.06.25/outbox.cif.g09.slc.cpg/sg15_114_cif.got.tgz:226416.got - 2010.06.28 07:06:18.
