data_PCOD8139355
_publ_section_title
;
Structure prediction by ZEFSAII (Michael W. Deem and Ramdas Pophale) SiO2 
 PCOD8139355
Probable space group: C 2/C
;
_chemical_formula_sum "Si O2"
_cell_formula_units_Z 64
_cell_length_a 16.693417
_cell_length_b 22.153441
_cell_length_c 14.349202
_cell_angle_alpha 90.000000
_cell_angle_beta 144.035115
_cell_angle_gamma 90.000000
_cell_volume 3116.493934
_symmetry_space_group_name_H-M "C 2/C"
_symmetry_group_IT_number 15
_symmetry_cell_setting 'monoclinic'
loop_
_space_group_symop_operation_xyz
x,y,z
-x,y,1/2-z
-x,-y,-z
x,-y,1/2+z
1/2+x,1/2+y,z
1/2-x,1/2+y,1/2-z
1/2-x,1/2-y,-z
1/2+x,1/2-y,1/2+z
loop_
_atom_site_type_symbol
_atom_site_label
_atom_site_fract_x
_atom_site_fract_y
_atom_site_fract_z
Si Si1 0.625860 0.582258 0.093222
Si Si2 0.638934 0.611542 0.426254
Si Si3 0.407412 0.146106 0.882868
Si Si4 0.393290 0.799219 0.566695
Si Si5 0.694877 0.144016 0.091739
Si Si6 0.861262 0.162486 0.568865
Si Si7 0.178221 0.946993 0.144377
Si Si8 0.274070 0.274304 0.419176
O O1 0.681122 0.624579 0.226486
O O2 0.696905 0.517806 0.179920
O O3 0.670314 0.610990 0.036832
O O4 0.462568 0.577480 0.944303
O O5 0.500000 0.590131 0.250000
O O6 0.763486 0.624142 0.473216
O O7 0.681462 0.558353 0.535263
O O8 0.612526 0.672798 0.462781
O O9 0.301422 0.091954 0.802973
O O10 0.353166 0.194754 0.755425
O O11 0.445170 0.176513 0.016821
O O12 0.547402 0.116059 0.976545
O O13 0.500000 0.810601 0.750000
O O14 0.256278 0.835231 0.463998
O O15 0.368520 0.728132 0.527683
O O16 0.675030 0.216266 0.089460
O O17 0.000000 0.144486 0.750000
O O18 0.250000 0.250000 0.500000
#
# Coordination Sequence:
#
# PCOD8139355 Si02
#       8
#     8   8   8   8   8   8   8   8
#     4  11  22  42  63  90 116 166 216 264 315 376
#     4  10  20  39  60  90 128 159 201 254 313 380
#     4  11  23  40  62  93 131 165 209 266 317 375
#     4  10  21  38  60  92 130 159 200 262 316 379
#     4  11  23  37  65  89 125 164 207 250 320 382
#     4  10  21  37  62  90 120 158 208 254 313 376
#     4  10  24  41  62  87 125 159 217 266 310 377
#     4   9  22  34  60  94 129 162 199 249 313 392
#
# _framework density 20.535898
#
# number of rings (size 3 to 8) (size 9 to 14) (size 15 to 20)
#    0.000    1.750    1.250    2.250    3.500    9.000 
#    2.250    0.000    2.750    0.000    0.000    0.000 
#    0.000    0.000    0.000    0.000    0.000    0.000 
#
# Total GULP energy -396649.868884 kJ/mol
# GULP energy per Si atom -12395.308403 kJ/mol
# Density = 2.048916 g / cm^3
# Si number density = 20.535898 Si / 1000 Ang^3
#
#
#
# Elastic Constant Matrix: (Units=GPa)
#
#
# Indices 1 2 3 4 5 6 
#
# 1 94.3427 35.0124 27.5410 0.0000 -0.5430 0.0000
# 2 35.0124 76.1553 24.4416 0.0000 -1.9782 0.0000
# 3 27.5410 24.4416 79.4717 0.0000 -4.0230 0.0000
# 4 0.0000 0.0000 0.0000 21.9995 0.0000 0.1132
# 5 -0.5430 -1.9782 -4.0230 0.0000 39.9461 0.0000
# 6 0.0000 0.0000 0.0000 0.1132 0.0000 24.8868
#
#
#
# Elastic Compliance Matrix: (Units=1/GPa)
#
#
# Indices 1 2 3 4 5 6 
#
# 1 0.013422 -0.005195 -0.003073 0.000000 -0.000384 0.000000
# 2 -0.005195 0.016582 -0.003278 0.000000 0.000420 0.000000
# 3 -0.003073 -0.003278 0.014721 0.000000 0.001278 0.000000
# 4 0.000000 0.000000 0.000000 0.045457 0.000000 -0.000207
# 5 -0.000384 0.000420 0.001278 0.000000 0.025178 0.000000
# 6 0.000000 0.000000 0.000000 -0.000207 0.000000 0.040183
#
#
# Mechanical properties :
#
#
# Convention : Reuss Voigt Hill
#
# Bulk Modulus (GPa) = 46.22537 47.10662 46.66599
# Shear Modulus (GPa) = 26.90377 28.23146 27.56761
#
# Velocity S-wave (km/s) = 3.62344 3.71177 3.66787
# Velocity P-wave (km/s) = 6.32962 6.43103 6.38053
#
# Compressibility (1/GPa) = 0.02163314
#
# Stress axis : x y z
#
# Youngs Moduli (GPa) = 74.50207 60.30497 67.92917
#
# Poissons Ratio (x) = 0.31326 0.20877
# Poissons Ratio (y) = 0.38700 0.22270
# Poissons Ratio (z) = 0.22898 0.19771
#
# Static dielectric constant tensor:
#      x y z
#    x 3.693000 0.000000 -0.082620 
#    y 0.000000 3.848890 0.000000 
#    z -0.082620 0.000000 3.659160 
# 
# 
# High freq. dielectric constant tensor:
#      x y z
#    x 1.800020 0.000000 -0.007430 
#    y 0.000000 1.791190 0.000000 
#    z -0.007430 0.000000 1.805030 
# 
# From -- ./inp_files/164277.got.cif
#   From: 2010.06.25/outbox.cif.g09.slc.cpg/sg15_83_cif.got.tgz:164277.got - 2010.06.28 07:06:18.
