data_PCOD8139719
_publ_section_title
;
Structure prediction by ZEFSAII (Michael W. Deem and Ramdas Pophale) SiO2 
 PCOD8139719
Probable space group: C 2/C
;
_chemical_formula_sum "Si O2"
_cell_formula_units_Z 64
_cell_length_a 24.980408
_cell_length_b 8.890764
_cell_length_c 15.432000
_cell_angle_alpha 90.000000
_cell_angle_beta 114.916888
_cell_angle_gamma 90.000000
_cell_volume 3108.348776
_symmetry_space_group_name_H-M "C 2/C"
_symmetry_group_IT_number 15
_symmetry_cell_setting 'monoclinic'
loop_
_space_group_symop_operation_xyz
x,y,z
-x,y,1/2-z
-x,-y,-z
x,-y,1/2+z
1/2+x,1/2+y,z
1/2-x,1/2+y,1/2-z
1/2-x,1/2-y,-z
1/2+x,1/2-y,1/2+z
loop_
_atom_site_type_symbol
_atom_site_label
_atom_site_fract_x
_atom_site_fract_y
_atom_site_fract_z
Si Si1 0.436847 0.303576 0.401799
Si Si2 0.584688 0.203149 0.751843
Si Si3 0.148292 0.946186 0.698785
Si Si4 0.610802 0.855279 0.778886
Si Si5 0.459004 0.327118 0.613818
Si Si6 0.446286 0.321945 0.110845
Si Si7 0.787839 0.855206 0.117719
Si Si8 0.179854 0.835015 0.544306
O O1 0.414620 0.470086 0.358297
O O2 0.392927 0.186795 0.325577
O O3 0.433959 0.289821 0.502445
O O4 0.501228 0.256810 0.411407
O O5 0.633630 0.279669 0.723755
O O6 0.519791 0.236383 0.669210
O O7 0.589617 0.270637 0.851451
O O8 0.599658 0.030267 0.776530
O O9 0.184293 0.938576 0.633052
O O10 0.190127 0.028612 0.796049
O O11 0.561457 0.760913 0.801190
O O12 0.675337 0.802917 0.855066
O O13 0.463284 0.504116 0.635461
O O14 0.388400 0.291021 0.013902
O O15 0.719396 0.814822 0.085828
O O16 0.797787 0.922490 0.027280
#
# Coordination Sequence:
#
# PCOD8139719 Si02
#       8
#     8   8   8   8   8   8   8   8
#     4  11  21  37  60  95 120 166 208 259 312 391
#     4  11  24  38  54  93 129 166 202 262 317 379
#     4  11  21  39  69  92 126 164 217 270 314 375
#     4  10  24  40  59  87 133 167 202 260 331 374
#     4  11  22  36  58  90 125 158 214 254 303 386
#     4  11  20  38  66  88 121 168 210 256 314 391
#     4   9  22  42  65  93 120 168 222 259 314 391
#     4  10  20  39  68  93 119 164 217 267 314 369
#
# _framework density 20.589711000000001
#
# number of rings (size 3 to 8) (size 9 to 14) (size 15 to 20)
#    0.000    1.500    2.500    3.750    5.250    1.500 
#    4.500    0.000    2.750    8.250    0.000    0.000 
#    0.000    0.000    0.000    0.000    0.000    0.000 
#
# Total GULP energy -396588.748706 kJ/mol
# GULP energy per Si atom -12393.398397 kJ/mol
# Density = 2.054285 g / cm^3
# Si number density = 20.589711 Si / 1000 Ang^3
#
#
#
# Elastic Constant Matrix: (Units=GPa)
#
#
# Indices 1 2 3 4 5 6 
#
# 1 79.9072 20.2166 39.2152 0.0000 -5.9445 0.0000
# 2 20.2166 84.5124 40.6462 0.0000 -4.7869 0.0000
# 3 39.2152 40.6462 157.9787 0.0000 -28.6601 0.0000
# 4 0.0000 0.0000 0.0000 18.5059 0.0000 -1.7231
# 5 -5.9445 -4.7869 -28.6601 0.0000 24.8845 0.0000
# 6 0.0000 0.0000 0.0000 -1.7231 0.0000 23.5809
#
#
#
# Elastic Compliance Matrix: (Units=1/GPa)
#
#
# Indices 1 2 3 4 5 6 
#
# 1 0.014545 -0.001968 -0.003214 0.000000 -0.000606 0.000000
# 2 -0.001968 0.013832 -0.003379 0.000000 -0.001701 0.000000
# 3 -0.003214 -0.003379 0.009784 0.000000 0.009851 0.000000
# 4 0.000000 0.000000 0.000000 0.054407 0.000000 0.003976
# 5 -0.000606 -0.001701 0.009851 0.000000 0.051060 0.000000
# 6 0.000000 0.000000 0.000000 0.003976 0.000000 0.042698
#
#
# Mechanical properties :
#
#
# Convention : Reuss Voigt Hill
#
# Bulk Modulus (GPa) = 47.52972 58.06157 52.79564
# Shear Modulus (GPa) = 23.75749 28.21561 25.98655
#
# Velocity S-wave (km/s) = 3.40053 3.70587 3.55648
# Velocity P-wave (km/s) = 6.20906 6.82436 6.52397
#
# Compressibility (1/GPa) = 0.02103947
#
# Stress axis : x y z
#
# Youngs Moduli (GPa) = 68.75391 72.29580 102.20443
#
# Poissons Ratio (x) = 0.14226 0.32849
# Poissons Ratio (y) = 0.13529 0.34534
# Poissons Ratio (z) = 0.22098 0.24428
#
# Static dielectric constant tensor:
#      x y z
#    x 3.732430 0.000000 -0.120580 
#    y 0.000000 3.411790 0.000000 
#    z -0.120580 0.000000 4.029610 
# 
# 
# High freq. dielectric constant tensor:
#      x y z
#    x 1.794970 0.000000 -0.007860 
#    y 0.000000 1.769940 0.000000 
#    z -0.007860 0.000000 1.827980 
# 
# From -- ./inp_files/176649.got.cif
#   From: 2010.06.25/outbox.cif.g09.slc.cpg/sg15_89_cif.got.tgz:176649.got - 2010.06.28 07:06:18.
