data_PCOD8139652
_publ_section_title
;
Structure prediction by ZEFSAII (Michael W. Deem and Ramdas Pophale) SiO2 
 PCOD8139652
Probable space group: C 2/C
;
_chemical_formula_sum "Si O2"
_cell_formula_units_Z 32
_cell_length_a 16.606489
_cell_length_b 7.995879
_cell_length_c 23.175970
_cell_angle_alpha 90.000000
_cell_angle_beta 22.985731
_cell_angle_gamma 90.000000
_cell_volume 1201.724946
_symmetry_space_group_name_H-M "C 2/C"
_symmetry_group_IT_number 15
_symmetry_cell_setting 'monoclinic'
loop_
_space_group_symop_operation_xyz
x,y,z
-x,y,1/2-z
-x,-y,-z
x,-y,1/2+z
1/2+x,1/2+y,z
1/2-x,1/2+y,1/2-z
1/2-x,1/2-y,-z
1/2+x,1/2-y,1/2+z
loop_
_atom_site_type_symbol
_atom_site_label
_atom_site_fract_x
_atom_site_fract_y
_atom_site_fract_z
Si Si1 0.162231 0.065396 0.055635
Si Si2 0.764206 0.906314 0.310939
Si Si3 0.281794 0.102393 0.366751
Si Si4 0.034596 0.589146 0.366893
O O1 0.250000 0.250000 0.000000
O O2 0.157140 0.016994 0.990975
O O3 0.296075 0.940653 0.006742
O O4 0.921245 0.047398 0.233024
O O5 0.670446 0.785728 0.424668
O O6 0.905774 0.786534 0.175680
O O7 0.580523 0.992615 0.396516
O O8 0.500000 0.154144 0.250000
O O9 0.324445 0.006112 0.277891
#
# Coordination Sequence:
#
# PCOD8139652 Si02
#       4
#     8   8   8   8
#     4  11  21  39  68  93 125 178 217 262 330 381
#     4  10  20  39  66  89 137 167 209 277 316 378
#     4   8  20  38  63  86 133 165 215 265 318 375
#     4   9  20  38  60  92 129 166 213 264 318 381
#
# _framework density 26.628391000000001
#
# number of rings (size 3 to 8) (size 9 to 14) (size 15 to 20)
#    1.500    1.000    0.000    2.250    0.000    1.000 
#    0.000    7.500    0.000    0.000    0.000    0.000 
#    0.000    0.000    0.000    0.000    0.000    0.000 
#
# Total GULP energy -198211.432595 kJ/mol
# GULP energy per Si atom -12388.214537 kJ/mol
# Density = 2.656778 g / cm^3
# Si number density = 26.628391 Si / 1000 Ang^3
#
#
#
# Elastic Constant Matrix: (Units=GPa)
#
#
# Indices 1 2 3 4 5 6 
#
# 1 122.6615 38.4693 12.3878 0.0295 -0.9543 0.0017
# 2 38.4693 102.7488 9.8150 0.0586 11.3825 0.0258
# 3 12.3878 9.8150 28.8875 0.2984 -2.0843 0.0991
# 4 0.0295 0.0586 0.2984 34.5037 0.1362 -8.1706
# 5 -0.9543 11.3825 -2.0843 0.1362 37.6322 0.0374
# 6 0.0017 0.0258 0.0991 -8.1706 0.0374 57.2354
#
#
#
# Elastic Compliance Matrix: (Units=1/GPa)
#
#
# Indices 1 2 3 4 5 6 
#
# 1 0.009520 -0.003417 -0.002841 0.000020 0.001117 0.000008
# 2 -0.003417 0.011696 -0.002782 0.000023 -0.003778 0.000005
# 3 -0.002841 -0.002782 0.036988 -0.000351 0.002819 -0.000115
# 4 0.000020 0.000023 -0.000351 0.030000 -0.000139 0.004283
# 5 0.001117 -0.003778 0.002819 -0.000139 0.027901 -0.000041
# 6 0.000008 0.000005 -0.000115 0.004283 -0.000041 0.018083
#
#
# Mechanical properties :
#
#
# Convention : Reuss Voigt Hill
#
# Bulk Modulus (GPa) = 24.92217 41.73802 33.33009
# Shear Modulus (GPa) = 30.18565 38.78262 34.48414
#
# Velocity S-wave (km/s) = 3.37053 3.82047 3.60253
# Velocity P-wave (km/s) = 4.95246 5.93040 5.46336
#
# Compressibility (1/GPa) = 0.04012492
#
# Stress axis : x y z
#
# Youngs Moduli (GPa) = 105.04594 85.49991 27.03583
#
# Poissons Ratio (x) = 0.29212 0.07681
# Poissons Ratio (y) = 0.35890 0.07520
# Poissons Ratio (z) = 0.29844 0.23783
#
# Static dielectric constant tensor:
#      x y z
#    x 5.066570 0.000030 0.426580 
#    y 0.000030 4.442330 0.000130 
#    z 0.426580 0.000130 4.863550 
# 
# 
# High freq. dielectric constant tensor:
#      x y z
#    x 2.077770 0.000000 0.019590 
#    y 0.000000 2.049990 0.000010 
#    z 0.019590 0.000010 2.078900 
# 
# From -- ./inp_files/170998.got.cif
#   From: 2010.06.25/outbox.cif.g09.slc.cpg/sg15_86_cif.got.tgz:170998.got - 2010.06.28 07:06:18.
