data_PCOD8139315
_publ_section_title
;
Structure prediction by ZEFSAII (Michael W. Deem and Ramdas Pophale) SiO2 
 PCOD8139315
Probable space group: C 2/C
;
_chemical_formula_sum "Si O2"
_cell_formula_units_Z 64
_cell_length_a 27.684190
_cell_length_b 21.417733
_cell_length_c 11.796426
_cell_angle_alpha 90.000000
_cell_angle_beta 28.895761
_cell_angle_gamma 90.000000
_cell_volume 3379.858535
_symmetry_space_group_name_H-M "C 2/C"
_symmetry_group_IT_number 15
_symmetry_cell_setting 'monoclinic'
loop_
_space_group_symop_operation_xyz
x,y,z
-x,y,1/2-z
-x,-y,-z
x,-y,1/2+z
1/2+x,1/2+y,z
1/2-x,1/2+y,1/2-z
1/2-x,1/2-y,-z
1/2+x,1/2-y,1/2+z
loop_
_atom_site_type_symbol
_atom_site_label
_atom_site_fract_x
_atom_site_fract_y
_atom_site_fract_z
Si Si1 0.889902 0.983108 0.258533
Si Si2 0.274651 0.395301 0.345071
Si Si3 0.403337 0.149634 0.126367
Si Si4 0.929497 0.560849 0.652569
Si Si5 0.602705 0.364476 0.102971
Si Si6 0.771569 0.546409 0.792379
Si Si7 0.643635 0.718956 0.728189
Si Si8 0.805114 0.412705 0.626355
O O1 0.827640 0.958796 0.277582
O O2 0.904027 0.929660 0.320889
O O3 0.833444 0.045246 0.422444
O O4 0.000000 0.000000 0.000000
O O5 0.188035 0.375872 0.610107
O O6 0.233828 0.407507 0.303533
O O7 0.354053 0.337727 0.184582
O O8 0.425857 0.224030 0.087573
O O9 0.382855 0.130225 0.037848
O O10 0.503697 0.121322 0.970034
O O11 0.866378 0.569926 0.668278
O O12 0.000000 0.500000 0.500000
O O13 0.851696 0.559943 0.915911
O O14 0.500000 0.351198 0.250000
O O15 0.613681 0.306832 0.166491
O O16 0.702371 0.372288 0.818401
O O17 0.786281 0.473513 0.739663
O O18 0.750000 0.750000 0.500000
#
# Coordination Sequence:
#
# PCOD8139315 Si02
#       8
#     8   8   8   8   8   8   8   8
#     4  10  21  35  58  85 121 158 195 241 314 380
#     4  10  20  39  59  88 119 153 203 249 301 365
#     4  11  20  40  64  85 113 171 207 244 307 371
#     4  12  24  37  58  94 132 161 200 257 316 374
#     4  10  21  37  63  93 112 161 212 262 308 360
#     4  11  22  36  56  91 127 152 193 255 310 367
#     4   9  18  41  64  82 115 156 215 252 295 368
#     4  11  21  38  62  88 125 163 202 245 308 386
#
# _framework density 18.935704000000001
#
# number of rings (size 3 to 8) (size 9 to 14) (size 15 to 20)
#    0.000    1.500    6.250    1.875    5.250    1.500 
#    4.500    0.000   11.000    1.500    0.000    0.000 
#    0.000    0.000    0.000    0.000    0.000    0.000 
#
# Total GULP energy -396555.245703 kJ/mol
# GULP energy per Si atom -12392.351428 kJ/mol
# Density = 1.889261 g / cm^3
# Si number density = 18.935704 Si / 1000 Ang^3
#
#
#
# Elastic Constant Matrix: (Units=GPa)
#
#
# Indices 1 2 3 4 5 6 
#
# 1 153.5908 44.6376 42.3549 0.0000 -14.3185 0.0000
# 2 44.6376 74.9253 24.0714 0.0000 -1.1683 0.0000
# 3 42.3549 24.0714 70.9971 0.0000 -7.3410 0.0000
# 4 0.0000 0.0000 0.0000 27.2744 0.0000 -1.7404
# 5 -14.3185 -1.1683 -7.3410 0.0000 28.2605 0.0000
# 6 0.0000 0.0000 0.0000 -1.7404 0.0000 23.3340
#
#
#
# Elastic Compliance Matrix: (Units=1/GPa)
#
#
# Indices 1 2 3 4 5 6 
#
# 1 0.009046 -0.004171 -0.003624 0.000000 0.003469 0.000000
# 2 -0.004171 0.016915 -0.003487 0.000000 -0.002320 0.000000
# 3 -0.003624 -0.003487 0.017700 0.000000 0.002618 0.000000
# 4 0.000000 0.000000 0.000000 0.036840 0.000000 0.002748
# 5 0.003469 -0.002320 0.002618 0.000000 0.037727 0.000000
# 6 0.000000 0.000000 0.000000 0.002748 0.000000 0.043061
#
#
# Mechanical properties :
#
#
# Convention : Reuss Voigt Hill
#
# Bulk Modulus (GPa) = 47.39689 57.96012 52.67850
# Shear Modulus (GPa) = 26.19399 28.33707 27.26553
#
# Velocity S-wave (km/s) = 3.72333 3.87264 3.79872
# Velocity P-wave (km/s) = 6.60068 7.11842 6.86443
#
# Compressibility (1/GPa) = 0.02109843
#
# Stress axis : x y z
#
# Youngs Moduli (GPa) = 110.55058 59.11745 56.49834
#
# Poissons Ratio (x) = 0.24657 0.20472
# Poissons Ratio (y) = 0.46108 0.19700
# Poissons Ratio (z) = 0.40058 0.20613
#
# Static dielectric constant tensor:
#      x y z
#    x 3.524750 0.000000 -0.254100 
#    y 0.000000 4.376160 0.000000 
#    z -0.254100 0.000000 4.090690 
# 
# 
# High freq. dielectric constant tensor:
#      x y z
#    x 1.734940 0.000000 -0.012600 
#    y 0.000000 1.724110 0.000000 
#    z -0.012600 0.000000 1.728120 
# 
# From -- ./inp_files/124266.got.cif
#   From: 2010.06.25/outbox.cif.g09.slc.cpg/sg15_63_cif.got.tgz:124266.got - 2010.06.28 07:06:18.
