data_PCOD8139333
_publ_section_title
;
Structure prediction by ZEFSAII (Michael W. Deem and Ramdas Pophale) SiO2 
 PCOD8139333
Probable space group: C 2/C
;
_chemical_formula_sum "Si O2"
_cell_formula_units_Z 48
_cell_length_a 17.320481
_cell_length_b 27.020098
_cell_length_c 9.269698
_cell_angle_alpha 90.000000
_cell_angle_beta 150.767746
_cell_angle_gamma 90.000000
_cell_volume 2118.578303
_symmetry_space_group_name_H-M "C 2/C"
_symmetry_group_IT_number 15
_symmetry_cell_setting 'monoclinic'
loop_
_space_group_symop_operation_xyz
x,y,z
-x,y,1/2-z
-x,-y,-z
x,-y,1/2+z
1/2+x,1/2+y,z
1/2-x,1/2+y,1/2-z
1/2-x,1/2-y,-z
1/2+x,1/2-y,1/2+z
loop_
_atom_site_type_symbol
_atom_site_label
_atom_site_fract_x
_atom_site_fract_y
_atom_site_fract_z
Si Si1 0.549605 0.701159 0.679130
Si Si2 0.000000 0.491653 0.750000
Si Si3 0.912347 0.306115 0.814698
Si Si4 0.336273 0.908288 0.630796
Si Si5 0.260092 0.076844 0.327989
Si Si6 0.500000 0.844644 0.250000
Si Si7 0.023292 0.891273 0.958869
O O1 0.500000 0.677232 0.750000
O O2 0.483087 0.758114 0.561444
O O3 0.486509 0.665419 0.448902
O O4 0.736309 0.703367 0.974365
O O5 0.048904 0.455576 0.696982
O O6 0.846043 0.523839 0.464541
O O7 0.953947 0.359966 0.814409
O O8 0.933103 0.308396 0.019972
O O9 0.245552 0.906755 0.636822
O O10 0.202141 0.907253 0.288572
O O11 0.361685 0.118306 0.580167
O O12 0.094300 0.072581 0.142411
O O13 0.000000 0.896951 0.750000
#
# Coordination Sequence:
#
# PCOD8139333 Si02
#       7
#     8   4   8   8   8   4   8
#     4  10  20  39  60  85 125 172 210 258 321 382
#     4  11  24  40  72 102 122 162 220 270 321 390
#     4   9  20  36  59  89 125 161 216 258 318 382
#     4  10  22  42  67  92 132 172 209 267 328 384
#     4  10  22  43  64  93 129 168 213 266 326 380
#     4   9  18  36  60  88 120 164 206 266 315 374
#     4  11  24  41  64  93 129 174 221 267 312 384
#
# _framework density 22.656701999999999
#
# number of rings (size 3 to 8) (size 9 to 14) (size 15 to 20)
#    0.000    2.000    0.000    4.000    2.333    6.000 
#    6.000    1.667    0.000    0.000    0.000    0.000 
#    0.000    0.000    0.000    0.000    0.000    0.000 
#
# Total GULP energy -297333.267449 kJ/mol
# GULP energy per Si atom -12388.886144 kJ/mol
# Density = 2.260513 g / cm^3
# Si number density = 22.656702 Si / 1000 Ang^3
#
#
#
# Elastic Constant Matrix: (Units=GPa)
#
#
# Indices 1 2 3 4 5 6 
#
# 1 120.2683 42.5377 30.3942 0.0000 -14.0243 0.0000
# 2 42.5377 143.0734 42.1281 0.0000 -3.4820 0.0000
# 3 30.3942 42.1281 78.2639 0.0000 -14.3282 0.0000
# 4 0.0000 0.0000 0.0000 372.7941 0.0000 -18.8097
# 5 -14.0243 -3.4820 -14.3282 0.0000 33.0193 0.0000
# 6 0.0000 0.0000 0.0000 -18.8097 0.0000 33.9300
#
#
#
# Elastic Compliance Matrix: (Units=1/GPa)
#
#
# Indices 1 2 3 4 5 6 
#
# 1 0.010014 -0.002286 -0.002090 0.000000 0.003105 0.000000
# 2 -0.002286 0.008869 -0.004228 0.000000 -0.001871 0.000000
# 3 -0.002090 -0.004228 0.016969 0.000000 0.006030 0.000000
# 4 0.000000 0.000000 0.000000 0.002760 0.000000 0.001530
# 5 0.003105 -0.001871 0.006030 0.000000 0.034023 0.000000
# 6 0.000000 0.000000 0.000000 0.001530 0.000000 0.030321
#
#
# Mechanical properties :
#
#
# Convention : Reuss Voigt Hill
#
# Bulk Modulus (GPa) = 53.64147 63.52508 58.58328
# Shear Modulus (GPa) = 39.56394 103.05172 71.30783
#
# Velocity S-wave (km/s) = 4.18333 6.75150 5.61618
# Velocity P-wave (km/s) = 6.86009 9.42740 8.24429
#
# Compressibility (1/GPa) = 0.01864229
#
# Stress axis : x y z
#
# Youngs Moduli (GPa) = 99.86439 112.75596 58.93153
#
# Poissons Ratio (x) = 0.25779 0.12315
# Poissons Ratio (y) = 0.22832 0.24919
# Poissons Ratio (z) = 0.20868 0.47678
#
# Static dielectric constant tensor:
#      x y z
#    x 3.794010 0.000000 -0.025460 
#    y 0.000000 4.772770 0.000000 
#    z -0.025460 0.000000 3.907780 
# 
# 
# High freq. dielectric constant tensor:
#      x y z
#    x 1.875870 0.000000 -0.007460 
#    y 0.000000 1.906750 0.000000 
#    z -0.007460 0.000000 1.877460 
# 
# From -- ./inp_files/52909.got.cif
#   From: 2010.06.25/outbox.cif.g09.slc.cpg/sg15_27_cif.got.tgz:52909.got - 2010.06.28 07:06:18.
