data_PCOD8139207
_publ_section_title
;
Structure prediction by ZEFSAII (Michael W. Deem and Ramdas Pophale) SiO2 
 PCOD8139207
Probable space group: C 2/C
;
_chemical_formula_sum "Si O2"
_cell_formula_units_Z 48
_cell_length_a 14.442637
_cell_length_b 12.864517
_cell_length_c 13.059890
_cell_angle_alpha 90.000000
_cell_angle_beta 107.647165
_cell_angle_gamma 90.000000
_cell_volume 2312.308165
_symmetry_space_group_name_H-M "C 2/C"
_symmetry_group_IT_number 15
_symmetry_cell_setting 'monoclinic'
loop_
_space_group_symop_operation_xyz
x,y,z
-x,y,1/2-z
-x,-y,-z
x,-y,1/2+z
1/2+x,1/2+y,z
1/2-x,1/2+y,1/2-z
1/2-x,1/2-y,-z
1/2+x,1/2-y,1/2+z
loop_
_atom_site_type_symbol
_atom_site_label
_atom_site_fract_x
_atom_site_fract_y
_atom_site_fract_z
Si Si1 0.892979 0.295849 0.598106
Si Si2 0.492752 0.006757 0.616670
Si Si3 0.848677 0.983823 0.921403
Si Si4 0.153120 0.593427 0.795629
Si Si5 0.195896 0.240946 0.142149
Si Si6 0.478494 0.582726 0.632135
O O1 0.942519 0.403731 0.644749
O O2 0.855096 0.303215 0.467954
O O3 0.808762 0.270516 0.651581
O O4 0.973506 0.206994 0.636486
O O5 0.602216 0.018201 0.695113
O O6 0.425860 0.103847 0.637064
O O7 0.500000 0.000000 0.500000
O O8 0.849704 0.874151 0.861415
O O9 0.746370 0.040383 0.878080
O O10 0.876864 0.961117 0.050295
O O11 0.930490 0.059827 0.908171
O O12 0.181338 0.700248 0.746276
O O13 0.500000 0.532880 0.750000
#
# Coordination Sequence:
#
# PCOD8139207 Si02
#       6
#     8   8   8   8   8   8
#     4  10  20  38  67  93 123 170 224 269 322 399
#     4  11  23  40  62  97 131 175 222 275 325 396
#     4  10  22  41  60  96 130 162 217 274 323 392
#     4  11  23  38  64  95 129 174 216 274 327 392
#     4  10  20  39  65  92 127 170 218 270 332 386
#     4  10  22  38  64  93 123 169 215 268 325 393
#
# _framework density 20.758479000000001
#
# number of rings (size 3 to 8) (size 9 to 14) (size 15 to 20)
#    0.000    1.667    3.333    1.000    2.333    2.667 
#    3.000    0.000    0.000    3.000    0.000    0.000 
#    0.000    0.000    0.000    0.000    0.000    0.000 
#
# Total GULP energy -297398.536238 kJ/mol
# GULP energy per Si atom -12391.605677 kJ/mol
# Density = 2.071123 g / cm^3
# Si number density = 20.758479 Si / 1000 Ang^3
#
#
#
# Elastic Constant Matrix: (Units=GPa)
#
#
# Indices 1 2 3 4 5 6 
#
# 1 97.3559 45.5310 48.9910 0.0000 6.4036 0.0000
# 2 45.5310 89.5781 29.1265 0.0000 1.0241 0.0000
# 3 48.9910 29.1265 141.2081 0.0000 -1.8820 0.0000
# 4 0.0000 0.0000 0.0000 28.2312 0.0000 -1.4623
# 5 6.4036 1.0241 -1.8820 0.0000 45.6377 0.0000
# 6 0.0000 0.0000 0.0000 -1.4623 0.0000 34.0744
#
#
#
# Elastic Compliance Matrix: (Units=1/GPa)
#
#
# Indices 1 2 3 4 5 6 
#
# 1 0.015521 -0.006542 -0.004065 0.000000 -0.002199 0.000000
# 2 -0.006542 0.014730 -0.000761 0.000000 0.000556 0.000000
# 3 -0.004065 -0.000761 0.008662 0.000000 0.000945 0.000000
# 4 0.000000 0.000000 0.000000 0.035501 0.000000 0.001523
# 5 -0.002199 0.000556 0.000945 0.000000 0.022247 0.000000
# 6 0.000000 0.000000 0.000000 0.001523 0.000000 0.029413
#
#
# Mechanical properties :
#
#
# Convention : Reuss Voigt Hill
#
# Bulk Modulus (GPa) = 61.81883 63.93768 62.87825
# Shear Modulus (GPa) = 32.42498 35.22157 33.82328
#
# Velocity S-wave (km/s) = 3.95652 4.12361 4.04093
# Velocity P-wave (km/s) = 7.12157 7.31709 7.21999
#
# Compressibility (1/GPa) = 0.01617630
#
# Stress axis : x y z
#
# Youngs Moduli (GPa) = 64.42699 67.88886 115.45237
#
# Poissons Ratio (x) = 0.44416 0.46930
# Poissons Ratio (y) = 0.42151 0.08786
# Poissons Ratio (z) = 0.26189 0.05167
#
# Static dielectric constant tensor:
#      x y z
#    x 3.783650 0.000000 0.180720 
#    y 0.000000 3.778730 0.000000 
#    z 0.180720 0.000000 4.008610 
# 
# 
# High freq. dielectric constant tensor:
#      x y z
#    x 1.811630 0.000000 0.016300 
#    y 0.000000 1.795150 0.000000 
#    z 0.016300 0.000000 1.819010 
# 
# From -- ./inp_files/152181.got.cif
#   From: 2010.06.25/outbox.cif.g09.slc.cpg/sg15_77_cif.got.tgz:152181.got - 2010.06.28 07:06:18.
