data_PCOD8139843
_publ_section_title
;
Structure prediction by ZEFSAII (Michael W. Deem and Ramdas Pophale) SiO2 
 PCOD8139843
Probable space group: C 2/C
;
_chemical_formula_sum "Si O2"
_cell_formula_units_Z 60
_cell_length_a 19.097080
_cell_length_b 19.296255
_cell_length_c 13.495377
_cell_angle_alpha 90.000000
_cell_angle_beta 34.310233
_cell_angle_gamma 90.000000
_cell_volume 2803.191053
_symmetry_space_group_name_H-M "C 2/C"
_symmetry_group_IT_number 15
_symmetry_cell_setting 'monoclinic'
loop_
_space_group_symop_operation_xyz
x,y,z
-x,y,1/2-z
-x,-y,-z
x,-y,1/2+z
1/2+x,1/2+y,z
1/2-x,1/2+y,1/2-z
1/2-x,1/2-y,-z
1/2+x,1/2-y,1/2+z
loop_
_atom_site_type_symbol
_atom_site_label
_atom_site_fract_x
_atom_site_fract_y
_atom_site_fract_z
Si Si1 0.248375 0.156955 0.043902
Si Si2 0.641033 0.769639 0.549525
Si Si3 0.620686 0.705673 0.368021
Si Si4 0.000000 0.115858 0.250000
Si Si5 0.036086 0.074274 0.994017
Si Si6 0.310051 0.097376 0.626026
Si Si7 0.101664 0.546267 0.551239
Si Si8 0.938720 0.662528 0.656214
O O1 0.239123 0.204505 0.154046
O O2 0.117586 0.163782 0.139918
O O3 0.273642 0.075545 0.041836
O O4 0.365390 0.182701 0.842870
O O5 0.500000 0.753928 0.750000
O O6 0.750000 0.750000 0.500000
O O7 0.668146 0.721455 0.422634
O O8 0.646982 0.850648 0.511763
O O9 0.561165 0.630266 0.432259
O O10 0.523965 0.765707 0.443042
O O11 0.960138 0.070080 0.391046
O O12 0.163273 0.094713 0.793519
O O13 0.000000 0.000000 0.000000
O O14 0.345093 0.122342 0.693906
O O15 0.369156 0.021250 0.546117
O O16 0.000000 0.524030 0.750000
O O17 0.054708 0.611950 0.540263
#
# Coordination Sequence:
#
# PCOD8139843 Si02
#       8
#     8   8   8   4   8   8   8   8
#     4  10  20  40  61  94 128 164 211 267 326 397
#     4  11  25  46  68 100 137 179 235 283 337 405
#     4  10  23  41  67  95 129 174 215 277 336 394
#     4  10  20  40  64  90 128 160 216 266 332 388
#     4  11  23  43  65  96 133 174 227 278 337 405
#     4  11  21  40  67  91 132 178 221 272 336 394
#     4  10  22  39  60  95 131 170 220 265 324 396
#     4  10  21  38  63  96 129 167 214 268 329 397
#
# _framework density 21.404178000000002
#
# number of rings (size 3 to 8) (size 9 to 14) (size 15 to 20)
#    0.000    1.600    1.333    3.600    0.000    4.267 
#   20.400    2.667    0.000    0.000    0.000    0.000 
#    0.000    0.000    0.000    0.000    0.000    0.000 
#
# Total GULP energy -371821.798911 kJ/mol
# GULP energy per Si atom -12394.059964 kJ/mol
# Density = 2.135546 g / cm^3
# Si number density = 21.404178 Si / 1000 Ang^3
#
#
#
# Elastic Constant Matrix: (Units=GPa)
#
#
# Indices 1 2 3 4 5 6 
#
# 1 119.3764 48.5770 51.6869 0.0009 8.4259 -0.0003
# 2 48.5770 138.6802 38.8514 0.0005 11.5457 -0.0002
# 3 51.6869 38.8514 86.4585 0.0012 10.5790 -0.0005
# 4 0.0009 0.0005 0.0012 25.0248 -0.0008 5.2287
# 5 8.4259 11.5457 10.5790 -0.0008 37.7698 0.0003
# 6 -0.0003 -0.0002 -0.0005 5.2287 0.0003 31.8598
#
#
#
# Elastic Compliance Matrix: (Units=1/GPa)
#
#
# Indices 1 2 3 4 5 6 
#
# 1 0.012025 -0.002502 -0.006037 0.000000 -0.000227 0.000000
# 2 -0.002502 0.008857 -0.002300 0.000000 -0.001505 0.000000
# 3 -0.006037 -0.002300 0.016524 -0.000001 -0.002579 0.000000
# 4 0.000000 0.000000 -0.000001 0.041379 0.000001 -0.006791
# 5 -0.000227 -0.001505 -0.002579 0.000001 0.027709 -0.000001
# 6 0.000000 0.000000 0.000000 -0.006791 -0.000001 0.032502
#
#
# Mechanical properties :
#
#
# Convention : Reuss Voigt Hill
#
# Bulk Modulus (GPa) = 63.57905 69.19398 66.38652
# Shear Modulus (GPa) = 30.13570 32.62420 31.37995
#
# Velocity S-wave (km/s) = 3.75632 3.90833 3.83308
# Velocity P-wave (km/s) = 6.97006 7.26390 7.11850
#
# Compressibility (1/GPa) = 0.01572845
#
# Stress axis : x y z
#
# Youngs Moduli (GPa) = 83.16232 112.90632 60.51755
#
# Poissons Ratio (x) = 0.28249 0.36532
# Poissons Ratio (y) = 0.20807 0.13920
# Poissons Ratio (z) = 0.50202 0.25969
#
# Static dielectric constant tensor:
#      x y z
#    x 3.818300 0.000000 0.110120 
#    y 0.000000 3.900570 0.000000 
#    z 0.110120 0.000000 3.987670 
# 
# 
# High freq. dielectric constant tensor:
#      x y z
#    x 1.837030 0.000000 0.003060 
#    y 0.000000 1.840030 0.000000 
#    z 0.003060 0.000000 1.845380 
# 
# From -- ./inp_files/107627.got.cif
#   From: 2010.06.25/outbox.cif.g09.slc.cpg/sg15_54_cif.got.tgz:107627.got - 2010.06.28 07:06:18.
