data_PCOD8139947
_publ_section_title
;
Structure prediction by ZEFSAII (Michael W. Deem and Ramdas Pophale) SiO2 
 PCOD8139947
Probable space group: C 2/C
;
_chemical_formula_sum "Si O2"
_cell_formula_units_Z 60
_cell_length_a 7.797953
_cell_length_b 14.794645
_cell_length_c 25.264874
_cell_angle_alpha 90.000000
_cell_angle_beta 101.361125
_cell_angle_gamma 90.000000
_cell_volume 2857.642144
_symmetry_space_group_name_H-M "C 2/C"
_symmetry_group_IT_number 15
_symmetry_cell_setting 'monoclinic'
loop_
_space_group_symop_operation_xyz
x,y,z
-x,y,1/2-z
-x,-y,-z
x,-y,1/2+z
1/2+x,1/2+y,z
1/2-x,1/2+y,1/2-z
1/2-x,1/2-y,-z
1/2+x,1/2-y,1/2+z
loop_
_atom_site_type_symbol
_atom_site_label
_atom_site_fract_x
_atom_site_fract_y
_atom_site_fract_z
Si Si1 0.502575 0.767712 0.189680
Si Si2 0.554438 0.879885 0.613852
Si Si3 0.000000 0.915967 0.250000
Si Si4 0.406879 0.568399 0.580591
Si Si5 0.811103 0.444810 0.334339
Si Si6 0.617464 0.304186 0.157607
Si Si7 0.290531 0.342468 0.972542
Si Si8 0.947701 0.868443 0.599734
O O1 0.500000 0.734877 0.250000
O O2 0.629486 0.852697 0.190079
O O3 0.321055 0.807337 0.159402
O O4 0.539934 0.679128 0.156064
O O5 0.542793 0.797743 0.654703
O O6 0.381500 0.879746 0.567582
O O7 0.733785 0.866739 0.589514
O O8 0.556987 0.970937 0.650357
O O9 0.851474 0.977997 0.212903
O O10 0.924655 0.851081 0.290214
O O11 0.243623 0.582428 0.609897
O O12 0.543871 0.647123 0.601051
O O13 0.340652 0.577975 0.516652
O O14 0.501794 0.473429 0.598848
O O15 0.459780 0.322772 0.945623
O O16 0.250000 0.250000 0.000000
#
# Coordination Sequence:
#
# PCOD8139947 Si02
#       8
#     8   8   4   8   8   8   8   8
#     4  11  22  42  63  95 128 172 218 271 332 395
#     4  10  24  44  63  98 134 169 221 273 321 400
#     4  10  20  40  64  86 128 178 206 274 326 384
#     4  10  22  44  64  96 133 173 219 271 334 390
#     4  10  22  42  64  94 129 169 220 270 332 391
#     4  10  21  41  61  91 134 163 217 272 318 392
#     4  12  23  42  73  97 132 179 224 273 339 389
#     4  10  25  43  63 100 134 171 218 275 329 395
#
# _framework density 20.99633
#
# number of rings (size 3 to 8) (size 9 to 14) (size 15 to 20)
#    0.000    1.600    2.667    1.200    3.733    2.667 
#   22.800    0.000    0.000    0.000    0.000    0.000 
#    0.000    0.000    0.000    0.000    0.000    0.000 
#
# Total GULP energy -371735.788491 kJ/mol
# GULP energy per Si atom -12391.192950 kJ/mol
# Density = 2.094854 g / cm^3
# Si number density = 20.996330 Si / 1000 Ang^3
#
#
#
# Elastic Constant Matrix: (Units=GPa)
#
#
# Indices 1 2 3 4 5 6 
#
# 1 57.5791 25.4420 37.7795 0.0000 4.6100 0.0000
# 2 25.4420 127.1788 53.8667 0.0000 7.9617 0.0000
# 3 37.7795 53.8667 132.3712 0.0000 3.1072 0.0000
# 4 0.0000 0.0000 0.0000 18.9937 0.0000 -0.6598
# 5 4.6100 7.9617 3.1072 0.0000 40.1280 0.0000
# 6 0.0000 0.0000 0.0000 -0.6598 0.0000 21.9475
#
#
#
# Elastic Compliance Matrix: (Units=1/GPa)
#
#
# Indices 1 2 3 4 5 6 
#
# 1 0.021933 -0.001989 -0.005410 0.000000 -0.001706 0.000000
# 2 -0.001989 0.009783 -0.003379 0.000000 -0.001451 0.000000
# 3 -0.005410 -0.003379 0.010462 0.000000 0.000482 0.000000
# 4 0.000000 0.000000 0.000000 0.052704 0.000000 0.001584
# 5 -0.001706 -0.001451 0.000482 0.000000 0.025367 0.000000
# 6 0.000000 0.000000 0.000000 0.001584 0.000000 0.045611
#
#
# Mechanical properties :
#
#
# Convention : Reuss Voigt Hill
#
# Bulk Modulus (GPa) = 48.49486 61.25616 54.87551
# Shear Modulus (GPa) = 25.73459 29.54991 27.64225
#
# Velocity S-wave (km/s) = 3.50476 3.75558 3.63234
# Velocity P-wave (km/s) = 6.28687 6.93137 6.61697
#
# Compressibility (1/GPa) = 0.02062074
#
# Stress axis : x y z
#
# Youngs Moduli (GPa) = 45.59386 102.21789 95.58010
#
# Poissons Ratio (x) = 0.20335 0.51710
# Poissons Ratio (y) = 0.09070 0.32299
# Poissons Ratio (z) = 0.24667 0.34542
#
# Static dielectric constant tensor:
#      x y z
#    x 3.896130 0.000000 0.031980 
#    y 0.000000 3.950960 0.000000 
#    z 0.031980 0.000000 4.036120 
# 
# 
# High freq. dielectric constant tensor:
#      x y z
#    x 1.817080 0.000000 0.003670 
#    y 0.000000 1.826070 0.000000 
#    z 0.003670 0.000000 1.823630 
# 
# From -- ./inp_files/264773.got.cif
#   From: 2010.06.25/outbox.cif.g09.slc.cpg/sg15_133_cif.got.tgz:264773.got - 2010.06.28 07:06:18.
