data_PCOD8139174
_publ_section_title
;
Structure prediction by ZEFSAII (Michael W. Deem and Ramdas Pophale) SiO2 
 PCOD8139174
Probable space group: C 2/C
;
_chemical_formula_sum "Si O2"
_cell_formula_units_Z 32
_cell_length_a 19.143951
_cell_length_b 11.875687
_cell_length_c 14.526388
_cell_angle_alpha 90.000000
_cell_angle_beta 25.656072
_cell_angle_gamma 90.000000
_cell_volume 1429.894081
_symmetry_space_group_name_H-M "C 2/C"
_symmetry_group_IT_number 15
_symmetry_cell_setting 'monoclinic'
loop_
_space_group_symop_operation_xyz
x,y,z
-x,y,1/2-z
-x,-y,-z
x,-y,1/2+z
1/2+x,1/2+y,z
1/2-x,1/2+y,1/2-z
1/2-x,1/2-y,-z
1/2+x,1/2-y,1/2+z
loop_
_atom_site_type_symbol
_atom_site_label
_atom_site_fract_x
_atom_site_fract_y
_atom_site_fract_z
Si Si1 0.520851 0.142017 0.328786
Si Si2 0.858994 0.602041 0.852562
Si Si3 0.643003 0.320318 0.757212
Si Si4 0.191837 0.223142 0.778846
O O1 0.500000 0.187770 0.250000
O O2 0.341885 0.138588 0.585900
O O3 0.637509 0.224346 0.246207
O O4 0.599178 0.018848 0.238136
O O5 0.834509 0.689451 0.799670
O O6 0.000000 0.650039 0.750000
O O7 0.701148 0.595709 0.107196
O O8 0.754219 0.325530 0.716981
O O9 0.456845 0.347796 0.001340
#
# Coordination Sequence:
#
# PCOD8139174 Si02
#       4
#     8   8   8   8
#     4  10  22  41  65  87 129 167 207 249 320 369
#     4  10  20  38  66  93 126 162 206 256 322 357
#     4  10  20  39  66  93 127 158 208 265 308 358
#     4  10  21  37  67  90 126 163 207 256 302 368
#
# _framework density 22.379277999999999
#
# number of rings (size 3 to 8) (size 9 to 14) (size 15 to 20)
#    0.000    2.000    2.500    0.750    0.000    4.000 
#    0.000    5.000   44.000    0.000    0.000    0.000 
#    0.000    0.000    0.000    0.000    0.000    0.000 
#
# Total GULP energy -198351.315094 kJ/mol
# GULP energy per Si atom -12396.957193 kJ/mol
# Density = 2.232834 g / cm^3
# Si number density = 22.379278 Si / 1000 Ang^3
#
#
#
# Elastic Constant Matrix: (Units=GPa)
#
#
# Indices 1 2 3 4 5 6 
#
# 1 81.9133 22.4226 28.2620 0.0001 2.2154 -0.0001
# 2 22.4226 87.9139 52.1758 0.0000 5.6508 0.0000
# 3 28.2620 52.1758 169.2018 0.0001 2.8361 -0.0001
# 4 0.0001 0.0000 0.0001 28.2705 0.0000 1.1463
# 5 2.2154 5.6508 2.8361 0.0000 36.4392 0.0001
# 6 -0.0001 0.0000 -0.0001 1.1463 0.0001 18.3630
#
#
#
# Elastic Compliance Matrix: (Units=1/GPa)
#
#
# Indices 1 2 3 4 5 6 
#
# 1 0.013412 -0.002539 -0.001452 0.000000 -0.000309 0.000000
# 2 -0.002539 0.014526 -0.004025 0.000000 -0.001785 0.000000
# 3 -0.001452 -0.004025 0.007392 0.000000 0.000137 0.000000
# 4 0.000000 0.000000 0.000000 0.035462 0.000000 -0.002214
# 5 -0.000309 -0.001785 0.000137 0.000000 0.027728 0.000000
# 6 0.000000 0.000000 0.000000 -0.002214 0.000000 0.054596
#
#
# Mechanical properties :
#
#
# Convention : Reuss Voigt Hill
#
# Bulk Modulus (GPa) = 51.82175 60.52775 56.17475
# Shear Modulus (GPa) = 28.47682 32.35912 30.41797
#
# Velocity S-wave (km/s) = 3.57103 3.80668 3.69074
# Velocity P-wave (km/s) = 6.34109 6.81367 6.58162
#
# Compressibility (1/GPa) = 0.01929692
#
# Stress axis : x y z
#
# Youngs Moduli (GPa) = 74.55754 68.84173 135.28861
#
# Poissons Ratio (x) = 0.17480 0.19646
# Poissons Ratio (y) = 0.18932 0.54457
# Poissons Ratio (z) = 0.10827 0.27711
#
# Static dielectric constant tensor:
#      x y z
#    x 4.242550 0.000000 0.113290 
#    y 0.000000 3.289760 0.000000 
#    z 0.113290 0.000000 4.365920 
# 
# 
# High freq. dielectric constant tensor:
#      x y z
#    x 1.898760 0.000000 0.006860 
#    y 0.000000 1.823500 0.000000 
#    z 0.006860 0.000000 1.903010 
# 
# From -- ./inp_files/36718.got.cif
#   From: 2010.06.25/outbox.cif.g09.slc.cpg/sg15_19_cif.got.tgz:36718.got - 2010.06.28 07:06:18.
