data_PCOD8139385
_publ_section_title
;
Structure prediction by ZEFSAII (Michael W. Deem and Ramdas Pophale) SiO2 
 PCOD8139385
Probable space group: C 2/C
;
_chemical_formula_sum "Si O2"
_cell_formula_units_Z 40
_cell_length_a 9.240546
_cell_length_b 21.842499
_cell_length_c 14.327451
_cell_angle_alpha 90.000000
_cell_angle_beta 46.995771
_cell_angle_gamma 90.000000
_cell_volume 2114.786159
_symmetry_space_group_name_H-M "C 2/C"
_symmetry_group_IT_number 15
_symmetry_cell_setting 'monoclinic'
loop_
_space_group_symop_operation_xyz
x,y,z
-x,y,1/2-z
-x,-y,-z
x,-y,1/2+z
1/2+x,1/2+y,z
1/2-x,1/2+y,1/2-z
1/2-x,1/2-y,-z
1/2+x,1/2-y,1/2+z
loop_
_atom_site_type_symbol
_atom_site_label
_atom_site_fract_x
_atom_site_fract_y
_atom_site_fract_z
Si Si1 0.167517 0.644191 0.751917
Si Si2 0.455116 0.017140 0.626350
Si Si3 0.288814 0.529395 0.108011
Si Si4 0.889445 0.154841 0.983748
Si Si5 0.780658 0.226536 0.859672
O O1 0.113488 0.587149 0.841085
O O2 0.382581 0.633689 0.611614
O O3 0.181945 0.704674 0.807896
O O4 0.000000 0.656507 0.750000
O O5 0.283207 0.976028 0.752067
O O6 0.651108 0.011239 0.601939
O O7 0.500000 0.000000 0.500000
O O8 0.500000 0.500000 0.000000
O O9 0.270177 0.600454 0.086457
O O10 0.803917 0.167001 0.917380
O O11 0.865455 0.220405 0.043393
O O12 0.000000 0.254905 0.750000
#
# Coordination Sequence:
#
# PCOD8139385 Si02
#       5
#     8   8   8   8   8
#     4  11  20  40  59  84 123 153 193 241 302 351
#     4  11  23  37  58  91 117 159 195 243 297 349
#     4  11  21  39  62  86 119 156 194 245 295 352
#     4  10  20  39  61  87 114 152 200 242 290 344
#     4   9  21  36  61  88 112 151 196 246 288 346
#
# _framework density 18.914442000000001
#
# number of rings (size 3 to 8) (size 9 to 14) (size 15 to 20)
#    0.000    1.600    4.000    1.200    2.800    1.600 
#    3.600    0.000    0.000    0.000    0.000    0.000 
#    0.000    0.000    0.000    0.000    0.000    0.000 
#
# Total GULP energy -247903.212642 kJ/mol
# GULP energy per Si atom -12395.160632 kJ/mol
# Density = 1.887139 g / cm^3
# Si number density = 18.914442 Si / 1000 Ang^3
#
#
#
# Elastic Constant Matrix: (Units=GPa)
#
#
# Indices 1 2 3 4 5 6 
#
# 1 89.8525 42.5102 57.8483 0.0000 -2.7888 0.0000
# 2 42.5102 83.2765 42.8598 0.0000 -8.2457 0.0000
# 3 57.8483 42.8598 142.4801 0.0000 4.5649 0.0000
# 4 0.0000 0.0000 0.0000 41.6228 0.0000 -0.1451
# 5 -2.7888 -8.2457 4.5649 0.0000 32.1471 0.0000
# 6 0.0000 0.0000 0.0000 -0.1451 0.0000 16.5419
#
#
#
# Elastic Compliance Matrix: (Units=1/GPa)
#
#
# Indices 1 2 3 4 5 6 
#
# 1 0.017434 -0.006125 -0.005258 0.000000 0.000688 0.000000
# 2 -0.006125 0.016969 -0.002752 0.000000 0.004212 0.000000
# 3 -0.005258 -0.002752 0.010064 0.000000 -0.002591 0.000000
# 4 0.000000 0.000000 0.000000 0.024026 0.000000 0.000211
# 5 0.000688 0.004212 -0.002591 0.000000 0.032615 0.000000
# 6 0.000000 0.000000 0.000000 0.000211 0.000000 0.060454
#
#
# Mechanical properties :
#
#
# Convention : Reuss Voigt Hill
#
# Bulk Modulus (GPa) = 61.74497 66.89398 64.31947
# Shear Modulus (GPa) = 25.61067 29.55506 27.58287
#
# Velocity S-wave (km/s) = 3.68370 3.95722 3.82291
# Velocity P-wave (km/s) = 7.12798 7.50485 7.31884
#
# Compressibility (1/GPa) = 0.01619565
#
# Stress axis : x y z
#
# Youngs Moduli (GPa) = 57.36045 58.93245 99.36239
#
# Poissons Ratio (x) = 0.36098 0.52242
# Poissons Ratio (y) = 0.35135 0.27348
# Poissons Ratio (z) = 0.30158 0.16220
#
# Static dielectric constant tensor:
#      x y z
#    x 1.875050 0.000000 -1.640430 
#    y 0.000000 3.398110 0.000000 
#    z -1.640430 0.000000 1.898450 
# 
# 
# High freq. dielectric constant tensor:
#      x y z
#    x 1.724900 0.000000 -0.005450 
#    y 0.000000 1.736310 0.000000 
#    z -0.005450 0.000000 1.746070 
# 
# From -- ./inp_files/77721.got.cif
#   From: 2010.06.25/outbox.cif.g09.slc.cpg/sg15_39_cif.got.tgz:77721.got - 2010.06.28 07:06:18.
