data_PCOD8139509
_publ_section_title
;
Structure prediction by ZEFSAII (Michael W. Deem and Ramdas Pophale) SiO2 
 PCOD8139509
Probable space group: C 2/C
;
_chemical_formula_sum "Si O2"
_cell_formula_units_Z 48
_cell_length_a 16.964098
_cell_length_b 8.646421
_cell_length_c 22.526891
_cell_angle_alpha 90.000000
_cell_angle_beta 129.269129
_cell_angle_gamma 90.000000
_cell_volume 2558.062320
_symmetry_space_group_name_H-M "C 2/C"
_symmetry_group_IT_number 15
_symmetry_cell_setting 'monoclinic'
loop_
_space_group_symop_operation_xyz
x,y,z
-x,y,1/2-z
-x,-y,-z
x,-y,1/2+z
1/2+x,1/2+y,z
1/2-x,1/2+y,1/2-z
1/2-x,1/2-y,-z
1/2+x,1/2-y,1/2+z
loop_
_atom_site_type_symbol
_atom_site_label
_atom_site_fract_x
_atom_site_fract_y
_atom_site_fract_z
Si Si1 0.907856 0.221771 0.297124
Si Si2 0.389461 0.458696 0.205301
Si Si3 0.480579 0.531302 0.922245
Si Si4 0.857574 0.198965 0.573627
Si Si5 0.175407 0.223974 0.716775
Si Si6 0.515712 0.051286 0.188109
O O1 0.789892 0.253634 0.252294
O O2 0.978739 0.373142 0.329392
O O3 0.911454 0.137151 0.234011
O O4 0.954457 0.122614 0.373096
O O5 0.500000 0.374250 0.250000
O O6 0.334193 0.418251 0.117637
O O7 0.324880 0.396891 0.229458
O O8 0.586134 0.599158 0.948919
O O9 0.389253 0.654943 0.869347
O O10 0.500000 0.500000 0.000000
O O11 0.750000 0.250000 0.500000
O O12 0.921008 0.355323 0.615729
O O13 0.123449 0.378877 0.717360
O O14 0.500000 0.059528 0.250000
#
# Coordination Sequence:
#
# PCOD8139509 Si02
#       6
#     8   8   8   8   8   8
#     4  11  23  36  67  94 118 155 209 261 300 359
#     4  11  18  42  62  83 120 160 203 247 300 360
#     4  10  23  42  59  86 131 160 196 257 318 356
#     4  11  23  40  62  85 122 171 199 241 315 372
#     4  10  20  39  63  90 118 161 201 245 309 371
#     4  11  20  38  64  93 116 152 213 252 289 365
#
# _framework density 18.764202999999998
#
# number of rings (size 3 to 8) (size 9 to 14) (size 15 to 20)
#    0.000    1.333    6.667    2.500    2.333    1.333 
#    3.000    2.500    0.000    0.000    0.000    0.000 
#    0.000    0.000    0.000    0.000    0.000    0.000 
#
# Total GULP energy -297390.688778 kJ/mol
# GULP energy per Si atom -12391.278699 kJ/mol
# Density = 1.872149 g / cm^3
# Si number density = 18.764203 Si / 1000 Ang^3
#
#
#
# Elastic Constant Matrix: (Units=GPa)
#
#
# Indices 1 2 3 4 5 6 
#
# 1 116.3174 49.5987 82.7841 0.0000 2.9323 0.0000
# 2 49.5987 129.7801 60.2601 0.0000 -8.2087 0.0000
# 3 82.7841 60.2601 134.7117 0.0000 -13.4263 0.0000
# 4 0.0000 0.0000 0.0000 20.7130 0.0000 -4.9564
# 5 2.9323 -8.2087 -13.4263 0.0000 32.2753 0.0000
# 6 0.0000 0.0000 0.0000 -4.9564 0.0000 28.2755
#
#
#
# Elastic Compliance Matrix: (Units=1/GPa)
#
#
# Indices 1 2 3 4 5 6 
#
# 1 0.016761 -0.002182 -0.009944 0.000000 -0.006214 0.000000
# 2 -0.002182 0.010024 -0.002994 0.000000 0.001502 0.000000
# 3 -0.009944 -0.002994 0.015531 0.000000 0.006603 0.000000
# 4 0.000000 0.000000 0.000000 0.050392 0.000000 0.008833
# 5 -0.006214 0.001502 0.006603 0.000000 0.034677 0.000000
# 6 0.000000 0.000000 0.000000 0.008833 0.000000 0.036915
#
#
# Mechanical properties :
#
#
# Convention : Reuss Voigt Hill
#
# Bulk Modulus (GPa) = 82.79134 85.12164 83.95649
# Shear Modulus (GPa) = 25.18079 28.79719 26.98899
#
# Velocity S-wave (km/s) = 3.66725 3.92176 3.79664
# Velocity P-wave (km/s) = 7.88349 8.12215 8.00371
#
# Compressibility (1/GPa) = 0.01207856
#
# Stress axis : x y z
#
# Youngs Moduli (GPa) = 59.66235 99.75889 64.38712
#
# Poissons Ratio (x) = 0.21764 0.64023
# Poissons Ratio (y) = 0.13016 0.19275
# Poissons Ratio (z) = 0.59325 0.29864
#
# Static dielectric constant tensor:
#      x y z
#    x 3.504970 0.000000 -0.129580 
#    y 0.000000 4.190860 0.000000 
#    z -0.129580 0.000000 3.203850 
# 
# 
# High freq. dielectric constant tensor:
#      x y z
#    x 1.742580 0.000000 -0.005600 
#    y 0.000000 1.738290 0.000000 
#    z -0.005600 0.000000 1.706080 
# 
# From -- ./inp_files/208666.got.cif
#   From: 2010.06.25/outbox.cif.g09.slc.cpg/sg15_105_cif.got.tgz:208666.got - 2010.06.28 07:06:18.
