data_PCOD8139558
_publ_section_title
;
Structure prediction by ZEFSAII (Michael W. Deem and Ramdas Pophale) SiO2 
 PCOD8139558
Probable space group: C 2/C
;
_chemical_formula_sum "Si O2"
_cell_formula_units_Z 56
_cell_length_a 9.825073
_cell_length_b 16.870530
_cell_length_c 16.972973
_cell_angle_alpha 90.000000
_cell_angle_beta 71.928548
_cell_angle_gamma 90.000000
_cell_volume 2674.560395
_symmetry_space_group_name_H-M "C 2/C"
_symmetry_group_IT_number 15
_symmetry_cell_setting 'monoclinic'
loop_
_space_group_symop_operation_xyz
x,y,z
-x,y,1/2-z
-x,-y,-z
x,-y,1/2+z
1/2+x,1/2+y,z
1/2-x,1/2+y,1/2-z
1/2-x,1/2-y,-z
1/2+x,1/2-y,1/2+z
loop_
_atom_site_type_symbol
_atom_site_label
_atom_site_fract_x
_atom_site_fract_y
_atom_site_fract_z
Si Si1 0.643231 0.462548 0.173659
Si Si2 0.415057 0.707171 0.843977
Si Si3 0.244831 0.849804 0.840220
Si Si4 0.829140 0.146299 0.603536
Si Si5 0.574780 0.597080 0.081090
Si Si6 0.661956 0.013249 0.725158
Si Si7 0.652075 0.283844 0.695767
O O1 0.500000 0.472016 0.250000
O O2 0.683329 0.370300 0.152928
O O3 0.606066 0.504694 0.096248
O O4 0.779855 0.498988 0.195883
O O5 0.500000 0.730167 0.750000
O O6 0.318141 0.784142 0.884834
O O7 0.520606 0.682175 0.895082
O O8 0.340493 0.928805 0.818927
O O9 0.243570 0.805729 0.756003
O O10 0.090067 0.877281 0.899376
O O11 0.838715 0.118037 0.512289
O O12 0.716737 0.216836 0.628743
O O13 0.775294 0.073177 0.665560
O O14 0.638967 0.637754 0.146637
O O15 0.500000 0.046813 0.750000
O O16 0.500000 0.250359 0.750000
#
# Coordination Sequence:
#
# PCOD8139558 Si02
#       7
#     8   8   8   8   8   8   8
#     4  11  19  44  66  90 125 177 222 259 320 401
#     4  11  21  37  65  91 126 168 218 269 316 387
#     4  11  21  39  66  95 121 172 222 268 317 386
#     4  12  24  40  62  98 133 168 213 279 335 381
#     4  11  23  39  67  95 129 170 218 270 334 394
#     4  12  24  39  67  98 128 169 228 273 318 394
#     4  10  20  39  64  88 121 169 220 257 314 398
#
# _framework density 20.938020999999999
#
# number of rings (size 3 to 8) (size 9 to 14) (size 15 to 20)
#    0.000    0.857    7.143    1.714    0.000    4.000 
#    0.000    0.714    0.000    0.000    0.000    0.000 
#    0.000    0.000    0.000    0.000    0.000    0.000 
#
# Total GULP energy -347125.677339 kJ/mol
# GULP energy per Si atom -12397.345619 kJ/mol
# Density = 2.089037 g / cm^3
# Si number density = 20.938021 Si / 1000 Ang^3
#
#
#
# Elastic Constant Matrix: (Units=GPa)
#
#
# Indices 1 2 3 4 5 6 
#
# 1 116.4744 45.5263 21.6075 0.0000 1.0367 0.0000
# 2 45.5263 112.6288 -2.5783 0.0000 -13.6159 0.0000
# 3 21.6075 -2.5783 50.2402 0.0000 -9.6839 0.0000
# 4 0.0000 0.0000 0.0000 5.3812 0.0000 -23.0455
# 5 1.0367 -13.6159 -9.6839 0.0000 13.5188 0.0000
# 6 0.0000 0.0000 0.0000 -23.0455 0.0000 -20.7857
#
#
#
# Elastic Compliance Matrix: (Units=1/GPa)
#
#
# Indices 1 2 3 4 5 6 
#
# 1 0.013247 -0.007350 -0.008930 0.000000 -0.014816 0.000000
# 2 -0.007350 0.014560 0.007940 0.000000 0.020916 0.000000
# 3 -0.008930 0.007940 0.029963 0.000000 0.030146 0.000000
# 4 0.000000 0.000000 0.000000 0.032329 0.000000 -0.035844
# 5 -0.014816 0.020916 0.030146 0.000000 0.117768 0.000000
# 6 0.000000 0.000000 0.000000 -0.035844 0.000000 -0.008370
#
#
# Mechanical properties :
#
#
# Convention : Reuss Voigt Hill
#
# Bulk Modulus (GPa) = 24.33710 45.38383 34.86047
# Shear Modulus (GPa) = 21.75085 13.94206 17.84645
#
# Velocity S-wave (km/s) = 3.22657 2.58325 2.92267
# Velocity P-wave (km/s) = 5.05269 5.53353 5.29857
#
# Compressibility (1/GPa) = 0.04108953
#
# Stress axis : x y z
#
# Youngs Moduli (GPa) = 75.48769 68.68031 33.37402
#
# Poissons Ratio (x) = 0.50482 0.29805
# Poissons Ratio (y) = 0.55486 -0.26500
# Poissons Ratio (z) = 0.67414 -0.54533
#
# Static dielectric constant tensor:
#      x y z
#    x 3.737150 0.000000 0.044810 
#    y 0.000000 4.026090 0.000000 
#    z 0.044810 0.000000 3.447250 
# 
# 
# High freq. dielectric constant tensor:
#      x y z
#    x 1.816290 0.000000 0.007320 
#    y 0.000000 1.839560 0.000000 
#    z 0.007320 0.000000 1.782610 
# 
# From -- ./inp_files/190922.got.cif
#   From: 2010.06.25/outbox.cif.g09.slc.cpg/sg15_96_cif.got.tgz:190922.got - 2010.06.28 07:06:18.
