data_PCOD8139734
_publ_section_title
;
Structure prediction by ZEFSAII (Michael W. Deem and Ramdas Pophale) SiO2 
 PCOD8139734
Probable space group: C 2/C
;
_chemical_formula_sum "Si O2"
_cell_formula_units_Z 40
_cell_length_a 9.897342
_cell_length_b 27.923022
_cell_length_c 14.926884
_cell_angle_alpha 90.000000
_cell_angle_beta 153.839331
_cell_angle_gamma 90.000000
_cell_volume 1818.780235
_symmetry_space_group_name_H-M "C 2/C"
_symmetry_group_IT_number 15
_symmetry_cell_setting 'monoclinic'
loop_
_space_group_symop_operation_xyz
x,y,z
-x,y,1/2-z
-x,-y,-z
x,-y,1/2+z
1/2+x,1/2+y,z
1/2-x,1/2+y,1/2-z
1/2-x,1/2-y,-z
1/2+x,1/2-y,1/2+z
loop_
_atom_site_type_symbol
_atom_site_label
_atom_site_fract_x
_atom_site_fract_y
_atom_site_fract_z
Si Si1 0.002554 0.102316 0.455547
Si Si2 0.216137 0.544655 0.143707
Si Si3 0.997630 0.379331 0.388632
Si Si4 0.138016 0.715050 0.054929
Si Si5 0.789900 0.300359 0.705918
O O1 0.187908 0.119905 0.479392
O O2 0.229483 0.093224 0.674121
O O3 0.815151 0.055253 0.307400
O O4 0.784454 0.144577 0.359568
O O5 0.500000 0.532695 0.250000
O O6 0.000000 0.500000 0.000000
O O7 0.040142 0.592360 0.006506
O O8 0.946194 0.323134 0.379804
O O9 0.500000 0.712552 0.250000
O O10 0.042097 0.702043 0.099062
O O11 0.016424 0.768251 0.963476
O O12 0.000000 0.280636 0.750000
#
# Coordination Sequence:
#
# PCOD8139734 Si02
#       5
#     8   8   8   8   8
#     4  10  21  40  65  93 128 169 220 269 324 388
#     4  10  21  43  67  95 127 164 215 273 331 393
#     4  10  20  39  69  94 123 170 223 274 311 384
#     4  12  22  40  65  93 132 181 234 266 312 398
#     4  12  25  39  58  96 139 174 217 276 334 377
#
# _framework density 21.992761999999999
#
# number of rings (size 3 to 8) (size 9 to 14) (size 15 to 20)
#    0.000    1.200    4.000    3.000    2.800    0.800 
#    3.600    1.000    0.000    0.000    0.000    0.000 
#    0.000    0.000    0.000    0.000    0.000    0.000 
#
# Total GULP energy -247854.731532 kJ/mol
# GULP energy per Si atom -12392.736577 kJ/mol
# Density = 2.194271 g / cm^3
# Si number density = 21.992762 Si / 1000 Ang^3
#
#
#
# Elastic Constant Matrix: (Units=GPa)
#
#
# Indices 1 2 3 4 5 6 
#
# 1 80.1659 23.6349 38.3194 0.0000 -16.9581 0.0000
# 2 23.6349 105.3365 61.2822 0.0000 7.2768 0.0000
# 3 38.3194 61.2822 116.6964 -0.0001 -19.9108 0.0002
# 4 0.0000 0.0000 -0.0001 48.4007 0.0001 -6.9423
# 5 -16.9581 7.2768 -19.9108 0.0001 24.6415 0.0000
# 6 0.0000 0.0000 0.0002 -6.9423 0.0000 20.2682
#
#
#
# Elastic Compliance Matrix: (Units=1/GPa)
#
#
# Indices 1 2 3 4 5 6 
#
# 1 0.016690 -0.003492 -0.001752 0.000000 0.011101 0.000000
# 2 -0.003492 0.017868 -0.011073 0.000000 -0.016627 0.000000
# 3 -0.001752 -0.011073 0.017760 0.000000 0.016415 0.000000
# 4 0.000000 0.000000 0.000000 0.021728 0.000000 0.007442
# 5 0.011101 -0.016627 0.016415 0.000000 0.066395 0.000000
# 6 0.000000 0.000000 0.000000 0.007442 0.000000 0.051888
#
#
# Mechanical properties :
#
#
# Convention : Reuss Voigt Hill
#
# Bulk Modulus (GPa) = 50.80763 60.96350 55.88557
# Shear Modulus (GPa) = 21.59594 30.59290 26.09442
#
# Velocity S-wave (km/s) = 3.13702 3.73372 3.44830
# Velocity P-wave (km/s) = 6.02273 6.80937 6.42809
#
# Compressibility (1/GPa) = 0.01968208
#
# Stress axis : x y z
#
# Youngs Moduli (GPa) = 59.91753 55.96685 56.30483
#
# Poissons Ratio (x) = 0.19544 0.09867
# Poissons Ratio (y) = 0.20923 0.62348
# Poissons Ratio (z) = 0.10501 0.61974
#
# Static dielectric constant tensor:
#      x y z
#    x 3.847740 0.000000 -0.324770 
#    y 0.000000 3.904650 0.000000 
#    z -0.324770 0.000000 4.036430 
# 
# 
# High freq. dielectric constant tensor:
#      x y z
#    x 1.851320 0.000000 -0.023710 
#    y 0.000000 1.851800 0.000000 
#    z -0.023710 0.000000 1.862310 
# 
# From -- ./inp_files/139932.got.cif
#   From: 2010.06.25/outbox.cif.g09.slc.cpg/sg15_70_cif.got.tgz:139932.got - 2010.06.28 07:06:18.
