data_PCOD8139610
_publ_section_title
;
Structure prediction by ZEFSAII (Michael W. Deem and Ramdas Pophale) SiO2 
 PCOD8139610
Probable space group: C 2/C
;
_chemical_formula_sum "Si O2"
_cell_formula_units_Z 60
_cell_length_a 23.722418
_cell_length_b 9.532311
_cell_length_c 14.382704
_cell_angle_alpha 90.000000
_cell_angle_beta 67.699662
_cell_angle_gamma 90.000000
_cell_volume 3009.101485
_symmetry_space_group_name_H-M "C 2/C"
_symmetry_group_IT_number 15
_symmetry_cell_setting 'monoclinic'
loop_
_space_group_symop_operation_xyz
x,y,z
-x,y,1/2-z
-x,-y,-z
x,-y,1/2+z
1/2+x,1/2+y,z
1/2-x,1/2+y,1/2-z
1/2-x,1/2-y,-z
1/2+x,1/2-y,1/2+z
loop_
_atom_site_type_symbol
_atom_site_label
_atom_site_fract_x
_atom_site_fract_y
_atom_site_fract_z
Si Si1 0.789505 0.451290 0.342072
Si Si2 0.880836 0.588510 0.556510
Si Si3 0.118245 0.772972 0.769341
Si Si4 0.618026 0.150076 0.313262
Si Si5 0.000000 0.702985 0.750000
Si Si6 0.257043 0.102895 0.542555
Si Si7 0.491966 0.964885 0.897006
Si Si8 0.679180 0.558789 0.765128
O O1 0.826179 0.304213 0.319498
O O2 0.834389 0.579024 0.287658
O O3 0.764951 0.479663 0.461535
O O4 0.734085 0.442443 0.304194
O O5 0.903470 0.672777 0.633169
O O6 0.877573 0.424138 0.588697
O O7 0.814011 0.632956 0.572442
O O8 0.926519 0.615961 0.440423
O O9 0.059311 0.796444 0.739630
O O10 0.139744 0.918559 0.799853
O O11 0.547789 0.128359 0.320881
O O12 0.633939 0.312715 0.314693
O O13 0.018647 0.605930 0.652698
O O14 0.250000 0.250000 0.500000
O O15 0.201289 0.064284 0.644516
O O16 0.500000 0.000000 0.000000
#
# Coordination Sequence:
#
# PCOD8139610 Si02
#       8
#     8   8   8   8   4   8   8   8
#     4  11  21  41  64  93 124 173 215 256 323 376
#     4  10  21  41  67  93 121 166 222 260 316 371
#     4  11  23  40  64  93 131 173 201 271 323 377
#     4  10  20  41  64  91 119 169 205 262 315 363
#     4  12  20  40  66  92 124 166 216 262 318 376
#     4  12  23  38  67  94 127 167 217 268 313 386
#     4  10  20  39  65  91 116 158 222 262 292 377
#     4  12  24  42  62  95 140 158 210 268 331 378
#
# _framework density 19.939506999999999
#
# number of rings (size 3 to 8) (size 9 to 14) (size 15 to 20)
#    0.000    1.067    8.000    2.400    0.000    0.533 
#    4.800    2.667    0.000    0.000    0.000    0.000 
#    0.000    0.000    0.000    0.000    0.000    0.000 
#
# Total GULP energy -371829.480480 kJ/mol
# GULP energy per Si atom -12394.316016 kJ/mol
# Density = 1.989412 g / cm^3
# Si number density = 19.939507 Si / 1000 Ang^3
#
#
#
# Elastic Constant Matrix: (Units=GPa)
#
#
# Indices 1 2 3 4 5 6 
#
# 1 117.5818 48.8065 24.2940 0.0000 -3.1708 0.0000
# 2 48.8065 105.4629 13.7802 0.0000 -3.2482 0.0000
# 3 24.2940 13.7802 79.7162 0.0000 -6.9385 0.0000
# 4 0.0000 0.0000 0.0000 20.5734 0.0000 2.9160
# 5 -3.1708 -3.2482 -6.9385 0.0000 31.6882 0.0000
# 6 0.0000 0.0000 0.0000 2.9160 0.0000 16.1655
#
#
#
# Elastic Compliance Matrix: (Units=1/GPa)
#
#
# Indices 1 2 3 4 5 6 
#
# 1 0.011004 -0.004761 -0.002525 0.000000 0.000060 0.000000
# 2 -0.004761 0.011773 -0.000531 0.000000 0.000614 0.000000
# 3 -0.002525 -0.000531 0.013639 0.000000 0.002679 0.000000
# 4 0.000000 0.000000 0.000000 0.049882 0.000000 -0.008998
# 5 0.000060 0.000614 0.002679 0.000000 0.032213 0.000000
# 6 0.000000 0.000000 0.000000 -0.008998 0.000000 0.063483
#
#
# Mechanical properties :
#
#
# Convention : Reuss Voigt Hill
#
# Bulk Modulus (GPa) = 48.11686 52.94692 50.53189
# Shear Modulus (GPa) = 24.44307 28.07742 26.26025
#
# Velocity S-wave (km/s) = 3.50503 3.75658 3.63298
# Velocity P-wave (km/s) = 6.36900 6.73997 6.55711
#
# Compressibility (1/GPa) = 0.02078274
#
# Stress axis : x y z
#
# Youngs Moduli (GPa) = 90.87404 84.93662 73.31850
#
# Poissons Ratio (x) = 0.40436 0.18516
# Poissons Ratio (y) = 0.43263 0.03893
# Poissons Ratio (z) = 0.22949 0.04509
#
# Static dielectric constant tensor:
#      x y z
#    x 4.179050 0.000000 -0.526250 
#    y 0.000000 3.427270 0.000000 
#    z -0.526250 0.000000 3.949680 
# 
# 
# High freq. dielectric constant tensor:
#      x y z
#    x 1.793050 0.000000 -0.003940 
#    y 0.000000 1.746800 0.000000 
#    z -0.003940 0.000000 1.778900 
# 
# From -- ./inp_files/171878.got.cif
#   From: 2010.06.25/outbox.cif.g09.slc.cpg/sg15_86_cif.got.tgz:171878.got - 2010.06.28 07:06:18.
