data_PCOD8139638
_publ_section_title
;
Structure prediction by ZEFSAII (Michael W. Deem and Ramdas Pophale) SiO2 
 PCOD8139638
Probable space group: C 2/C
;
_chemical_formula_sum "Si O2"
_cell_formula_units_Z 64
_cell_length_a 10.386726
_cell_length_b 9.328192
_cell_length_c 28.810910
_cell_angle_alpha 90.000000
_cell_angle_beta 93.370077
_cell_angle_gamma 90.000000
_cell_volume 2786.643656
_symmetry_space_group_name_H-M "C 2/C"
_symmetry_group_IT_number 15
_symmetry_cell_setting 'monoclinic'
loop_
_space_group_symop_operation_xyz
x,y,z
-x,y,1/2-z
-x,-y,-z
x,-y,1/2+z
1/2+x,1/2+y,z
1/2-x,1/2+y,1/2-z
1/2-x,1/2-y,-z
1/2+x,1/2-y,1/2+z
loop_
_atom_site_type_symbol
_atom_site_label
_atom_site_fract_x
_atom_site_fract_y
_atom_site_fract_z
Si Si1 0.874226 0.767348 0.777841
Si Si2 0.786687 0.091094 0.439289
Si Si3 0.487251 0.856356 0.528862
Si Si4 0.861174 0.864182 0.513511
Si Si5 0.400941 0.817873 0.379387
Si Si6 0.323545 0.114983 0.635275
Si Si7 0.859223 0.474787 0.735646
Si Si8 0.222702 0.398172 0.600655
O O1 0.899700 0.782369 0.833297
O O2 0.836643 0.601937 0.771309
O O3 0.000000 0.810283 0.750000
O O4 0.752778 0.860728 0.759568
O O5 0.653653 0.159552 0.453222
O O6 0.872006 0.223225 0.423796
O O7 0.856909 0.005558 0.481727
O O8 0.771319 0.984944 0.395451
O O9 0.506306 0.719670 0.494980
O O10 0.591614 0.852947 0.572115
O O11 0.500000 0.000000 0.500000
O O12 0.750000 0.750000 0.500000
O O13 0.842574 0.911500 0.566707
O O14 0.543726 0.878936 0.390921
O O15 0.298977 0.950177 0.373968
O O16 0.356465 0.047610 0.685311
O O17 0.259766 0.273820 0.638626
O O18 0.000000 0.404661 0.750000
#
# Coordination Sequence:
#
# PCOD8139638 Si02
#       8
#     8   8   8   8   8   8   8   8
#     4  11  25  48  72 106 144 174 226 293 356 430
#     4  12  23  42  70  98 139 182 233 290 338 406
#     4  11  19  38  69  92 134 188 239 282 338 403
#     4  10  20  39  65  97 132 192 239 274 348 396
#     4  12  27  43  67 107 135 179 234 283 349 417
#     4  12  23  46  69  97 142 176 227 294 342 412
#     4  11  25  47  78 104 137 187 228 285 363 434
#     4  11  24  40  69 100 138 188 233 285 344 406
#
# _framework density 22.966695999999999
#
# number of rings (size 3 to 8) (size 9 to 14) (size 15 to 20)
#    0.000    0.750   10.000    0.000    1.750    2.000 
#    0.000    2.500    0.000    0.000    0.000    0.000 
#    0.000    0.000    0.000    0.000    0.000    0.000 
#
# Total GULP energy -396787.369276 kJ/mol
# GULP energy per Si atom -12399.605290 kJ/mol
# Density = 2.291442 g / cm^3
# Si number density = 22.966696 Si / 1000 Ang^3
#
#
#
# Elastic Constant Matrix: (Units=GPa)
#
#
# Indices 1 2 3 4 5 6 
#
# 1 103.4077 61.3895 36.2433 0.0000 -10.0979 0.0000
# 2 61.3895 96.5261 12.2528 0.0000 -13.6031 0.0000
# 3 36.2433 12.2528 84.9582 0.0000 -7.6547 0.0000
# 4 0.0000 0.0000 0.0000 33.6809 0.0000 0.7753
# 5 -10.0979 -13.6031 -7.6547 0.0000 36.9790 0.0000
# 6 0.0000 0.0000 0.0000 0.7753 0.0000 42.8237
#
#
#
# Elastic Compliance Matrix: (Units=1/GPa)
#
#
# Indices 1 2 3 4 5 6 
#
# 1 0.018298 -0.010885 -0.006264 0.000000 -0.000304 0.000000
# 2 -0.010885 0.017531 0.002475 0.000000 0.003989 0.000000
# 3 -0.006264 0.002475 0.014280 0.000000 0.002156 0.000000
# 4 0.000000 0.000000 0.000000 0.029703 0.000000 -0.000538
# 5 -0.000304 0.003989 0.002156 0.000000 0.028873 0.000000
# 6 0.000000 0.000000 0.000000 -0.000538 0.000000 0.023361
#
#
# Mechanical properties :
#
#
# Convention : Reuss Voigt Hill
#
# Bulk Modulus (GPa) = 48.16793 56.07368 52.12081
# Shear Modulus (GPa) = 29.70634 34.36383 32.03508
#
# Velocity S-wave (km/s) = 3.60036 3.87233 3.73882
# Velocity P-wave (km/s) = 6.18886 6.66794 6.43286
#
# Compressibility (1/GPa) = 0.02076070
#
# Stress axis : x y z
#
# Youngs Moduli (GPa) = 54.64997 57.04262 70.02864
#
# Poissons Ratio (x) = 0.62092 0.43863
# Poissons Ratio (y) = 0.59488 -0.17330
# Poissons Ratio (z) = 0.34230 -0.14117
#
# Static dielectric constant tensor:
#      x y z
#    x 4.841090 0.000000 -0.105870 
#    y 0.000000 4.279430 0.000000 
#    z -0.105870 0.000000 4.215960 
# 
# 
# High freq. dielectric constant tensor:
#      x y z
#    x 1.909390 0.000000 -0.000850 
#    y 0.000000 1.906730 0.000000 
#    z -0.000850 0.000000 1.908340 
# 
# From -- ./inp_files/310324.got.cif
#   From: 2010.06.25/outbox.cif.g09.slc.cpg/sg15_156_cif.got.tgz:310324.got - 2010.06.28 07:06:18.
