data_PCOD8139172
_publ_section_title
;
Structure prediction by ZEFSAII (Michael W. Deem and Ramdas Pophale) SiO2 
 PCOD8139172
Probable space group: C 2/C
;
_chemical_formula_sum "Si O2"
_cell_formula_units_Z 44
_cell_length_a 11.823148
_cell_length_b 9.550217
_cell_length_c 20.418099
_cell_angle_alpha 90.000000
_cell_angle_beta 63.356069
_cell_angle_gamma 90.000000
_cell_volume 2060.664078
_symmetry_space_group_name_H-M "C 2/C"
_symmetry_group_IT_number 15
_symmetry_cell_setting 'monoclinic'
loop_
_space_group_symop_operation_xyz
x,y,z
-x,y,1/2-z
-x,-y,-z
x,-y,1/2+z
1/2+x,1/2+y,z
1/2-x,1/2+y,1/2-z
1/2-x,1/2-y,-z
1/2+x,1/2-y,1/2+z
loop_
_atom_site_type_symbol
_atom_site_label
_atom_site_fract_x
_atom_site_fract_y
_atom_site_fract_z
Si Si1 0.921506 0.956020 0.638829
Si Si2 0.676960 0.260506 0.350217
Si Si3 0.859211 0.744055 0.919618
Si Si4 0.243246 0.216243 0.684445
Si Si5 0.959163 0.515561 0.585783
Si Si6 0.000000 0.078286 0.750000
O O1 0.792462 0.871710 0.656540
O O2 0.043658 0.867320 0.585435
O O3 0.905177 0.103437 0.605051
O O4 0.934219 0.980212 0.713530
O O5 0.796456 0.228596 0.365525
O O6 0.736839 0.298930 0.264790
O O7 0.574942 0.135161 0.374723
O O8 0.928533 0.592723 0.903248
O O9 0.750000 0.750000 0.000000
O O10 0.104904 0.182397 0.690681
O O11 0.333886 0.106619 0.625493
O O12 0.000000 0.500000 0.500000
#
# Coordination Sequence:
#
# PCOD8139172 Si02
#       6
#     8   8   8   8   8   4
#     4  10  22  38  62  94 123 165 214 265 317 388
#     4  11  22  41  66  95 126 171 219 269 323 387
#     4  11  23  41  64  90 130 172 211 266 332 387
#     4  10  22  40  66  97 132 170 220 276 324 394
#     4  11  23  42  67  98 135 173 217 272 332 394
#     4  10  20  38  66  92 132 166 212 270 338 378
#
# _framework density 21.352340000000002
#
# number of rings (size 3 to 8) (size 9 to 14) (size 15 to 20)
#    0.000    1.455    1.818    4.364    0.000    5.818 
#    0.000    0.909    0.000    0.000    0.000    0.000 
#    0.000    0.000    0.000    0.000    0.000    0.000 
#
# Total GULP energy -272661.074971 kJ/mol
# GULP energy per Si atom -12393.685226 kJ/mol
# Density = 2.130374 g / cm^3
# Si number density = 21.352340 Si / 1000 Ang^3
#
#
#
# Elastic Constant Matrix: (Units=GPa)
#
#
# Indices 1 2 3 4 5 6 
#
# 1 65.9397 46.9284 20.6398 0.0000 -30.6167 0.0000
# 2 46.9284 166.3637 26.6181 0.0000 -31.2319 0.0000
# 3 20.6398 26.6181 87.0891 0.0000 -22.1819 0.0000
# 4 0.0000 0.0000 0.0000 30.2843 0.0000 -8.9881
# 5 -30.6167 -31.2319 -22.1819 0.0000 37.7309 0.0000
# 6 0.0000 0.0000 0.0000 -8.9881 0.0000 30.7258
#
#
#
# Elastic Compliance Matrix: (Units=1/GPa)
#
#
# Indices 1 2 3 4 5 6 
#
# 1 0.026487 -0.004040 -0.000494 0.000000 0.017858 0.000000
# 2 -0.004040 0.007780 -0.000723 0.000000 0.002736 0.000000
# 3 -0.000494 -0.000723 0.013603 0.000000 0.006997 0.000000
# 4 0.000000 0.000000 0.000000 0.036160 0.000000 0.010578
# 5 0.017858 0.002736 0.006997 0.000000 0.047373 0.000000
# 6 0.000000 0.000000 0.000000 0.010578 0.000000 0.035640
#
#
# Mechanical properties :
#
#
# Convention : Reuss Voigt Hill
#
# Bulk Modulus (GPa) = 26.77001 56.41835 41.59418
# Shear Modulus (GPa) = 26.31443 34.76195 30.53819
#
# Velocity S-wave (km/s) = 3.51435 4.03925 3.78591
# Velocity P-wave (km/s) = 5.38814 6.94506 6.21554
#
# Compressibility (1/GPa) = 0.03735524
#
# Stress axis : x y z
#
# Youngs Moduli (GPa) = 37.75430 128.53497 73.51346
#
# Poissons Ratio (x) = 0.51927 0.03631
# Poissons Ratio (y) = 0.15252 0.05319
# Poissons Ratio (z) = 0.01865 0.09299
#
# Static dielectric constant tensor:
#      x y z
#    x 4.510370 0.000000 -0.159980 
#    y 0.000000 4.363310 0.000000 
#    z -0.159980 0.000000 3.756370 
# 
# 
# High freq. dielectric constant tensor:
#      x y z
#    x 1.834650 0.000000 -0.020650 
#    y 0.000000 1.852180 0.000000 
#    z -0.020650 0.000000 1.825800 
# 
# From -- ./inp_files/236124.got.cif
#   From: 2010.06.25/outbox.cif.g09.slc.cpg/sg15_119_cif.got.tgz:236124.got - 2010.06.28 07:06:18.
