data_PCOD8139426
_publ_section_title
;
Structure prediction by ZEFSAII (Michael W. Deem and Ramdas Pophale) SiO2 
 PCOD8139426
Probable space group: C 2/C
;
_chemical_formula_sum "Si O2"
_cell_formula_units_Z 56
_cell_length_a 24.643149
_cell_length_b 13.154527
_cell_length_c 16.387538
_cell_angle_alpha 90.000000
_cell_angle_beta 29.701234
_cell_angle_gamma 90.000000
_cell_volume 2632.139973
_symmetry_space_group_name_H-M "C 2/C"
_symmetry_group_IT_number 15
_symmetry_cell_setting 'monoclinic'
loop_
_space_group_symop_operation_xyz
x,y,z
-x,y,1/2-z
-x,-y,-z
x,-y,1/2+z
1/2+x,1/2+y,z
1/2-x,1/2+y,1/2-z
1/2-x,1/2-y,-z
1/2+x,1/2-y,1/2+z
loop_
_atom_site_type_symbol
_atom_site_label
_atom_site_fract_x
_atom_site_fract_y
_atom_site_fract_z
Si Si1 0.764503 0.076915 0.379765
Si Si2 0.182857 0.388486 0.564175
Si Si3 0.605084 0.986384 0.308434
Si Si4 0.086165 0.679492 0.699820
Si Si5 0.015701 0.091475 0.320797
Si Si6 0.688057 0.467008 0.864928
Si Si7 0.876638 0.821946 0.413904
O O1 0.704796 0.178312 0.496112
O O2 0.787180 0.082685 0.254797
O O3 0.875119 0.047370 0.282443
O O4 0.681469 0.984925 0.506332
O O5 0.116464 0.416372 0.733472
O O6 0.126435 0.300351 0.585114
O O7 0.307478 0.360031 0.426267
O O8 0.596915 0.882559 0.268850
O O9 0.500000 0.000000 0.500000
O O10 0.708730 0.973746 0.232746
O O11 0.000000 0.628177 0.750000
O O12 0.034329 0.787346 0.793894
O O13 0.000000 0.048598 0.250000
O O14 0.911122 0.049877 0.508546
O O15 0.668433 0.365665 0.942827
O O16 0.000000 0.861644 0.250000
#
# Coordination Sequence:
#
# PCOD8139426 Si02
#       7
#     8   8   8   8   8   8   8
#     4  11  22  41  64  91 132 169 217 271 328 388
#     4   9  21  39  60  89 119 165 211 255 312 387
#     4  10  21  42  65  91 129 170 216 272 328 387
#     4  10  22  40  64  92 128 173 219 266 327 401
#     4  11  22  41  65  94 129 174 216 269 334 394
#     4  11  23  40  64  96 129 168 216 275 328 386
#     4  10  20  39  62  86 123 165 206 255 320 383
#
# _framework density 21.275463999999999
#
# number of rings (size 3 to 8) (size 9 to 14) (size 15 to 20)
#    0.000    1.714    0.000    5.571    0.000    4.571 
#   18.000    0.000    0.000    0.000    0.000    0.000 
#    0.000    0.000    0.000    0.000    0.000    0.000 
#
# Total GULP energy -347025.729444 kJ/mol
# GULP energy per Si atom -12393.776052 kJ/mol
# Density = 2.122704 g / cm^3
# Si number density = 21.275464 Si / 1000 Ang^3
#
#
#
# Elastic Constant Matrix: (Units=GPa)
#
#
# Indices 1 2 3 4 5 6 
#
# 1 105.4794 32.9286 52.4741 0.0000 7.7473 0.0000
# 2 32.9286 112.3744 50.6732 0.0000 8.2657 0.0000
# 3 52.4741 50.6732 149.7494 0.0000 2.3515 0.0000
# 4 0.0000 0.0000 0.0000 24.1388 0.0000 -4.5713
# 5 7.7473 8.2657 2.3515 0.0000 39.2582 0.0000
# 6 0.0000 0.0000 0.0000 -4.5713 0.0000 23.1887
#
#
#
# Elastic Compliance Matrix: (Units=1/GPa)
#
#
# Indices 1 2 3 4 5 6 
#
# 1 0.011930 -0.001762 -0.003556 0.000000 -0.001770 0.000000
# 2 -0.001762 0.010921 -0.003050 0.000000 -0.001769 0.000000
# 3 -0.003556 -0.003050 0.008943 0.000000 0.000808 0.000000
# 4 0.000000 0.000000 0.000000 0.043034 0.000000 0.008483
# 5 -0.001770 -0.001769 0.000808 0.000000 0.026146 0.000000
# 6 0.000000 0.000000 0.000000 0.008483 0.000000 0.044797
#
#
# Mechanical properties :
#
#
# Convention : Reuss Voigt Hill
#
# Bulk Modulus (GPa) = 66.41427 71.08388 68.74907
# Shear Modulus (GPa) = 29.84609 32.75228 31.29919
#
# Velocity S-wave (km/s) = 3.74951 3.92783 3.83971
# Velocity P-wave (km/s) = 7.07314 7.35215 7.21399
#
# Compressibility (1/GPa) = 0.01505701
#
# Stress axis : x y z
#
# Youngs Moduli (GPa) = 83.82381 91.56950 111.81315
#
# Poissons Ratio (x) = 0.16133 0.39765
# Poissons Ratio (y) = 0.14768 0.34106
# Poissons Ratio (z) = 0.29811 0.27931
#
# Static dielectric constant tensor:
#      x y z
#    x 4.016710 0.000000 -0.257360 
#    y 0.000000 3.948350 0.000000 
#    z -0.257360 0.000000 3.926590 
# 
# 
# High freq. dielectric constant tensor:
#      x y z
#    x 1.843330 0.000000 -0.014700 
#    y 0.000000 1.831020 0.000000 
#    z -0.014700 0.000000 1.829570 
# 
# From -- ./inp_files/173778.got.cif
#   From: 2010.06.25/outbox.cif.g09.slc.cpg/sg15_87_cif.got.tgz:173778.got - 2010.06.28 07:06:18.
