data_PCOD8139349
_publ_section_title
;
Structure prediction by ZEFSAII (Michael W. Deem and Ramdas Pophale) SiO2 
 PCOD8139349
Probable space group: C 2/C
;
_chemical_formula_sum "Si O2"
_cell_formula_units_Z 52
_cell_length_a 18.241681
_cell_length_b 17.487711
_cell_length_c 9.565613
_cell_angle_alpha 90.000000
_cell_angle_beta 59.662223
_cell_angle_gamma 90.000000
_cell_volume 2633.619226
_symmetry_space_group_name_H-M "C 2/C"
_symmetry_group_IT_number 15
_symmetry_cell_setting 'monoclinic'
loop_
_space_group_symop_operation_xyz
x,y,z
-x,y,1/2-z
-x,-y,-z
x,-y,1/2+z
1/2+x,1/2+y,z
1/2-x,1/2+y,1/2-z
1/2-x,1/2-y,-z
1/2+x,1/2-y,1/2+z
loop_
_atom_site_type_symbol
_atom_site_label
_atom_site_fract_x
_atom_site_fract_y
_atom_site_fract_z
Si Si1 0.511397 0.575613 0.576555
Si Si2 0.847528 0.164161 0.690470
Si Si3 0.373965 0.025129 0.987837
Si Si4 0.234743 0.543446 0.668159
Si Si5 0.310069 0.607705 0.030146
Si Si6 0.500000 0.909942 0.750000
Si Si7 0.365865 0.160860 0.183925
O O1 0.500000 0.555032 0.750000
O O2 0.500000 0.500000 0.500000
O O3 0.441361 0.632220 0.585452
O O4 0.601739 0.619121 0.470299
O O5 0.782991 0.124118 0.642838
O O6 0.860132 0.252371 0.640299
O O7 0.811849 0.150222 0.880094
O O8 0.344950 0.047808 0.859439
O O9 0.452390 0.965655 0.905948
O O10 0.401785 0.105591 0.028474
O O11 0.298344 0.986183 0.149729
O O12 0.300257 0.484354 0.531854
O O13 0.230823 0.640192 0.189623
O O14 0.570551 0.853456 0.747907
#
# Coordination Sequence:
#
# PCOD8139349 Si02
#       7
#     8   8   8   8   8   4   8
#     4  10  21  35  62  87 118 158 202 249 294 368
#     4  11  22  39  60  95 126 157 205 260 312 363
#     4  11  23  41  64  94 116 169 211 257 303 384
#     4  11  20  39  66  90 123 160 213 246 310 376
#     4  10  20  39  60  89 120 165 203 246 306 374
#     4  12  22  42  66  88 126 166 216 256 304 376
#     4  11  25  38  62  94 127 158 210 260 322 358
#
# _framework density 19.744689999999999
#
# number of rings (size 3 to 8) (size 9 to 14) (size 15 to 20)
#    0.000    1.231    6.154    0.923    3.231    0.615 
#    0.000    0.000    1.692    0.000    0.000    0.000 
#    0.000    0.000    0.000    0.000    0.000    0.000 
#
# Total GULP energy -322260.667662 kJ/mol
# GULP energy per Si atom -12394.641064 kJ/mol
# Density = 1.969975 g / cm^3
# Si number density = 19.744690 Si / 1000 Ang^3
#
#
#
# Elastic Constant Matrix: (Units=GPa)
#
#
# Indices 1 2 3 4 5 6 
#
# 1 104.6119 38.4551 35.7965 0.0000 -8.6620 0.0000
# 2 38.4551 146.8098 23.8014 0.0000 -1.5709 0.0000
# 3 35.7965 23.8014 45.0082 0.0000 -6.6296 0.0000
# 4 0.0000 0.0000 0.0000 21.2257 0.0000 1.9390
# 5 -8.6620 -1.5709 -6.6296 0.0000 29.8523 0.0000
# 6 0.0000 0.0000 0.0000 1.9390 0.0000 31.7148
#
#
#
# Elastic Compliance Matrix: (Units=1/GPa)
#
#
# Indices 1 2 3 4 5 6 
#
# 1 0.013730 -0.002022 -0.009593 0.000000 0.001747 0.000000
# 2 -0.002022 0.007755 -0.002604 0.000000 -0.000757 0.000000
# 3 -0.009593 -0.002604 0.031836 0.000000 0.004150 0.000000
# 4 0.000000 0.000000 0.000000 0.047377 0.000000 -0.002897
# 5 0.001747 -0.000757 0.004150 0.000000 0.034887 0.000000
# 6 0.000000 0.000000 0.000000 -0.002897 0.000000 0.031708
#
#
# Mechanical properties :
#
#
# Convention : Reuss Voigt Hill
#
# Bulk Modulus (GPa) = 40.18942 54.72620 47.45781
# Shear Modulus (GPa) = 24.50657 29.78369 27.14513
#
# Velocity S-wave (km/s) = 3.52685 3.88808 3.71186
# Velocity P-wave (km/s) = 6.08142 6.92339 6.51602
#
# Compressibility (1/GPa) = 0.02488217
#
# Stress axis : x y z
#
# Youngs Moduli (GPa) = 72.83440 128.94252 31.41084
#
# Poissons Ratio (x) = 0.26078 0.30132
# Poissons Ratio (y) = 0.14730 0.08180
# Poissons Ratio (z) = 0.69869 0.33580
#
# Static dielectric constant tensor:
#      x y z
#    x 3.822890 0.000000 -0.055170 
#    y 0.000000 3.813610 0.000000 
#    z -0.055170 0.000000 3.513900 
# 
# 
# High freq. dielectric constant tensor:
#      x y z
#    x 1.785230 0.000000 -0.011180 
#    y 0.000000 1.756540 0.000000 
#    z -0.011180 0.000000 1.753720 
# 
# From -- ./inp_files/48952.got.cif
#   From: 2010.06.25/outbox.cif.g09.slc.cpg/sg15_25_cif.got.tgz:48952.got - 2010.06.28 07:06:18.
