data_PCOD8139552
_publ_section_title
;
Structure prediction by ZEFSAII (Michael W. Deem and Ramdas Pophale) SiO2 
 PCOD8139552
Probable space group: C 2/C
;
_chemical_formula_sum "Si O2"
_cell_formula_units_Z 60
_cell_length_a 11.130619
_cell_length_b 18.992969
_cell_length_c 15.145596
_cell_angle_alpha 90.000000
_cell_angle_beta 107.531257
_cell_angle_gamma 90.000000
_cell_volume 3053.115776
_symmetry_space_group_name_H-M "C 2/C"
_symmetry_group_IT_number 15
_symmetry_cell_setting 'monoclinic'
loop_
_space_group_symop_operation_xyz
x,y,z
-x,y,1/2-z
-x,-y,-z
x,-y,1/2+z
1/2+x,1/2+y,z
1/2-x,1/2+y,1/2-z
1/2-x,1/2-y,-z
1/2+x,1/2-y,1/2+z
loop_
_atom_site_type_symbol
_atom_site_label
_atom_site_fract_x
_atom_site_fract_y
_atom_site_fract_z
Si Si1 0.370298 0.713321 0.681529
Si Si2 0.633068 0.695420 0.142187
Si Si3 0.349720 0.509095 0.096769
Si Si4 0.000000 0.112158 0.250000
Si Si5 0.960197 0.870488 0.043676
Si Si6 0.722845 0.081101 0.711146
Si Si7 0.490716 0.828530 0.146275
Si Si8 0.761049 0.904381 0.415668
O O1 0.500000 0.740848 0.750000
O O2 0.275950 0.778557 0.666840
O O3 0.396657 0.690944 0.587019
O O4 0.320250 0.646119 0.725123
O O5 0.609240 0.661295 0.232884
O O6 0.537929 0.760856 0.101662
O O7 0.608557 0.634784 0.065248
O O8 0.441351 0.567149 0.157805
O O9 0.438069 0.446936 0.080835
O O10 0.258026 0.482767 0.154402
O O11 0.269514 0.539587 0.997245
O O12 0.109764 0.860682 0.064958
O O13 0.583695 0.105296 0.651023
O O14 0.727195 0.056917 0.814945
O O15 0.500000 0.806096 0.250000
O O16 0.349895 0.849037 0.085978
#
# Coordination Sequence:
#
# PCOD8139552 Si02
#       8
#     8   8   8   4   8   8   8   8
#     4  10  20  39  64  87 114 156 198 241 299 360
#     4  11  23  39  60  88 123 150 193 254 304 347
#     4  11  24  38  60  89 119 158 207 240 297 354
#     4  12  24  38  60  88 122 156 196 262 302 344
#     4  11  22  38  61  91 115 156 200 247 290 356
#     4   9  20  38  63  85 118 156 201 249 288 353
#     4   9  20  39  60  88 116 158 198 241 302 352
#     4  11  20  36  62  89 118 159 200 241 295 363
#
# _framework density 19.652056000000002
#
# number of rings (size 3 to 8) (size 9 to 14) (size 15 to 20)
#    0.000    1.600    3.333    1.600    3.733    1.067 
#    2.400    0.000    2.933    0.000    0.000    0.000 
#    0.000    0.000    0.000    0.000    0.000    0.000 
#
# Total GULP energy -372003.142505 kJ/mol
# GULP energy per Si atom -12400.104750 kJ/mol
# Density = 1.960733 g / cm^3
# Si number density = 19.652056 Si / 1000 Ang^3
#
#
#
# Elastic Constant Matrix: (Units=GPa)
#
#
# Indices 1 2 3 4 5 6 
#
# 1 133.1540 54.2017 43.4973 0.0000 8.2151 0.0000
# 2 54.2017 78.3566 45.3055 0.0000 2.4893 0.0000
# 3 43.4973 45.3055 105.5367 0.0000 -3.4552 0.0000
# 4 0.0000 0.0000 0.0000 31.9350 0.0000 -7.8665
# 5 8.2151 2.4893 -3.4552 0.0000 29.4228 0.0000
# 6 0.0000 0.0000 0.0000 -7.8665 0.0000 22.2830
#
#
#
# Elastic Compliance Matrix: (Units=1/GPa)
#
#
# Indices 1 2 3 4 5 6 
#
# 1 0.010871 -0.006374 -0.001833 0.000000 -0.002711 0.000000
# 2 -0.006374 0.020869 -0.006356 0.000000 -0.000733 0.000000
# 3 -0.001833 -0.006356 0.013044 0.000000 0.002581 0.000000
# 4 0.000000 0.000000 0.000000 0.034296 0.000000 0.012107
# 5 -0.002711 -0.000733 0.002581 0.000000 0.035109 0.000000
# 6 0.000000 0.000000 0.000000 0.012107 0.000000 0.049152
#
#
# Mechanical properties :
#
#
# Convention : Reuss Voigt Hill
#
# Bulk Modulus (GPa) = 63.86261 67.00625 65.43443
# Shear Modulus (GPa) = 25.29275 28.33103 26.81189
#
# Velocity S-wave (km/s) = 3.59141 3.80100 3.69769
# Velocity P-wave (km/s) = 7.05442 7.30984 7.18327
#
# Compressibility (1/GPa) = 0.01565861
#
# Stress axis : x y z
#
# Youngs Moduli (GPa) = 91.99148 47.91746 76.66409
#
# Poissons Ratio (x) = 0.30540 0.14053
# Poissons Ratio (y) = 0.58631 0.48728
# Poissons Ratio (z) = 0.16862 0.30456
#
# Static dielectric constant tensor:
#      x y z
#    x 3.785480 0.000000 -0.227170 
#    y 0.000000 3.343060 0.000000 
#    z -0.227170 0.000000 3.553860 
# 
# 
# High freq. dielectric constant tensor:
#      x y z
#    x 1.773030 0.000000 -0.015790 
#    y 0.000000 1.743380 0.000000 
#    z -0.015790 0.000000 1.764730 
# 
# From -- ./inp_files/146033.got.cif
#   From: 2010.06.25/outbox.cif.g09.slc.cpg/sg15_74_cif.got.tgz:146033.got - 2010.06.28 07:06:18.
