data_PCOD8139959
_publ_section_title
;
Structure prediction by ZEFSAII (Michael W. Deem and Ramdas Pophale) SiO2 
 PCOD8139959
Probable space group: C 2/C
;
_chemical_formula_sum "Si O2"
_cell_formula_units_Z 48
_cell_length_a 16.339285
_cell_length_b 19.276429
_cell_length_c 8.933017
_cell_angle_alpha 90.000000
_cell_angle_beta 48.533681
_cell_angle_gamma 90.000000
_cell_volume 2108.335243
_symmetry_space_group_name_H-M "C 2/C"
_symmetry_group_IT_number 15
_symmetry_cell_setting 'monoclinic'
loop_
_space_group_symop_operation_xyz
x,y,z
-x,y,1/2-z
-x,-y,-z
x,-y,1/2+z
1/2+x,1/2+y,z
1/2-x,1/2+y,1/2-z
1/2-x,1/2-y,-z
1/2+x,1/2-y,1/2+z
loop_
_atom_site_type_symbol
_atom_site_label
_atom_site_fract_x
_atom_site_fract_y
_atom_site_fract_z
Si Si1 0.425571 0.696206 0.979862
Si Si2 0.237292 0.303992 0.204318
Si Si3 0.646383 0.512462 0.115159
Si Si4 0.755913 0.915791 0.717331
Si Si5 0.622696 0.178835 0.548001
Si Si6 0.407998 0.401548 0.094394
O O1 0.500000 0.715996 0.750000
O O2 0.499022 0.657828 0.016345
O O3 0.373084 0.768487 0.099739
O O4 0.327063 0.645336 0.055027
O O5 0.206265 0.336772 0.082257
O O6 0.285859 0.367219 0.243928
O O7 0.339325 0.251309 0.068755
O O8 0.687740 0.560818 0.196593
O O9 0.577079 0.450139 0.277196
O O10 0.748649 0.478406 0.896726
O O11 0.573643 0.554045 0.080405
O O12 0.638450 0.883127 0.905949
O O13 0.500000 0.182440 0.750000
#
# Coordination Sequence:
#
# PCOD8139959 Si02
#       6
#     8   8   8   8   8   8
#     4  11  23  39  62 100 131 169 217 266 330 386
#     4  10  22  40  63  94 130 167 215 270 325 386
#     4  10  22  39  67  92 132 176 208 272 317 392
#     4  10  21  40  61  93 129 163 223 259 328 379
#     4  10  20  40  64  89 122 171 217 269 321 383
#     4  11  22  41  66  96 134 170 216 264 330 384
#
# _framework density 22.766777999999999
#
# number of rings (size 3 to 8) (size 9 to 14) (size 15 to 20)
#    0.000    1.667    3.333    1.000    0.000    5.333 
#    3.000    0.833    0.000    0.000    0.000    0.000 
#    0.000    0.000    0.000    0.000    0.000    0.000 
#
# Total GULP energy -297370.766754 kJ/mol
# GULP energy per Si atom -12390.448615 kJ/mol
# Density = 2.271496 g / cm^3
# Si number density = 22.766778 Si / 1000 Ang^3
#
#
#
# Elastic Constant Matrix: (Units=GPa)
#
#
# Indices 1 2 3 4 5 6 
#
# 1 49.2435 31.4104 21.9933 0.0000 3.0241 0.0000
# 2 31.4104 73.4186 47.9040 0.0000 -4.6569 0.0000
# 3 21.9933 47.9040 143.8506 0.0000 -10.1939 0.0000
# 4 0.0000 0.0000 0.0000 31.1764 0.0000 -3.9233
# 5 3.0241 -4.6569 -10.1939 0.0000 35.1932 0.0000
# 6 0.0000 0.0000 0.0000 -3.9233 0.0000 29.9289
#
#
#
# Elastic Compliance Matrix: (Units=1/GPa)
#
#
# Indices 1 2 3 4 5 6 
#
# 1 0.028550 -0.012059 -0.000649 0.000000 -0.004237 0.000000
# 2 -0.012059 0.022510 -0.005480 0.000000 0.002427 0.000000
# 3 -0.000649 -0.005480 0.009013 0.000000 0.001941 0.000000
# 4 0.000000 0.000000 0.000000 0.032613 0.000000 0.004275
# 5 -0.004237 0.002427 0.001941 0.000000 0.029662 0.000000
# 6 0.000000 0.000000 0.000000 0.004275 0.000000 0.033973
#
#
# Mechanical properties :
#
#
# Convention : Reuss Voigt Hill
#
# Bulk Modulus (GPa) = 42.20315 52.12536 47.16426
# Shear Modulus (GPa) = 24.92558 30.27338 27.59948
#
# Velocity S-wave (km/s) = 3.31240 3.65049 3.48554
# Velocity P-wave (km/s) = 5.76253 6.38068 6.07947
#
# Compressibility (1/GPa) = 0.02369491
#
# Stress axis : x y z
#
# Youngs Moduli (GPa) = 35.02675 44.42568 110.94518
#
# Poissons Ratio (x) = 0.53575 0.07203
# Poissons Ratio (y) = 0.42240 0.60800
# Poissons Ratio (z) = 0.02274 0.24346
#
# Static dielectric constant tensor:
#      x y z
#    x 3.660990 0.000000 0.136500 
#    y 0.000000 4.271960 0.000000 
#    z 0.136500 0.000000 4.243240 
# 
# 
# High freq. dielectric constant tensor:
#      x y z
#    x 1.861330 0.000000 0.014270 
#    y 0.000000 1.901490 0.000000 
#    z 0.014270 0.000000 1.906370 
# 
# From -- ./inp_files/50051.got.cif
#   From: 2010.06.25/outbox.cif.g09.slc.cpg/sg15_26_cif.got.tgz:50051.got - 2010.06.28 07:06:18.
