data_PCOD8139226
_publ_section_title
;
Structure prediction by ZEFSAII (Michael W. Deem and Ramdas Pophale) SiO2 
 PCOD8139226
Probable space group: C 2/C
;
_chemical_formula_sum "Si O2"
_cell_formula_units_Z 44
_cell_length_a 8.770849
_cell_length_b 22.923994
_cell_length_c 11.151955
_cell_angle_alpha 90.000000
_cell_angle_beta 65.404733
_cell_angle_gamma 90.000000
_cell_volume 2038.806581
_symmetry_space_group_name_H-M "C 2/C"
_symmetry_group_IT_number 15
_symmetry_cell_setting 'monoclinic'
loop_
_space_group_symop_operation_xyz
x,y,z
-x,y,1/2-z
-x,-y,-z
x,-y,1/2+z
1/2+x,1/2+y,z
1/2-x,1/2+y,1/2-z
1/2-x,1/2-y,-z
1/2+x,1/2-y,1/2+z
loop_
_atom_site_type_symbol
_atom_site_label
_atom_site_fract_x
_atom_site_fract_y
_atom_site_fract_z
Si Si1 0.707669 0.272582 0.381151
Si Si2 0.331414 0.846939 0.732961
Si Si3 0.524074 0.368685 0.999879
Si Si4 0.689936 0.080328 0.490682
Si Si5 0.087013 0.019376 0.596213
Si Si6 0.500000 0.860340 0.250000
O O1 0.750000 0.250000 0.500000
O O2 0.706934 0.218123 0.295305
O O3 0.524934 0.304049 0.437401
O O4 0.840875 0.318512 0.283448
O O5 0.500000 0.847031 0.750000
O O6 0.176213 0.868329 0.859784
O O7 0.358951 0.892633 0.618946
O O8 0.361079 0.391091 0.982460
O O9 0.583354 0.410153 0.091148
O O10 0.534031 0.095548 0.628443
O O11 0.727110 0.010560 0.465414
O O12 0.000000 0.999441 0.750000
O O13 0.000000 0.000000 0.500000
#
# Coordination Sequence:
#
# PCOD8139226 Si02
#       6
#     8   8   8   8   8   4
#     4  11  21  40  70  99 139 196 229 285 348 438
#     4  12  25  41  63 105 144 180 230 292 359 416
#     4  10  22  42  70  97 132 187 239 280 349 425
#     4  10  21  42  70  97 133 187 233 288 343 426
#     4  10  21  43  74 102 129 182 243 292 340 421
#     4  10  20  38  68 104 128 172 252 272 350 410
#
# _framework density 21.581254999999999
#
# number of rings (size 3 to 8) (size 9 to 14) (size 15 to 20)
#    0.000    1.455    3.636    3.818    0.000    1.455 
#   11.455    0.909    0.000    0.000    0.000    0.000 
#    0.000    0.000    0.000    0.000    0.000    0.000 
#
# Total GULP energy -272619.561100 kJ/mol
# GULP energy per Si atom -12391.798232 kJ/mol
# Density = 2.153213 g / cm^3
# Si number density = 21.581255 Si / 1000 Ang^3
#
#
#
# Elastic Constant Matrix: (Units=GPa)
#
#
# Indices 1 2 3 4 5 6 
#
# 1 67.3808 32.1142 48.8631 0.0000 -1.0970 0.0000
# 2 32.1142 118.4052 46.7676 0.0000 4.2864 0.0000
# 3 48.8631 46.7676 164.9511 0.0000 -11.7285 0.0000
# 4 0.0000 0.0000 0.0000 40.6301 0.0000 -2.5945
# 5 -1.0970 4.2864 -11.7285 0.0000 28.6204 0.0000
# 6 0.0000 0.0000 0.0000 -2.5945 0.0000 52.0386
#
#
#
# Elastic Compliance Matrix: (Units=1/GPa)
#
#
# Indices 1 2 3 4 5 6 
#
# 1 0.020123 -0.003438 -0.005042 0.000000 -0.000780 0.000000
# 2 -0.003438 0.010291 -0.002079 0.000000 -0.002525 0.000000
# 3 -0.005042 -0.002079 0.008398 0.000000 0.003560 0.000000
# 4 0.000000 0.000000 0.000000 0.024691 0.000000 0.001231
# 5 -0.000780 -0.002525 0.003560 0.000000 0.036747 0.000000
# 6 0.000000 0.000000 0.000000 0.001231 0.000000 0.019278
#
#
# Mechanical properties :
#
#
# Convention : Reuss Voigt Hill
#
# Bulk Modulus (GPa) = 56.51348 67.35854 61.93601
# Shear Modulus (GPa) = 34.11963 39.12397 36.62180
#
# Velocity S-wave (km/s) = 3.98047 4.26240 4.12385
# Velocity P-wave (km/s) = 6.88250 7.45006 7.17190
#
# Compressibility (1/GPa) = 0.01769489
#
# Stress axis : x y z
#
# Youngs Moduli (GPa) = 49.69411 97.17674 119.07138
#
# Poissons Ratio (x) = 0.33412 0.60032
# Poissons Ratio (y) = 0.17086 0.24750
# Poissons Ratio (z) = 0.25054 0.20199
#
# Static dielectric constant tensor:
#      x y z
#    x 3.951470 0.000000 -0.233360 
#    y 0.000000 4.920220 0.000000 
#    z -0.233360 0.000000 4.178680 
# 
# 
# High freq. dielectric constant tensor:
#      x y z
#    x 1.819150 0.000000 -0.004790 
#    y 0.000000 1.863060 0.000000 
#    z -0.004790 0.000000 1.858990 
# 
# From -- ./inp_files/79701.got.cif
#   From: 2010.06.25/outbox.cif.g09.slc.cpg/sg15_40_cif.got.tgz:79701.got - 2010.06.28 07:06:18.
