data_PCOD8139677
_publ_section_title
;
Structure prediction by ZEFSAII (Michael W. Deem and Ramdas Pophale) SiO2 
 PCOD8139677
Probable space group: C 2/C
;
_chemical_formula_sum "Si O2"
_cell_formula_units_Z 56
_cell_length_a 9.019067
_cell_length_b 23.621691
_cell_length_c 14.246151
_cell_angle_alpha 90.000000
_cell_angle_beta 67.859764
_cell_angle_gamma 90.000000
_cell_volume 2811.285929
_symmetry_space_group_name_H-M "C 2/C"
_symmetry_group_IT_number 15
_symmetry_cell_setting 'monoclinic'
loop_
_space_group_symop_operation_xyz
x,y,z
-x,y,1/2-z
-x,-y,-z
x,-y,1/2+z
1/2+x,1/2+y,z
1/2-x,1/2+y,1/2-z
1/2-x,1/2-y,-z
1/2+x,1/2-y,1/2+z
loop_
_atom_site_type_symbol
_atom_site_label
_atom_site_fract_x
_atom_site_fract_y
_atom_site_fract_z
Si Si1 0.212780 0.723760 0.909437
Si Si2 0.864130 0.563198 0.510074
Si Si3 0.822806 0.234888 0.277421
Si Si4 0.240676 0.645738 0.612119
Si Si5 0.453207 0.966237 0.358241
Si Si6 0.097095 0.337668 0.956785
Si Si7 0.560766 0.376438 0.138349
O O1 0.212211 0.768459 0.825284
O O2 0.351340 0.680236 0.848692
O O3 0.250000 0.750000 0.000000
O O4 0.037286 0.697147 0.955706
O O5 0.849339 0.508709 0.446830
O O6 0.687176 0.587907 0.548136
O O7 0.895415 0.549277 0.612428
O O8 0.008694 0.605064 0.440693
O O9 0.823423 0.298999 0.317622
O O10 0.681207 0.196531 0.353668
O O11 0.000000 0.208839 0.250000
O O12 0.137760 0.589655 0.657827
O O13 0.235850 0.652683 0.500612
O O14 0.422189 0.635700 0.597770
O O15 0.500000 0.997787 0.250000
O O16 0.500000 0.405795 0.250000
#
# Coordination Sequence:
#
# PCOD8139677 Si02
#       7
#     8   8   8   8   8   8   8
#     4  11  24  38  58  88 123 166 205 252 306 373
#     4   9  22  42  59  90 121 161 203 260 313 371
#     4  12  23  38  64  92 126 168 208 253 315 379
#     4  11  21  36  63  91 120 159 207 260 306 371
#     4  10  20  39  67  85 117 158 209 256 316 374
#     4  10  23  41  59  86 127 162 204 250 310 382
#     4  11  21  36  60  89 123 153 207 260 309 368
#
# _framework density 19.919709999999998
#
# number of rings (size 3 to 8) (size 9 to 14) (size 15 to 20)
#    0.000    1.429    2.857    2.571    4.000    0.571 
#    5.143    0.000    0.000    6.000    0.000    0.000 
#    0.000    0.000    0.000    0.000    0.000    0.000 
#
# Total GULP energy -347034.408988 kJ/mol
# GULP energy per Si atom -12394.086035 kJ/mol
# Density = 1.987437 g / cm^3
# Si number density = 19.919710 Si / 1000 Ang^3
#
#
#
# Elastic Constant Matrix: (Units=GPa)
#
#
# Indices 1 2 3 4 5 6 
#
# 1 117.3251 21.2560 44.9974 0.0000 -2.9034 0.0000
# 2 21.2560 67.7142 40.7386 0.0000 -1.3880 0.0000
# 3 44.9974 40.7386 116.7644 0.0000 12.0041 0.0000
# 4 0.0000 0.0000 0.0000 14.7299 0.0000 -4.1435
# 5 -2.9034 -1.3880 12.0041 0.0000 23.7419 0.0000
# 6 0.0000 0.0000 0.0000 -4.1435 0.0000 13.8553
#
#
#
# Elastic Compliance Matrix: (Units=1/GPa)
#
#
# Indices 1 2 3 4 5 6 
#
# 1 0.010288 -0.000729 -0.004046 0.000000 0.003261 0.000000
# 2 -0.000729 0.019238 -0.006896 0.000000 0.004522 0.000000
# 3 -0.004046 -0.006896 0.013314 0.000000 -0.007629 0.000000
# 4 0.000000 0.000000 0.000000 0.074125 0.000000 0.022167
# 5 0.003261 0.004522 -0.007629 0.000000 0.046640 0.000000
# 6 0.000000 0.000000 0.000000 0.022167 0.000000 0.078804
#
#
# Mechanical properties :
#
#
# Convention : Reuss Voigt Hill
#
# Bulk Modulus (GPa) = 51.28541 57.30974 54.29758
# Shear Modulus (GPa) = 18.36557 23.45289 20.90923
#
# Velocity S-wave (km/s) = 3.03971 3.43501 3.24338
# Velocity P-wave (km/s) = 6.17428 6.67572 6.42989
#
# Compressibility (1/GPa) = 0.01949872
#
# Stress axis : x y z
#
# Youngs Moduli (GPa) = 97.20434 51.97941 75.11041
#
# Poissons Ratio (x) = 0.03787 0.30386
# Poissons Ratio (y) = 0.07082 0.51799
# Poissons Ratio (z) = 0.39325 0.35847
#
# Static dielectric constant tensor:
#      x y z
#    x 3.744700 0.000000 0.057860 
#    y 0.000000 3.468410 0.000000 
#    z 0.057860 0.000000 3.476540 
# 
# 
# High freq. dielectric constant tensor:
#      x y z
#    x 1.786810 0.000000 0.007550 
#    y 0.000000 1.752990 0.000000 
#    z 0.007550 0.000000 1.778070 
# 
# From -- ./inp_files/81259.got.cif
#   From: 2010.06.25/outbox.cif.g09.slc.cpg/sg15_41_cif.got.tgz:81259.got - 2010.06.28 07:06:18.
