data_PCOD8139889
_publ_section_title
;
Structure prediction by ZEFSAII (Michael W. Deem and Ramdas Pophale) SiO2 
 PCOD8139889
Probable space group: C 2/C
;
_chemical_formula_sum "Si O2"
_cell_formula_units_Z 52
_cell_length_a 14.746109
_cell_length_b 14.608286
_cell_length_c 12.040862
_cell_angle_alpha 90.000000
_cell_angle_beta 107.810725
_cell_angle_gamma 90.000000
_cell_volume 2469.472219
_symmetry_space_group_name_H-M "C 2/C"
_symmetry_group_IT_number 15
_symmetry_cell_setting 'monoclinic'
loop_
_space_group_symop_operation_xyz
x,y,z
-x,y,1/2-z
-x,-y,-z
x,-y,1/2+z
1/2+x,1/2+y,z
1/2-x,1/2+y,1/2-z
1/2-x,1/2-y,-z
1/2+x,1/2-y,1/2+z
loop_
_atom_site_type_symbol
_atom_site_label
_atom_site_fract_x
_atom_site_fract_y
_atom_site_fract_z
Si Si1 0.414583 0.369752 0.063060
Si Si2 0.000000 0.994384 0.750000
Si Si3 0.659165 0.899185 0.750123
Si Si4 0.370402 0.347177 0.788847
Si Si5 0.563996 0.936261 0.100371
Si Si6 0.786814 0.353762 0.494529
Si Si7 0.000000 0.277206 0.750000
Si Si8 0.500000 0.194427 0.750000
O O1 0.490090 0.444927 0.133766
O O2 0.311824 0.407061 0.066499
O O3 0.435816 0.276405 0.137343
O O4 0.414187 0.351673 0.930390
O O5 0.093066 0.933773 0.766453
O O6 0.755985 0.852279 0.740390
O O7 0.568187 0.834744 0.692761
O O8 0.636776 0.000027 0.697035
O O9 0.665485 0.905128 0.884651
O O10 0.406438 0.256845 0.736282
O O11 0.635179 0.862178 0.071822
O O12 0.489548 0.875187 0.142521
O O13 0.500000 0.000000 0.000000
O O14 0.750000 0.250000 0.500000
#
# Coordination Sequence:
#
# PCOD8139889 Si02
#       8
#     8   4   8   8   8   8   4   4
#     4  10  21  36  66  92 120 165 215 260 319 370
#     4  10  20  40  62  94 124 164 214 260 318 384
#     4  11  23  40  64  95 125 166 220 259 317 383
#     4  10  23  42  64  89 133 165 210 266 324 375
#     4  12  25  41  65  93 134 168 212 269 319 384
#     4  11  21  40  65  91 124 170 217 261 320 383
#     4  11  21  35  61  98 118 160 225 263 307 387
#     4  11  25  41  63  94 128 174 203 263 333 381
#
# _framework density 21.057130999999998
#
# number of rings (size 3 to 8) (size 9 to 14) (size 15 to 20)
#    0.000    1.231    1.538    5.538    2.154    0.000 
#    0.000    0.769    3.385    0.000    0.000    0.000 
#    0.000    0.000    0.000    0.000    0.000    0.000 
#
# Total GULP energy -322143.870423 kJ/mol
# GULP energy per Si atom -12390.148862 kJ/mol
# Density = 2.100920 g / cm^3
# Si number density = 21.057131 Si / 1000 Ang^3
#
#
#
# Elastic Constant Matrix: (Units=GPa)
#
#
# Indices 1 2 3 4 5 6 
#
# 1 142.8856 62.2896 43.9870 0.0000 -15.2258 0.0000
# 2 62.2896 128.6138 52.4038 0.0000 -10.3482 0.0000
# 3 43.9870 52.4038 91.7323 0.0000 -2.5238 0.0000
# 4 0.0000 0.0000 0.0000 27.3329 0.0000 -11.9207
# 5 -15.2258 -10.3482 -2.5238 0.0000 33.1902 0.0000
# 6 0.0000 0.0000 0.0000 -11.9207 0.0000 36.7409
#
#
#
# Elastic Compliance Matrix: (Units=1/GPa)
#
#
# Indices 1 2 3 4 5 6 
#
# 1 0.009589 -0.003326 -0.002611 0.000000 0.003164 0.000000
# 2 -0.003326 0.011540 -0.004951 0.000000 0.001696 0.000000
# 3 -0.002611 -0.004951 0.014938 0.000000 -0.001606 0.000000
# 4 0.000000 0.000000 0.000000 0.042616 0.000000 0.013827
# 5 0.003164 0.001696 -0.001606 0.000000 0.031987 0.000000
# 6 0.000000 0.000000 0.000000 0.013827 0.000000 0.031704
#
#
# Mechanical properties :
#
#
# Convention : Reuss Voigt Hill
#
# Bulk Modulus (GPa) = 69.97536 75.62140 72.79838
# Shear Modulus (GPa) = 29.60097 33.08954 31.34526
#
# Velocity S-wave (km/s) = 3.75340 3.96841 3.86240
# Velocity P-wave (km/s) = 7.21715 7.54905 7.38497
#
# Compressibility (1/GPa) = 0.01429074
#
# Stress axis : x y z
#
# Youngs Moduli (GPa) = 104.28122 86.65819 66.94552
#
# Poissons Ratio (x) = 0.28821 0.17482
# Poissons Ratio (y) = 0.34682 0.33143
# Poissons Ratio (z) = 0.27231 0.42903
#
# Static dielectric constant tensor:
#      x y z
#    x 4.400670 0.000000 -0.076910 
#    y 0.000000 3.888920 0.000000 
#    z -0.076910 0.000000 3.766160 
# 
# 
# High freq. dielectric constant tensor:
#      x y z
#    x 1.835780 0.000000 0.000240 
#    y 0.000000 1.833090 0.000000 
#    z 0.000240 0.000000 1.812750 
# 
# From -- ./inp_files/97157.got.cif
#   From: 2010.06.25/outbox.cif.g09.slc.cpg/sg15_49_cif.got.tgz:97157.got - 2010.06.28 07:06:18.
