data_PCOD8139076
_publ_section_title
;
Structure prediction by ZEFSAII (Michael W. Deem and Ramdas Pophale) SiO2 
 PCOD8139076
Probable space group: C 2/C
;
_chemical_formula_sum "Si O2"
_cell_formula_units_Z 40
_cell_length_a 24.127910
_cell_length_b 13.129243
_cell_length_c 11.885599
_cell_angle_alpha 90.000000
_cell_angle_beta 29.062239
_cell_angle_gamma 90.000000
_cell_volume 1828.949393
_symmetry_space_group_name_H-M "C 2/C"
_symmetry_group_IT_number 15
_symmetry_cell_setting 'monoclinic'
loop_
_space_group_symop_operation_xyz
x,y,z
-x,y,1/2-z
-x,-y,-z
x,-y,1/2+z
1/2+x,1/2+y,z
1/2-x,1/2+y,1/2-z
1/2-x,1/2-y,-z
1/2+x,1/2-y,1/2+z
loop_
_atom_site_type_symbol
_atom_site_label
_atom_site_fract_x
_atom_site_fract_y
_atom_site_fract_z
Si Si1 0.905076 0.300446 0.001129
Si Si2 0.500000 0.606598 0.750000
Si Si3 0.681468 0.274857 0.275450
Si Si4 0.000000 0.319389 0.250000
Si Si5 0.701709 0.416956 0.040573
Si Si6 0.399972 0.930381 0.222802
O O1 0.784054 0.325931 0.161514
O O2 0.902004 0.335457 0.134660
O O3 0.931143 0.179591 0.959346
O O4 0.000000 0.354184 0.750000
O O5 0.403780 0.543607 0.851511
O O6 0.575082 0.257020 0.543940
O O7 0.645934 0.357708 0.244907
O O8 0.716208 0.165050 0.164504
O O9 0.077689 0.391621 0.190748
O O10 0.777629 0.513624 0.939800
O O11 0.500000 0.000000 0.000000
#
# Coordination Sequence:
#
# PCOD8139076 Si02
#       6
#     8   4   8   4   8   8
#     4   9  20  38  68  92 126 170 214 258 318 385
#     4   8  18  37  65  90 120 178 214 240 311 398
#     4  10  21  39  63  93 129 172 214 255 321 390
#     4  12  26  39  63 104 132 166 214 272 319 378
#     4  10  20  38  64  94 127 174 214 258 319 391
#     4  12  24  36  65 101 135 154 212 280 329 360
#
# _framework density 21.870480000000001
#
# number of rings (size 3 to 8) (size 9 to 14) (size 15 to 20)
#    0.600    1.200    2.000    2.400    4.200    0.800 
#    0.000    1.000    0.000    7.200    0.000    0.000 
#    0.000    0.000    0.000    0.000    0.000    0.000 
#
# Total GULP energy -247875.739864 kJ/mol
# GULP energy per Si atom -12393.786993 kJ/mol
# Density = 2.182070 g / cm^3
# Si number density = 21.870480 Si / 1000 Ang^3
#
#
#
# Elastic Constant Matrix: (Units=GPa)
#
#
# Indices 1 2 3 4 5 6 
#
# 1 178.9182 50.5469 67.4773 0.0000 -12.5371 0.0000
# 2 50.5469 48.8885 43.8592 0.0000 -3.4041 0.0000
# 3 67.4773 43.8592 133.5707 0.0000 -1.0740 0.0000
# 4 0.0000 0.0000 0.0000 11.6001 0.0000 4.2133
# 5 -12.5371 -3.4041 -1.0740 0.0000 42.8889 0.0000
# 6 0.0000 0.0000 0.0000 4.2133 0.0000 8.1925
#
#
#
# Elastic Compliance Matrix: (Units=1/GPa)
#
#
# Indices 1 2 3 4 5 6 
#
# 1 0.008379 -0.006733 -0.002007 0.000000 0.001865 0.000000
# 2 -0.006733 0.034590 -0.007952 0.000000 0.000578 0.000000
# 3 -0.002007 -0.007952 0.011104 0.000000 -0.000940 0.000000
# 4 0.000000 0.000000 0.000000 0.106008 0.000000 -0.054518
# 5 0.001865 0.000578 -0.000940 0.000000 0.023883 0.000000
# 6 0.000000 0.000000 0.000000 -0.054518 0.000000 0.150101
#
#
# Mechanical properties :
#
#
# Convention : Reuss Voigt Hill
#
# Bulk Modulus (GPa) = 48.33393 76.12714 62.23053
# Shear Modulus (GPa) = 13.35665 25.83590 19.59628
#
# Velocity S-wave (km/s) = 2.47395 3.44075 2.99660
# Velocity P-wave (km/s) = 5.50533 7.11820 6.36307
#
# Compressibility (1/GPa) = 0.02068940
#
# Stress axis : x y z
#
# Youngs Moduli (GPa) = 119.34863 28.91006 90.05571
#
# Poissons Ratio (x) = 0.19464 0.18075
# Poissons Ratio (y) = 0.80352 0.71614
# Poissons Ratio (z) = 0.23955 0.22990
#
# Static dielectric constant tensor:
#      x y z
#    x 3.557370 0.000000 -0.261160 
#    y 0.000000 3.530770 0.000000 
#    z -0.261160 0.000000 3.722590 
# 
# 
# High freq. dielectric constant tensor:
#      x y z
#    x 1.879410 0.000000 -0.006990 
#    y 0.000000 1.820060 0.000000 
#    z -0.006990 0.000000 1.846990 
# 
# From -- ./inp_files/122815.got.cif
#   From: 2010.06.25/outbox.cif.g09.slc.cpg/sg15_62_cif.got.tgz:122815.got - 2010.06.28 07:06:18.
