data_PCOD8139222
_publ_section_title
;
Structure prediction by ZEFSAII (Michael W. Deem and Ramdas Pophale) SiO2 
 PCOD8139222
Probable space group: C 2/C
;
_chemical_formula_sum "Si O2"
_cell_formula_units_Z 60
_cell_length_a 26.558253
_cell_length_b 16.487164
_cell_length_c 16.411561
_cell_angle_alpha 90.000000
_cell_angle_beta 158.017647
_cell_angle_gamma 90.000000
_cell_volume 2689.921157
_symmetry_space_group_name_H-M "C 2/C"
_symmetry_group_IT_number 15
_symmetry_cell_setting 'monoclinic'
loop_
_space_group_symop_operation_xyz
x,y,z
-x,y,1/2-z
-x,-y,-z
x,-y,1/2+z
1/2+x,1/2+y,z
1/2-x,1/2+y,1/2-z
1/2-x,1/2-y,-z
1/2+x,1/2-y,1/2+z
loop_
_atom_site_type_symbol
_atom_site_label
_atom_site_fract_x
_atom_site_fract_y
_atom_site_fract_z
Si Si1 0.041122 0.522507 0.153211
Si Si2 0.438020 0.420959 0.736713
Si Si3 0.166247 0.358054 0.392552
Si Si4 0.671121 0.586868 0.916690
Si Si5 0.909904 0.873358 0.380204
Si Si6 0.000000 0.215733 0.750000
Si Si7 0.652813 0.739669 0.238505
Si Si8 0.646303 0.161375 0.575505
O O1 0.077230 0.440674 0.260259
O O2 0.167128 0.583448 0.337307
O O3 0.000000 0.500000 0.000000
O O4 0.921031 0.571418 0.018171
O O5 0.500000 0.377769 0.750000
O O6 0.308758 0.369671 0.563307
O O7 0.392905 0.508870 0.637002
O O8 0.536309 0.426722 0.963000
O O9 0.214925 0.320288 0.552791
O O10 0.100154 0.286206 0.241006
O O11 0.624613 0.577344 0.752923
O O12 0.622116 0.663472 0.895345
O O13 0.769952 0.835332 0.199263
O O14 0.020386 0.809584 0.514857
O O15 0.957367 0.272334 0.611994
O O16 0.693055 0.807971 0.233866
#
# Coordination Sequence:
#
# PCOD8139222 Si02
#       8
#     8   8   8   8   8   4   8   8
#     4  11  24  42  69  95 136 180 226 280 348 409
#     4  10  20  38  68 101 131 174 220 274 339 403
#     4   9  20  39  67  97 136 175 221 284 335 407
#     4  11  24  43  65  97 132 177 223 279 336 405
#     4  11  24  41  68  97 136 173 227 280 333 407
#     4  12  26  42  68  98 136 176 234 270 332 416
#     4  10  20  41  68  98 134 175 226 278 343 396
#     4  12  25  40  68  98 131 181 226 277 340 408
#
# _framework density 22.305488
#
# number of rings (size 3 to 8) (size 9 to 14) (size 15 to 20)
#    0.000    1.333    3.333    2.000    3.733    1.067 
#    0.000    0.000   14.667    0.000    0.000    0.000 
#    0.000    0.000    0.000    0.000    0.000    0.000 
#
# Total GULP energy -371733.517750 kJ/mol
# GULP energy per Si atom -12391.117258 kJ/mol
# Density = 2.225472 g / cm^3
# Si number density = 22.305488 Si / 1000 Ang^3
#
#
#
# Elastic Constant Matrix: (Units=GPa)
#
#
# Indices 1 2 3 4 5 6 
#
# 1 60.9464 1.0162 11.2044 0.0000 -15.6974 0.0000
# 2 1.0162 93.6895 19.2897 0.0000 -9.2677 0.0000
# 3 11.2044 19.2897 86.9801 0.0000 -17.5793 0.0000
# 4 0.0000 0.0000 0.0000 38.0688 0.0000 -12.6339
# 5 -15.6974 -9.2677 -17.5793 0.0000 20.8938 0.0000
# 6 0.0000 0.0000 0.0000 -12.6339 0.0000 24.5723
#
#
#
# Elastic Compliance Matrix: (Units=1/GPa)
#
#
# Indices 1 2 3 4 5 6 
#
# 1 0.020518 0.001316 0.000360 0.000000 0.016302 0.000000
# 2 0.001316 0.011481 -0.001791 0.000000 0.004574 0.000000
# 3 0.000360 -0.001791 0.014148 0.000000 0.011379 0.000000
# 4 0.000000 0.000000 0.000000 0.031673 0.000000 0.016285
# 5 0.016302 0.004574 0.011379 0.000000 0.071711 0.000000
# 6 0.000000 0.000000 0.000000 0.016285 0.000000 0.049069
#
#
# Mechanical properties :
#
#
# Convention : Reuss Voigt Hill
#
# Bulk Modulus (GPa) = 21.77904 33.84851 27.81378
# Shear Modulus (GPa) = 23.34971 30.71403 27.03187
#
# Velocity S-wave (km/s) = 3.23896 3.71478 3.48500
# Velocity P-wave (km/s) = 4.87576 5.79719 5.35632
#
# Compressibility (1/GPa) = 0.04591570
#
# Stress axis : x y z
#
# Youngs Moduli (GPa) = 48.73656 87.10411 70.68370
#
# Poissons Ratio (x) = -0.11462 -0.02543
# Poissons Ratio (y) = -0.06413 0.12660
# Poissons Ratio (z) = -0.01753 0.15602
#
# Static dielectric constant tensor:
#      x y z
#    x 3.820510 0.000000 -0.249150 
#    y 0.000000 4.055500 0.000000 
#    z -0.249150 0.000000 4.285670 
# 
# 
# High freq. dielectric constant tensor:
#      x y z
#    x 1.863800 0.000000 -0.013240 
#    y 0.000000 1.881070 0.000000 
#    z -0.013240 0.000000 1.886790 
# 
# From -- ./inp_files/225799.got.cif
#   From: 2010.06.25/outbox.cif.g09.slc.cpg/sg15_113_cif.got.tgz:225799.got - 2010.06.28 07:06:18.
