data_PCOD8139018
_publ_section_title
;
Structure prediction by ZEFSAII (Michael W. Deem and Ramdas Pophale) SiO2 
 PCOD8139018
Probable space group: C 2/C
;
_chemical_formula_sum "Si O2"
_cell_formula_units_Z 56
_cell_length_a 17.225303
_cell_length_b 20.611866
_cell_length_c 14.883326
_cell_angle_alpha 90.000000
_cell_angle_beta 31.838338
_cell_angle_gamma 90.000000
_cell_volume 2787.575863
_symmetry_space_group_name_H-M "C 2/C"
_symmetry_group_IT_number 15
_symmetry_cell_setting 'monoclinic'
loop_
_space_group_symop_operation_xyz
x,y,z
-x,y,1/2-z
-x,-y,-z
x,-y,1/2+z
1/2+x,1/2+y,z
1/2-x,1/2+y,1/2-z
1/2-x,1/2-y,-z
1/2+x,1/2-y,1/2+z
loop_
_atom_site_type_symbol
_atom_site_label
_atom_site_fract_x
_atom_site_fract_y
_atom_site_fract_z
Si Si1 0.298948 0.035105 0.757903
Si Si2 0.660342 0.607338 0.630768
Si Si3 0.869369 0.423013 0.564665
Si Si4 0.054925 0.289314 0.939886
Si Si5 0.216098 0.832511 0.263536
Si Si6 0.333837 0.010047 0.925579
Si Si7 0.653538 0.198119 0.145381
O O1 0.465348 0.055609 0.578041
O O2 0.200453 0.096529 0.824091
O O3 0.262019 0.024537 0.899532
O O4 0.268664 0.969157 0.729157
O O5 0.500000 0.597826 0.750000
O O6 0.669734 0.657250 0.704788
O O7 0.734841 0.539101 0.581826
O O8 0.757825 0.631152 0.450345
O O9 0.856666 0.346379 0.596359
O O10 0.834644 0.428414 0.492237
O O11 0.102424 0.216783 0.927309
O O12 0.131063 0.284644 0.769125
O O13 0.880597 0.301820 0.109198
O O14 0.500000 0.983327 0.750000
O O15 0.500000 0.189195 0.250000
O O16 0.750000 0.250000 0.000000
#
# Coordination Sequence:
#
# PCOD8139018 Si02
#       7
#     8   8   8   8   8   8   8
#     4   9  18  36  61  87 112 148 197 248 286 336
#     4  12  24  35  54  82 122 153 188 237 294 353
#     4   9  18  34  60  89 112 148 198 241 287 343
#     4  11  22  37  57  83 120 155 193 241 287 347
#     4  11  23  39  57  83 120 154 195 237 291 350
#     4  10  20  38  64  87 111 148 200 248 287 336
#     4  12  21  33  52  78 111 152 190 226 284 347
#
# _framework density 20.089138999999999
#
# number of rings (size 3 to 8) (size 9 to 14) (size 15 to 20)
#    0.000    1.429    4.286    1.714    4.000    0.000 
#    0.000    2.857    0.000    0.000    0.000    0.000 
#    0.000    0.000    0.000    0.000    0.000    0.000 
#
# Total GULP energy -346902.560777 kJ/mol
# GULP energy per Si atom -12389.377171 kJ/mol
# Density = 2.004342 g / cm^3
# Si number density = 20.089139 Si / 1000 Ang^3
#
#
#
# Elastic Constant Matrix: (Units=GPa)
#
#
# Indices 1 2 3 4 5 6 
#
# 1 78.6242 37.9731 30.6997 -0.0068 5.3779 0.0066
# 2 37.9731 118.2968 27.5647 0.0019 -3.8170 0.0031
# 3 30.6997 27.5647 56.8850 0.0061 -7.8391 0.0056
# 4 -0.0068 0.0019 0.0061 34.1554 0.0027 3.7684
# 5 5.3779 -3.8170 -7.8391 0.0027 28.6822 -0.0042
# 6 0.0066 0.0031 0.0056 3.7684 -0.0042 33.3083
#
#
#
# Elastic Compliance Matrix: (Units=1/GPa)
#
#
# Indices 1 2 3 4 5 6 
#
# 1 0.018648 -0.004106 -0.008970 0.000006 -0.006494 -0.000003
# 2 -0.004106 0.010433 -0.002642 -0.000001 0.001436 0.000001
# 3 -0.008970 -0.002642 0.024818 -0.000007 0.008113 0.000000
# 4 0.000006 -0.000001 -0.000007 0.029648 -0.000006 -0.003354
# 5 -0.006494 0.001436 0.008113 -0.000006 0.038491 0.000005
# 6 -0.000003 0.000001 0.000000 -0.003354 0.000005 0.030402
#
#
# Mechanical properties :
#
#
# Convention : Reuss Voigt Hill
#
# Bulk Modulus (GPa) = 44.51292 49.58677 47.04985
# Shear Modulus (GPa) = 26.12832 29.73374 27.93103
#
# Velocity S-wave (km/s) = 3.61032 3.85137 3.73279
# Velocity P-wave (km/s) = 6.29166 6.67191 6.48457
#
# Compressibility (1/GPa) = 0.02246539
#
# Stress axis : x y z
#
# Youngs Moduli (GPa) = 53.62491 95.84842 40.29283
#
# Poissons Ratio (x) = 0.39351 0.36141
# Poissons Ratio (y) = 0.22016 0.10645
# Poissons Ratio (z) = 0.48099 0.25323
#
# Static dielectric constant tensor:
#      x y z
#    x 3.323660 0.000050 0.075460 
#    y 0.000050 4.082650 0.000070 
#    z 0.075460 0.000070 3.515540 
# 
# 
# High freq. dielectric constant tensor:
#      x y z
#    x 1.767800 0.000000 0.002120 
#    y 0.000000 1.792910 0.000000 
#    z 0.002120 0.000000 1.755360 
# 
# From -- ./inp_files/50331.got.cif
#   From: 2010.06.25/outbox.cif.g09.slc.cpg/sg15_26_cif.got.tgz:50331.got - 2010.06.28 07:06:18.
