data_PCOD8139778
_publ_section_title
;
Structure prediction by ZEFSAII (Michael W. Deem and Ramdas Pophale) SiO2 
 PCOD8139778
Probable space group: C 2/C
;
_chemical_formula_sum "Si O2"
_cell_formula_units_Z 36
_cell_length_a 21.952143
_cell_length_b 13.576639
_cell_length_c 10.702678
_cell_angle_alpha 90.000000
_cell_angle_beta 33.513552
_cell_angle_gamma 90.000000
_cell_volume 1761.190389
_symmetry_space_group_name_H-M "C 2/C"
_symmetry_group_IT_number 15
_symmetry_cell_setting 'monoclinic'
loop_
_space_group_symop_operation_xyz
x,y,z
-x,y,1/2-z
-x,-y,-z
x,-y,1/2+z
1/2+x,1/2+y,z
1/2-x,1/2+y,1/2-z
1/2-x,1/2-y,-z
1/2+x,1/2-y,1/2+z
loop_
_atom_site_type_symbol
_atom_site_label
_atom_site_fract_x
_atom_site_fract_y
_atom_site_fract_z
Si Si1 0.750548 0.881923 0.570662
Si Si2 0.574016 0.273353 0.366460
Si Si3 0.500000 0.342514 0.750000
Si Si4 0.721173 0.396983 0.474220
Si Si5 0.833787 0.210728 0.184043
O O1 0.636254 0.828733 0.728937
O O2 0.842925 0.863969 0.305605
O O3 0.799357 0.836100 0.613156
O O4 0.721617 0.996831 0.629581
O O5 0.542657 0.272139 0.566298
O O6 0.465748 0.283612 0.466882
O O7 0.596837 0.411798 0.636003
O O8 0.787124 0.321628 0.273378
O O9 0.720198 0.356902 0.616698
#
# Coordination Sequence:
#
# PCOD8139778 Si02
#       5
#     8   8   4   8   8
#     4  11  23  39  64  94 119 159 205 257 289 363
#     4  10  23  39  62  89 125 156 204 247 304 350
#     4  10  20  40  58  86 124 158 190 258 292 366
#     4  10  23  37  64  89 123 159 207 238 315 354
#     4  10  22  42  59  90 128 161 193 256 301 364
#
# _framework density 20.440721
#
# number of rings (size 3 to 8) (size 9 to 14) (size 15 to 20)
#    0.000    1.778    2.222    0.667    6.222    2.667 
#    0.000    0.000    4.889    0.000    0.000    0.000 
#    0.000    0.000    0.000    0.000    0.000    0.000 
#
# Total GULP energy -223241.340497 kJ/mol
# GULP energy per Si atom -12402.296694 kJ/mol
# Density = 2.039420 g / cm^3
# Si number density = 20.440721 Si / 1000 Ang^3
#
#
#
# Elastic Constant Matrix: (Units=GPa)
#
#
# Indices 1 2 3 4 5 6 
#
# 1 61.1824 20.0032 18.2656 0.0000 5.1242 0.0000
# 2 20.0032 155.8488 32.6575 0.0000 1.3890 0.0000
# 3 18.2656 32.6575 85.9696 0.0000 7.7759 0.0000
# 4 0.0000 0.0000 0.0000 16.4630 0.0000 -0.0683
# 5 5.1242 1.3890 7.7759 0.0000 27.6771 0.0000
# 6 0.0000 0.0000 0.0000 -0.0683 0.0000 21.7445
#
#
#
# Elastic Compliance Matrix: (Units=1/GPa)
#
#
# Indices 1 2 3 4 5 6 
#
# 1 0.017977 -0.001664 -0.002969 0.000000 -0.002411 0.000000
# 2 -0.001664 0.007130 -0.002412 0.000000 0.000628 0.000000
# 3 -0.002969 -0.002412 0.013460 0.000000 -0.003111 0.000000
# 4 0.000000 0.000000 0.000000 0.060743 0.000000 0.000191
# 5 -0.002411 0.000628 -0.003111 0.000000 0.037420 0.000000
# 6 0.000000 0.000000 0.000000 0.000191 0.000000 0.045989
#
#
# Mechanical properties :
#
#
# Convention : Reuss Voigt Hill
#
# Bulk Modulus (GPa) = 40.85389 49.42816 45.14102
# Shear Modulus (GPa) = 24.39407 28.64856 26.52132
#
# Velocity S-wave (km/s) = 3.45832 3.74778 3.60596
# Velocity P-wave (km/s) = 5.99804 6.55450 6.28244
#
# Compressibility (1/GPa) = 0.02447748
#
# Stress axis : x y z
#
# Youngs Moduli (GPa) = 55.62702 140.25687 74.29161
#
# Poissons Ratio (x) = 0.23333 0.22061
# Poissons Ratio (y) = 0.09254 0.17917
# Poissons Ratio (z) = 0.16518 0.33826
#
# Static dielectric constant tensor:
#      x y z
#    x 3.773750 0.000000 -0.041560 
#    y 0.000000 3.466100 0.000000 
#    z -0.041560 0.000000 3.920950 
# 
# 
# High freq. dielectric constant tensor:
#      x y z
#    x 1.806990 0.000000 0.002940 
#    y 0.000000 1.778180 0.000000 
#    z 0.002940 0.000000 1.806560 
# 
# From -- ./inp_files/84340.got.cif
#   From: 2010.06.25/outbox.cif.g09.slc.cpg/sg15_43_cif.got.tgz:84340.got - 2010.06.28 07:06:18.
