data_PCOD8139094
_publ_section_title
;
Structure prediction by ZEFSAII (Michael W. Deem and Ramdas Pophale) SiO2 
 PCOD8139094
Probable space group: C 2/C
;
_chemical_formula_sum "Si O2"
_cell_formula_units_Z 56
_cell_length_a 9.111595
_cell_length_b 27.839303
_cell_length_c 21.361364
_cell_angle_alpha 90.000000
_cell_angle_beta 150.286889
_cell_angle_gamma 90.000000
_cell_volume 2685.736255
_symmetry_space_group_name_H-M "C 2/C"
_symmetry_group_IT_number 15
_symmetry_cell_setting 'monoclinic'
loop_
_space_group_symop_operation_xyz
x,y,z
-x,y,1/2-z
-x,-y,-z
x,-y,1/2+z
1/2+x,1/2+y,z
1/2-x,1/2+y,1/2-z
1/2-x,1/2-y,-z
1/2+x,1/2-y,1/2+z
loop_
_atom_site_type_symbol
_atom_site_label
_atom_site_fract_x
_atom_site_fract_y
_atom_site_fract_z
Si Si1 0.621617 0.977343 0.482969
Si Si2 0.844052 0.682810 0.010144
Si Si3 0.663997 0.143155 0.244697
Si Si4 0.730034 0.693548 0.503199
Si Si5 0.334965 0.276744 0.389766
Si Si6 0.188642 0.958863 0.755657
Si Si7 0.836905 0.623607 0.890590
O O1 0.535178 0.921761 0.446580
O O2 0.979940 0.980301 0.622224
O O3 0.500000 0.000000 0.500000
O O4 0.476158 0.006481 0.371082
O O5 0.977578 0.676051 0.128612
O O6 0.014957 0.725597 0.037663
O O7 0.501963 0.698501 0.893097
O O8 0.861549 0.635332 0.973878
O O9 0.500000 0.138602 0.250000
O O10 0.692880 0.091983 0.222606
O O11 0.982442 0.168171 0.369033
O O12 0.750000 0.750000 0.500000
O O13 0.647837 0.686622 0.545503
O O14 0.045626 0.668683 0.605958
O O15 0.000000 0.265331 0.250000
O O16 0.000000 0.953922 0.750000
O O17 0.500000 0.611919 0.750000
#
# Coordination Sequence:
#
# PCOD8139094 Si02
#       7
#     8   8   8   8   8   8   8
#     4  10  20  38  65 100 130 161 218 280 340 390
#     4  11  24  40  63  93 126 178 225 262 331 389
#     4  12  25  43  66  95 134 176 228 271 324 407
#     4  12  24  41  64  95 137 175 219 271 327 392
#     4  11  23  42  59  88 132 177 218 273 323 388
#     4  10  21  40  70  97 130 169 219 282 343 400
#     4  12  24  40  67 102 132 169 222 278 335 401
#
# _framework density 20.850894
#
# number of rings (size 3 to 8) (size 9 to 14) (size 15 to 20)
#    0.000    0.857    4.286    4.714    0.000    1.714 
#    0.000    0.714    0.000    0.000    0.000    0.000 
#    0.000    0.000    0.000    0.000    0.000    0.000 
#
# Total GULP energy -347174.083276 kJ/mol
# GULP energy per Si atom -12399.074403 kJ/mol
# Density = 2.080344 g / cm^3
# Si number density = 20.850894 Si / 1000 Ang^3
#
#
#
# Elastic Constant Matrix: (Units=GPa)
#
#
# Indices 1 2 3 4 5 6 
#
# 1 69.2585 23.1386 32.8073 0.0021 -4.3395 0.0032
# 2 23.1386 112.4701 34.7809 -0.0014 -5.7203 0.0020
# 3 32.8073 34.7809 129.4239 0.0099 2.0748 0.0060
# 4 0.0021 -0.0014 0.0099 37.8940 0.0038 -5.8973
# 5 -4.3395 -5.7203 2.0748 0.0038 29.5613 0.0029
# 6 0.0032 0.0020 0.0060 -5.8973 0.0029 26.6661
#
#
#
# Elastic Compliance Matrix: (Units=1/GPa)
#
#
# Indices 1 2 3 4 5 6 
#
# 1 0.017122 -0.002235 -0.003777 -0.000001 0.002346 -0.000001
# 2 -0.002235 0.010116 -0.002181 0.000001 0.001782 0.000000
# 3 -0.003777 -0.002181 0.009296 -0.000002 -0.001629 -0.000002
# 4 -0.000001 0.000001 -0.000002 0.027330 -0.000004 0.006044
# 5 0.002346 0.001782 -0.001629 -0.000004 0.034632 -0.000005
# 6 -0.000001 0.000000 -0.000002 0.006044 -0.000005 0.038838
#
#
# Mechanical properties :
#
#
# Convention : Reuss Voigt Hill
#
# Bulk Modulus (GPa) = 49.63199 54.73402 52.18300
# Shear Modulus (GPa) = 31.16540 33.51932 32.34236
#
# Velocity S-wave (km/s) = 3.87030 4.01380 3.94271
# Velocity P-wave (km/s) = 6.62022 6.91289 6.76814
#
# Compressibility (1/GPa) = 0.02014829
#
# Stress axis : x y z
#
# Youngs Moduli (GPa) = 58.40600 98.85265 107.57208
#
# Poissons Ratio (x) = 0.22094 0.40631
# Poissons Ratio (y) = 0.13054 0.23457
# Poissons Ratio (z) = 0.22060 0.21555
#
# Static dielectric constant tensor:
#      x y z
#    x 3.755840 0.000000 -0.085460 
#    y 0.000000 3.689400 0.000000 
#    z -0.085460 0.000000 4.286270 
# 
# 
# High freq. dielectric constant tensor:
#      x y z
#    x 1.798270 0.000000 0.002940 
#    y 0.000000 1.815150 0.000000 
#    z 0.002940 0.000000 1.831200 
# 
# From -- ./inp_files/234971.got.cif
#   From: 2010.06.25/outbox.cif.g09.slc.cpg/sg15_118_cif.got.tgz:234971.got - 2010.06.28 07:06:18.
