data_PCOD8139941
_publ_section_title
;
Structure prediction by ZEFSAII (Michael W. Deem and Ramdas Pophale) SiO2 
 PCOD8139941
Probable space group: C 2/C
;
_chemical_formula_sum "Si O2"
_cell_formula_units_Z 60
_cell_length_a 12.553469
_cell_length_b 8.903895
_cell_length_c 27.533839
_cell_angle_alpha 90.000000
_cell_angle_beta 67.622869
_cell_angle_gamma 90.000000
_cell_volume 2845.840132
_symmetry_space_group_name_H-M "C 2/C"
_symmetry_group_IT_number 15
_symmetry_cell_setting 'monoclinic'
loop_
_space_group_symop_operation_xyz
x,y,z
-x,y,1/2-z
-x,-y,-z
x,-y,1/2+z
1/2+x,1/2+y,z
1/2-x,1/2+y,1/2-z
1/2-x,1/2-y,-z
1/2+x,1/2-y,1/2+z
loop_
_atom_site_type_symbol
_atom_site_label
_atom_site_fract_x
_atom_site_fract_y
_atom_site_fract_z
Si Si1 0.769481 0.892884 0.295543
Si Si2 0.976039 0.288681 0.902502
Si Si3 0.822402 0.302528 0.555845
Si Si4 0.480399 0.763764 0.159559
Si Si5 0.635786 0.912493 0.055772
Si Si6 0.500000 0.057113 0.750000
Si Si7 0.863329 0.656328 0.213952
Si Si8 0.622311 0.516439 0.628335
O O1 0.655524 0.791029 0.320932
O O2 0.835052 0.822860 0.237634
O O3 0.848439 0.883268 0.329464
O O4 0.744678 0.070586 0.292122
O O5 0.076352 0.270153 0.924326
O O6 0.030877 0.337047 0.841598
O O7 0.879520 0.409255 0.934925
O O8 0.910822 0.130279 0.909056
O O9 0.759076 0.144596 0.554684
O O10 0.878075 0.372576 0.498187
O O11 0.732074 0.419322 0.593894
O O12 0.532685 0.830357 0.101382
O O13 0.535222 0.841631 0.197794
O O14 0.511193 0.587972 0.158016
O O15 0.606534 0.950443 0.745594
#
# Coordination Sequence:
#
# PCOD8139941 Si02
#       8
#     8   8   8   8   8   4   8   8
#     4  11  24  41  60  94 133 166 219 262 313 386
#     4  12  23  43  65  96 129 168 212 264 322 381
#     4  10  23  44  70  95 128 169 214 267 327 379
#     4  10  23  41  64  91 126 174 210 263 325 375
#     4  10  21  44  69  94 130 168 212 270 323 383
#     4  10  20  40  64  84 126 172 212 256 318 382
#     4  11  24  39  61  95 126 173 214 259 321 374
#     4  11  25  41  65  96 129 167 217 266 316 384
#
# _framework density 21.083404000000002
#
# number of rings (size 3 to 8) (size 9 to 14) (size 15 to 20)
#    0.000    1.333    4.000    1.200    5.600    1.600 
#    0.000    6.000    0.000    0.000    0.000    0.000 
#    0.000    0.000    0.000    0.000    0.000    0.000 
#
# Total GULP energy -372029.448802 kJ/mol
# GULP energy per Si atom -12400.981627 kJ/mol
# Density = 2.103542 g / cm^3
# Si number density = 21.083404 Si / 1000 Ang^3
#
#
#
# Elastic Constant Matrix: (Units=GPa)
#
#
# Indices 1 2 3 4 5 6 
#
# 1 90.9775 46.2508 19.8431 0.0000 28.7720 0.0000
# 2 46.2508 80.4490 16.2223 0.0000 16.3499 0.0000
# 3 19.8431 16.2223 87.3686 0.0000 13.4284 0.0000
# 4 0.0000 0.0000 0.0000 30.4045 0.0000 0.0446
# 5 28.7720 16.3499 13.4284 0.0000 25.6562 0.0000
# 6 0.0000 0.0000 0.0000 0.0446 0.0000 28.6921
#
#
#
# Elastic Compliance Matrix: (Units=1/GPa)
#
#
# Indices 1 2 3 4 5 6 
#
# 1 0.021032 -0.008334 -0.000457 0.000000 -0.018036 0.000000
# 2 -0.008334 0.017733 -0.001196 0.000000 -0.001329 0.000000
# 3 -0.000457 -0.001196 0.012588 0.000000 -0.005314 0.000000
# 4 0.000000 0.000000 0.000000 0.032890 0.000000 -0.000051
# 5 -0.018036 -0.001329 -0.005314 0.000000 0.062832 0.000000
# 6 0.000000 0.000000 0.000000 -0.000051 0.000000 0.034853
#
#
# Mechanical properties :
#
#
# Convention : Reuss Voigt Hill
#
# Bulk Modulus (GPa) = 31.86761 47.04751 39.45756
# Shear Modulus (GPa) = 23.54483 28.71581 26.13032
#
# Velocity S-wave (km/s) = 3.34540 3.69455 3.52430
# Velocity P-wave (km/s) = 5.48362 6.36891 5.94277
#
# Compressibility (1/GPa) = 0.03137983
#
# Stress axis : x y z
#
# Youngs Moduli (GPa) = 47.54609 56.39344 79.43855
#
# Poissons Ratio (x) = 0.46997 0.03633
# Poissons Ratio (y) = 0.39624 0.09497
# Poissons Ratio (z) = 0.02174 0.06742
#
# Static dielectric constant tensor:
#      x y z
#    x 3.729640 0.000000 0.128760 
#    y 0.000000 3.894530 0.000000 
#    z 0.128760 0.000000 3.885860 
# 
# 
# High freq. dielectric constant tensor:
#      x y z
#    x 1.821680 0.000000 0.009200 
#    y 0.000000 1.828330 0.000000 
#    z 0.009200 0.000000 1.827550 
# 
# From -- ./inp_files/310273.got.cif
#   From: 2010.06.25/outbox.cif.g09.slc.cpg/sg15_156_cif.got.tgz:310273.got - 2010.06.28 07:06:18.
