data_PCOD8139449
_publ_section_title
;
Structure prediction by ZEFSAII (Michael W. Deem and Ramdas Pophale) SiO2 
 PCOD8139449
Probable space group: C 2/C
;
_chemical_formula_sum "Si O2"
_cell_formula_units_Z 56
_cell_length_a 16.623511
_cell_length_b 11.925570
_cell_length_c 14.377091
_cell_angle_alpha 90.000000
_cell_angle_beta 74.663431
_cell_angle_gamma 90.000000
_cell_volume 2748.685700
_symmetry_space_group_name_H-M "C 2/C"
_symmetry_group_IT_number 15
_symmetry_cell_setting 'monoclinic'
loop_
_space_group_symop_operation_xyz
x,y,z
-x,y,1/2-z
-x,-y,-z
x,-y,1/2+z
1/2+x,1/2+y,z
1/2-x,1/2+y,1/2-z
1/2-x,1/2-y,-z
1/2+x,1/2-y,1/2+z
loop_
_atom_site_type_symbol
_atom_site_label
_atom_site_fract_x
_atom_site_fract_y
_atom_site_fract_z
Si Si1 0.657815 0.570106 0.601615
Si Si2 0.923204 0.743130 0.153180
Si Si3 0.601550 0.188465 0.127948
Si Si4 0.521170 0.512585 0.885477
Si Si5 0.246540 0.761787 0.391521
Si Si6 0.326307 0.416908 0.746257
Si Si7 0.265888 0.015270 0.397830
O O1 0.658854 0.703723 0.584981
O O2 0.564719 0.520219 0.643807
O O3 0.698591 0.528697 0.685843
O O4 0.699349 0.511523 0.500843
O O5 0.912239 0.693443 0.258292
O O6 0.844828 0.714084 0.111468
O O7 0.014775 0.694398 0.094812
O O8 0.924884 0.876917 0.151120
O O9 0.648784 0.072009 0.089360
O O10 0.580063 0.414466 0.826754
O O11 0.500000 0.500000 0.000000
O O12 0.250000 0.750000 0.500000
O O13 0.316508 0.689344 0.317203
O O14 0.271839 0.888850 0.358398
O O15 0.263163 0.407614 0.679100
#
# Coordination Sequence:
#
# PCOD8139449 Si02
#       7
#     8   8   8   8   8   8   8
#     4  11  21  39  65  95 126 162 218 277 340 400
#     4  10  20  39  62  91 125 173 217 269 332 397
#     4  10  21  38  66  93 126 167 225 278 331 397
#     4  11  20  37  64  94 124 161 214 284 337 384
#     4  12  24  42  66  94 135 184 223 275 349 412
#     4  12  23  38  64  94 132 167 220 278 336 405
#     4  12  23  41  64  97 133 174 223 275 342 416
#
# _framework density 20.373372
#
# number of rings (size 3 to 8) (size 9 to 14) (size 15 to 20)
#    0.000    0.857    7.143    0.857    0.000    0.000 
#    0.000    0.714    6.286    0.000    0.000    0.000 
#    0.000    0.000    0.000    0.000    0.000    0.000 
#
# Total GULP energy -347008.759937 kJ/mol
# GULP energy per Si atom -12393.169998 kJ/mol
# Density = 2.032700 g / cm^3
# Si number density = 20.373372 Si / 1000 Ang^3
#
#
#
# Elastic Constant Matrix: (Units=GPa)
#
#
# Indices 1 2 3 4 5 6 
#
# 1 109.5764 46.1097 36.2215 0.0000 2.2413 0.0000
# 2 46.1097 87.7584 34.3264 0.0000 -19.1203 0.0000
# 3 36.2215 34.3264 111.3726 0.0000 -5.2824 0.0000
# 4 0.0000 0.0000 0.0000 30.8941 0.0000 -5.9084
# 5 2.2413 -19.1203 -5.2824 0.0000 30.3131 0.0000
# 6 0.0000 0.0000 0.0000 -5.9084 0.0000 30.8917
#
#
#
# Elastic Compliance Matrix: (Units=1/GPa)
#
#
# Indices 1 2 3 4 5 6 
#
# 1 0.013061 -0.007261 -0.002292 0.000000 -0.005945 0.000000
# 2 -0.007261 0.018962 -0.002914 0.000000 0.011990 0.000000
# 3 -0.002292 -0.002914 0.010631 0.000000 0.000184 0.000000
# 4 0.000000 0.000000 0.000000 0.033598 0.000000 0.006426
# 5 -0.005945 0.011990 0.000184 0.000000 0.041023 0.000000
# 6 0.000000 0.000000 0.000000 0.006426 0.000000 0.033600
#
#
# Mechanical properties :
#
#
# Convention : Reuss Voigt Hill
#
# Bulk Modulus (GPa) = 56.43390 60.22476 58.32933
# Shear Modulus (GPa) = 27.51549 31.22308 29.36929
#
# Velocity S-wave (km/s) = 3.67899 3.91902 3.80090
# Velocity P-wave (km/s) = 6.76805 7.07835 6.92494
#
# Compressibility (1/GPa) = 0.01771984
#
# Stress axis : x y z
#
# Youngs Moduli (GPa) = 76.56551 52.73657 94.06364
#
# Poissons Ratio (x) = 0.38293 0.21556
# Poissons Ratio (y) = 0.55596 0.27412
# Poissons Ratio (z) = 0.17546 0.15368
#
# Static dielectric constant tensor:
#      x y z
#    x 3.931190 0.000000 0.033370 
#    y 0.000000 3.500050 0.000000 
#    z 0.033370 0.000000 3.588470 
# 
# 
# High freq. dielectric constant tensor:
#      x y z
#    x 1.793280 0.000000 0.001810 
#    y 0.000000 1.769670 0.000000 
#    z 0.001810 0.000000 1.802410 
# 
# From -- ./inp_files/160820.got.cif
#   From: 2010.06.25/outbox.cif.g09.slc.cpg/sg15_81_cif.got.tgz:160820.got - 2010.06.28 07:06:18.
