data_PCOD8139629
_publ_section_title
;
Structure prediction by ZEFSAII (Michael W. Deem and Ramdas Pophale) SiO2 
 PCOD8139629
Probable space group: C 2/C
;
_chemical_formula_sum "Si O2"
_cell_formula_units_Z 48
_cell_length_a 13.791703
_cell_length_b 19.896658
_cell_length_c 12.407117
_cell_angle_alpha 90.000000
_cell_angle_beta 43.250755
_cell_angle_gamma 90.000000
_cell_volume 2332.821801
_symmetry_space_group_name_H-M "C 2/C"
_symmetry_group_IT_number 15
_symmetry_cell_setting 'monoclinic'
loop_
_space_group_symop_operation_xyz
x,y,z
-x,y,1/2-z
-x,-y,-z
x,-y,1/2+z
1/2+x,1/2+y,z
1/2-x,1/2+y,1/2-z
1/2-x,1/2-y,-z
1/2+x,1/2-y,1/2+z
loop_
_atom_site_type_symbol
_atom_site_label
_atom_site_fract_x
_atom_site_fract_y
_atom_site_fract_z
Si Si1 0.258870 0.679579 0.659399
Si Si2 0.768096 0.918711 0.771349
Si Si3 0.545958 0.293333 0.833823
Si Si4 0.144348 0.068271 0.761188
Si Si5 0.346328 0.923592 0.413894
Si Si6 0.686425 0.555437 0.490841
O O1 0.409678 0.714170 0.519375
O O2 0.155867 0.737481 0.786031
O O3 0.271522 0.620382 0.734445
O O4 0.196285 0.648780 0.599270
O O5 0.890891 0.867720 0.706343
O O6 0.722961 0.909244 0.680693
O O7 0.826311 0.993660 0.723571
O O8 0.645561 0.914550 0.961794
O O9 0.500000 0.279544 0.750000
O O10 0.208909 0.086305 0.591018
O O11 0.975813 0.071372 0.906653
O O12 0.500000 0.947595 0.250000
O O13 0.227400 0.976643 0.470974
#
# Coordination Sequence:
#
# PCOD8139629 Si02
#       6
#     8   8   8   8   8   8
#     4  12  24  43  63  97 135 175 220 268 334 391
#     4  11  21  38  66  96 122 172 223 270 323 390
#     4  12  25  39  65 100 134 173 219 272 335 394
#     4  10  21  39  70  94 127 170 221 276 323 387
#     4  11  24  38  61  97 139 170 209 276 337 385
#     4  10  20  39  65  95 123 167 220 268 328 385
#
# _framework density 20.575939000000002
#
# number of rings (size 3 to 8) (size 9 to 14) (size 15 to 20)
#    0.000    1.000    5.000    2.500    4.667    0.667 
#    0.000    0.833    0.000    0.000    0.000    0.000 
#    0.000    0.000    0.000    0.000    0.000    0.000 
#
# Total GULP energy -297403.751170 kJ/mol
# GULP energy per Si atom -12391.822965 kJ/mol
# Density = 2.052911 g / cm^3
# Si number density = 20.575939 Si / 1000 Ang^3
#
#
#
# Elastic Constant Matrix: (Units=GPa)
#
#
# Indices 1 2 3 4 5 6 
#
# 1 62.8915 54.4550 48.9894 0.0002 7.7791 -0.0006
# 2 54.4550 114.6746 48.7250 -0.0008 -2.6300 0.0007
# 3 48.9894 48.7250 136.6992 -0.0011 19.3678 0.0001
# 4 0.0002 -0.0008 -0.0011 23.1388 0.0012 -4.4294
# 5 7.7791 -2.6300 19.3678 0.0012 35.2608 -0.0008
# 6 -0.0006 0.0007 0.0001 -4.4294 -0.0008 20.7944
#
#
#
# Elastic Compliance Matrix: (Units=1/GPa)
#
#
# Indices 1 2 3 4 5 6 
#
# 1 0.032636 -0.012859 -0.006459 -0.000001 -0.004611 0.000001
# 2 -0.012859 0.015647 -0.001666 0.000000 0.004919 -0.000001
# 3 -0.006459 -0.001666 0.010887 0.000001 -0.004679 0.000000
# 4 -0.000001 0.000000 0.000001 0.045055 -0.000002 0.009597
# 5 -0.004611 0.004919 -0.004679 -0.000002 0.032314 0.000001
# 6 0.000001 -0.000001 0.000000 0.009597 0.000001 0.050134
#
#
# Mechanical properties :
#
#
# Convention : Reuss Voigt Hill
#
# Bulk Modulus (GPa) = 58.13223 68.73379 63.43301
# Shear Modulus (GPa) = 21.33324 26.64518 23.98921
#
# Velocity S-wave (km/s) = 3.22344 3.60247 3.41821
# Velocity P-wave (km/s) = 6.49368 7.12609 6.81723
#
# Compressibility (1/GPa) = 0.01720216
#
# Stress axis : x y z
#
# Youngs Moduli (GPa) = 30.64072 63.90861 91.85393
#
# Poissons Ratio (x) = 0.82181 0.59330
# Poissons Ratio (y) = 0.39401 0.15302
# Poissons Ratio (z) = 0.19791 0.10647
#
# Static dielectric constant tensor:
#      x y z
#    x 3.694530 0.000000 0.319910 
#    y 0.000000 3.561840 0.000000 
#    z 0.319910 0.000000 4.100360 
# 
# 
# High freq. dielectric constant tensor:
#      x y z
#    x 1.783020 0.000000 0.015730 
#    y 0.000000 1.789920 0.000000 
#    z 0.015730 0.000000 1.818150 
# 
# From -- ./inp_files/99983.got.cif
#   From: 2010.06.25/outbox.cif.g09.slc.cpg/sg15_50_cif.got.tgz:99983.got - 2010.06.28 07:06:18.
