data_PCOD8139361
_publ_section_title
;
Structure prediction by ZEFSAII (Michael W. Deem and Ramdas Pophale) SiO2 
 PCOD8139361
Probable space group: C 2/C
;
_chemical_formula_sum "Si O2"
_cell_formula_units_Z 56
_cell_length_a 15.105727
_cell_length_b 17.246536
_cell_length_c 12.820508
_cell_angle_alpha 90.000000
_cell_angle_beta 56.351673
_cell_angle_gamma 90.000000
_cell_volume 2780.411539
_symmetry_space_group_name_H-M "C 2/C"
_symmetry_group_IT_number 15
_symmetry_cell_setting 'monoclinic'
loop_
_space_group_symop_operation_xyz
x,y,z
-x,y,1/2-z
-x,-y,-z
x,-y,1/2+z
1/2+x,1/2+y,z
1/2-x,1/2+y,1/2-z
1/2-x,1/2-y,-z
1/2+x,1/2-y,1/2+z
loop_
_atom_site_type_symbol
_atom_site_label
_atom_site_fract_x
_atom_site_fract_y
_atom_site_fract_z
Si Si1 0.945360 0.567928 0.975535
Si Si2 0.766200 0.564402 0.242593
Si Si3 0.120942 0.818072 0.144465
Si Si4 0.206200 0.557200 0.604484
Si Si5 0.702658 0.279566 0.873528
Si Si6 0.624136 0.499805 0.658712
Si Si7 0.587297 0.190651 0.775284
O O1 0.887985 0.531676 0.911868
O O2 0.030254 0.632596 0.892119
O O3 0.855065 0.602678 0.110277
O O4 0.000000 0.500000 0.000000
O O5 0.810333 0.493900 0.282298
O O6 0.731422 0.630791 0.344035
O O7 0.670683 0.529583 0.237129
O O8 0.195887 0.777183 0.181940
O O9 0.147412 0.909314 0.126742
O O10 0.000000 0.802219 0.250000
O O11 0.135853 0.775984 0.023548
O O12 0.321906 0.546292 0.474299
O O13 0.183454 0.646980 0.651098
O O14 0.635190 0.258693 0.814358
O O15 0.500000 0.481383 0.750000
O O16 0.500000 0.223992 0.750000
#
# Coordination Sequence:
#
# PCOD8139361 Si02
#       7
#     8   8   8   8   8   8   8
#     4  10  21  35  63  92 119 154 204 256 307 360
#     4  11  22  38  61  94 120 157 208 251 307 366
#     4  10  23  43  63  91 125 162 207 254 307 364
#     4  10  20  39  60  92 119 155 207 255 302 356
#     4  11  24  41  63  91 129 166 199 252 317 377
#     4  10  22  42  63  88 120 162 212 255 295 355
#     4  10  22  41  62  92 128 164 200 254 315 370
#
# _framework density 20.140903000000002
#
# number of rings (size 3 to 8) (size 9 to 14) (size 15 to 20)
#    0.000    1.714    2.857    0.857    4.000    1.143 
#    2.571    6.429    0.000    0.000    0.000    0.000 
#    0.000    0.000    0.000    0.000    0.000    0.000 
#
# Total GULP energy -347162.676893 kJ/mol
# GULP energy per Si atom -12398.667032 kJ/mol
# Density = 2.009506 g / cm^3
# Si number density = 20.140903 Si / 1000 Ang^3
#
#
#
# Elastic Constant Matrix: (Units=GPa)
#
#
# Indices 1 2 3 4 5 6 
#
# 1 94.3521 32.7831 42.7158 0.0000 3.1264 0.0000
# 2 32.7831 49.9092 19.6522 0.0000 -4.1299 0.0000
# 3 42.7158 19.6522 84.9563 0.0000 -1.1282 0.0000
# 4 0.0000 0.0000 0.0000 29.2925 0.0000 10.9993
# 5 3.1264 -4.1299 -1.1282 0.0000 37.6615 0.0000
# 6 0.0000 0.0000 0.0000 10.9993 0.0000 29.4793
#
#
#
# Elastic Compliance Matrix: (Units=1/GPa)
#
#
# Indices 1 2 3 4 5 6 
#
# 1 0.016540 -0.008564 -0.006369 0.000000 -0.002503 0.000000
# 2 -0.008564 0.026673 -0.001817 0.000000 0.003581 0.000000
# 3 -0.006369 -0.001817 0.015404 0.000000 0.000791 0.000000
# 4 0.000000 0.000000 0.000000 0.039701 0.000000 -0.014813
# 5 -0.002503 0.003581 0.000791 0.000000 0.027177 0.000000
# 6 0.000000 0.000000 0.000000 -0.014813 0.000000 0.039449
#
#
# Mechanical properties :
#
#
# Convention : Reuss Voigt Hill
#
# Bulk Modulus (GPa) = 39.81079 46.61333 43.21206
# Shear Modulus (GPa) = 24.17614 28.22443 26.20028
#
# Velocity S-wave (km/s) = 3.46837 3.74752 3.61064
# Velocity P-wave (km/s) = 5.98736 6.47449 6.23569
#
# Compressibility (1/GPa) = 0.02511882
#
# Stress axis : x y z
#
# Youngs Moduli (GPa) = 60.45787 37.49055 64.91976
#
# Poissons Ratio (x) = 0.32107 0.41345
# Poissons Ratio (y) = 0.51777 0.11793
# Poissons Ratio (z) = 0.38504 0.06810
#
# Static dielectric constant tensor:
#      x y z
#    x 3.771610 0.000000 -0.043880 
#    y 0.000000 3.448960 0.000000 
#    z -0.043880 0.000000 4.051670 
# 
# 
# High freq. dielectric constant tensor:
#      x y z
#    x 1.791100 0.000000 0.005300 
#    y 0.000000 1.767570 0.000000 
#    z 0.005300 0.000000 1.800820 
# 
# From -- ./inp_files/98668.got.cif
#   From: 2010.06.25/outbox.cif.g09.slc.cpg/sg15_50_cif.got.tgz:98668.got - 2010.06.28 07:06:18.
