data_PCOD8139790
_publ_section_title
;
Structure prediction by ZEFSAII (Michael W. Deem and Ramdas Pophale) SiO2 
 PCOD8139790
Probable space group: C 2/C
;
_chemical_formula_sum "Si O2"
_cell_formula_units_Z 60
_cell_length_a 15.221706
_cell_length_b 8.437467
_cell_length_c 27.027349
_cell_angle_alpha 90.000000
_cell_angle_beta 118.857866
_cell_angle_gamma 90.000000
_cell_volume 3040.139895
_symmetry_space_group_name_H-M "C 2/C"
_symmetry_group_IT_number 15
_symmetry_cell_setting 'monoclinic'
loop_
_space_group_symop_operation_xyz
x,y,z
-x,y,1/2-z
-x,-y,-z
x,-y,1/2+z
1/2+x,1/2+y,z
1/2-x,1/2+y,1/2-z
1/2-x,1/2-y,-z
1/2+x,1/2-y,1/2+z
loop_
_atom_site_type_symbol
_atom_site_label
_atom_site_fract_x
_atom_site_fract_y
_atom_site_fract_z
Si Si1 0.644911 0.109830 0.555079
Si Si2 0.000000 0.530000 0.250000
Si Si3 0.551337 0.628201 0.647418
Si Si4 0.855354 0.826548 0.857994
Si Si5 0.021306 0.577556 0.429637
Si Si6 0.649194 0.704852 0.778108
Si Si7 0.461650 0.164598 0.645429
Si Si8 0.355719 0.477168 0.632900
O O1 0.661031 0.274323 0.589286
O O2 0.606892 0.146450 0.489278
O O3 0.561343 0.014642 0.561877
O O4 0.747642 0.010514 0.579311
O O5 0.904662 0.641770 0.213146
O O6 0.012944 0.419473 0.206031
O O7 0.630597 0.516132 0.639886
O O8 0.542446 0.787699 0.614379
O O9 0.596778 0.660277 0.713235
O O10 0.440262 0.556204 0.621700
O O11 0.763206 0.759321 0.800645
O O12 0.953664 0.760964 0.859302
O O13 0.077695 0.467009 0.404392
O O14 0.640564 0.551154 0.811014
O O15 0.374315 0.286502 0.639263
#
# Coordination Sequence:
#
# PCOD8139790 Si02
#       8
#     8   4   8   8   8   8   8   8
#     4   9  21  40  60  81 113 154 193 247 282 350
#     4  12  22  34  54  82 118 146 184 232 290 346
#     4  11  21  36  57  83 114 153 188 245 289 348
#     4   9  23  37  56  83 113 151 200 228 296 347
#     4  10  20  40  60  82 116 150 196 239 294 338
#     4  11  21  37  54  82 118 154 186 242 288 354
#     4  10  22  37  56  87 114 153 191 236 287 361
#     4  10  21  38  57  84 117 150 194 235 298 340
#
# _framework density 19.735935000000001
#
# number of rings (size 3 to 8) (size 9 to 14) (size 15 to 20)
#    0.000    1.867    2.667    0.000    5.600    3.733 
#    0.000    0.000    0.000    0.000    0.000    0.000 
#    0.000    0.000    0.000    0.000    0.000    0.000 
#
# Total GULP energy -371923.709904 kJ/mol
# GULP energy per Si atom -12397.456997 kJ/mol
# Density = 1.969101 g / cm^3
# Si number density = 19.735935 Si / 1000 Ang^3
#
#
#
# Elastic Constant Matrix: (Units=GPa)
#
#
# Indices 1 2 3 4 5 6 
#
# 1 60.6959 27.4970 34.0851 0.0000 9.8921 0.0000
# 2 27.4970 110.5511 38.1112 0.0000 -7.0527 0.0000
# 3 34.0851 38.1112 104.8871 0.0000 2.2660 0.0000
# 4 0.0000 0.0000 0.0000 15.9810 0.0000 -1.8360
# 5 9.8921 -7.0527 2.2660 0.0000 25.2278 0.0000
# 6 0.0000 0.0000 0.0000 -1.8360 0.0000 30.3398
#
#
#
# Elastic Compliance Matrix: (Units=1/GPa)
#
#
# Indices 1 2 3 4 5 6 
#
# 1 0.023331 -0.004450 -0.005751 0.000000 -0.009876 0.000000
# 2 -0.004450 0.011460 -0.002830 0.000000 0.005203 0.000000
# 3 -0.005751 -0.002830 0.012424 0.000000 0.000348 0.000000
# 4 0.000000 0.000000 0.000000 0.063012 0.000000 0.003813
# 5 -0.009876 0.005203 0.000348 0.000000 0.044935 0.000000
# 6 0.000000 0.000000 0.000000 0.003813 0.000000 0.033191
#
#
# Mechanical properties :
#
#
# Convention : Reuss Voigt Hill
#
# Bulk Modulus (GPa) = 47.27901 52.83564 50.05733
# Shear Modulus (GPa) = 22.57669 26.07245 24.32457
#
# Velocity S-wave (km/s) = 3.38588 3.63859 3.51451
# Velocity P-wave (km/s) = 6.26845 6.66947 6.47207
#
# Compressibility (1/GPa) = 0.02115103
#
# Stress axis : x y z
#
# Youngs Moduli (GPa) = 42.86122 87.25892 80.48940
#
# Poissons Ratio (x) = 0.38833 0.46293
# Poissons Ratio (y) = 0.19075 0.22781
# Poissons Ratio (z) = 0.24652 0.24697
#
# Static dielectric constant tensor:
#      x y z
#    x 3.625380 0.000000 0.011950 
#    y 0.000000 3.895140 0.000000 
#    z 0.011950 0.000000 3.691510 
# 
# 
# High freq. dielectric constant tensor:
#      x y z
#    x 1.764580 0.000000 0.002420 
#    y 0.000000 1.772340 0.000000 
#    z 0.002420 0.000000 1.765320 
# 
# From -- ./inp_files/273202.got.cif
#   From: 2010.06.25/outbox.cif.g09.slc.cpg/sg15_137_cif.got.tgz:273202.got - 2010.06.28 07:06:18.
