data_PCOD8139258
_publ_section_title
;
Structure prediction by ZEFSAII (Michael W. Deem and Ramdas Pophale) SiO2 
 PCOD8139258
Probable space group: C 2/C
;
_chemical_formula_sum "Si O2"
_cell_formula_units_Z 56
_cell_length_a 12.553536
_cell_length_b 14.563193
_cell_length_c 16.968611
_cell_angle_alpha 90.000000
_cell_angle_beta 122.691202
_cell_angle_gamma 90.000000
_cell_volume 2610.787120
_symmetry_space_group_name_H-M "C 2/C"
_symmetry_group_IT_number 15
_symmetry_cell_setting 'monoclinic'
loop_
_space_group_symop_operation_xyz
x,y,z
-x,y,1/2-z
-x,-y,-z
x,-y,1/2+z
1/2+x,1/2+y,z
1/2-x,1/2+y,1/2-z
1/2-x,1/2-y,-z
1/2+x,1/2-y,1/2+z
loop_
_atom_site_type_symbol
_atom_site_label
_atom_site_fract_x
_atom_site_fract_y
_atom_site_fract_z
Si Si1 0.259822 0.855833 0.987098
Si Si2 0.723080 0.531478 0.755182
Si Si3 0.903737 0.345340 0.640421
Si Si4 0.965630 0.006819 0.078825
Si Si5 0.640898 0.961394 0.335974
Si Si6 0.873837 0.853359 0.149516
Si Si7 0.573164 0.923926 0.580290
O O1 0.325398 0.866634 0.929091
O O2 0.123544 0.905828 0.939212
O O3 0.250000 0.750000 0.000000
O O4 0.358155 0.897724 0.088049
O O5 0.588718 0.481624 0.684827
O O6 0.760986 0.581544 0.688304
O O7 0.726363 0.598715 0.831872
O O8 0.840733 0.463424 0.814604
O O9 0.815341 0.434653 0.621283
O O10 0.826528 0.248671 0.605355
O O11 0.000000 0.335287 0.750000
O O12 0.972405 0.357955 0.582973
O O13 0.893183 0.914229 0.078442
O O14 0.000000 0.000000 0.000000
O O15 0.500000 0.963472 0.250000
O O16 0.000000 0.845475 0.250000
O O17 0.500000 0.000000 0.500000
#
# Coordination Sequence:
#
# PCOD8139258 Si02
#       7
#     8   8   8   8   8   8   8
#     4  12  27  44  66  98 136 177 229 279 336 412
#     4  11  21  42  70  94 135 176 219 275 339 401
#     4  10  20  38  69  98 129 168 223 269 335 395
#     4  11  23  42  67  91 136 180 217 275 343 390
#     4  11  21  44  67  96 136 180 215 282 343 402
#     4   9  21  38  64 101 130 167 223 270 327 401
#     4  12  23  42  70  95 133 179 219 277 337 394
#
# _framework density 21.449470000000002
#
# number of rings (size 3 to 8) (size 9 to 14) (size 15 to 20)
#    0.000    1.143    7.143    0.000    2.000    1.143 
#    2.571    4.286    0.000    0.000    0.000    0.000 
#    0.000    0.000    0.000    0.000    0.000    0.000 
#
# Total GULP energy -346974.204536 kJ/mol
# GULP energy per Si atom -12391.935876 kJ/mol
# Density = 2.140065 g / cm^3
# Si number density = 21.449470 Si / 1000 Ang^3
#
#
#
# Elastic Constant Matrix: (Units=GPa)
#
#
# Indices 1 2 3 4 5 6 
#
# 1 133.4840 43.5145 26.7227 0.0000 -36.5225 0.0000
# 2 43.5145 149.5942 36.4281 0.0000 -9.3728 0.0000
# 3 26.7227 36.4281 88.3630 0.0000 -5.5705 0.0000
# 4 0.0000 0.0000 0.0000 21.2469 0.0000 -3.3914
# 5 -36.5225 -9.3728 -5.5705 0.0000 45.0932 0.0000
# 6 0.0000 0.0000 0.0000 -3.3914 0.0000 24.1307
#
#
#
# Elastic Compliance Matrix: (Units=1/GPa)
#
#
# Indices 1 2 3 4 5 6 
#
# 1 0.010774 -0.002179 -0.001853 0.000000 0.008044 0.000000
# 2 -0.002179 0.007934 -0.002640 0.000000 -0.000442 0.000000
# 3 -0.001853 -0.002640 0.012937 0.000000 -0.000451 0.000000
# 4 0.000000 0.000000 0.000000 0.048146 0.000000 0.006767
# 5 0.008044 -0.000442 -0.000451 0.000000 0.028544 0.000000
# 6 0.000000 0.000000 0.000000 0.006767 0.000000 0.042392
#
#
# Mechanical properties :
#
#
# Convention : Reuss Voigt Hill
#
# Bulk Modulus (GPa) = 54.63899 64.97463 59.80681
# Shear Modulus (GPa) = 29.38251 35.74588 32.56419
#
# Velocity S-wave (km/s) = 3.70516 4.08673 3.90061
# Velocity P-wave (km/s) = 6.62065 7.25439 6.94475
#
# Compressibility (1/GPa) = 0.01830195
#
# Stress axis : x y z
#
# Youngs Moduli (GPa) = 92.81885 126.04608 77.29734
#
# Poissons Ratio (x) = 0.27461 0.14322
# Poissons Ratio (y) = 0.20222 0.20404
# Poissons Ratio (z) = 0.17198 0.33272
#
# Static dielectric constant tensor:
#      x y z
#    x 4.303360 0.000000 -0.161950 
#    y 0.000000 4.288040 0.000000 
#    z -0.161950 0.000000 4.117060 
# 
# 
# High freq. dielectric constant tensor:
#      x y z
#    x 1.851550 0.000000 -0.016850 
#    y 0.000000 1.817050 0.000000 
#    z -0.016850 0.000000 1.855120 
# 
# From -- ./inp_files/198437.got.cif
#   From: 2010.06.25/outbox.cif.g09.slc.cpg/sg15_100_cif.got.tgz:198437.got - 2010.06.28 07:06:18.
