data_PCOD8139753
_publ_section_title
;
Structure prediction by ZEFSAII (Michael W. Deem and Ramdas Pophale) SiO2 
 PCOD8139753
Probable space group: C 2/C
;
_chemical_formula_sum "Si O2"
_cell_formula_units_Z 28
_cell_length_a 5.316195
_cell_length_b 32.538635
_cell_length_c 8.812524
_cell_angle_alpha 90.000000
_cell_angle_beta 95.439719
_cell_angle_gamma 90.000000
_cell_volume 1517.540455
_symmetry_space_group_name_H-M "C 2/C"
_symmetry_group_IT_number 15
_symmetry_cell_setting 'monoclinic'
loop_
_space_group_symop_operation_xyz
x,y,z
-x,y,1/2-z
-x,-y,-z
x,-y,1/2+z
1/2+x,1/2+y,z
1/2-x,1/2+y,1/2-z
1/2-x,1/2-y,-z
1/2+x,1/2-y,1/2+z
loop_
_atom_site_type_symbol
_atom_site_label
_atom_site_fract_x
_atom_site_fract_y
_atom_site_fract_z
Si Si1 0.815104 0.464919 0.040203
Si Si2 0.500000 0.895907 0.250000
Si Si3 0.000000 0.986398 0.750000
Si Si4 0.009807 0.236031 0.583760
Si Si5 0.000000 0.157070 0.750000
O O1 0.949978 0.422585 0.094487
O O2 0.691868 0.481805 0.185991
O O3 0.622621 0.457450 0.887831
O O4 0.000000 0.500000 0.000000
O O5 0.253126 0.869590 0.274341
O O6 0.250000 0.250000 0.500000
O O7 0.000000 0.256779 0.750000
O O8 0.750000 0.250000 0.500000
O O9 0.018406 0.186269 0.601663
#
# Coordination Sequence:
#
# PCOD8139753 Si02
#       5
#     8   4   4   8   4
#     4  11  21  36  61  86 114 174 219 264 304 371
#     4  12  22  40  62  90 132 166 203 281 316 362
#     4  10  21  36  56  88 113 150 248 253 300 368
#     4  10  20  39  70  97 124 163 207 250 297 402
#     4  10  25  38  66 100 125 158 211 250 344 374
#
# _framework density 18.450907000000001
#
# number of rings (size 3 to 8) (size 9 to 14) (size 15 to 20)
#    0.857    0.571    2.857    3.429    4.000    0.000 
#    0.000    0.000   12.571    0.000    0.000    0.000 
#    0.000    0.000    0.000    0.000    0.000    0.000 
#
# Total GULP energy -173457.686730 kJ/mol
# GULP energy per Si atom -12389.834766 kJ/mol
# Density = 1.840891 g / cm^3
# Si number density = 18.450907 Si / 1000 Ang^3
#
#
#
# Elastic Constant Matrix: (Units=GPa)
#
#
# Indices 1 2 3 4 5 6 
#
# 1 177.9189 79.0460 65.2445 0.0000 -9.2380 0.0000
# 2 79.0460 129.5856 56.6987 0.0000 6.7906 0.0000
# 3 65.2445 56.6987 127.5333 0.0000 1.1565 0.0000
# 4 0.0000 0.0000 0.0000 28.1196 0.0000 3.3671
# 5 -9.2380 6.7906 1.1565 0.0000 44.8610 0.0000
# 6 0.0000 0.0000 0.0000 3.3671 0.0000 44.5645
#
#
#
# Elastic Compliance Matrix: (Units=1/GPa)
#
#
# Indices 1 2 3 4 5 6 
#
# 1 0.008558 -0.004251 -0.002511 0.000000 0.002471 0.000000
# 2 -0.004251 0.011774 -0.003036 0.000000 -0.002579 0.000000
# 3 -0.002511 -0.003036 0.010478 0.000000 -0.000328 0.000000
# 4 0.000000 0.000000 0.000000 0.035887 0.000000 -0.002711
# 5 0.002471 -0.002579 -0.000328 0.000000 0.023199 0.000000
# 6 0.000000 0.000000 0.000000 -0.002711 0.000000 0.022644
#
#
# Mechanical properties :
#
#
# Convention : Reuss Voigt Hill
#
# Bulk Modulus (GPa) = 89.17309 93.00181 91.08745
# Shear Modulus (GPa) = 36.79863 39.11226 37.95544
#
# Velocity S-wave (km/s) = 4.47072 4.60912 4.54045
# Velocity P-wave (km/s) = 8.66514 8.87918 8.77281
#
# Compressibility (1/GPa) = 0.01121415
#
# Stress axis : x y z
#
# Youngs Moduli (GPa) = 116.84506 84.93438 95.43612
#
# Poissons Ratio (x) = 0.36110 0.23961
# Poissons Ratio (y) = 0.49676 0.28974
# Poissons Ratio (z) = 0.29336 0.25786
#
# Static dielectric constant tensor:
#      x y z
#    x 3.632850 0.000000 0.277270 
#    y 0.000000 3.273710 0.000000 
#    z 0.277270 0.000000 4.014320 
# 
# 
# High freq. dielectric constant tensor:
#      x y z
#    x 1.740680 0.000000 0.006730 
#    y 0.000000 1.690830 0.000000 
#    z 0.006730 0.000000 1.720640 
# 
# From -- ./inp_files/19796.got.cif
#   From: 2010.06.25/outbox.cif.g09.slc.cpg/sg15_10_cif.got.tgz:19796.got - 2010.06.28 07:06:18.
