data_PCOD8139493
_publ_section_title
;
Structure prediction by ZEFSAII (Michael W. Deem and Ramdas Pophale) SiO2 
 PCOD8139493
Probable space group: C 2/C
;
_chemical_formula_sum "Si O2"
_cell_formula_units_Z 64
_cell_length_a 12.868677
_cell_length_b 14.151674
_cell_length_c 20.045937
_cell_angle_alpha 90.000000
_cell_angle_beta 113.319087
_cell_angle_gamma 90.000000
_cell_volume 3352.428686
_symmetry_space_group_name_H-M "C 2/C"
_symmetry_group_IT_number 15
_symmetry_cell_setting 'monoclinic'
loop_
_space_group_symop_operation_xyz
x,y,z
-x,y,1/2-z
-x,-y,-z
x,-y,1/2+z
1/2+x,1/2+y,z
1/2-x,1/2+y,1/2-z
1/2-x,1/2-y,-z
1/2+x,1/2-y,1/2+z
loop_
_atom_site_type_symbol
_atom_site_label
_atom_site_fract_x
_atom_site_fract_y
_atom_site_fract_z
Si Si1 0.576254 0.016447 0.454398
Si Si2 0.496282 0.375726 0.444631
Si Si3 0.310979 0.490738 0.461102
Si Si4 0.782521 0.706447 0.817775
Si Si5 0.731712 0.571709 0.190230
Si Si6 0.427900 0.952132 0.294170
Si Si7 0.146502 0.288091 0.015014
Si Si8 0.417902 0.588773 0.785905
O O1 0.601031 0.126492 0.459513
O O2 0.500000 0.000000 0.500000
O O3 0.701827 0.965546 0.480571
O O4 0.504569 0.985888 0.373579
O O5 0.374028 0.398599 0.447066
O O6 0.590895 0.457522 0.472506
O O7 0.543092 0.284775 0.494878
O O8 0.479615 0.356377 0.361963
O O9 0.265238 0.555991 0.388760
O O10 0.790985 0.817520 0.802405
O O11 0.867267 0.646256 0.794364
O O12 0.811762 0.682642 0.901535
O O13 0.659704 0.666620 0.769429
O O14 0.847839 0.539931 0.254424
O O15 0.635409 0.507039 0.198378
O O16 0.500000 0.922313 0.250000
O O17 0.250000 0.250000 0.000000
O O18 0.500000 0.550670 0.750000
#
# Coordination Sequence:
#
# PCOD8139493 Si02
#       8
#     8   8   8   8   8   8   8   8
#     4  12  24  40  63  94 126 163 209 267 315 370
#     4  10  21  38  63  89 119 166 206 253 312 372
#     4  10  20  39  63  88 121 162 210 252 313 374
#     4  11  23  41  60  91 123 161 206 252 310 370
#     4  10  21  40  62  87 120 165 206 248 304 377
#     4  11  24  42  64  87 128 168 205 252 317 377
#     4  12  22  38  63  93 124 159 210 259 312 367
#     4  10  23  37  59  90 122 153 204 260 303 358
#
# _framework density 19.090637999999998
#
# number of rings (size 3 to 8) (size 9 to 14) (size 15 to 20)
#    0.000    1.250    5.000    0.750    1.750    1.000 
#    0.000    0.625    2.750    0.000    0.000    0.000 
#    0.000    0.000    0.000    0.000    0.000    0.000 
#
# Total GULP energy -396626.358159 kJ/mol
# GULP energy per Si atom -12394.573692 kJ/mol
# Density = 1.904719 g / cm^3
# Si number density = 19.090638 Si / 1000 Ang^3
#
#
#
# Elastic Constant Matrix: (Units=GPa)
#
#
# Indices 1 2 3 4 5 6 
#
# 1 144.2724 37.3287 57.0634 0.0000 -8.8807 0.0000
# 2 37.3287 103.8648 24.9350 0.0000 1.7774 0.0000
# 3 57.0634 24.9350 103.3255 0.0000 -1.0256 0.0000
# 4 0.0000 0.0000 0.0000 70.0088 0.0000 -42.9997
# 5 -8.8807 1.7774 -1.0256 0.0000 34.3365 0.0000
# 6 0.0000 0.0000 0.0000 -42.9997 0.0000 80.8184
#
#
#
# Elastic Compliance Matrix: (Units=1/GPa)
#
#
# Indices 1 2 3 4 5 6 
#
# 1 0.009540 -0.002347 -0.004678 0.000000 0.002449 0.000000
# 2 -0.002347 0.010810 -0.001324 0.000000 -0.001206 0.000000
# 3 -0.004678 -0.001324 0.012573 0.000000 -0.000766 0.000000
# 4 0.000000 0.000000 0.000000 0.021218 0.000000 0.011289
# 5 0.002449 -0.001206 -0.000766 0.000000 0.029797 0.000000
# 6 0.000000 0.000000 0.000000 0.011289 0.000000 0.018380
#
#
# Mechanical properties :
#
#
# Convention : Reuss Voigt Hill
#
# Bulk Modulus (GPa) = 61.63543 65.56856 63.60199
# Shear Modulus (GPa) = 40.18524 52.50846 46.34685
#
# Velocity S-wave (km/s) = 4.59297 5.25019 4.93254
# Velocity P-wave (km/s) = 7.77708 8.43642 8.11345
#
# Compressibility (1/GPa) = 0.01622443
#
# Stress axis : x y z
#
# Youngs Moduli (GPa) = 104.82662 92.50581 79.53279
#
# Poissons Ratio (x) = 0.21715 0.37202
# Poissons Ratio (y) = 0.24607 0.10533
# Poissons Ratio (z) = 0.49034 0.12251
#
# Static dielectric constant tensor:
#      x y z
#    x 3.789640 0.000000 0.015020 
#    y 0.000000 3.015100 0.000000 
#    z 0.015020 0.000000 3.820190 
# 
# 
# High freq. dielectric constant tensor:
#      x y z
#    x 1.750790 0.000000 0.006350 
#    y 0.000000 1.726050 0.000000 
#    z 0.006350 0.000000 1.758100 
# 
# From -- ./inp_files/238761.got.cif
#   From: 2010.06.25/outbox.cif.g09.slc.cpg/sg15_120_cif.got.tgz:238761.got - 2010.06.28 07:06:18.
