data_PCOD8139000
_publ_section_title
;
Structure prediction by ZEFSAII (Michael W. Deem and Ramdas Pophale) SiO2 
 PCOD8139000
Probable space group: C 2/C
;
_chemical_formula_sum "Si O2"
_cell_formula_units_Z 44
_cell_length_a 20.480979
_cell_length_b 8.804587
_cell_length_c 11.521804
_cell_angle_alpha 90.000000
_cell_angle_beta 75.117372
_cell_angle_gamma 90.000000
_cell_volume 2007.989193
_symmetry_space_group_name_H-M "C 2/C"
_symmetry_group_IT_number 15
_symmetry_cell_setting 'monoclinic'
loop_
_space_group_symop_operation_xyz
x,y,z
-x,y,1/2-z
-x,-y,-z
x,-y,1/2+z
1/2+x,1/2+y,z
1/2-x,1/2+y,1/2-z
1/2-x,1/2-y,-z
1/2+x,1/2-y,1/2+z
loop_
_atom_site_type_symbol
_atom_site_label
_atom_site_fract_x
_atom_site_fract_y
_atom_site_fract_z
Si Si1 0.000000 0.000773 0.750000
Si Si2 0.168231 0.822538 0.923379
Si Si3 0.108243 0.122464 0.855886
Si Si4 0.899866 0.606859 0.720573
Si Si5 0.822158 0.315092 0.834702
Si Si6 0.537417 0.770430 0.088125
O O1 0.937565 0.101993 0.738062
O O2 0.987158 0.898329 0.869239
O O3 0.154359 0.699897 0.829630
O O4 0.246205 0.874583 0.884417
O O5 0.122819 0.972334 0.924619
O O6 0.150195 0.747025 0.054781
O O7 0.177095 0.184362 0.765191
O O8 0.073112 0.256256 0.947715
O O9 0.872744 0.440120 0.759045
O O10 0.906597 0.683835 0.843293
O O11 0.973123 0.613123 0.620548
#
# Coordination Sequence:
#
# PCOD8139000 Si02
#       6
#     4   8   8   8   8   8
#     4  10  20  38  64 100 128 168 214 272 336 384
#     4  11  24  47  67  93 139 172 231 271 319 410
#     4  12  23  41  72  99 130 175 229 271 333 394
#     4  10  23  46  64  95 139 167 219 279 335 391
#     4  11  27  42  67  99 129 184 219 275 335 385
#     4  10  22  41  67  97 130 174 214 281 331 392
#
# _framework density 21.912469000000002
#
# number of rings (size 3 to 8) (size 9 to 14) (size 15 to 20)
#    0.000    1.455    3.636    2.727    5.091    2.182 
#    0.000    1.818    0.000    0.000    0.000    0.000 
#    0.000    0.000    0.000    0.000    0.000    0.000 
#
# Total GULP energy -272661.038163 kJ/mol
# GULP energy per Si atom -12393.683553 kJ/mol
# Density = 2.186260 g / cm^3
# Si number density = 21.912469 Si / 1000 Ang^3
#
#
#
# Elastic Constant Matrix: (Units=GPa)
#
#
# Indices 1 2 3 4 5 6 
#
# 1 103.2819 42.4178 62.4927 0.0000 9.8155 0.0000
# 2 42.4178 94.9030 60.8923 0.0000 -1.1520 0.0000
# 3 62.4927 60.8923 97.3734 0.0000 -11.9258 0.0000
# 4 0.0000 0.0000 0.0000 26.9022 0.0000 -7.0096
# 5 9.8155 -1.1520 -11.9258 0.0000 26.1324 0.0000
# 6 0.0000 0.0000 0.0000 -7.0096 0.0000 21.8686
#
#
#
# Elastic Compliance Matrix: (Units=1/GPa)
#
#
# Indices 1 2 3 4 5 6 
#
# 1 0.019692 0.000402 -0.014609 0.000000 -0.014046 0.000000
# 2 0.000402 0.018120 -0.012191 0.000000 -0.004916 0.000000
# 3 -0.014609 -0.012191 0.029526 0.000000 0.018425 0.000000
# 4 0.000000 0.000000 0.000000 0.040559 0.000000 0.013000
# 5 -0.014046 -0.004916 0.018425 0.000000 0.051734 0.000000
# 6 0.000000 0.000000 0.000000 0.013000 0.000000 0.049895
#
#
# Mechanical properties :
#
#
# Convention : Reuss Voigt Hill
#
# Bulk Modulus (GPa) = 68.77448 69.68486 69.22967
# Shear Modulus (GPa) = 18.71464 23.63099 21.17282
#
# Velocity S-wave (km/s) = 2.92561 3.28750 3.11182
# Velocity P-wave (km/s) = 6.54724 6.80300 6.67634
#
# Compressibility (1/GPa) = 0.01454028
#
# Stress axis : x y z
#
# Youngs Moduli (GPa) = 50.78257 55.18754 33.86818
#
# Poissons Ratio (x) = -0.02218 0.49480
# Poissons Ratio (y) = -0.02041 0.41290
# Poissons Ratio (z) = 0.74191 0.67281
#
# Static dielectric constant tensor:
#      x y z
#    x 3.827990 0.000000 0.056250 
#    y 0.000000 3.781890 0.000000 
#    z 0.056250 0.000000 3.891070 
# 
# 
# High freq. dielectric constant tensor:
#      x y z
#    x 1.856680 0.000000 0.005940 
#    y 0.000000 1.853880 0.000000 
#    z 0.005940 0.000000 1.869510 
# 
# From -- ./inp_files/109980.got.cif
#   From: 2010.06.25/outbox.cif.g09.slc.cpg/sg15_55_cif.got.tgz:109980.got - 2010.06.28 07:06:18.
