data_PCOD8139469
_publ_section_title
;
Structure prediction by ZEFSAII (Michael W. Deem and Ramdas Pophale) SiO2 
 PCOD8139469
Probable space group: C 2/C
;
_chemical_formula_sum "Si O2"
_cell_formula_units_Z 52
_cell_length_a 24.052908
_cell_length_b 13.018406
_cell_length_c 9.598150
_cell_angle_alpha 90.000000
_cell_angle_beta 127.876997
_cell_angle_gamma 90.000000
_cell_volume 2372.312503
_symmetry_space_group_name_H-M "C 2/C"
_symmetry_group_IT_number 15
_symmetry_cell_setting 'monoclinic'
loop_
_space_group_symop_operation_xyz
x,y,z
-x,y,1/2-z
-x,-y,-z
x,-y,1/2+z
1/2+x,1/2+y,z
1/2-x,1/2+y,1/2-z
1/2-x,1/2-y,-z
1/2+x,1/2-y,1/2+z
loop_
_atom_site_type_symbol
_atom_site_label
_atom_site_fract_x
_atom_site_fract_y
_atom_site_fract_z
Si Si1 0.500000 0.273667 0.750000
Si Si2 0.880609 0.872426 0.738610
Si Si3 0.294192 0.281574 0.373877
Si Si4 0.347622 0.270042 0.956130
Si Si5 0.605180 0.112539 0.027912
Si Si6 0.136382 0.566254 0.379565
Si Si7 0.196950 0.082773 0.867373
O O1 0.452888 0.350432 0.769363
O O2 0.454056 0.200110 0.580250
O O3 0.817155 0.811285 0.565130
O O4 0.893946 0.835777 0.918854
O O5 0.858287 0.990760 0.700735
O O6 0.210728 0.283012 0.231889
O O7 0.319512 0.166963 0.375711
O O8 0.325812 0.362780 0.311090
O O9 0.387523 0.175683 0.091115
O O10 0.312037 0.340280 0.017987
O O11 0.603048 0.060325 0.175310
O O12 0.596998 0.023689 0.901327
O O13 0.221050 0.549191 0.509565
#
# Coordination Sequence:
#
# PCOD8139469 Si02
#       7
#     4   8   8   8   8   8   8
#     4  10  28  50  62  88 140 178 236 274 304 380
#     4  11  24  40  68  90 128 184 230 260 324 396
#     4  10  20  39  62  97 144 159 204 282 335 391
#     4  11  21  40  64 105 133 167 210 272 346 396
#     4  11  23  44  65  94 131 181 217 271 327 382
#     4  11  24  38  70 102 137 163 216 275 344 394
#     4  11  21  40  66 106 136 167 208 278 346 395
#
# _framework density 21.919540999999999
#
# number of rings (size 3 to 8) (size 9 to 14) (size 15 to 20)
#    0.000    1.231    3.077    3.231    8.615    0.615 
#    0.000    6.923    0.000    0.000    0.000    0.000 
#    0.000    0.000    0.000    0.000    0.000    0.000 
#
# Total GULP energy -322368.556250 kJ/mol
# GULP energy per Si atom -12398.790625 kJ/mol
# Density = 2.186965 g / cm^3
# Si number density = 21.919541 Si / 1000 Ang^3
#
#
#
# Elastic Constant Matrix: (Units=GPa)
#
#
# Indices 1 2 3 4 5 6 
#
# 1 52.6602 31.6700 15.4629 0.0000 -10.8431 0.0000
# 2 31.6700 115.2010 24.9655 0.0000 -10.9370 0.0000
# 3 15.4629 24.9655 84.0333 0.0000 -26.8102 0.0000
# 4 0.0000 0.0000 0.0000 24.8415 0.0000 -3.3980
# 5 -10.8431 -10.9370 -26.8102 0.0000 30.7667 0.0000
# 6 0.0000 0.0000 0.0000 -3.3980 0.0000 33.0673
#
#
#
# Elastic Compliance Matrix: (Units=1/GPa)
#
#
# Indices 1 2 3 4 5 6 
#
# 1 0.023919 -0.005855 -0.000882 0.000000 0.005580 0.000000
# 2 -0.005855 0.010745 -0.002153 0.000000 -0.000120 0.000000
# 3 -0.000882 -0.002153 0.017118 0.000000 0.013840 0.000000
# 4 0.000000 0.000000 0.000000 0.040829 0.000000 0.004196
# 5 0.005580 -0.000120 0.013840 0.000000 0.046487 0.000000
# 6 0.000000 0.000000 0.000000 0.004196 0.000000 0.030672
#
#
# Mechanical properties :
#
#
# Convention : Reuss Voigt Hill
#
# Bulk Modulus (GPa) = 29.40965 44.01014 36.70989
# Shear Modulus (GPa) = 25.14040 29.72151 27.43096
#
# Velocity S-wave (km/s) = 3.39032 3.68630 3.54141
# Velocity P-wave (km/s) = 5.36395 6.18385 5.78844
#
# Compressibility (1/GPa) = 0.03400245
#
# Stress axis : x y z
#
# Youngs Moduli (GPa) = 41.80856 93.06457 58.41934
#
# Poissons Ratio (x) = 0.54486 0.05150
# Poissons Ratio (y) = 0.24477 0.12579
# Poissons Ratio (z) = 0.03686 0.20040
#
# Static dielectric constant tensor:
#      x y z
#    x 3.705300 0.000000 -0.251140 
#    y 0.000000 3.992200 0.000000 
#    z -0.251140 0.000000 4.052650 
# 
# 
# High freq. dielectric constant tensor:
#      x y z
#    x 1.835940 0.000000 -0.023530 
#    y 0.000000 1.869320 0.000000 
#    z -0.023530 0.000000 1.867090 
# 
# From -- ./inp_files/65597.got.cif
#   From: 2010.06.25/outbox.cif.g09.slc.cpg/sg15_33_cif.got.tgz:65597.got - 2010.06.28 07:06:18.
