data_PCOD8139877
_publ_section_title
;
Structure prediction by ZEFSAII (Michael W. Deem and Ramdas Pophale) SiO2 
 PCOD8139877
Probable space group: C 2/C
;
_chemical_formula_sum "Si O2"
_cell_formula_units_Z 44
_cell_length_a 12.253824
_cell_length_b 24.751250
_cell_length_c 7.901708
_cell_angle_alpha 90.000000
_cell_angle_beta 117.060936
_cell_angle_gamma 90.000000
_cell_volume 2134.199350
_symmetry_space_group_name_H-M "C 2/C"
_symmetry_group_IT_number 15
_symmetry_cell_setting 'monoclinic'
loop_
_space_group_symop_operation_xyz
x,y,z
-x,y,1/2-z
-x,-y,-z
x,-y,1/2+z
1/2+x,1/2+y,z
1/2-x,1/2+y,1/2-z
1/2-x,1/2-y,-z
1/2+x,1/2-y,1/2+z
loop_
_atom_site_type_symbol
_atom_site_label
_atom_site_fract_x
_atom_site_fract_y
_atom_site_fract_z
Si Si1 0.270281 0.836525 0.735963
Si Si2 0.114008 0.065195 0.104255
Si Si3 0.087554 0.741895 0.658401
Si Si4 0.500000 0.209478 0.250000
Si Si5 0.153561 0.950356 0.025111
Si Si6 0.135966 0.627546 0.837202
O O1 0.177275 0.879660 0.585677
O O2 0.203233 0.780675 0.730291
O O3 0.378375 0.827085 0.677744
O O4 0.328479 0.858226 0.947846
O O5 0.130168 0.062357 0.315209
O O6 0.180729 0.014057 0.065076
O O7 0.969033 0.065424 0.954975
O O8 0.012374 0.745462 0.428801
O O9 0.135140 0.681109 0.721661
O O10 0.000000 0.761053 0.750000
O O11 0.268902 0.915697 0.174491
O O12 0.000000 0.601664 0.750000
#
# Coordination Sequence:
#
# PCOD8139877 Si02
#       6
#     8   8   8   4   8   8
#     4  11  23  40  63  92 128 170 212 262 320 375
#     4   9  20  38  61  92 118 164 212 261 314 372
#     4  11  24  41  66  91 130 170 210 261 318 379
#     4  12  24  42  58  96 136 158 216 262 308 396
#     4   9  19  37  61  87 125 156 214 262 308 377
#     4  10  20  40  62  91 122 169 211 251 316 380
#
# _framework density 20.616630000000001
#
# number of rings (size 3 to 8) (size 9 to 14) (size 15 to 20)
#    0.000    1.818    3.636    1.091    5.091    1.455 
#    1.636    5.455    0.000    0.000    0.000    0.000 
#    0.000    0.000    0.000    0.000    0.000    0.000 
#
# Total GULP energy -272789.057015 kJ/mol
# GULP energy per Si atom -12399.502592 kJ/mol
# Density = 2.056971 g / cm^3
# Si number density = 20.616630 Si / 1000 Ang^3
#
#
#
# Elastic Constant Matrix: (Units=GPa)
#
#
# Indices 1 2 3 4 5 6 
#
# 1 144.6623 79.3526 36.6939 0.0000 27.0825 0.0000
# 2 79.3526 104.2706 25.5113 0.0000 31.8643 0.0000
# 3 36.6939 25.5113 72.8755 0.0000 14.4883 0.0000
# 4 0.0000 0.0000 0.0000 33.3957 0.0000 0.3289
# 5 27.0825 31.8643 14.4883 0.0000 39.7878 0.0000
# 6 0.0000 0.0000 0.0000 0.3289 0.0000 21.6994
#
#
#
# Elastic Compliance Matrix: (Units=1/GPa)
#
#
# Indices 1 2 3 4 5 6 
#
# 1 0.012539 -0.008615 -0.003205 0.000000 -0.000468 0.000000
# 2 -0.008615 0.019096 -0.000509 0.000000 -0.009244 0.000000
# 3 -0.003205 -0.000509 0.016170 0.000000 -0.003299 0.000000
# 4 0.000000 0.000000 0.000000 0.029948 0.000000 -0.000454
# 5 -0.000468 -0.009244 -0.003299 0.000000 0.034056 0.000000
# 6 0.000000 0.000000 0.000000 -0.000454 0.000000 0.046091
#
#
# Mechanical properties :
#
#
# Convention : Reuss Voigt Hill
#
# Bulk Modulus (GPa) = 43.20260 67.21377 55.20819
# Shear Modulus (GPa) = 26.27780 30.99329 28.63555
#
# Velocity S-wave (km/s) = 3.57402 3.88147 3.73091
# Velocity P-wave (km/s) = 6.16702 7.26362 6.73767
#
# Compressibility (1/GPa) = 0.02314676
#
# Stress axis : x y z
#
# Youngs Moduli (GPa) = 79.75118 52.36610 61.84406
#
# Poissons Ratio (x) = 0.45115 0.19818
# Poissons Ratio (y) = 0.68708 0.03150
# Poissons Ratio (z) = 0.25556 0.02667
#
# Static dielectric constant tensor:
#      x y z
#    x 3.979180 0.000000 0.320220 
#    y 0.000000 3.843210 0.000000 
#    z 0.320220 0.000000 3.826870 
# 
# 
# High freq. dielectric constant tensor:
#      x y z
#    x 1.808100 0.000000 0.009080 
#    y 0.000000 1.792910 0.000000 
#    z 0.009080 0.000000 1.804210 
# 
# From -- ./inp_files/34511.got.cif
#   From: 2010.06.25/outbox.cif.g09.slc.cpg/sg15_18_cif.got.tgz:34511.got - 2010.06.28 07:06:18.
