data_PCOD8139296
_publ_section_title
;
Structure prediction by ZEFSAII (Michael W. Deem and Ramdas Pophale) SiO2 
 PCOD8139296
Probable space group: C 2/C
;
_chemical_formula_sum "Si O2"
_cell_formula_units_Z 48
_cell_length_a 28.020275
_cell_length_b 9.924261
_cell_length_c 9.388115
_cell_angle_alpha 90.000000
_cell_angle_beta 100.300819
_cell_angle_gamma 90.000000
_cell_volume 2568.574694
_symmetry_space_group_name_H-M "C 2/C"
_symmetry_group_IT_number 15
_symmetry_cell_setting 'monoclinic'
loop_
_space_group_symop_operation_xyz
x,y,z
-x,y,1/2-z
-x,-y,-z
x,-y,1/2+z
1/2+x,1/2+y,z
1/2-x,1/2+y,1/2-z
1/2-x,1/2-y,-z
1/2+x,1/2-y,1/2+z
loop_
_atom_site_type_symbol
_atom_site_label
_atom_site_fract_x
_atom_site_fract_y
_atom_site_fract_z
Si Si1 0.221647 0.365874 0.066312
Si Si2 0.722705 0.135944 0.899968
Si Si3 0.962557 0.133433 0.106289
Si Si4 0.890014 0.355889 0.158399
Si Si5 0.391736 0.118860 0.984893
Si Si6 0.531413 0.666813 0.905861
O O1 0.235940 0.499882 0.989340
O O2 0.250000 0.250000 0.000000
O O3 0.237963 0.374121 0.241207
O O4 0.164218 0.341273 0.022869
O O5 0.666587 0.172218 0.882145
O O6 0.750000 0.250000 0.000000
O O7 0.915717 0.218352 0.124744
O O8 0.000000 0.110344 0.250000
O O9 0.946836 0.982710 0.048877
O O10 0.992633 0.212794 0.003168
O O11 0.905270 0.394123 0.326444
O O12 0.905288 0.477267 0.063764
O O13 0.423031 0.234051 0.077047
O O14 0.500000 0.675205 0.750000
#
# Coordination Sequence:
#
# PCOD8139296 Si02
#       6
#     8   8   8   8   8   8
#     4  10  21  39  61  85 116 152 190 239 287 343
#     4  10  21  39  60  87 117 149 191 236 289 344
#     4  10  20  39  58  78 114 150 189 235 279 330
#     4  10  22  38  59  84 114 149 186 234 280 334
#     4  10  22  39  57  84 116 147 189 232 280 337
#     4  10  22  37  56  83 113 151 191 233 281 330
#
# _framework density 18.687407
#
# number of rings (size 3 to 8) (size 9 to 14) (size 15 to 20)
#    0.000    2.000    1.667    1.000    2.333    4.000 
#    0.000    0.000    0.000    0.000    0.000    0.000 
#    0.000    0.000    0.000    0.000    0.000    0.000 
#
# Total GULP energy -297555.089262 kJ/mol
# GULP energy per Si atom -12398.128719 kJ/mol
# Density = 1.864487 g / cm^3
# Si number density = 18.687407 Si / 1000 Ang^3
#
#
#
# Elastic Constant Matrix: (Units=GPa)
#
#
# Indices 1 2 3 4 5 6 
#
# 1 63.7177 68.3746 48.3201 0.0000 -2.0573 0.0000
# 2 68.3746 132.0120 65.1303 0.0000 0.7879 0.0000
# 3 48.3201 65.1303 135.9290 0.0000 -9.7827 0.0000
# 4 0.0000 0.0000 0.0000 37.6865 0.0000 0.3580
# 5 -2.0573 0.7879 -9.7827 0.0000 29.8501 0.0000
# 6 0.0000 0.0000 0.0000 0.3580 0.0000 45.0807
#
#
#
# Elastic Compliance Matrix: (Units=1/GPa)
#
#
# Indices 1 2 3 4 5 6 
#
# 1 0.038144 -0.017186 -0.005226 0.000000 0.001370 0.000000
# 2 -0.017186 0.017766 -0.002583 0.000000 -0.002500 0.000000
# 3 -0.005226 -0.002583 0.010683 0.000000 0.003209 0.000000
# 4 0.000000 0.000000 0.000000 0.026537 0.000000 -0.000211
# 5 0.001370 -0.002500 0.003209 0.000000 0.034713 0.000000
# 6 0.000000 0.000000 0.000000 -0.000211 0.000000 0.022184
#
#
# Mechanical properties :
#
#
# Convention : Reuss Voigt Hill
#
# Bulk Modulus (GPa) = 60.23268 77.25653 68.74461
# Shear Modulus (GPa) = 24.32489 32.51239 28.41864
#
# Velocity S-wave (km/s) = 3.61178 4.17562 3.90389
# Velocity P-wave (km/s) = 7.04947 8.04232 7.56221
#
# Compressibility (1/GPa) = 0.01660228
#
# Stress axis : x y z
#
# Youngs Moduli (GPa) = 26.21666 56.28800 93.60500
#
# Poissons Ratio (x) = 0.96737 0.48919
# Poissons Ratio (y) = 0.45056 0.24179
# Poissons Ratio (z) = 0.13701 0.14540
#
# Static dielectric constant tensor:
#      x y z
#    x 3.326040 0.000000 -0.038960 
#    y 0.000000 3.668910 0.000000 
#    z -0.038960 0.000000 3.742790 
# 
# 
# High freq. dielectric constant tensor:
#      x y z
#    x 1.717280 0.000000 -0.003840 
#    y 0.000000 1.728480 0.000000 
#    z -0.003840 0.000000 1.745670 
# 
# From -- ./inp_files/68546.got.cif
#   From: 2010.06.25/outbox.cif.g09.slc.cpg/sg15_35_cif.got.tgz:68546.got - 2010.06.28 07:06:18.
