data_PCOD8139754
_publ_section_title
;
Structure prediction by ZEFSAII (Michael W. Deem and Ramdas Pophale) SiO2 
 PCOD8139754
Probable space group: C 2/C
;
_chemical_formula_sum "Si O2"
_cell_formula_units_Z 56
_cell_length_a 8.730097
_cell_length_b 15.008421
_cell_length_c 20.392364
_cell_angle_alpha 90.000000
_cell_angle_beta 108.504163
_cell_angle_gamma 90.000000
_cell_volume 2533.772812
_symmetry_space_group_name_H-M "C 2/C"
_symmetry_group_IT_number 15
_symmetry_cell_setting 'monoclinic'
loop_
_space_group_symop_operation_xyz
x,y,z
-x,y,1/2-z
-x,-y,-z
x,-y,1/2+z
1/2+x,1/2+y,z
1/2-x,1/2+y,1/2-z
1/2-x,1/2-y,-z
1/2+x,1/2-y,1/2+z
loop_
_atom_site_type_symbol
_atom_site_label
_atom_site_fract_x
_atom_site_fract_y
_atom_site_fract_z
Si Si1 0.883147 0.959092 0.175548
Si Si2 0.647727 0.990970 0.472629
Si Si3 0.127844 0.245811 0.821341
Si Si4 0.908397 0.887718 0.574292
Si Si5 0.232055 0.833713 0.544059
Si Si6 0.010762 0.747035 0.679840
Si Si7 0.521527 0.043455 0.679386
O O1 0.912729 0.855278 0.161139
O O2 0.700527 0.972130 0.176158
O O3 0.000000 0.987963 0.250000
O O4 0.928179 0.021245 0.119518
O O5 0.755330 0.904228 0.505530
O O6 0.602789 0.997088 0.389834
O O7 0.500000 0.000000 0.500000
O O8 0.740659 0.082253 0.498906
O O9 0.128746 0.314848 0.882133
O O10 0.305943 0.252627 0.817249
O O11 0.000000 0.278998 0.750000
O O12 0.059342 0.856353 0.551833
O O13 0.882968 0.803695 0.619095
O O14 0.250000 0.750000 0.500000
O O15 0.959780 0.644799 0.673385
O O16 0.000000 0.789638 0.750000
O O17 0.500000 0.002319 0.750000
#
# Coordination Sequence:
#
# PCOD8139754 Si02
#       7
#     8   8   8   8   8   8   8
#     4  10  20  39  70  98 132 176 222 274 340 408
#     4  12  26  44  68  99 135 174 226 287 344 407
#     4   9  20  40  66  91 125 168 221 271 328 396
#     4  11  23  42  68  95 133 178 225 279 344 409
#     4  11  26  46  65  92 136 176 223 280 339 411
#     4   9  20  40  64  95 131 171 214 270 334 407
#     4  10  23  44  66  97 140 173 221 282 339 403
#
# _framework density 22.101430000000001
#
# number of rings (size 3 to 8) (size 9 to 14) (size 15 to 20)
#    0.000    1.714    1.429    1.714    6.000    2.286 
#   10.286    0.000    0.000    0.000    0.000    0.000 
#    0.000    0.000    0.000    0.000    0.000    0.000 
#
# Total GULP energy -346884.921806 kJ/mol
# GULP energy per Si atom -12388.747207 kJ/mol
# Density = 2.205113 g / cm^3
# Si number density = 22.101430 Si / 1000 Ang^3
#
#
#
# Elastic Constant Matrix: (Units=GPa)
#
#
# Indices 1 2 3 4 5 6 
#
# 1 80.7733 46.7713 47.8414 0.0000 -9.1432 0.0000
# 2 46.7713 86.0132 41.2496 0.0000 -7.4245 0.0000
# 3 47.8414 41.2496 145.1235 0.0000 2.0517 0.0000
# 4 0.0000 0.0000 0.0000 39.0595 0.0000 -4.8487
# 5 -9.1432 -7.4245 2.0517 0.0000 38.5208 0.0000
# 6 0.0000 0.0000 0.0000 -4.8487 0.0000 26.1903
#
#
#
# Elastic Compliance Matrix: (Units=1/GPa)
#
#
# Indices 1 2 3 4 5 6 
#
# 1 0.020345 -0.008721 -0.004276 0.000000 0.003376 0.000000
# 2 -0.008721 0.017508 -0.002122 0.000000 0.001418 0.000000
# 3 -0.004276 -0.002122 0.008930 0.000000 -0.001899 0.000000
# 4 0.000000 0.000000 0.000000 0.026204 0.000000 0.004851
# 5 0.003376 0.001418 -0.001899 0.000000 0.027136 0.000000
# 6 0.000000 0.000000 0.000000 0.004851 0.000000 0.039080
#
#
# Mechanical properties :
#
#
# Convention : Reuss Voigt Hill
#
# Bulk Modulus (GPa) = 60.43581 64.84827 62.64204
# Shear Modulus (GPa) = 28.57878 32.49064 30.53471
#
# Velocity S-wave (km/s) = 3.59983 3.83831 3.72098
# Velocity P-wave (km/s) = 6.68450 7.00346 6.84584
#
# Compressibility (1/GPa) = 0.01654648
#
# Stress axis : x y z
#
# Youngs Moduli (GPa) = 49.15275 57.11648 111.98069
#
# Poissons Ratio (x) = 0.49811 0.47880
# Poissons Ratio (y) = 0.42866 0.23758
# Poissons Ratio (z) = 0.21017 0.12118
#
# Static dielectric constant tensor:
#      x y z
#    x 3.726170 0.000000 -0.117400 
#    y 0.000000 3.525140 0.000000 
#    z -0.117400 0.000000 4.543810 
# 
# 
# High freq. dielectric constant tensor:
#      x y z
#    x 1.855440 0.000000 -0.009350 
#    y 0.000000 1.874580 0.000000 
#    z -0.009350 0.000000 1.885750 
# 
# From -- ./inp_files/264820.got.cif
#   From: 2010.06.25/outbox.cif.g09.slc.cpg/sg15_133_cif.got.tgz:264820.got - 2010.06.28 07:06:18.
