data_PCOD8139973
_publ_section_title
;
Structure prediction by ZEFSAII (Michael W. Deem and Ramdas Pophale) SiO2 
 PCOD8139973
Probable space group: C 2/C
;
_chemical_formula_sum "Si O2"
_cell_formula_units_Z 52
_cell_length_a 19.501768
_cell_length_b 8.911281
_cell_length_c 22.600074
_cell_angle_alpha 90.000000
_cell_angle_beta 142.264708
_cell_angle_gamma 90.000000
_cell_volume 2403.729238
_symmetry_space_group_name_H-M "C 2/C"
_symmetry_group_IT_number 15
_symmetry_cell_setting 'monoclinic'
loop_
_space_group_symop_operation_xyz
x,y,z
-x,y,1/2-z
-x,-y,-z
x,-y,1/2+z
1/2+x,1/2+y,z
1/2-x,1/2+y,1/2-z
1/2-x,1/2-y,-z
1/2+x,1/2-y,1/2+z
loop_
_atom_site_type_symbol
_atom_site_label
_atom_site_fract_x
_atom_site_fract_y
_atom_site_fract_z
Si Si1 0.492025 0.638154 0.950297
Si Si2 0.691579 0.069789 0.877362
Si Si3 0.307572 0.223467 0.857962
Si Si4 0.900699 0.003241 0.588076
Si Si5 0.500000 0.696539 0.250000
Si Si6 0.867835 0.763270 0.157119
Si Si7 0.241401 0.950590 0.208481
O O1 0.528926 0.600045 0.909515
O O2 0.359895 0.673541 0.857815
O O3 0.500000 0.500000 0.000000
O O4 0.572812 0.773851 0.026205
O O5 0.609898 0.205224 0.835305
O O6 0.693628 0.067933 0.808044
O O7 0.648038 0.909978 0.872029
O O8 0.811885 0.099435 0.990503
O O9 0.203244 0.202701 0.831869
O O10 0.316478 0.087588 0.817119
O O11 0.298956 0.378091 0.814948
O O12 0.993738 0.906669 0.687289
O O13 0.828588 0.117369 0.580409
O O14 0.000000 0.795906 0.250000
#
# Coordination Sequence:
#
# PCOD8139973 Si02
#       7
#     8   8   8   8   4   8   8
#     4  10  20  40  64  91 124 163 210 255 311 373
#     4  11  24  42  63  93 136 163 206 273 318 367
#     4  10  22  39  64  94 123 165 205 262 309 370
#     4  12  23  43  67  94 122 175 218 254 320 383
#     4  12  28  40  66  94 128 172 208 264 326 384
#     4  11  21  41  65  94 128 166 215 262 311 376
#     4  10  22  39  64  91 124 166 205 254 313 371
#
# _framework density 21.633053
#
# number of rings (size 3 to 8) (size 9 to 14) (size 15 to 20)
#    0.000    1.231    6.154    1.846    4.308    0.000 
#    0.000    0.769    0.000    0.000    0.000    0.000 
#    0.000    0.000    0.000    0.000    0.000    0.000 
#
# Total GULP energy -322135.907725 kJ/mol
# GULP energy per Si atom -12389.842605 kJ/mol
# Density = 2.158381 g / cm^3
# Si number density = 21.633053 Si / 1000 Ang^3
#
#
#
# Elastic Constant Matrix: (Units=GPa)
#
#
# Indices 1 2 3 4 5 6 
#
# 1 82.5133 24.3820 21.6956 0.0000 -9.1854 0.0000
# 2 24.3820 63.6479 17.5775 0.0000 -13.6193 0.0001
# 3 21.6956 17.5775 62.5272 0.0000 -8.6859 0.0000
# 4 0.0000 0.0000 0.0000 34.5505 0.0000 -7.2762
# 5 -9.1854 -13.6193 -8.6859 0.0000 39.1727 0.0000
# 6 0.0000 0.0001 0.0000 -7.2762 0.0000 24.8747
#
#
#
# Elastic Compliance Matrix: (Units=1/GPa)
#
#
# Indices 1 2 3 4 5 6 
#
# 1 0.014474 -0.004301 -0.003662 0.000000 0.001087 0.000000
# 2 -0.004301 0.019323 -0.003247 0.000000 0.004990 0.000000
# 3 -0.003662 -0.003247 0.018469 0.000000 0.002108 0.000000
# 4 0.000000 0.000000 0.000000 0.030843 0.000000 0.009022
# 5 0.001087 0.004990 0.002108 0.000000 0.027985 0.000000
# 6 0.000000 0.000000 0.000000 0.009022 0.000000 0.042840
#
#
# Mechanical properties :
#
#
# Convention : Reuss Voigt Hill
#
# Bulk Modulus (GPa) = 33.50393 37.33317 35.41855
# Shear Modulus (GPa) = 26.83796 29.38849 28.11322
#
# Velocity S-wave (km/s) = 3.52604 3.68978 3.60884
# Velocity P-wave (km/s) = 5.66553 5.95379 5.81145
#
# Compressibility (1/GPa) = 0.02984725
#
# Stress axis : x y z
#
# Youngs Moduli (GPa) = 69.08952 51.75105 54.14408
#
# Poissons Ratio (x) = 0.22257 0.19829
# Poissons Ratio (y) = 0.29714 0.17579
# Poissons Ratio (z) = 0.25302 0.16802
#
# Static dielectric constant tensor:
#      x y z
#    x 3.615680 0.000000 -0.525600 
#    y 0.000000 3.781760 0.000000 
#    z -0.525600 0.000000 3.090280 
# 
# 
# High freq. dielectric constant tensor:
#      x y z
#    x 1.846350 0.000000 -0.007890 
#    y 0.000000 1.824320 0.000000 
#    z -0.007890 0.000000 1.862000 
# 
# From -- ./inp_files/279609.got.cif
#   From: 2010.06.25/outbox.cif.g09.slc.cpg/sg15_140_cif.got.tgz:279609.got - 2010.06.28 07:06:18.
