data_PCOD8139194
_publ_section_title
;
Structure prediction by ZEFSAII (Michael W. Deem and Ramdas Pophale) SiO2 
 PCOD8139194
Probable space group: C 2/C
;
_chemical_formula_sum "Si O2"
_cell_formula_units_Z 48
_cell_length_a 18.601772
_cell_length_b 8.818273
_cell_length_c 27.296461
_cell_angle_alpha 90.000000
_cell_angle_beta 29.319146
_cell_angle_gamma 90.000000
_cell_volume 2192.558049
_symmetry_space_group_name_H-M "C 2/C"
_symmetry_group_IT_number 15
_symmetry_cell_setting 'monoclinic'
loop_
_space_group_symop_operation_xyz
x,y,z
-x,y,1/2-z
-x,-y,-z
x,-y,1/2+z
1/2+x,1/2+y,z
1/2-x,1/2+y,1/2-z
1/2-x,1/2-y,-z
1/2+x,1/2-y,1/2+z
loop_
_atom_site_type_symbol
_atom_site_label
_atom_site_fract_x
_atom_site_fract_y
_atom_site_fract_z
Si Si1 0.724937 0.826397 0.202167
Si Si2 0.097097 0.760776 0.310291
Si Si3 0.566491 0.152070 0.481690
Si Si4 0.806226 0.892779 0.495973
Si Si5 0.197791 0.141699 0.387354
Si Si6 0.061417 0.556192 0.592819
O O1 0.772979 0.792979 0.229113
O O2 0.548362 0.844830 0.307886
O O3 0.801654 0.979517 0.138481
O O4 0.775415 0.688614 0.136970
O O5 0.172024 0.746937 0.212436
O O6 0.981329 0.901438 0.381187
O O7 0.012657 0.606226 0.375323
O O8 0.460750 0.289139 0.529276
O O9 0.591995 0.143770 0.524353
O O10 0.500000 0.000000 0.500000
O O11 0.750000 0.750000 0.500000
O O12 0.771460 0.871981 0.573595
O O13 0.716224 0.038667 0.529678
#
# Coordination Sequence:
#
# PCOD8139194 Si02
#       6
#     8   8   8   8   8   8
#     4  11  22  38  65 100 130 173 224 272 339 398
#     4  10  20  38  66  97 127 172 225 274 327 399
#     4  12  21  38  66  99 129 172 225 281 332 394
#     4  10  21  41  63  95 133 175 223 275 335 402
#     4  11  23  39  69  96 129 175 226 277 332 411
#     4  10  22  39  64  98 135 166 223 283 325 393
#
# _framework density 21.892237999999999
#
# number of rings (size 3 to 8) (size 9 to 14) (size 15 to 20)
#    0.000    1.333    5.000    1.500    0.000    6.000 
#    0.000    0.833    0.000    4.000    0.000    0.000 
#    0.000    0.000    0.000    0.000    0.000    0.000 
#
# Total GULP energy -297572.018651 kJ/mol
# GULP energy per Si atom -12398.834110 kJ/mol
# Density = 2.184241 g / cm^3
# Si number density = 21.892238 Si / 1000 Ang^3
#
#
#
# Elastic Constant Matrix: (Units=GPa)
#
#
# Indices 1 2 3 4 5 6 
#
# 1 128.1777 28.1914 59.9016 0.0049 22.5328 -0.0061
# 2 28.1914 58.2084 44.7640 0.0041 8.9747 -0.0038
# 3 59.9016 44.7640 145.2856 -0.0032 6.5928 0.0009
# 4 0.0049 0.0041 -0.0032 40.2241 -0.0022 -2.0158
# 5 22.5328 8.9747 6.5928 -0.0022 38.8557 0.0032
# 6 -0.0061 -0.0038 0.0009 -2.0158 0.0032 31.9092
#
#
#
# Elastic Compliance Matrix: (Units=1/GPa)
#
#
# Indices 1 2 3 4 5 6 
#
# 1 0.010821 -0.001546 -0.003745 -0.000002 -0.005282 0.000002
# 2 -0.001546 0.023387 -0.006413 -0.000003 -0.003417 0.000003
# 3 -0.003745 -0.006413 0.010317 0.000002 0.001903 -0.000002
# 4 -0.000002 -0.000003 0.000002 0.024940 0.000003 0.001576
# 5 -0.005282 -0.003417 0.001903 0.000003 0.029266 -0.000004
# 6 0.000002 0.000003 -0.000002 0.001576 -0.000004 0.031438
#
#
# Mechanical properties :
#
#
# Convention : Reuss Voigt Hill
#
# Bulk Modulus (GPa) = 47.35851 66.37619 56.86735
# Shear Modulus (GPa) = 31.12996 35.45211 33.29104
#
# Velocity S-wave (km/s) = 3.77498 4.02853 3.90382
# Velocity P-wave (km/s) = 6.37810 7.21277 6.80824
#
# Compressibility (1/GPa) = 0.02111553
#
# Stress axis : x y z
#
# Youngs Moduli (GPa) = 92.41620 42.75811 96.92814
#
# Poissons Ratio (x) = 0.06610 0.36303
# Poissons Ratio (y) = 0.14286 0.62164
# Poissons Ratio (z) = 0.34613 0.27423
#
# Static dielectric constant tensor:
#      x y z
#    x 3.931560 -0.000040 -0.339790 
#    y -0.000040 4.024780 -0.000040 
#    z -0.339790 -0.000040 4.081790 
# 
# 
# High freq. dielectric constant tensor:
#      x y z
#    x 1.849570 0.000000 0.008830 
#    y 0.000000 1.843240 0.000000 
#    z 0.008830 0.000000 1.876660 
# 
# From -- ./inp_files/317224.got.cif
#   From: 2010.06.25/outbox.cif.g09.slc.cpg/sg15_159_cif.got.tgz:317224.got - 2010.06.28 07:06:18.
