data_PCOD8139792
_publ_section_title
;
Structure prediction by ZEFSAII (Michael W. Deem and Ramdas Pophale) SiO2 
 PCOD8139792
Probable space group: C 2/C
;
_chemical_formula_sum "Si O2"
_cell_formula_units_Z 52
_cell_length_a 15.007955
_cell_length_b 30.161344
_cell_length_c 9.009026
_cell_angle_alpha 90.000000
_cell_angle_beta 39.911496
_cell_angle_gamma 90.000000
_cell_volume 2616.476292
_symmetry_space_group_name_H-M "C 2/C"
_symmetry_group_IT_number 15
_symmetry_cell_setting 'monoclinic'
loop_
_space_group_symop_operation_xyz
x,y,z
-x,y,1/2-z
-x,-y,-z
x,-y,1/2+z
1/2+x,1/2+y,z
1/2-x,1/2+y,1/2-z
1/2-x,1/2-y,-z
1/2+x,1/2-y,1/2+z
loop_
_atom_site_type_symbol
_atom_site_label
_atom_site_fract_x
_atom_site_fract_y
_atom_site_fract_z
Si Si1 0.614854 0.196185 0.710330
Si Si2 0.055306 0.867647 0.341904
Si Si3 0.631599 0.048616 0.861962
Si Si4 0.874431 0.359241 0.010652
Si Si5 0.000000 0.519751 0.750000
Si Si6 0.953360 0.955499 0.977111
Si Si7 0.081672 0.796573 0.787722
O O1 0.500000 0.173560 0.750000
O O2 0.646067 0.170088 0.818831
O O3 0.754133 0.196580 0.435354
O O4 0.556162 0.244083 0.835810
O O5 0.223640 0.862184 0.123738
O O6 0.997144 0.909779 0.509443
O O7 0.000000 0.876803 0.250000
O O8 0.981400 0.822637 0.492093
O O9 0.568015 0.093134 0.011353
O O10 0.605106 0.048576 0.716846
O O11 0.791137 0.047130 0.687801
O O12 0.575459 0.007445 0.025962
O O13 0.000000 0.339240 0.750000
O O14 0.000000 0.957470 0.750000
O O15 0.000000 0.000000 0.000000
O O16 0.000000 0.815615 0.750000
#
# Coordination Sequence:
#
# PCOD8139792 Si02
#       7
#     8   8   8   8   4   8   8
#     4  10  23  39  68  95 122 161 207 257 318 376
#     4  11  25  42  65  91 127 173 211 260 316 374
#     4  10  22  39  60  87 120 159 199 249 303 362
#     4  11  24  43  59  93 130 162 207 262 308 373
#     4  10  20  40  60  84 118 162 200 242 302 364
#     4  11  23  41  63  93 123 161 209 260 308 369
#     4  10  20  44  65  92 125 160 209 261 311 380
#
# _framework density 19.874056
#
# number of rings (size 3 to 8) (size 9 to 14) (size 15 to 20)
#    0.000    1.538    2.308    1.846    5.385    1.846 
#    2.769    1.538    0.000    0.000    0.000    0.000 
#    0.000    0.000    0.000    0.000    0.000    0.000 
#
# Total GULP energy -322278.693041 kJ/mol
# GULP energy per Si atom -12395.334348 kJ/mol
# Density = 1.982882 g / cm^3
# Si number density = 19.874056 Si / 1000 Ang^3
#
#
#
# Elastic Constant Matrix: (Units=GPa)
#
#
# Indices 1 2 3 4 5 6 
#
# 1 132.7817 30.5910 24.6957 0.0000 14.3993 0.0000
# 2 30.5910 68.8700 23.0011 0.0000 3.0097 0.0000
# 3 24.6957 23.0011 79.5428 0.0000 8.9499 0.0000
# 4 0.0000 0.0000 0.0000 29.9222 0.0000 1.6006
# 5 14.3993 3.0097 8.9499 0.0000 32.5155 0.0000
# 6 0.0000 0.0000 0.0000 1.6006 0.0000 29.2708
#
#
#
# Elastic Compliance Matrix: (Units=1/GPa)
#
#
# Indices 1 2 3 4 5 6 
#
# 1 0.008920 -0.003340 -0.001439 0.000000 -0.003245 0.000000
# 2 -0.003340 0.017324 -0.004085 0.000000 0.001000 0.000000
# 3 -0.001439 -0.004085 0.014536 0.000000 -0.002986 0.000000
# 4 0.000000 0.000000 0.000000 0.033518 0.000000 -0.001833
# 5 -0.003245 0.001000 -0.002986 0.000000 0.032921 0.000000
# 6 0.000000 0.000000 0.000000 -0.001833 0.000000 0.034264
#
#
# Mechanical properties :
#
#
# Convention : Reuss Voigt Hill
#
# Bulk Modulus (GPa) = 43.37845 48.64112 46.00979
# Shear Modulus (GPa) = 29.95903 31.86880 30.91392
#
# Velocity S-wave (km/s) = 3.88679 4.00876 3.94825
# Velocity P-wave (km/s) = 6.48205 6.77899 6.63218
#
# Compressibility (1/GPa) = 0.02305292
#
# Stress axis : x y z
#
# Youngs Moduli (GPa) = 112.10656 57.72231 68.79604
#
# Poissons Ratio (x) = 0.19279 0.09896
# Poissons Ratio (y) = 0.37443 0.28104
# Poissons Ratio (z) = 0.16127 0.23581
#
# Static dielectric constant tensor:
#      x y z
#    x 3.452180 0.000000 -0.708490 
#    y 0.000000 1.806050 0.000000 
#    z -0.708490 0.000000 2.177640 
# 
# 
# High freq. dielectric constant tensor:
#      x y z
#    x 1.787430 0.000000 -0.004920 
#    y 0.000000 1.776200 0.000000 
#    z -0.004920 0.000000 1.773900 
# 
# From -- ./inp_files/34094.got.cif
#   From: 2010.06.25/outbox.cif.g09.slc.cpg/sg15_18_cif.got.tgz:34094.got - 2010.06.28 07:06:18.
