data_PCOD8139061
_publ_section_title
;
Structure prediction by ZEFSAII (Michael W. Deem and Ramdas Pophale) SiO2 
 PCOD8139061
Probable space group: C 2/C
;
_chemical_formula_sum "Si O2"
_cell_formula_units_Z 52
_cell_length_a 17.943884
_cell_length_b 27.237106
_cell_length_c 11.967376
_cell_angle_alpha 90.000000
_cell_angle_beta 27.090799
_cell_angle_gamma 90.000000
_cell_volume 2663.613642
_symmetry_space_group_name_H-M "C 2/C"
_symmetry_group_IT_number 15
_symmetry_cell_setting 'monoclinic'
loop_
_space_group_symop_operation_xyz
x,y,z
-x,y,1/2-z
-x,-y,-z
x,-y,1/2+z
1/2+x,1/2+y,z
1/2-x,1/2+y,1/2-z
1/2-x,1/2-y,-z
1/2+x,1/2-y,1/2+z
loop_
_atom_site_type_symbol
_atom_site_label
_atom_site_fract_x
_atom_site_fract_y
_atom_site_fract_z
Si Si1 0.000000 0.258951 0.250000
Si Si2 0.249086 0.603563 0.600115
Si Si3 0.315564 0.069969 0.461855
Si Si4 0.541625 0.395135 0.464999
Si Si5 0.229212 0.037434 0.141072
Si Si6 0.681938 0.685896 0.157785
Si Si7 0.936896 0.554828 0.068956
O O1 0.843105 0.290892 0.500742
O O2 0.943612 0.227117 0.218494
O O3 0.398570 0.603176 0.486728
O O4 0.257651 0.559089 0.500446
O O5 0.248740 0.655862 0.540708
O O6 0.081822 0.594477 0.891666
O O7 0.500000 0.083114 0.250000
O O8 0.187593 0.110640 0.679650
O O9 0.302970 0.066227 0.344524
O O10 0.257995 0.020403 0.600429
O O11 0.445612 0.446599 0.573149
O O12 0.414662 0.349346 0.626063
O O13 0.364828 0.061190 0.041548
O O14 0.000000 0.500000 0.000000
#
# Coordination Sequence:
#
# PCOD8139061 Si02
#       7
#     4   8   8   8   8   8   8
#     4  10  20  38  64  92 124 142 180 248 324 372
#     4  11  20  37  60  86 124 155 197 246 300 345
#     4  12  22  37  55  79 117 172 206 243 284 341
#     4  11  23  39  56  86 122 154 198 247 300 352
#     4  11  22  36  56  80 116 161 207 256 286 326
#     4  10  21  37  61  96 119 146 185 243 314 366
#     4  12  22  36  56  83 117 165 217 240 280 346
#
# _framework density 19.522351
#
# number of rings (size 3 to 8) (size 9 to 14) (size 15 to 20)
#    0.000    0.923    6.154    2.308    4.308    0.615 
#    2.769    0.000    0.000    0.000    0.000   11.846 
#    0.000    0.000    0.000    0.000    0.000    0.000 
#
# Total GULP energy -322325.472424 kJ/mol
# GULP energy per Si atom -12397.133555 kJ/mol
# Density = 1.947792 g / cm^3
# Si number density = 19.522351 Si / 1000 Ang^3
#
#
#
# Elastic Constant Matrix: (Units=GPa)
#
#
# Indices 1 2 3 4 5 6 
#
# 1 55.5189 18.1808 24.3824 -0.0026 -6.0912 -0.0026
# 2 18.1808 75.9739 56.2149 0.0042 -9.3584 -0.0022
# 3 24.3824 56.2149 142.6156 0.0109 -3.6854 -0.0129
# 4 -0.0026 0.0042 0.0109 29.7148 0.0016 -10.5638
# 5 -6.0912 -9.3584 -3.6854 0.0016 35.9234 -0.0006
# 6 -0.0026 -0.0022 -0.0129 -10.5638 -0.0006 20.0214
#
#
#
# Elastic Compliance Matrix: (Units=1/GPa)
#
#
# Indices 1 2 3 4 5 6 
#
# 1 0.020212 -0.002859 -0.002265 0.000004 0.002450 0.000003
# 2 -0.002859 0.019609 -0.007140 -0.000002 0.003891 -0.000004
# 3 -0.002265 -0.007140 0.010183 -0.000001 -0.001200 0.000005
# 4 0.000004 -0.000002 -0.000001 0.041423 -0.000001 0.021856
# 5 0.002450 0.003891 -0.001200 -0.000001 0.029143 0.000000
# 6 0.000003 -0.000004 0.000005 0.021856 0.000000 0.061478
#
#
# Mechanical properties :
#
#
# Convention : Reuss Voigt Hill
#
# Bulk Modulus (GPa) = 39.25420 52.40718 45.83069
# Shear Modulus (GPa) = 23.24857 28.82062 26.03460
#
# Velocity S-wave (km/s) = 3.45464 3.84642 3.65578
# Velocity P-wave (km/s) = 6.00531 6.82858 6.43013
#
# Compressibility (1/GPa) = 0.02547498
#
# Stress axis : x y z
#
# Youngs Moduli (GPa) = 49.47620 50.99748 98.20768
#
# Poissons Ratio (x) = 0.14579 0.22248
# Poissons Ratio (y) = 0.14144 0.70119
# Poissons Ratio (z) = 0.11208 0.36412
#
# Static dielectric constant tensor:
#      x y z
#    x 3.606550 -0.000020 -0.181190 
#    y -0.000020 3.422820 0.000010 
#    z -0.181190 0.000010 3.828340 
# 
# 
# High freq. dielectric constant tensor:
#      x y z
#    x 1.754250 0.000000 -0.020860 
#    y 0.000000 1.727020 0.000000 
#    z -0.020860 0.000000 1.767390 
# 
# From -- ./inp_files/92632.got.cif
#   From: 2010.06.25/outbox.cif.g09.slc.cpg/sg15_47_cif.got.tgz:92632.got - 2010.06.28 07:06:18.
