data_PCOD8139169
_publ_section_title
;
Structure prediction by ZEFSAII (Michael W. Deem and Ramdas Pophale) SiO2 
 PCOD8139169
Probable space group: C 2/C
;
_chemical_formula_sum "Si O2"
_cell_formula_units_Z 52
_cell_length_a 10.734472
_cell_length_b 17.026644
_cell_length_c 20.448251
_cell_angle_alpha 90.000000
_cell_angle_beta 136.749704
_cell_angle_gamma 90.000000
_cell_volume 2560.795328
_symmetry_space_group_name_H-M "C 2/C"
_symmetry_group_IT_number 15
_symmetry_cell_setting 'monoclinic'
loop_
_space_group_symop_operation_xyz
x,y,z
-x,y,1/2-z
-x,-y,-z
x,-y,1/2+z
1/2+x,1/2+y,z
1/2-x,1/2+y,1/2-z
1/2-x,1/2-y,-z
1/2+x,1/2-y,1/2+z
loop_
_atom_site_type_symbol
_atom_site_label
_atom_site_fract_x
_atom_site_fract_y
_atom_site_fract_z
Si Si1 0.491084 0.051233 0.562813
Si Si2 0.835944 0.830479 0.555862
Si Si3 0.151372 0.586898 0.189736
Si Si4 0.697930 0.340479 0.348253
Si Si5 0.703108 0.658333 0.126959
Si Si6 0.000000 0.129702 0.250000
Si Si7 0.193710 0.661521 0.472406
O O1 0.298544 0.095031 0.495386
O O2 0.645502 0.116697 0.632266
O O3 0.500000 0.000000 0.500000
O O4 0.527807 0.991438 0.636888
O O5 0.750000 0.750000 0.500000
O O6 0.992794 0.848979 0.564033
O O7 0.918471 0.817126 0.660333
O O8 0.181246 0.608288 0.276786
O O9 0.338645 0.577229 0.220198
O O10 0.026945 0.656008 0.110135
O O11 0.500000 0.366785 0.250000
O O12 0.724748 0.247644 0.348415
O O13 0.719617 0.376450 0.429824
O O14 0.730275 0.621675 0.065011
O O15 0.250000 0.750000 0.500000
#
# Coordination Sequence:
#
# PCOD8139169 Si02
#       7
#     8   8   8   8   8   4   8
#     4  12  23  41  68  96 132 173 222 285 339 396
#     4  11  22  42  65  97 137 175 227 275 342 406
#     4  11  22  40  65  95 132 169 221 274 340 387
#     4  11  22  38  66 100 127 169 231 271 322 413
#     4  10  22  40  68  95 129 175 218 269 336 406
#     4  10  22  36  68  96 126 180 220 284 334 396
#     4  10  20  38  66  92 128 170 212 271 330 403
#
# _framework density 20.306190999999998
#
# number of rings (size 3 to 8) (size 9 to 14) (size 15 to 20)
#    0.000    1.231    4.615    2.308    3.231    0.000 
#    0.000    0.769    6.769    0.000    0.000    0.000 
#    0.000    0.000    0.000    0.000    0.000    0.000 
#
# Total GULP energy -322178.896425 kJ/mol
# GULP energy per Si atom -12391.496016 kJ/mol
# Density = 2.025997 g / cm^3
# Si number density = 20.306191 Si / 1000 Ang^3
#
#
#
# Elastic Constant Matrix: (Units=GPa)
#
#
# Indices 1 2 3 4 5 6 
#
# 1 123.1282 35.7934 79.0490 0.0000 2.4408 0.0000
# 2 35.7934 85.5869 50.0421 0.0000 -1.8576 0.0000
# 3 79.0490 50.0421 161.4845 0.0000 3.2895 0.0000
# 4 0.0000 0.0000 0.0000 28.9642 0.0000 5.9089
# 5 2.4408 -1.8576 3.2895 0.0000 40.0032 0.0000
# 6 0.0000 0.0000 0.0000 5.9089 0.0000 32.4160
#
#
#
# Elastic Compliance Matrix: (Units=1/GPa)
#
#
# Indices 1 2 3 4 5 6 
#
# 1 0.012111 -0.001969 -0.005310 0.000000 -0.000394 0.000000
# 2 -0.001969 0.014632 -0.003593 0.000000 0.001095 0.000000
# 3 -0.005310 -0.003593 0.009919 0.000000 -0.000658 0.000000
# 4 0.000000 0.000000 0.000000 0.035859 0.000000 -0.006536
# 5 -0.000394 0.001095 -0.000658 0.000000 0.025127 0.000000
# 6 0.000000 0.000000 0.000000 -0.006536 0.000000 0.032040
#
#
# Mechanical properties :
#
#
# Convention : Reuss Voigt Hill
#
# Bulk Modulus (GPa) = 67.03339 77.77429 72.40384
# Shear Modulus (GPa) = 31.96838 33.96436 32.96637
#
# Velocity S-wave (km/s) = 3.97207 4.09419 4.03359
# Velocity P-wave (km/s) = 7.35659 7.79319 7.57804
#
# Compressibility (1/GPa) = 0.01491794
#
# Stress axis : x y z
#
# Youngs Moduli (GPa) = 82.56938 68.34422 100.81749
#
# Poissons Ratio (x) = 0.13454 0.53539
# Poissons Ratio (y) = 0.16254 0.36223
# Poissons Ratio (z) = 0.43848 0.24555
#
# Static dielectric constant tensor:
#      x y z
#    x 3.467150 0.000000 0.232380 
#    y 0.000000 3.763720 0.000000 
#    z 0.232380 0.000000 4.095910 
# 
# 
# High freq. dielectric constant tensor:
#      x y z
#    x 1.796080 0.000000 0.008230 
#    y 0.000000 1.768720 0.000000 
#    z 0.008230 0.000000 1.810510 
# 
# From -- ./inp_files/239875.got.cif
#   From: 2010.06.25/outbox.cif.g09.slc.cpg/sg15_120_cif.got.tgz:239875.got - 2010.06.28 07:06:18.
