data_PCOD8139314
_publ_section_title
;
Structure prediction by ZEFSAII (Michael W. Deem and Ramdas Pophale) SiO2 
 PCOD8139314
Probable space group: C 2/C
;
_chemical_formula_sum "Si O2"
_cell_formula_units_Z 60
_cell_length_a 26.046566
_cell_length_b 9.300612
_cell_length_c 17.978019
_cell_angle_alpha 90.000000
_cell_angle_beta 45.706964
_cell_angle_gamma 90.000000
_cell_volume 3117.324044
_symmetry_space_group_name_H-M "C 2/C"
_symmetry_group_IT_number 15
_symmetry_cell_setting 'monoclinic'
loop_
_space_group_symop_operation_xyz
x,y,z
-x,y,1/2-z
-x,-y,-z
x,-y,1/2+z
1/2+x,1/2+y,z
1/2-x,1/2+y,1/2-z
1/2-x,1/2-y,-z
1/2+x,1/2-y,1/2+z
loop_
_atom_site_type_symbol
_atom_site_label
_atom_site_fract_x
_atom_site_fract_y
_atom_site_fract_z
Si Si1 0.467021 0.142587 0.129498
Si Si2 0.738258 0.943946 0.292869
Si Si3 0.138715 0.953992 0.120762
Si Si4 0.587168 0.131657 0.893427
Si Si5 0.324076 0.672473 0.297959
Si Si6 0.000000 0.768894 0.250000
Si Si7 0.183319 0.262650 0.688345
Si Si8 0.257220 0.549511 0.606379
O O1 0.495858 0.161284 0.184191
O O2 0.396504 0.243899 0.194517
O O3 0.448835 0.976621 0.129569
O O4 0.528372 0.193248 0.010089
O O5 0.651867 0.950824 0.371334
O O6 0.759579 0.792018 0.308721
O O7 0.776654 0.947332 0.173811
O O8 0.765617 0.073754 0.315760
O O9 0.065197 0.878464 0.174305
O O10 0.189309 0.834727 0.108402
O O11 0.130556 0.085938 0.186705
O O12 0.171793 0.016821 0.011852
O O13 0.618747 0.268379 0.818808
O O14 0.279743 0.801577 0.381458
O O15 0.199002 0.425494 0.649421
#
# Coordination Sequence:
#
# PCOD8139314 Si02
#       8
#     8   8   8   8   8   4   8   8
#     4  10  21  41  62  89 119 160 203 246 295 355
#     4  10  21  35  61  94 120 147 203 250 297 356
#     4  10  23  39  56  85 121 159 197 244 298 353
#     4  10  21  38  65  87 125 156 200 244 304 357
#     4  10  21  39  58  91 122 150 195 257 295 355
#     4  10  24  42  58  84 126 160 206 240 290 370
#     4  10  20  39  59  88 117 153 205 250 286 359
#     4  11  19  35  63  83 116 150 195 243 302 344
#
# _framework density 19.247277
#
# number of rings (size 3 to 8) (size 9 to 14) (size 15 to 20)
#    0.000    1.867    2.667    2.400    3.733    0.000 
#    4.800    2.667    0.000    0.000    0.000    0.000 
#    0.000    0.000    0.000    0.000    0.000    0.000 
#
# Total GULP energy -371905.409525 kJ/mol
# GULP energy per Si atom -12396.846984 kJ/mol
# Density = 1.920347 g / cm^3
# Si number density = 19.247277 Si / 1000 Ang^3
#
#
#
# Elastic Constant Matrix: (Units=GPa)
#
#
# Indices 1 2 3 4 5 6 
#
# 1 99.3258 43.8388 35.8875 0.0014 -6.3626 -0.0004
# 2 43.8388 102.0019 29.0728 0.0052 -0.7405 -0.0022
# 3 35.8875 29.0728 106.8923 -0.0015 -5.5410 -0.0008
# 4 0.0014 0.0052 -0.0015 22.6467 -0.0008 -1.0808
# 5 -6.3626 -0.7405 -5.5410 -0.0008 18.8640 -0.0002
# 6 -0.0004 -0.0022 -0.0008 -1.0808 -0.0002 23.4397
#
#
#
# Elastic Compliance Matrix: (Units=1/GPa)
#
#
# Indices 1 2 3 4 5 6 
#
# 1 0.013568 -0.004942 -0.003030 0.000000 0.003492 0.000000
# 2 -0.004942 0.012431 -0.001811 -0.000003 -0.001711 0.000001
# 3 -0.003030 -0.001811 0.010975 0.000001 0.002131 0.000000
# 4 0.000000 -0.000003 0.000001 0.044254 0.000002 0.002040
# 5 0.003492 -0.001711 0.002131 0.000002 0.054748 0.000001
# 6 0.000000 0.000001 0.000000 0.002040 0.000001 0.042757
#
#
# Mechanical properties :
#
#
# Convention : Reuss Voigt Hill
#
# Bulk Modulus (GPa) = 57.44120 58.42424 57.93272
# Shear Modulus (GPa) = 24.49767 26.28481 25.39124
#
# Velocity S-wave (km/s) = 3.57148 3.69946 3.63604
# Velocity P-wave (km/s) = 6.84952 6.97628 6.91319
#
# Compressibility (1/GPa) = 0.01740911
#
# Stress axis : x y z
#
# Youngs Moduli (GPa) = 73.70486 80.44117 91.11323
#
# Poissons Ratio (x) = 0.39756 0.27607
# Poissons Ratio (y) = 0.36426 0.16496
# Poissons Ratio (z) = 0.22332 0.14564
#
# Static dielectric constant tensor:
#      x y z
#    x 3.520340 -0.000010 0.030910 
#    y -0.000010 3.585130 0.000010 
#    z 0.030910 0.000010 3.519720 
# 
# 
# High freq. dielectric constant tensor:
#      x y z
#    x 1.743170 0.000000 0.004510 
#    y 0.000000 1.753240 0.000000 
#    z 0.004510 0.000000 1.744800 
# 
# From -- ./inp_files/257192.got.cif
#   From: 2010.06.25/outbox.cif.g09.slc.cpg/sg15_129_cif.got.tgz:257192.got - 2010.06.28 07:06:18.
