data_PCOD8139356
_publ_section_title
;
Structure prediction by ZEFSAII (Michael W. Deem and Ramdas Pophale) SiO2 
 PCOD8139356
Probable space group: C 2/C
;
_chemical_formula_sum "Si O2"
_cell_formula_units_Z 48
_cell_length_a 13.105237
_cell_length_b 24.915107
_cell_length_c 8.832693
_cell_angle_alpha 90.000000
_cell_angle_beta 46.825877
_cell_angle_gamma 90.000000
_cell_volume 2103.263660
_symmetry_space_group_name_H-M "C 2/C"
_symmetry_group_IT_number 15
_symmetry_cell_setting 'monoclinic'
loop_
_space_group_symop_operation_xyz
x,y,z
-x,y,1/2-z
-x,-y,-z
x,-y,1/2+z
1/2+x,1/2+y,z
1/2-x,1/2+y,1/2-z
1/2-x,1/2-y,-z
1/2+x,1/2-y,1/2+z
loop_
_atom_site_type_symbol
_atom_site_label
_atom_site_fract_x
_atom_site_fract_y
_atom_site_fract_z
Si Si1 0.782403 0.462251 0.077677
Si Si2 0.709710 0.930992 0.772489
Si Si3 0.462617 0.135174 0.459274
Si Si4 0.469403 0.297984 0.956983
Si Si5 0.292390 0.758403 0.132185
Si Si6 0.016660 0.902062 0.403319
O O1 0.829416 0.522238 0.070238
O O2 0.619018 0.453563 0.288169
O O3 0.813973 0.455008 0.869664
O O4 0.869423 0.417667 0.079850
O O5 0.608684 0.878798 0.899754
O O6 0.870949 0.916038 0.631152
O O7 0.500000 0.147285 0.250000
O O8 0.378283 0.188016 0.594651
O O9 0.500000 0.292445 0.750000
O O10 0.610840 0.290361 0.911702
O O11 0.350341 0.255627 0.126186
O O12 0.412959 0.356649 0.062599
O O13 0.250000 0.750000 0.000000
O O14 0.000000 0.878809 0.250000
#
# Coordination Sequence:
#
# PCOD8139356 Si02
#       6
#     8   8   8   8   8   8
#     4  10  20  39  60  90 130 169 223 274 333 401
#     4  10  22  36  64  93 129 173 220 277 334 402
#     4  10  21  39  63  95 127 166 225 278 317 400
#     4  12  27  44  67 102 141 169 217 291 355 407
#     4  12  25  46  74  99 131 182 236 273 344 419
#     4  10  21  40  65  92 128 176 228 271 329 410
#
# _framework density 22.821674999999999
#
# number of rings (size 3 to 8) (size 9 to 14) (size 15 to 20)
#    0.000    1.333    1.667    4.000    7.000    1.333 
#    0.000    0.000    0.000    0.000    0.000    0.000 
#    0.000    0.000    0.000    0.000    0.000    0.000 
#
# Total GULP energy -297515.601699 kJ/mol
# GULP energy per Si atom -12396.483404 kJ/mol
# Density = 2.276973 g / cm^3
# Si number density = 22.821675 Si / 1000 Ang^3
#
#
#
# Elastic Constant Matrix: (Units=GPa)
#
#
# Indices 1 2 3 4 5 6 
#
# 1 85.9699 16.1808 32.8985 0.0000 -7.8515 0.0000
# 2 16.1808 64.9597 13.4528 0.0000 6.9549 0.0000
# 3 32.8985 13.4528 98.4988 0.0000 0.1076 0.0000
# 4 0.0000 0.0000 0.0000 31.9051 0.0000 -2.2584
# 5 -7.8515 6.9549 0.1076 0.0000 31.0829 0.0000
# 6 0.0000 0.0000 0.0000 -2.2584 0.0000 35.9282
#
#
#
# Elastic Compliance Matrix: (Units=1/GPa)
#
#
# Indices 1 2 3 4 5 6 
#
# 1 0.014277 -0.003118 -0.004347 0.000000 0.004319 0.000000
# 2 -0.003118 0.016922 -0.001265 0.000000 -0.004570 0.000000
# 3 -0.004347 -0.001265 0.011778 0.000000 -0.000856 0.000000
# 4 0.000000 0.000000 0.000000 0.031483 0.000000 0.001979
# 5 0.004319 -0.004570 -0.000856 0.000000 0.034288 0.000000
# 6 0.000000 0.000000 0.000000 0.001979 0.000000 0.027958
#
#
# Mechanical properties :
#
#
# Convention : Reuss Voigt Hill
#
# Bulk Modulus (GPa) = 39.19044 41.61028 40.40036
# Shear Modulus (GPa) = 30.73660 32.24298 31.48979
#
# Velocity S-wave (km/s) = 3.67388 3.76283 3.71862
# Velocity P-wave (km/s) = 5.93349 6.09515 6.01486
#
# Compressibility (1/GPa) = 0.02551643
#
# Stress axis : x y z
#
# Youngs Moduli (GPa) = 70.04288 59.09437 84.90364
#
# Poissons Ratio (x) = 0.18428 0.36910
# Poissons Ratio (y) = 0.21842 0.10737
# Poissons Ratio (z) = 0.30450 0.07473
#
# Static dielectric constant tensor:
#      x y z
#    x 4.174970 0.000000 -0.459750 
#    y 0.000000 3.968080 0.000000 
#    z -0.459750 0.000000 4.071710 
# 
# 
# High freq. dielectric constant tensor:
#      x y z
#    x 1.889720 0.000000 -0.032550 
#    y 0.000000 1.896650 0.000000 
#    z -0.032550 0.000000 1.896010 
# 
# From -- ./inp_files/43774.got.cif
#   From: 2010.06.25/outbox.cif.g09.slc.cpg/sg15_22_cif.got.tgz:43774.got - 2010.06.28 07:06:18.
