data_PCOD8139644
_publ_section_title
;
Structure prediction by ZEFSAII (Michael W. Deem and Ramdas Pophale) SiO2 
 PCOD8139644
Probable space group: C 2/C
;
_chemical_formula_sum "Si O2"
_cell_formula_units_Z 64
_cell_length_a 8.547230
_cell_length_b 14.780999
_cell_length_c 28.971387
_cell_angle_alpha 90.000000
_cell_angle_beta 60.048590
_cell_angle_gamma 90.000000
_cell_volume 3171.330693
_symmetry_space_group_name_H-M "C 2/C"
_symmetry_group_IT_number 15
_symmetry_cell_setting 'monoclinic'
loop_
_space_group_symop_operation_xyz
x,y,z
-x,y,1/2-z
-x,-y,-z
x,-y,1/2+z
1/2+x,1/2+y,z
1/2-x,1/2+y,1/2-z
1/2-x,1/2-y,-z
1/2+x,1/2-y,1/2+z
loop_
_atom_site_type_symbol
_atom_site_label
_atom_site_fract_x
_atom_site_fract_y
_atom_site_fract_z
Si Si1 0.968876 0.781048 0.178176
Si Si2 0.436390 0.912410 0.371631
Si Si3 0.703824 0.773914 0.299184
Si Si4 0.031844 0.066974 0.894695
Si Si5 0.199540 0.350464 0.497157
Si Si6 0.441020 0.788281 0.458218
Si Si7 0.898928 0.869374 0.622682
Si Si8 0.439367 0.893249 0.883597
O O1 0.795241 0.769142 0.236083
O O2 0.969829 0.876222 0.152099
O O3 0.151842 0.784101 0.180681
O O4 0.950821 0.699139 0.143205
O O5 0.560751 0.855842 0.317921
O O6 0.229004 0.920769 0.387155
O O7 0.426600 0.861109 0.420841
O O8 0.538056 0.009605 0.363160
O O9 0.598542 0.680584 0.327593
O O10 0.984574 0.961504 0.890743
O O11 0.874967 0.098267 0.952342
O O12 0.250000 0.250000 0.500000
O O13 0.138282 0.397254 0.553359
O O14 0.035452 0.344375 0.485282
O O15 0.250000 0.750000 0.500000
O O16 0.547261 0.699344 0.426171
O O17 0.701100 0.900138 0.637569
#
# Coordination Sequence:
#
# PCOD8139644 Si02
#       8
#     8   8   8   8   8   8   8   8
#     4  10  20  39  66  82 110 161 201 236 299 350
#     4  10  23  38  56  90 122 145 195 248 295 340
#     4   9  20  42  61  84 117 151 194 254 295 345
#     4  11  22  36  62  88 115 158 197 238 288 358
#     4  12  21  38  61  84 120 158 201 232 283 356
#     4  11  23  39  56  83 121 159 191 239 292 336
#     4   9  20  38  58  84 117 151 200 235 285 354
#     4  10  21  37  61  87 114 158 199 235 282 361
#
# _framework density 20.180803000000001
#
# number of rings (size 3 to 8) (size 9 to 14) (size 15 to 20)
#    0.000    1.750    2.500    2.250    1.750    3.000 
#    2.250    2.500    0.000    0.000    0.000    0.000 
#    0.000    0.000    0.000    0.000    0.000    0.000 
#
# Total GULP energy -396502.127001 kJ/mol
# GULP energy per Si atom -12390.691469 kJ/mol
# Density = 2.013487 g / cm^3
# Si number density = 20.180803 Si / 1000 Ang^3
#
#
#
# Elastic Constant Matrix: (Units=GPa)
#
#
# Indices 1 2 3 4 5 6 
#
# 1 56.3419 23.7307 24.1633 0.0000 -7.7054 0.0000
# 2 23.7307 166.5299 59.5809 0.0000 -1.4905 0.0000
# 3 24.1633 59.5809 134.5760 0.0000 -6.5387 0.0000
# 4 0.0000 0.0000 0.0000 16.7903 0.0000 -2.8316
# 5 -7.7054 -1.4905 -6.5387 0.0000 27.9893 0.0000
# 6 0.0000 0.0000 0.0000 -2.8316 0.0000 24.7893
#
#
#
# Elastic Compliance Matrix: (Units=1/GPa)
#
#
# Indices 1 2 3 4 5 6 
#
# 1 0.020331 -0.001940 -0.002554 0.000000 0.004897 0.000000
# 2 -0.001940 0.007324 -0.002935 0.000000 -0.000829 0.000000
# 3 -0.002554 -0.002935 0.009252 0.000000 0.001302 0.000000
# 4 0.000000 0.000000 0.000000 0.060728 0.000000 0.006937
# 5 0.004897 -0.000829 0.001302 0.000000 0.037336 0.000000
# 6 0.000000 0.000000 0.000000 0.006937 0.000000 0.041132
#
#
# Mechanical properties :
#
#
# Convention : Reuss Voigt Hill
#
# Bulk Modulus (GPa) = 45.35053 63.59973 54.47513
# Shear Modulus (GPa) = 25.21324 30.57866 27.89595
#
# Velocity S-wave (km/s) = 3.53847 3.89682 3.72196
# Velocity P-wave (km/s) = 6.26221 7.19933 6.74706
#
# Compressibility (1/GPa) = 0.02205046
#
# Stress axis : x y z
#
# Youngs Moduli (GPa) = 49.18677 136.54098 108.08794
#
# Poissons Ratio (x) = 0.26484 0.27603
# Poissons Ratio (y) = 0.09540 0.31719
# Poissons Ratio (z) = 0.12561 0.40068
#
# Static dielectric constant tensor:
#      x y z
#    x 3.015050 0.000000 -0.674940 
#    y 0.000000 4.190560 0.000000 
#    z -0.674940 0.000000 2.793080 
# 
# 
# High freq. dielectric constant tensor:
#      x y z
#    x 1.768460 0.000000 -0.000600 
#    y 0.000000 1.807510 0.000000 
#    z -0.000600 0.000000 1.786860 
# 
# From -- ./inp_files/308018.got.cif
#   From: 2010.06.25/outbox.cif.g09.slc.cpg/sg15_155_cif.got.tgz:308018.got - 2010.06.28 07:06:18.
