data_PCOD8139883
_publ_section_title
;
Structure prediction by ZEFSAII (Michael W. Deem and Ramdas Pophale) SiO2 
 PCOD8139883
Probable space group: C 2/C
;
_chemical_formula_sum "Si O2"
_cell_formula_units_Z 52
_cell_length_a 9.827767
_cell_length_b 25.568956
_cell_length_c 11.627604
_cell_angle_alpha 90.000000
_cell_angle_beta 60.952538
_cell_angle_gamma 90.000000
_cell_volume 2554.334258
_symmetry_space_group_name_H-M "C 2/C"
_symmetry_group_IT_number 15
_symmetry_cell_setting 'monoclinic'
loop_
_space_group_symop_operation_xyz
x,y,z
-x,y,1/2-z
-x,-y,-z
x,-y,1/2+z
1/2+x,1/2+y,z
1/2-x,1/2+y,1/2-z
1/2-x,1/2-y,-z
1/2+x,1/2-y,1/2+z
loop_
_atom_site_type_symbol
_atom_site_label
_atom_site_fract_x
_atom_site_fract_y
_atom_site_fract_z
Si Si1 0.131840 0.832321 0.601007
Si Si2 0.945401 0.682152 0.089494
Si Si3 0.276827 0.650321 0.882004
Si Si4 0.065103 0.053292 0.099671
Si Si5 0.536254 0.701707 0.894980
Si Si6 0.500000 0.901301 0.750000
Si Si7 0.700906 0.552901 0.478508
O O1 0.297870 0.810215 0.568397
O O2 0.161339 0.893570 0.568258
O O3 0.080612 0.801869 0.508940
O O4 0.000000 0.822126 0.750000
O O5 0.961791 0.738024 0.145811
O O6 0.914757 0.636463 0.193861
O O7 0.096480 0.666409 0.952568
O O8 0.359133 0.682703 0.950799
O O9 0.352061 0.664734 0.728490
O O10 0.307614 0.589353 0.903401
O O11 0.000000 0.036709 0.250000
O O12 0.184820 0.007888 0.016194
O O13 0.931641 0.065329 0.060710
O O14 0.629527 0.939040 0.644964
#
# Coordination Sequence:
#
# PCOD8139883 Si02
#       7
#     8   8   8   8   8   4   8
#     4  11  24  41  62  93 128 167 209 252 313 379
#     4  11  24  39  63  91 125 167 205 260 314 365
#     4  10  23  40  64  93 120 160 213 262 303 369
#     4  10  21  38  64  88 122 165 205 254 319 370
#     4  11  23  41  64  90 126 165 211 256 310 372
#     4  10  20  40  62  92 122 160 208 260 308 364
#     4  10  21  39  64  91 121 161 212 258 309 373
#
# _framework density 20.357554
#
# number of rings (size 3 to 8) (size 9 to 14) (size 15 to 20)
#    0.000    1.538    1.538    3.692    6.462    0.615 
#    0.000    8.462    0.000    0.000    0.000    0.000 
#    0.000    0.000    0.000    0.000    0.000    0.000 
#
# Total GULP energy -322352.547022 kJ/mol
# GULP energy per Si atom -12398.174885 kJ/mol
# Density = 2.031122 g / cm^3
# Si number density = 20.357554 Si / 1000 Ang^3
#
#
#
# Elastic Constant Matrix: (Units=GPa)
#
#
# Indices 1 2 3 4 5 6 
#
# 1 105.8968 22.4163 33.7530 0.0000 -6.8053 0.0000
# 2 22.4163 101.1348 39.9459 0.0000 -12.7165 0.0000
# 3 33.7530 39.9459 98.1182 0.0000 -1.5956 0.0000
# 4 0.0000 0.0000 0.0000 16.4275 0.0000 -2.0133
# 5 -6.8053 -12.7165 -1.5956 0.0000 34.2130 0.0000
# 6 0.0000 0.0000 0.0000 -2.0133 0.0000 20.3211
#
#
#
# Elastic Compliance Matrix: (Units=1/GPa)
#
#
# Indices 1 2 3 4 5 6 
#
# 1 0.010797 -0.000866 -0.003334 0.000000 0.001670 0.000000
# 2 -0.000866 0.012474 -0.004712 0.000000 0.004245 0.000000
# 3 -0.003334 -0.004712 0.013228 0.000000 -0.001798 0.000000
# 4 0.000000 0.000000 0.000000 0.061622 0.000000 0.006105
# 5 0.001670 0.004245 -0.001798 0.000000 0.031055 0.000000
# 6 0.000000 0.000000 0.000000 0.006105 0.000000 0.049815
#
#
# Mechanical properties :
#
#
# Convention : Reuss Voigt Hill
#
# Bulk Modulus (GPa) = 53.54818 55.26446 54.40632
# Shear Modulus (GPa) = 24.62582 28.12797 26.37690
#
# Velocity S-wave (km/s) = 3.48180 3.72115 3.60346
# Velocity P-wave (km/s) = 6.52111 6.75784 6.64053
#
# Compressibility (1/GPa) = 0.01867477
#
# Stress axis : x y z
#
# Youngs Moduli (GPa) = 92.62202 80.16392 75.59855
#
# Poissons Ratio (x) = 0.06943 0.25207
# Poissons Ratio (y) = 0.08022 0.35619
# Poissons Ratio (z) = 0.30883 0.37770
#
# Static dielectric constant tensor:
#      x y z
#    x 3.663420 0.000000 0.082550 
#    y 0.000000 3.720120 0.000000 
#    z 0.082550 0.000000 3.571350 
# 
# 
# High freq. dielectric constant tensor:
#      x y z
#    x 1.796240 0.000000 0.002240 
#    y 0.000000 1.804360 0.000000 
#    z 0.002240 0.000000 1.789510 
# 
# From -- ./inp_files/81168.got.cif
#   From: 2010.06.25/outbox.cif.g09.slc.cpg/sg15_41_cif.got.tgz:81168.got - 2010.06.28 07:06:18.
