data_PCOD8139317
_publ_section_title
;
Structure prediction by ZEFSAII (Michael W. Deem and Ramdas Pophale) SiO2 
 PCOD8139317
Probable space group: C 2/C
;
_chemical_formula_sum "Si O2"
_cell_formula_units_Z 56
_cell_length_a 12.017195
_cell_length_b 27.452402
_cell_length_c 8.956765
_cell_angle_alpha 90.000000
_cell_angle_beta 76.274758
_cell_angle_gamma 90.000000
_cell_volume 2870.468032
_symmetry_space_group_name_H-M "C 2/C"
_symmetry_group_IT_number 15
_symmetry_cell_setting 'monoclinic'
loop_
_space_group_symop_operation_xyz
x,y,z
-x,y,1/2-z
-x,-y,-z
x,-y,1/2+z
1/2+x,1/2+y,z
1/2-x,1/2+y,1/2-z
1/2-x,1/2-y,-z
1/2+x,1/2-y,1/2+z
loop_
_atom_site_type_symbol
_atom_site_label
_atom_site_fract_x
_atom_site_fract_y
_atom_site_fract_z
Si Si1 0.201802 0.111139 0.938141
Si Si2 0.124597 0.647504 0.141841
Si Si3 0.297022 0.418368 0.726516
Si Si4 0.586638 0.517643 0.849287
Si Si5 0.793041 0.772414 0.633538
Si Si6 0.479730 0.343237 0.592299
Si Si7 0.621329 0.824988 0.292909
O O1 0.168245 0.061474 0.868750
O O2 0.306051 0.135008 0.817784
O O3 0.234975 0.100922 0.098682
O O4 0.095609 0.148807 0.963694
O O5 0.192181 0.596335 0.148880
O O6 0.196111 0.688465 0.215346
O O7 0.000000 0.643460 0.250000
O O8 0.114348 0.659475 0.969214
O O9 0.322493 0.475724 0.725819
O O10 0.414258 0.394737 0.627611
O O11 0.500000 0.535253 0.750000
O O12 0.500000 0.500000 0.000000
O O13 0.750000 0.750000 0.500000
O O14 0.904657 0.801650 0.539703
O O15 0.821603 0.729120 0.741360
O O16 0.500000 0.321850 0.750000
O O17 0.500000 0.823343 0.250000
#
# Coordination Sequence:
#
# PCOD8139317 Si02
#       7
#     8   8   8   8   8   8   8
#     4  11  23  37  62  91 123 161 201 257 304 367
#     4  10  22  41  63  84 120 169 205 252 308 368
#     4  10  20  39  59  88 125 156 198 244 313 368
#     4  12  22  37  63  96 128 157 200 254 312 370
#     4   9  20  36  57  84 119 155 202 254 300 361
#     4   9  17  34  56  82 114 153 192 241 305 357
#     4  11  24  40  58  89 123 160 212 256 303 363
#
# _framework density 19.509012999999999
#
# number of rings (size 3 to 8) (size 9 to 14) (size 15 to 20)
#    0.000    1.714    2.857    1.714    2.000    3.429 
#    0.000    8.571    0.000    3.429    0.000    0.000 
#    0.000    0.000    0.000    0.000    0.000    0.000 
#
# Total GULP energy -346979.298600 kJ/mol
# GULP energy per Si atom -12392.117807 kJ/mol
# Density = 1.946461 g / cm^3
# Si number density = 19.509013 Si / 1000 Ang^3
#
#
#
# Elastic Constant Matrix: (Units=GPa)
#
#
# Indices 1 2 3 4 5 6 
#
# 1 134.9333 55.6383 41.1497 0.0000 3.9383 0.0000
# 2 55.6383 110.4147 25.0675 0.0000 3.2971 0.0000
# 3 41.1497 25.0675 80.4974 0.0000 -2.3417 0.0000
# 4 0.0000 0.0000 0.0000 19.1803 0.0000 5.8439
# 5 3.9383 3.2971 -2.3417 0.0000 33.9956 0.0000
# 6 0.0000 0.0000 0.0000 5.8439 0.0000 32.3843
#
#
#
# Elastic Compliance Matrix: (Units=1/GPa)
#
#
# Indices 1 2 3 4 5 6 
#
# 1 0.010452 -0.004320 -0.004029 0.000000 -0.001069 0.000000
# 2 -0.004320 0.011577 -0.001418 0.000000 -0.000720 0.000000
# 3 -0.004029 -0.001418 0.014971 0.000000 0.001636 0.000000
# 4 0.000000 0.000000 0.000000 0.055170 0.000000 -0.009956
# 5 -0.001069 -0.000720 0.001636 0.000000 0.029722 0.000000
# 6 0.000000 0.000000 0.000000 -0.009956 0.000000 0.032676
#
#
# Mechanical properties :
#
#
# Convention : Reuss Voigt Hill
#
# Bulk Modulus (GPa) = 57.25044 63.28404 60.26724
# Shear Modulus (GPa) = 27.78935 30.71137 29.25036
#
# Velocity S-wave (km/s) = 3.77827 3.97194 3.87631
# Velocity P-wave (km/s) = 6.96011 7.31737 7.14097
#
# Compressibility (1/GPa) = 0.01746711
#
# Stress axis : x y z
#
# Youngs Moduli (GPa) = 95.67174 86.37699 66.79429
#
# Poissons Ratio (x) = 0.37318 0.26911
# Poissons Ratio (y) = 0.41334 0.09469
# Poissons Ratio (z) = 0.38545 0.12245
#
# Static dielectric constant tensor:
#      x y z
#    x 3.377740 0.000000 0.392990 
#    y 0.000000 4.796490 0.000000 
#    z 0.392990 0.000000 3.299750 
# 
# 
# High freq. dielectric constant tensor:
#      x y z
#    x 1.766780 0.000000 0.013880 
#    y 0.000000 1.762880 0.000000 
#    z 0.013880 0.000000 1.742730 
# 
# From -- ./inp_files/34199.got.cif
#   From: 2010.06.25/outbox.cif.g09.slc.cpg/sg15_18_cif.got.tgz:34199.got - 2010.06.28 07:06:18.
