data_PCOD8139706
_publ_section_title
;
Structure prediction by ZEFSAII (Michael W. Deem and Ramdas Pophale) SiO2 
 PCOD8139706
Probable space group: C 2/C
;
_chemical_formula_sum "Si O2"
_cell_formula_units_Z 48
_cell_length_a 19.337343
_cell_length_b 8.754515
_cell_length_c 12.413072
_cell_angle_alpha 90.000000
_cell_angle_beta 80.623222
_cell_angle_gamma 90.000000
_cell_volume 2073.318993
_symmetry_space_group_name_H-M "C 2/C"
_symmetry_group_IT_number 15
_symmetry_cell_setting 'monoclinic'
loop_
_space_group_symop_operation_xyz
x,y,z
-x,y,1/2-z
-x,-y,-z
x,-y,1/2+z
1/2+x,1/2+y,z
1/2-x,1/2+y,1/2-z
1/2-x,1/2-y,-z
1/2+x,1/2-y,1/2+z
loop_
_atom_site_type_symbol
_atom_site_label
_atom_site_fract_x
_atom_site_fract_y
_atom_site_fract_z
Si Si1 0.574546 0.471508 0.422257
Si Si2 0.911668 0.604577 0.383988
Si Si3 0.704938 0.983596 0.738213
Si Si4 0.000000 0.850705 0.250000
Si Si5 0.390196 0.789957 0.116529
Si Si6 0.705466 0.713451 0.904612
Si Si7 0.000000 0.645272 0.750000
O O1 0.500000 0.500000 0.500000
O O2 0.557047 0.448535 0.300313
O O3 0.625238 0.620216 0.424006
O O4 0.622431 0.325366 0.450816
O O5 0.838059 0.611679 0.340275
O O6 0.901744 0.593477 0.514681
O O7 0.947892 0.453020 0.334719
O O8 0.959283 0.750680 0.348308
O O9 0.719209 0.863791 0.829390
O O10 0.668471 0.135590 0.794785
O O11 0.771689 0.057643 0.662603
O O12 0.458749 0.757304 0.172438
O O13 0.750000 0.750000 0.000000
#
# Coordination Sequence:
#
# PCOD8139706 Si02
#       7
#     8   8   8   4   8   8   4
#     4  12  26  43  73 107 145 191 246 313 374 447
#     4  10  20  39  67  99 139 191 235 299 365 435
#     4  11  25  47  72 103 148 192 251 306 371 452
#     4  11  21  44  66 100 148 184 238 298 366 440
#     4  11  22  40  66 105 139 190 241 298 372 438
#     4  12  28  50  76 108 150 201 254 313 382 458
#     4   9  21  34  62  98 146 182 238 298 356 442
#
# _framework density 23.151285999999999
#
# number of rings (size 3 to 8) (size 9 to 14) (size 15 to 20)
#    0.000    1.000    3.333    3.000    0.000    8.000 
#    0.000    3.333    0.000    0.000    0.000    0.000 
#    0.000    0.000    0.000    0.000    0.000    0.000 
#
# Total GULP energy -297371.656734 kJ/mol
# GULP energy per Si atom -12390.485697 kJ/mol
# Density = 2.309859 g / cm^3
# Si number density = 23.151286 Si / 1000 Ang^3
#
#
#
# Elastic Constant Matrix: (Units=GPa)
#
#
# Indices 1 2 3 4 5 6 
#
# 1 105.3100 33.0947 46.0184 0.0000 10.0332 0.0000
# 2 33.0947 101.3450 26.7965 0.0000 0.6284 0.0000
# 3 46.0184 26.7965 108.8629 0.0000 9.0010 0.0000
# 4 0.0000 0.0000 0.0000 -17.6150 0.0000 11.1356
# 5 10.0332 0.6284 9.0010 0.0000 32.7301 0.0000
# 6 0.0000 0.0000 0.0000 11.1356 0.0000 30.3935
#
#
#
# Elastic Compliance Matrix: (Units=1/GPa)
#
#
# Indices 1 2 3 4 5 6 
#
# 1 0.012579 -0.002933 -0.004381 0.000000 -0.002595 0.000000
# 2 -0.002933 0.011247 -0.001622 0.000000 0.001129 0.000000
# 3 -0.004381 -0.001622 0.011587 0.000000 -0.001812 0.000000
# 4 0.000000 0.000000 0.000000 -0.046094 0.000000 0.016888
# 5 -0.002595 0.001129 -0.001812 0.000000 0.031825 0.000000
# 6 0.000000 0.000000 0.000000 0.016888 0.000000 0.026714
#
#
# Mechanical properties :
#
#
# Convention : Reuss Voigt Hill
#
# Bulk Modulus (GPa) = 57.00960 58.59302 57.80131
# Shear Modulus (GPa) = 69.85421 23.07561 46.46491
#
# Velocity S-wave (km/s) = 5.49895 3.16053 4.48483
# Velocity P-wave (km/s) = 8.06202 6.21951 7.19995
#
# Compressibility (1/GPa) = 0.01754091
#
# Stress axis : x y z
#
# Youngs Moduli (GPa) = 79.49632 88.91246 86.30508
#
# Poissons Ratio (x) = 0.26081 0.37809
# Poissons Ratio (y) = 0.23319 0.13997
# Poissons Ratio (z) = 0.34826 0.14420
#
# Static dielectric constant tensor:
#      x y z
#    x 4.153590 0.000000 0.000660 
#    y 0.000000 4.066330 0.000000 
#    z 0.000660 0.000000 3.970840 
# 
# 
# High freq. dielectric constant tensor:
#      x y z
#    x 1.909770 0.000000 0.004210 
#    y 0.000000 1.921270 0.000000 
#    z 0.004210 0.000000 1.918490 
# 
# From -- ./inp_files/116327.got.cif
#   From: 2010.06.25/outbox.cif.g09.slc.cpg/sg15_59_cif.got.tgz:116327.got - 2010.06.28 07:06:18.
