data_PCOD8139892
_publ_section_title
;
Structure prediction by ZEFSAII (Michael W. Deem and Ramdas Pophale) SiO2 
 PCOD8139892
Probable space group: C 2/C
;
_chemical_formula_sum "Si O2"
_cell_formula_units_Z 60
_cell_length_a 13.162174
_cell_length_b 13.829707
_cell_length_c 16.816024
_cell_angle_alpha 90.000000
_cell_angle_beta 74.398176
_cell_angle_gamma 90.000000
_cell_volume 2948.218455
_symmetry_space_group_name_H-M "C 2/C"
_symmetry_group_IT_number 15
_symmetry_cell_setting 'monoclinic'
loop_
_space_group_symop_operation_xyz
x,y,z
-x,y,1/2-z
-x,-y,-z
x,-y,1/2+z
1/2+x,1/2+y,z
1/2-x,1/2+y,1/2-z
1/2-x,1/2-y,-z
1/2+x,1/2-y,1/2+z
loop_
_atom_site_type_symbol
_atom_site_label
_atom_site_fract_x
_atom_site_fract_y
_atom_site_fract_z
Si Si1 0.215926 0.983755 0.365840
Si Si2 0.500000 0.424015 0.750000
Si Si3 0.796998 0.971268 0.318104
Si Si4 0.654388 0.295737 0.470334
Si Si5 0.301870 0.187142 0.558250
Si Si6 0.403613 0.027580 0.432488
Si Si7 0.941102 0.152690 0.102669
Si Si8 0.115560 0.402013 0.920376
O O1 0.223918 0.962760 0.271138
O O2 0.200291 0.882620 0.410750
O O3 0.327609 0.027960 0.372243
O O4 0.121774 0.056209 0.412314
O O5 0.583908 0.495196 0.690429
O O6 0.551849 0.353779 0.803695
O O7 0.781268 0.869238 0.367299
O O8 0.725947 0.056985 0.367498
O O9 0.750000 0.250000 0.500000
O O10 0.557665 0.338196 0.542002
O O11 0.613480 0.214393 0.417122
O O12 0.250000 0.250000 0.500000
O O13 0.375536 0.108957 0.502584
O O14 0.372537 0.253423 0.599442
O O15 0.523945 0.052972 0.382841
O O16 0.400243 0.927539 0.482414
#
# Coordination Sequence:
#
# PCOD8139892 Si02
#       8
#     8   4   8   8   8   8   8   8
#     4  11  24  41  63  93 134 168 219 260 336 388
#     4  10  24  46  64  90 142 172 214 264 334 382
#     4  10  25  43  63  92 131 175 208 281 320 388
#     4  12  23  38  65  98 123 170 223 272 313 394
#     4  11  22  40  69  94 127 167 223 267 326 388
#     4  10  20  40  62  96 123 166 212 267 321 391
#     4  11  24  42  65  97 129 177 211 273 328 390
#     4  10  21  40  64  90 133 160 217 268 324 374
#
# _framework density 20.351272999999999
#
# number of rings (size 3 to 8) (size 9 to 14) (size 15 to 20)
#    0.000    1.333    4.000    1.200    1.867    5.867 
#    0.000    0.000    0.000    0.000    0.000    0.000 
#    0.000    0.000    0.000    0.000    0.000    0.000 
#
# Total GULP energy -371931.796008 kJ/mol
# GULP energy per Si atom -12397.726534 kJ/mol
# Density = 2.030495 g / cm^3
# Si number density = 20.351273 Si / 1000 Ang^3
#
#
#
# Elastic Constant Matrix: (Units=GPa)
#
#
# Indices 1 2 3 4 5 6 
#
# 1 132.8335 40.3774 40.8915 0.0000 1.8731 0.0000
# 2 40.3774 119.6145 44.4389 0.0000 4.3710 0.0000
# 3 40.8915 44.4389 77.0049 0.0000 2.6918 0.0000
# 4 0.0000 0.0000 0.0000 34.0428 0.0000 3.3274
# 5 1.8731 4.3710 2.6918 0.0000 37.9858 0.0000
# 6 0.0000 0.0000 0.0000 3.3274 0.0000 31.6132
#
#
#
# Elastic Compliance Matrix: (Units=1/GPa)
#
#
# Indices 1 2 3 4 5 6 
#
# 1 0.009249 -0.001652 -0.003959 0.000000 0.000015 0.000000
# 2 -0.001652 0.010961 -0.005420 0.000000 -0.000796 0.000000
# 3 -0.003959 -0.005420 0.018233 0.000000 -0.000473 0.000000
# 4 0.000000 0.000000 0.000000 0.029680 0.000000 -0.003124
# 5 0.000015 -0.000796 -0.000473 0.000000 0.026450 0.000000
# 6 0.000000 0.000000 0.000000 -0.003124 0.000000 0.031961
#
#
# Mechanical properties :
#
#
# Convention : Reuss Voigt Hill
#
# Bulk Modulus (GPa) = 61.04719 64.54094 62.79406
# Shear Modulus (GPa) = 32.45593 34.31137 33.38365
#
# Velocity S-wave (km/s) = 3.99781 4.11049 4.05454
# Velocity P-wave (km/s) = 7.16742 7.36957 7.26919
#
# Compressibility (1/GPa) = 0.01638077
#
# Stress axis : x y z
#
# Youngs Moduli (GPa) = 108.12280 91.23577 54.84620
#
# Poissons Ratio (x) = 0.15071 0.21711
# Poissons Ratio (y) = 0.17861 0.29728
# Poissons Ratio (z) = 0.42801 0.49452
#
# Static dielectric constant tensor:
#      x y z
#    x 3.949240 0.000000 -0.012150 
#    y 0.000000 4.081980 0.000000 
#    z -0.012150 0.000000 3.579510 
# 
# 
# High freq. dielectric constant tensor:
#      x y z
#    x 1.813240 0.000000 0.001470 
#    y 0.000000 1.805090 0.000000 
#    z 0.001470 0.000000 1.773410 
# 
# From -- ./inp_files/197856.got.cif
#   From: 2010.06.25/outbox.cif.g09.slc.cpg/sg15_99_cif.got.tgz:197856.got - 2010.06.28 07:06:18.
