data_PCOD8139690
_publ_section_title
;
Structure prediction by ZEFSAII (Michael W. Deem and Ramdas Pophale) SiO2 
 PCOD8139690
Probable space group: C 2/C
;
_chemical_formula_sum "Si O2"
_cell_formula_units_Z 56
_cell_length_a 9.457496
_cell_length_b 17.450076
_cell_length_c 19.715960
_cell_angle_alpha 90.000000
_cell_angle_beta 54.788871
_cell_angle_gamma 90.000000
_cell_volume 2658.465153
_symmetry_space_group_name_H-M "C 2/C"
_symmetry_group_IT_number 15
_symmetry_cell_setting 'monoclinic'
loop_
_space_group_symop_operation_xyz
x,y,z
-x,y,1/2-z
-x,-y,-z
x,-y,1/2+z
1/2+x,1/2+y,z
1/2-x,1/2+y,1/2-z
1/2-x,1/2-y,-z
1/2+x,1/2-y,1/2+z
loop_
_atom_site_type_symbol
_atom_site_label
_atom_site_fract_x
_atom_site_fract_y
_atom_site_fract_z
Si Si1 0.704255 0.389480 0.705595
Si Si2 0.441531 0.910854 0.514861
Si Si3 0.135886 0.480656 0.259201
Si Si4 0.399610 0.849313 0.387178
Si Si5 0.137933 0.859473 0.349050
Si Si6 0.713237 0.249271 0.802602
Si Si7 0.728530 0.304633 0.068676
O O1 0.500000 0.394786 0.750000
O O2 0.813091 0.375942 0.607194
O O3 0.783920 0.470938 0.703246
O O4 0.740934 0.329970 0.756403
O O5 0.341680 0.889712 0.473025
O O6 0.616218 0.862905 0.466501
O O7 0.500000 0.000000 0.500000
O O8 0.300645 0.447866 0.172242
O O9 0.000000 0.529206 0.250000
O O10 0.023498 0.408567 0.314631
O O11 0.229475 0.825109 0.391316
O O12 0.508380 0.770341 0.365395
O O13 0.191053 0.814437 0.267233
O O14 0.932775 0.857562 0.407533
O O15 0.795228 0.246357 0.855935
O O16 0.750000 0.250000 0.000000
#
# Coordination Sequence:
#
# PCOD8139690 Si02
#       7
#     8   8   8   8   8   8   8
#     4  12  25  39  65  97 129 168 228 267 323 395
#     4  11  24  43  64  94 140 176 211 278 345 388
#     4   9  20  37  60  90 126 165 210 269 319 379
#     4   9  19  42  66  89 129 175 213 265 336 388
#     4  10  20  39  67  93 121 172 224 256 321 396
#     4  10  22  41  63  94 132 170 219 274 323 389
#     4  11  25  42  67  95 131 174 217 276 337 398
#
# _framework density 21.064788
#
# number of rings (size 3 to 8) (size 9 to 14) (size 15 to 20)
#    0.000    1.714    1.429    3.429    2.000    3.429 
#    0.000    4.286    0.000    0.000    0.000    0.000 
#    0.000    0.000    0.000    0.000    0.000    0.000 
#
# Total GULP energy -346910.247541 kJ/mol
# GULP energy per Si atom -12389.651698 kJ/mol
# Density = 2.101684 g / cm^3
# Si number density = 21.064788 Si / 1000 Ang^3
#
#
#
# Elastic Constant Matrix: (Units=GPa)
#
#
# Indices 1 2 3 4 5 6 
#
# 1 138.0233 28.0119 68.3582 0.0000 5.6742 0.0000
# 2 28.0119 60.7734 39.4195 0.0000 7.8919 0.0000
# 3 68.3582 39.4195 123.7807 0.0000 15.1990 0.0000
# 4 0.0000 0.0000 0.0000 29.8092 0.0000 6.5780
# 5 5.6742 7.8919 15.1990 0.0000 40.0762 0.0001
# 6 0.0000 0.0000 0.0000 6.5780 0.0001 24.5168
#
#
#
# Elastic Compliance Matrix: (Units=1/GPa)
#
#
# Indices 1 2 3 4 5 6 
#
# 1 0.010080 -0.001357 -0.005236 0.000000 0.000826 0.000000
# 2 -0.001357 0.021026 -0.005729 0.000000 -0.001776 0.000000
# 3 -0.005236 -0.005729 0.013179 0.000000 -0.003129 0.000000
# 4 0.000000 0.000000 0.000000 0.035658 0.000000 -0.009567
# 5 0.000826 -0.001776 -0.003129 0.000000 0.026372 0.000000
# 6 0.000000 0.000000 0.000000 -0.009567 0.000000 0.043355
#
#
# Mechanical properties :
#
#
# Convention : Reuss Voigt Hill
#
# Bulk Modulus (GPa) = 50.91139 66.01740 58.46439
# Shear Modulus (GPa) = 27.64564 31.33295 29.48929
#
# Velocity S-wave (km/s) = 3.62665 3.86094 3.74563
# Velocity P-wave (km/s) = 6.46206 7.16129 6.82064
#
# Compressibility (1/GPa) = 0.01964197
#
# Stress axis : x y z
#
# Youngs Moduli (GPa) = 99.20910 47.55914 75.87973
#
# Poissons Ratio (x) = 0.06455 0.39729
# Poissons Ratio (y) = 0.13464 0.43468
# Poissons Ratio (z) = 0.51943 0.27245
#
# Static dielectric constant tensor:
#      x y z
#    x 4.148760 0.000000 0.192050 
#    y 0.000000 3.803540 0.000000 
#    z 0.192050 0.000000 4.002910 
# 
# 
# High freq. dielectric constant tensor:
#      x y z
#    x 1.840340 0.000000 0.010000 
#    y 0.000000 1.808630 0.000000 
#    z 0.010000 0.000000 1.823990 
# 
# From -- ./inp_files/232598.got.cif
#   From: 2010.06.25/outbox.cif.g09.slc.cpg/sg15_117_cif.got.tgz:232598.got - 2010.06.28 07:06:18.
