data_PCOD8139589
_publ_section_title
;
Structure prediction by ZEFSAII (Michael W. Deem and Ramdas Pophale) SiO2 
 PCOD8139589
Probable space group: C 2/C
;
_chemical_formula_sum "Si O2"
_cell_formula_units_Z 56
_cell_length_a 18.145502
_cell_length_b 8.000706
_cell_length_c 18.901478
_cell_angle_alpha 90.000000
_cell_angle_beta 116.825900
_cell_angle_gamma 90.000000
_cell_volume 2448.746473
_symmetry_space_group_name_H-M "C 2/C"
_symmetry_group_IT_number 15
_symmetry_cell_setting 'monoclinic'
loop_
_space_group_symop_operation_xyz
x,y,z
-x,y,1/2-z
-x,-y,-z
x,-y,1/2+z
1/2+x,1/2+y,z
1/2-x,1/2+y,1/2-z
1/2-x,1/2-y,-z
1/2+x,1/2-y,1/2+z
loop_
_atom_site_type_symbol
_atom_site_label
_atom_site_fract_x
_atom_site_fract_y
_atom_site_fract_z
Si Si1 0.820632 0.075904 0.600260
Si Si2 0.207375 0.732877 0.838291
Si Si3 0.108721 0.171356 0.560047
Si Si4 0.950718 0.535827 0.549258
Si Si5 0.545795 0.237985 0.694677
Si Si6 0.809149 0.567691 0.071029
Si Si7 0.525494 0.459371 0.415160
O O1 0.799206 0.266299 0.616567
O O2 0.775865 0.040047 0.506657
O O3 0.795300 0.929344 0.642610
O O4 0.918638 0.078766 0.628770
O O5 0.301059 0.672578 0.863384
O O6 0.145028 0.715041 0.745551
O O7 0.170032 0.604803 0.880118
O O8 0.108095 0.308622 0.497865
O O9 0.083177 0.999439 0.509012
O O10 0.037353 0.193176 0.590357
O O11 0.885049 0.396592 0.548147
O O12 0.000000 0.500000 0.500000
O O13 0.011769 0.573216 0.640904
O O14 0.500000 0.266022 0.750000
O O15 0.532977 0.388532 0.634341
#
# Coordination Sequence:
#
# PCOD8139589 Si02
#       7
#     8   8   8   8   8   8   8
#     4  11  21  36  65  99 129 170 235 281 333 414
#     4  12  21  43  66  94 138 178 216 294 351 403
#     4  10  21  38  66  89 129 178 218 270 353 402
#     4  11  22  41  64  96 138 185 228 285 349 424
#     4  11  22  40  70  96 133 182 233 286 361 414
#     4  11  22  36  66 104 129 174 234 283 336 417
#     4  10  20  39  64  96 124 174 225 279 333 424
#
# _framework density 22.868842000000001
#
# number of rings (size 3 to 8) (size 9 to 14) (size 15 to 20)
#    0.000    1.143    5.714    2.143    0.000    0.000 
#    2.571    4.286    0.000    0.000    0.000    0.000 
#    0.000    0.000    0.000    0.000    0.000    0.000 
#
# Total GULP energy -346876.254123 kJ/mol
# GULP energy per Si atom -12388.437647 kJ/mol
# Density = 2.281679 g / cm^3
# Si number density = 22.868842 Si / 1000 Ang^3
#
#
#
# Elastic Constant Matrix: (Units=GPa)
#
#
# Indices 1 2 3 4 5 6 
#
# 1 122.6841 13.8777 36.1140 0.0000 26.2864 0.0000
# 2 13.8777 89.7697 23.6140 0.0000 2.7161 0.0000
# 3 36.1140 23.6140 107.1313 0.0000 31.4994 0.0000
# 4 0.0000 0.0000 0.0000 23.5004 0.0000 -2.6746
# 5 26.2864 2.7161 31.4994 0.0000 42.6121 0.0000
# 6 0.0000 0.0000 0.0000 -2.6746 0.0000 32.1357
#
#
#
# Elastic Compliance Matrix: (Units=1/GPa)
#
#
# Indices 1 2 3 4 5 6 
#
# 1 0.009765 -0.000918 -0.001706 0.000000 -0.004704 0.000000
# 2 -0.000918 0.011987 -0.002906 0.000000 0.001951 0.000000
# 3 -0.001706 -0.002906 0.013015 0.000000 -0.008383 0.000000
# 4 0.000000 0.000000 0.000000 0.042959 0.000000 0.003575
# 5 -0.004704 0.001951 -0.008383 0.000000 0.032442 0.000000
# 6 0.000000 0.000000 0.000000 0.003575 0.000000 0.031416
#
#
# Mechanical properties :
#
#
# Convention : Reuss Voigt Hill
#
# Bulk Modulus (GPa) = 42.18471 51.86628 47.02550
# Shear Modulus (GPa) = 31.14348 36.04826 33.59587
#
# Velocity S-wave (km/s) = 3.69430 3.97458 3.83700
# Velocity P-wave (km/s) = 6.05670 6.61756 6.34333
#
# Compressibility (1/GPa) = 0.02370527
#
# Stress axis : x y z
#
# Youngs Moduli (GPa) = 102.40594 83.42335 76.83496
#
# Poissons Ratio (x) = 0.07662 0.13110
# Poissons Ratio (y) = 0.09405 0.22330
# Poissons Ratio (z) = 0.17473 0.24244
#
# Static dielectric constant tensor:
#      x y z
#    x 4.115210 0.000000 0.298560 
#    y 0.000000 4.288060 0.000000 
#    z 0.298560 0.000000 3.953530 
# 
# 
# High freq. dielectric constant tensor:
#      x y z
#    x 1.900470 0.000000 0.029050 
#    y 0.000000 1.899540 0.000000 
#    z 0.029050 0.000000 1.873870 
# 
# From -- ./inp_files/247575.got.cif
#   From: 2010.06.25/outbox.cif.g09.slc.cpg/sg15_124_cif.got.tgz:247575.got - 2010.06.28 07:06:18.
