data_PCOD8139451
_publ_section_title
;
Structure prediction by ZEFSAII (Michael W. Deem and Ramdas Pophale) SiO2 
 PCOD8139451
Probable space group: C 2/C
;
_chemical_formula_sum "Si O2"
_cell_formula_units_Z 64
_cell_length_a 10.827737
_cell_length_b 21.239712
_cell_length_c 17.804679
_cell_angle_alpha 90.000000
_cell_angle_beta 45.522184
_cell_angle_gamma 90.000000
_cell_volume 2921.646732
_symmetry_space_group_name_H-M "C 2/C"
_symmetry_group_IT_number 15
_symmetry_cell_setting 'monoclinic'
loop_
_space_group_symop_operation_xyz
x,y,z
-x,y,1/2-z
-x,-y,-z
x,-y,1/2+z
1/2+x,1/2+y,z
1/2-x,1/2+y,1/2-z
1/2-x,1/2-y,-z
1/2+x,1/2-y,1/2+z
loop_
_atom_site_type_symbol
_atom_site_label
_atom_site_fract_x
_atom_site_fract_y
_atom_site_fract_z
Si Si1 0.075472 0.812959 0.103680
Si Si2 0.909617 0.735774 0.541141
Si Si3 0.401934 0.034305 0.714271
Si Si4 0.802912 0.408200 0.687636
Si Si5 0.867240 0.292562 0.749384
Si Si6 0.460785 0.577255 0.425987
Si Si7 0.506896 0.439293 0.418179
Si Si8 0.617271 0.881564 0.010843
O O1 0.269103 0.800160 0.049187
O O2 0.934847 0.779116 0.215091
O O3 0.061653 0.887894 0.111042
O O4 0.011175 0.785528 0.050417
O O5 0.827537 0.782328 0.638792
O O6 0.044658 0.688150 0.522934
O O7 0.500000 0.043318 0.750000
O O8 0.207148 0.051702 0.815865
O O9 0.473829 0.080149 0.618610
O O10 0.414401 0.962107 0.681248
O O11 0.873729 0.337484 0.673988
O O12 0.605688 0.409208 0.801309
O O13 0.824625 0.418233 0.589591
O O14 0.000000 0.327257 0.750000
O O15 0.402572 0.503603 0.445629
O O16 0.532051 0.584982 0.480490
O O17 0.294482 0.622192 0.483828
#
# Coordination Sequence:
#
# PCOD8139451 Si02
#       8
#     8   8   8   8   8   8   8   8
#     4  10  20  39  62  91 127 163 216 263 324 388
#     4  10  22  38  64  95 126 166 212 274 325 380
#     4  11  23  41  65  95 129 172 216 270 324 392
#     4  11  23  40  64  96 131 172 218 268 331 392
#     4  10  20  39  63  92 127 170 215 269 318 390
#     4  10  23  41  65  92 132 174 214 271 327 396
#     4  10  21  42  66  91 125 174 219 264 325 396
#     4  12  23  43  64  99 137 164 217 277 333 393
#
# _framework density 21.905455
#
# number of rings (size 3 to 8) (size 9 to 14) (size 15 to 20)
#    0.000    1.500    2.500    2.625    0.000    2.000 
#    0.000    6.250    0.000    0.000    0.000    0.000 
#    0.000    0.000    0.000    0.000    0.000    0.000 
#
# Total GULP energy -396503.491176 kJ/mol
# GULP energy per Si atom -12390.734099 kJ/mol
# Density = 2.185560 g / cm^3
# Si number density = 21.905455 Si / 1000 Ang^3
#
#
#
# Elastic Constant Matrix: (Units=GPa)
#
#
# Indices 1 2 3 4 5 6 
#
# 1 63.9771 22.1984 8.6451 0.0000 1.2937 0.0003
# 2 22.1984 83.3892 -2.1059 0.0000 7.3960 0.0000
# 3 8.6451 -2.1059 103.0595 0.0002 10.9333 0.0000
# 4 0.0000 0.0000 0.0002 23.7280 -0.0001 8.3159
# 5 1.2937 7.3960 10.9333 -0.0001 30.0093 -0.0001
# 6 0.0003 0.0000 0.0000 8.3159 -0.0001 33.5093
#
#
#
# Elastic Compliance Matrix: (Units=1/GPa)
#
#
# Indices 1 2 3 4 5 6 
#
# 1 0.017499 -0.004793 -0.001676 0.000000 0.001037 0.000000
# 2 -0.004793 0.013608 0.001055 0.000000 -0.003531 0.000000
# 3 -0.001676 0.001055 0.010283 0.000000 -0.003934 0.000000
# 4 0.000000 0.000000 0.000000 0.046159 0.000000 -0.011455
# 5 0.001037 -0.003531 -0.003934 0.000000 0.035582 0.000000
# 6 0.000000 0.000000 0.000000 -0.011455 0.000000 0.032685
#
#
# Mechanical properties :
#
#
# Convention : Reuss Voigt Hill
#
# Bulk Modulus (GPa) = 32.72074 34.21122 33.46598
# Shear Modulus (GPa) = 28.27577 32.22854 30.25215
#
# Velocity S-wave (km/s) = 3.59668 3.83986 3.72026
# Velocity P-wave (km/s) = 5.67608 5.94230 5.81071
#
# Compressibility (1/GPa) = 0.03056165
#
# Stress axis : x y z
#
# Youngs Moduli (GPa) = 57.14618 73.48834 97.25165
#
# Poissons Ratio (x) = 0.35220 0.16298
# Poissons Ratio (y) = 0.27388 -0.10257
# Poissons Ratio (z) = 0.09577 -0.07751
#
# Static dielectric constant tensor:
#      x y z
#    x 3.802960 0.000000 0.056130 
#    y 0.000000 3.982500 0.000000 
#    z 0.056130 0.000000 4.150030 
# 
# 
# High freq. dielectric constant tensor:
#      x y z
#    x 1.836440 0.000000 0.006670 
#    y 0.000000 1.859400 0.000000 
#    z 0.006670 0.000000 1.881460 
# 
# From -- ./inp_files/200365.got.cif
#   From: 2010.06.25/outbox.cif.g09.slc.cpg/sg15_101_cif.got.tgz:200365.got - 2010.06.28 07:06:18.
