data_PCOD8139381
_publ_section_title
;
Structure prediction by ZEFSAII (Michael W. Deem and Ramdas Pophale) SiO2 
 PCOD8139381
Probable space group: C 2/C
;
_chemical_formula_sum "Si O2"
_cell_formula_units_Z 52
_cell_length_a 14.821112
_cell_length_b 26.546893
_cell_length_c 5.490028
_cell_angle_alpha 90.000000
_cell_angle_beta 62.868201
_cell_angle_gamma 90.000000
_cell_volume 1922.380967
_symmetry_space_group_name_H-M "C 2/C"
_symmetry_group_IT_number 15
_symmetry_cell_setting 'monoclinic'
loop_
_space_group_symop_operation_xyz
x,y,z
-x,y,1/2-z
-x,-y,-z
x,-y,1/2+z
1/2+x,1/2+y,z
1/2-x,1/2+y,1/2-z
1/2-x,1/2-y,-z
1/2+x,1/2-y,1/2+z
loop_
_atom_site_type_symbol
_atom_site_label
_atom_site_fract_x
_atom_site_fract_y
_atom_site_fract_z
Si Si1 0.112952 0.769103 0.619656
Si Si2 0.000000 0.072500 0.750000
Si Si3 0.884517 0.519834 0.528486
Si Si4 0.299757 0.547602 0.223157
Si Si5 0.877437 0.121215 0.508375
Si Si6 0.183870 0.618645 0.035259
Si Si7 0.384626 0.227509 0.382688
O O1 0.106406 0.829237 0.675723
O O2 0.166055 0.754929 0.291810
O O3 0.000000 0.745975 0.750000
O O4 0.166890 0.743425 0.791292
O O5 0.102533 0.039022 0.579128
O O6 0.020275 0.107850 0.962572
O O7 0.937675 0.504633 0.202914
O O8 0.765006 0.502705 0.633415
O O9 0.880978 0.580402 0.558919
O O10 0.345585 0.570714 0.410140
O O11 0.213614 0.586988 0.238742
O O12 0.788715 0.137798 0.797348
O O13 0.117477 0.667711 0.166325
O O14 0.500000 0.246396 0.250000
#
# Coordination Sequence:
#
# PCOD8139381 Si02
#       7
#     8   4   8   8   8   8   8
#     4  10  23  39  63  89 128 164 206 253 316 366
#     4  10  22  36  60  90 126 170 212 250 302 368
#     4  10  20  39  61  86 119 162 205 249 312 364
#     4  10  21  38  60  90 125 167 209 256 308 368
#     4  11  22  38  62  90 127 168 211 258 305 365
#     4  10  23  39  64  89 123 164 210 260 314 366
#     4  10  24  43  63  93 124 164 206 261 316 377
#
# _framework density 27.049792
#
# number of rings (size 3 to 8) (size 9 to 14) (size 15 to 20)
#    0.000    1.846    1.538    1.385    9.692    1.231 
#    0.000    6.923    0.000    3.692    0.000    0.000 
#    0.000    0.000    0.000    0.000    0.000    0.000 
#
# Total GULP energy -322259.096712 kJ/mol
# GULP energy per Si atom -12394.580643 kJ/mol
# Density = 2.698823 g / cm^3
# Si number density = 27.049792 Si / 1000 Ang^3
#
#
#
# Elastic Constant Matrix: (Units=GPa)
#
#
# Indices 1 2 3 4 5 6 
#
# 1 106.8559 20.7584 30.9509 0.0000 19.0422 0.0000
# 2 20.7584 128.4400 39.7460 0.0000 3.5176 0.0000
# 3 30.9509 39.7460 139.5225 0.0000 31.6677 0.0000
# 4 0.0000 0.0000 0.0000 37.7475 0.0000 -3.5059
# 5 19.0422 3.5176 31.6677 0.0000 24.6782 0.0000
# 6 0.0000 0.0000 0.0000 -3.5059 0.0000 32.1203
#
#
#
# Elastic Compliance Matrix: (Units=1/GPa)
#
#
# Indices 1 2 3 4 5 6 
#
# 1 0.011162 -0.001521 -0.000194 0.000000 -0.008148 0.000000
# 2 -0.001521 0.008874 -0.003061 0.000000 0.003837 0.000000
# 3 -0.000194 -0.003061 0.011216 0.000000 -0.013807 0.000000
# 4 0.000000 0.000000 0.000000 0.026763 0.000000 0.002921
# 5 -0.008148 0.003837 -0.013807 0.000000 0.063979 0.000000
# 6 0.000000 0.000000 0.000000 0.002921 0.000000 0.031452
#
#
# Mechanical properties :
#
#
# Convention : Reuss Voigt Hill
#
# Bulk Modulus (GPa) = 46.08291 61.96989 54.02640
# Shear Modulus (GPa) = 29.37183 37.80009 33.58596
#
# Velocity S-wave (km/s) = 3.29879 3.74227 3.52751
# Velocity P-wave (km/s) = 5.61984 6.45229 6.05040
#
# Compressibility (1/GPa) = 0.02170002
#
# Stress axis : x y z
#
# Youngs Moduli (GPa) = 89.59087 112.69090 89.15669
#
# Poissons Ratio (x) = 0.17140 0.01726
# Poissons Ratio (y) = 0.13626 0.27295
# Poissons Ratio (z) = 0.01734 0.34500
#
# Static dielectric constant tensor:
#      x y z
#    x 4.893580 0.000000 0.143640 
#    y 0.000000 4.549390 0.000000 
#    z 0.143640 0.000000 5.383540 
# 
# 
# High freq. dielectric constant tensor:
#      x y z
#    x 2.107540 0.000000 -0.003020 
#    y 0.000000 2.065950 0.000000 
#    z -0.003020 0.000000 2.103460 
# 
# From -- ./inp_files/11328.got.cif
#   From: 2010.06.25/outbox.cif.g09.slc.cpg/sg15_6_cif.got.tgz:11328.got - 2010.06.28 07:06:18.
