data_PCOD8139502
_publ_section_title
;
Structure prediction by ZEFSAII (Michael W. Deem and Ramdas Pophale) SiO2 
 PCOD8139502
Probable space group: C 2/C
;
_chemical_formula_sum "Si O2"
_cell_formula_units_Z 48
_cell_length_a 30.322791
_cell_length_b 9.274004
_cell_length_c 17.141125
_cell_angle_alpha 90.000000
_cell_angle_beta 29.566663
_cell_angle_gamma 90.000000
_cell_volume 2378.518291
_symmetry_space_group_name_H-M "C 2/C"
_symmetry_group_IT_number 15
_symmetry_cell_setting 'monoclinic'
loop_
_space_group_symop_operation_xyz
x,y,z
-x,y,1/2-z
-x,-y,-z
x,-y,1/2+z
1/2+x,1/2+y,z
1/2-x,1/2+y,1/2-z
1/2-x,1/2-y,-z
1/2+x,1/2-y,1/2+z
loop_
_atom_site_type_symbol
_atom_site_label
_atom_site_fract_x
_atom_site_fract_y
_atom_site_fract_z
Si Si1 0.583939 0.004780 0.813502
Si Si2 0.150760 0.236085 0.119069
Si Si3 0.504827 0.525298 0.334519
Si Si4 0.157378 0.783554 0.427095
Si Si5 0.991204 0.703073 0.356362
Si Si6 0.324947 0.022432 0.675574
O O1 0.578482 0.868430 0.763095
O O2 0.585771 0.145824 0.757079
O O3 0.670136 0.007848 0.737475
O O4 0.500000 0.000000 0.000000
O O5 0.103124 0.081717 0.210386
O O6 0.250000 0.250000 0.000000
O O7 0.149338 0.261420 0.029248
O O8 0.500000 0.508940 0.250000
O O9 0.430928 0.642661 0.473302
O O10 0.485621 0.366345 0.398454
O O11 0.234310 0.898973 0.293422
O O12 0.178435 0.638865 0.349528
O O13 0.904995 0.613628 0.515038
O O14 0.000000 0.696930 0.250000
#
# Coordination Sequence:
#
# PCOD8139502 Si02
#       6
#     8   8   8   8   8   8
#     4  10  21  38  60  90 125 159 205 261 314 375
#     4  11  21  41  65  89 124 166 210 258 321 386
#     4   9  20  37  62  87 115 160 205 252 306 380
#     4  11  22  40  64  89 125 169 214 257 323 382
#     4  10  20  39  63  89 124 162 209 260 323 380
#     4  11  22  38  59  90 123 163 207 268 316 380
#
# _framework density 20.180630000000001
#
# number of rings (size 3 to 8) (size 9 to 14) (size 15 to 20)
#    0.000    1.667    1.667    4.000    0.000    1.333 
#    3.000    5.000    0.000    0.000    0.000    0.000 
#    0.000    0.000    0.000    0.000    0.000    0.000 
#
# Total GULP energy -297471.908055 kJ/mol
# GULP energy per Si atom -12394.662836 kJ/mol
# Density = 2.013470 g / cm^3
# Si number density = 20.180630 Si / 1000 Ang^3
#
#
#
# Elastic Constant Matrix: (Units=GPa)
#
#
# Indices 1 2 3 4 5 6 
#
# 1 87.1595 56.1896 27.8757 0.0000 -6.9001 0.0000
# 2 56.1896 170.0209 46.7372 -0.0003 -5.1072 0.0001
# 3 27.8757 46.7372 72.9921 -0.0001 -10.1600 0.0000
# 4 0.0000 -0.0003 -0.0001 38.6428 0.0000 -0.9281
# 5 -6.9001 -5.1072 -10.1600 0.0000 38.3037 0.0000
# 6 0.0000 0.0001 0.0000 -0.9281 0.0000 19.5221
#
#
#
# Elastic Compliance Matrix: (Units=1/GPa)
#
#
# Indices 1 2 3 4 5 6 
#
# 1 0.015219 -0.004179 -0.002941 0.000000 0.001404 0.000000
# 2 -0.004179 0.008288 -0.003802 0.000000 -0.000656 0.000000
# 3 -0.002941 -0.003802 0.017770 0.000000 0.003677 0.000000
# 4 0.000000 0.000000 0.000000 0.025908 0.000000 0.001232
# 5 0.001404 -0.000656 0.003677 0.000000 0.027248 0.000000
# 6 0.000000 0.000000 0.000000 0.001232 0.000000 0.051283
#
#
# Mechanical properties :
#
#
# Convention : Reuss Voigt Hill
#
# Bulk Modulus (GPa) = 51.46030 65.75304 58.60667
# Shear Modulus (GPa) = 28.72951 32.58506 30.65728
#
# Velocity S-wave (km/s) = 3.77718 4.02265 3.90185
# Velocity P-wave (km/s) = 6.67667 7.36401 7.02875
#
# Compressibility (1/GPa) = 0.01943246
#
# Stress axis : x y z
#
# Youngs Moduli (GPa) = 65.70692 120.65210 56.27580
#
# Poissons Ratio (x) = 0.50422 0.16549
# Poissons Ratio (y) = 0.27460 0.21398
# Poissons Ratio (z) = 0.19323 0.45876
#
# Static dielectric constant tensor:
#      x y z
#    x 4.078380 0.000000 -0.145940 
#    y 0.000000 3.971280 0.000000 
#    z -0.145940 0.000000 3.660610 
# 
# 
# High freq. dielectric constant tensor:
#      x y z
#    x 1.787790 0.000000 -0.002740 
#    y 0.000000 1.799810 0.000000 
#    z -0.002740 0.000000 1.781050 
# 
# From -- ./inp_files/208967.got.cif
#   From: 2010.06.25/outbox.cif.g09.slc.cpg/sg15_105_cif.got.tgz:208967.got - 2010.06.28 07:06:18.
