data_PCOD8139933
_publ_section_title
;
Structure prediction by ZEFSAII (Michael W. Deem and Ramdas Pophale) SiO2 
 PCOD8139933
Probable space group: C 2/C
;
_chemical_formula_sum "Si O2"
_cell_formula_units_Z 44
_cell_length_a 18.253001
_cell_length_b 7.652758
_cell_length_c 16.935721
_cell_angle_alpha 90.000000
_cell_angle_beta 126.076491
_cell_angle_gamma 90.000000
_cell_volume 1912.017037
_symmetry_space_group_name_H-M "C 2/C"
_symmetry_group_IT_number 15
_symmetry_cell_setting 'monoclinic'
loop_
_space_group_symop_operation_xyz
x,y,z
-x,y,1/2-z
-x,-y,-z
x,-y,1/2+z
1/2+x,1/2+y,z
1/2-x,1/2+y,1/2-z
1/2-x,1/2-y,-z
1/2+x,1/2-y,1/2+z
loop_
_atom_site_type_symbol
_atom_site_label
_atom_site_fract_x
_atom_site_fract_y
_atom_site_fract_z
Si Si1 0.264074 0.245813 0.205345
Si Si2 0.587769 0.162260 0.082389
Si Si3 0.744831 0.057708 0.082211
Si Si4 0.558541 0.794956 0.121521
Si Si5 0.500000 0.145074 0.750000
Si Si6 0.307043 0.058312 0.621211
O O1 0.339913 0.274105 0.321289
O O2 0.286888 0.397380 0.157645
O O3 0.163645 0.247224 0.177989
O O4 0.270846 0.054254 0.171225
O O5 0.640523 0.080090 0.040902
O O6 0.547949 0.006585 0.110765
O O7 0.506223 0.278429 0.991156
O O8 0.799355 0.235045 0.134860
O O9 0.749733 0.009322 0.992840
O O10 0.522100 0.737425 0.185275
O O11 0.413769 0.021089 0.677821
#
# Coordination Sequence:
#
# PCOD8139933 Si02
#       6
#     8   8   8   8   4   8
#     4  11  23  42  70 100 130 180 232 283 342 412
#     4  10  20  40  63  99 132 180 226 283 341 417
#     4  10  23  42  64  94 137 172 229 284 340 408
#     4  10  22  39  68  98 139 180 230 281 350 415
#     4  12  20  42  66  98 134 184 226 280 344 414
#     4  11  23  42  69  94 131 183 224 279 350 409
#
# _framework density 23.012347999999999
#
# number of rings (size 3 to 8) (size 9 to 14) (size 15 to 20)
#    0.000    1.455    3.636    1.636    2.545    0.000 
#    0.000    5.455    0.000    0.000    0.000    0.000 
#    0.000    0.000    0.000    0.000    0.000    0.000 
#
# Total GULP energy -272603.267045 kJ/mol
# GULP energy per Si atom -12391.057593 kJ/mol
# Density = 2.295997 g / cm^3
# Si number density = 23.012348 Si / 1000 Ang^3
#
#
#
# Elastic Constant Matrix: (Units=GPa)
#
#
# Indices 1 2 3 4 5 6 
#
# 1 114.4594 35.0198 65.8386 0.0000 0.7094 0.0000
# 2 35.0198 69.4507 52.5371 0.0000 1.0606 0.0000
# 3 65.8386 52.5371 216.5598 0.0000 5.6613 0.0000
# 4 0.0000 0.0000 0.0000 19.4118 0.0000 -0.4670
# 5 0.7094 1.0606 5.6613 0.0000 38.3128 0.0000
# 6 0.0000 0.0000 0.0000 -0.4670 0.0000 30.5527
#
#
#
# Elastic Compliance Matrix: (Units=1/GPa)
#
#
# Indices 1 2 3 4 5 6 
#
# 1 0.011361 -0.003815 -0.002536 0.000000 0.000270 0.000000
# 2 -0.003815 0.018917 -0.003431 0.000000 0.000054 0.000000
# 3 -0.002536 -0.003431 0.006241 0.000000 -0.000780 0.000000
# 4 0.000000 0.000000 0.000000 0.051534 0.000000 0.000788
# 5 0.000270 0.000054 -0.000780 0.000000 0.026210 0.000000
# 6 0.000000 0.000000 0.000000 0.000788 0.000000 0.032742
#
#
# Mechanical properties :
#
#
# Convention : Reuss Voigt Hill
#
# Bulk Modulus (GPa) = 58.97394 78.58455 68.77925
# Shear Modulus (GPa) = 29.03284 34.12709 31.57997
#
# Velocity S-wave (km/s) = 3.55578 3.85514 3.70848
# Velocity P-wave (km/s) = 6.52233 7.35113 6.94910
#
# Compressibility (1/GPa) = 0.01695664
#
# Stress axis : x y z
#
# Youngs Moduli (GPa) = 88.02353 52.86342 160.22494
#
# Poissons Ratio (x) = 0.20165 0.40625
# Poissons Ratio (y) = 0.33577 0.54971
# Poissons Ratio (z) = 0.22318 0.18137
#
# Static dielectric constant tensor:
#      x y z
#    x 4.205570 0.000000 -0.067700 
#    y 0.000000 3.735980 0.000000 
#    z -0.067700 0.000000 4.552330 
# 
# 
# High freq. dielectric constant tensor:
#      x y z
#    x 1.910030 0.000000 -0.004910 
#    y 0.000000 1.852810 0.000000 
#    z -0.004910 0.000000 1.943200 
# 
# From -- ./inp_files/176432.got.cif
#   From: 2010.06.25/outbox.cif.g09.slc.cpg/sg15_89_cif.got.tgz:176432.got - 2010.06.28 07:06:18.
