data_PCOD8139924
_publ_section_title
;
Structure prediction by ZEFSAII (Michael W. Deem and Ramdas Pophale) SiO2 
 PCOD8139924
Probable space group: C 2/C
;
_chemical_formula_sum "Si O2"
_cell_formula_units_Z 56
_cell_length_a 19.628748
_cell_length_b 19.965524
_cell_length_c 16.870363
_cell_angle_alpha 90.000000
_cell_angle_beta 158.397605
_cell_angle_gamma 90.000000
_cell_volume 2434.099754
_symmetry_space_group_name_H-M "C 2/C"
_symmetry_group_IT_number 15
_symmetry_cell_setting 'monoclinic'
loop_
_space_group_symop_operation_xyz
x,y,z
-x,y,1/2-z
-x,-y,-z
x,-y,1/2+z
1/2+x,1/2+y,z
1/2-x,1/2+y,1/2-z
1/2-x,1/2-y,-z
1/2+x,1/2-y,1/2+z
loop_
_atom_site_type_symbol
_atom_site_label
_atom_site_fract_x
_atom_site_fract_y
_atom_site_fract_z
Si Si1 0.836753 0.423517 0.176317
Si Si2 0.271878 0.437212 0.899467
Si Si3 0.027466 0.125524 0.459359
Si Si4 0.817837 0.177649 0.098648
Si Si5 0.203674 0.535706 0.149597
Si Si6 0.834585 0.901126 0.233257
Si Si7 0.213293 0.827900 0.467617
O O1 0.768206 0.499423 0.086054
O O2 0.048788 0.422987 0.434469
O O3 0.707733 0.388427 0.102376
O O4 0.828773 0.379825 0.086038
O O5 0.164948 0.451797 0.701175
O O6 0.490415 0.434259 0.121017
O O7 0.194377 0.369247 0.858978
O O8 0.095728 0.149103 0.620445
O O9 0.880330 0.177202 0.259059
O O10 0.909916 0.058057 0.347468
O O11 0.000000 0.156305 0.250000
O O12 0.750000 0.250000 0.000000
O O13 0.197234 0.456742 0.122020
O O14 0.720763 0.858801 0.045105
O O15 0.250000 0.750000 0.500000
O O16 0.000000 0.839635 0.250000
#
# Coordination Sequence:
#
# PCOD8139924 Si02
#       7
#     8   8   8   8   8   8   8
#     4  11  22  38  65  97 124 164 209 267 334 380
#     4  10  20  40  63  93 130 165 209 271 326 379
#     4  10  21  41  62  91 127 162 207 265 322 382
#     4  10  25  43  61  88 132 170 215 270 321 393
#     4  11  21  37  69  97 126 158 211 269 318 392
#     4  10  20  40  67  92 128 168 212 267 331 386
#     4  10  24  43  62  90 134 176 216 266 326 392
#
# _framework density 23.006451999999999
#
# number of rings (size 3 to 8) (size 9 to 14) (size 15 to 20)
#    0.000    1.714    2.857    1.286    4.000    2.857 
#    2.571    2.857    0.000    0.000    0.000    0.000 
#    0.000    0.000    0.000    0.000    0.000    0.000 
#
# Total GULP energy -346920.393248 kJ/mol
# GULP energy per Si atom -12390.014045 kJ/mol
# Density = 2.295409 g / cm^3
# Si number density = 23.006452 Si / 1000 Ang^3
#
#
#
# Elastic Constant Matrix: (Units=GPa)
#
#
# Indices 1 2 3 4 5 6 
#
# 1 106.1860 53.1730 44.4766 0.0000 -34.9467 0.0000
# 2 53.1730 137.9923 34.1450 -0.0002 -37.0975 -0.0001
# 3 44.4766 34.1450 80.8465 0.0003 -24.0299 0.0005
# 4 0.0000 -0.0002 0.0003 33.9144 0.0002 -7.3224
# 5 -34.9467 -37.0975 -24.0299 0.0002 42.2153 0.0002
# 6 0.0000 -0.0001 0.0005 -7.3224 0.0002 31.7958
#
#
#
# Elastic Compliance Matrix: (Units=1/GPa)
#
#
# Indices 1 2 3 4 5 6 
#
# 1 0.015334 -0.002638 -0.005101 0.000000 0.007472 0.000000
# 2 -0.002638 0.010175 -0.001008 0.000000 0.006184 0.000000
# 3 -0.005101 -0.001008 0.016950 0.000000 0.004540 0.000000
# 4 0.000000 0.000000 0.000000 0.031029 0.000000 0.007146
# 5 0.007472 0.006184 0.004540 0.000000 0.037893 0.000000
# 6 0.000000 0.000000 0.000000 0.007146 0.000000 0.033096
#
#
# Mechanical properties :
#
#
# Convention : Reuss Voigt Hill
#
# Bulk Modulus (GPa) = 40.05389 65.40155 52.72772
# Shear Modulus (GPa) = 29.36116 34.46711 31.91414
#
# Velocity S-wave (km/s) = 3.57629 3.87479 3.72853
# Velocity P-wave (km/s) = 5.87374 6.96476 6.44239
#
# Compressibility (1/GPa) = 0.02496637
#
# Stress axis : x y z
#
# Youngs Moduli (GPa) = 65.21464 98.27826 58.99535
#
# Poissons Ratio (x) = 0.25923 0.30092
# Poissons Ratio (y) = 0.17202 0.05948
# Poissons Ratio (z) = 0.33264 0.09909
#
# Static dielectric constant tensor:
#      x y z
#    x 3.683940 0.000000 -0.096830 
#    y 0.000000 3.527620 0.000000 
#    z -0.096830 0.000000 4.267470 
# 
# 
# High freq. dielectric constant tensor:
#      x y z
#    x 1.914670 0.000000 -0.003120 
#    y 0.000000 1.873290 0.000000 
#    z -0.003120 0.000000 1.914220 
# 
# From -- ./inp_files/216673.got.cif
#   From: 2010.06.25/outbox.cif.g09.slc.cpg/sg15_109_cif.got.tgz:216673.got - 2010.06.28 07:06:18.
