data_PCOD8139100
_publ_section_title
;
Structure prediction by ZEFSAII (Michael W. Deem and Ramdas Pophale) SiO2 
 PCOD8139100
Probable space group: C 2/C
;
_chemical_formula_sum "Si O2"
_cell_formula_units_Z 44
_cell_length_a 11.449480
_cell_length_b 17.801799
_cell_length_c 12.043486
_cell_angle_alpha 90.000000
_cell_angle_beta 134.144075
_cell_angle_gamma 90.000000
_cell_volume 1761.483993
_symmetry_space_group_name_H-M "C 2/C"
_symmetry_group_IT_number 15
_symmetry_cell_setting 'monoclinic'
loop_
_space_group_symop_operation_xyz
x,y,z
-x,y,1/2-z
-x,-y,-z
x,-y,1/2+z
1/2+x,1/2+y,z
1/2-x,1/2+y,1/2-z
1/2-x,1/2-y,-z
1/2+x,1/2-y,1/2+z
loop_
_atom_site_type_symbol
_atom_site_label
_atom_site_fract_x
_atom_site_fract_y
_atom_site_fract_z
Si Si1 0.129429 0.601780 0.930181
Si Si2 0.068047 0.602872 0.136754
Si Si3 0.748846 0.454743 0.547387
Si Si4 0.546386 0.737312 0.397984
Si Si5 0.500000 0.630887 0.750000
Si Si6 0.687154 0.273130 0.209062
O O1 0.273363 0.543822 0.994746
O O2 0.000000 0.584727 0.750000
O O3 0.174821 0.691617 0.960510
O O4 0.063080 0.576297 0.006114
O O5 0.213988 0.559181 0.297930
O O6 0.112198 0.690747 0.171680
O O7 0.895401 0.584514 0.076532
O O8 0.579623 0.417792 0.400214
O O9 0.500000 0.694983 0.250000
O O10 0.616667 0.688781 0.546927
O O11 0.381741 0.776666 0.333170
O O12 0.361119 0.680583 0.715056
#
# Coordination Sequence:
#
# PCOD8139100 Si02
#       6
#     8   8   8   8   4   8
#     4  10  20  38  65  87 115 160 212 249 293 363
#     4  10  21  37  65  90 117 163 210 247 307 368
#     4  11  22  37  61  90 124 166 201 257 299 370
#     4  10  22  40  68  89 121 163 208 255 304 366
#     4  12  24  38  60  96 136 156 202 252 326 362
#     4  11  22  39  62  95 126 161 198 258 311 369
#
# _framework density 24.978937999999999
#
# number of rings (size 3 to 8) (size 9 to 14) (size 15 to 20)
#    0.000    1.455    1.818    5.455    0.000    2.182 
#    0.000    0.909   24.000    0.000    0.000    0.000 
#    0.000    0.000    0.000    0.000    0.000    0.000 
#
# Total GULP energy -272638.359222 kJ/mol
# GULP energy per Si atom -12392.652692 kJ/mol
# Density = 2.492208 g / cm^3
# Si number density = 24.978938 Si / 1000 Ang^3
#
#
#
# Elastic Constant Matrix: (Units=GPa)
#
#
# Indices 1 2 3 4 5 6 
#
# 1 39.9251 6.1210 18.8084 0.0001 -28.4292 0.0000
# 2 6.1210 96.0740 10.3052 0.0000 -7.9004 0.0000
# 3 18.8084 10.3052 145.9556 0.0001 -31.1617 0.0000
# 4 0.0001 0.0000 0.0001 -30.3790 0.0001 -1.6430
# 5 -28.4292 -7.9004 -31.1617 0.0001 40.0050 0.0000
# 6 0.0000 0.0000 0.0000 -1.6430 0.0000 17.8414
#
#
#
# Elastic Compliance Matrix: (Units=1/GPa)
#
#
# Indices 1 2 3 4 5 6 
#
# 1 0.050951 -0.000335 0.001408 0.000000 0.037239 0.000000
# 2 -0.000335 0.010599 -0.000371 0.000000 0.001566 0.000000
# 3 0.001408 -0.000371 0.008269 0.000000 0.007369 0.000000
# 4 0.000000 0.000000 0.000000 -0.032754 0.000000 -0.003016
# 5 0.037239 0.001566 0.007369 0.000000 0.057510 0.000000
# 6 0.000000 0.000000 0.000000 -0.003016 0.000000 0.055772
#
#
# Mechanical properties :
#
#
# Convention : Reuss Voigt Hill
#
# Bulk Modulus (GPa) = 14.04006 39.15821 26.59914
# Shear Modulus (GPa) = 28.95478 21.94147 25.44812
#
# Velocity S-wave (km/s) = 3.40835 2.96699 3.19530
# Velocity P-wave (km/s) = 4.59588 5.23908 4.92798
#
# Compressibility (1/GPa) = 0.07122475
#
# Stress axis : x y z
#
# Youngs Moduli (GPa) = 19.62651 94.35252 120.92805
#
# Poissons Ratio (x) = 0.03161 -0.17032
# Poissons Ratio (y) = 0.00658 0.04484
# Poissons Ratio (z) = -0.02764 0.03498
#
# Static dielectric constant tensor:
#      x y z
#    x 4.496970 0.000000 -0.327230 
#    y 0.000000 4.475240 0.000000 
#    z -0.327230 0.000000 4.930790 
# 
# 
# High freq. dielectric constant tensor:
#      x y z
#    x 1.988220 0.000000 -0.018200 
#    y 0.000000 1.975780 0.000000 
#    z -0.018200 0.000000 2.017740 
# 
# From -- ./inp_files/89217.got.cif
#   From: 2010.06.25/outbox.cif.g09.slc.cpg/sg15_45_cif.got.tgz:89217.got - 2010.06.28 07:06:18.
