data_PCOD8139961
_publ_section_title
;
Structure prediction by ZEFSAII (Michael W. Deem and Ramdas Pophale) SiO2 
 PCOD8139961
Probable space group: C 2/C
;
_chemical_formula_sum "Si O2"
_cell_formula_units_Z 52
_cell_length_a 25.785822
_cell_length_b 11.420774
_cell_length_c 12.804606
_cell_angle_alpha 90.000000
_cell_angle_beta 40.931361
_cell_angle_gamma 90.000000
_cell_volume 2470.508897
_symmetry_space_group_name_H-M "C 2/C"
_symmetry_group_IT_number 15
_symmetry_cell_setting 'monoclinic'
loop_
_space_group_symop_operation_xyz
x,y,z
-x,y,1/2-z
-x,-y,-z
x,-y,1/2+z
1/2+x,1/2+y,z
1/2-x,1/2+y,1/2-z
1/2-x,1/2-y,-z
1/2+x,1/2-y,1/2+z
loop_
_atom_site_type_symbol
_atom_site_label
_atom_site_fract_x
_atom_site_fract_y
_atom_site_fract_z
Si Si1 0.132142 0.655737 0.857807
Si Si2 0.220880 0.880097 0.783426
Si Si3 0.000000 0.322928 0.250000
Si Si4 0.000392 0.191183 0.043242
Si Si5 0.382331 0.513339 0.707331
Si Si6 0.231762 0.519412 0.077164
Si Si7 0.137263 0.488178 0.038205
O O1 0.186740 0.751229 0.829459
O O2 0.049524 0.710440 0.943293
O O3 0.188105 0.599079 0.683939
O O4 0.108618 0.562340 0.982374
O O5 0.153772 0.975153 0.850924
O O6 0.293564 0.896440 0.594565
O O7 0.254094 0.893214 0.849462
O O8 0.970597 0.244388 0.391292
O O9 0.068286 0.407752 0.187784
O O10 0.947808 0.078012 0.146296
O O11 0.078608 0.143588 0.862248
O O12 0.317474 0.501812 0.896164
O O13 0.171298 0.570336 0.080738
#
# Coordination Sequence:
#
# PCOD8139961 Si02
#       7
#     8   8   4   8   8   8   8
#     4  10  21  42  62  89 129 163 210 262 310 374
#     4   9  21  38  66  91 121 162 209 266 311 362
#     4  12  24  38  64  88 120 180 202 248 324 380
#     4  10  22  39  61  94 128 164 206 258 320 374
#     4   9  21  39  62  98 126 155 211 263 314 377
#     4  10  20  40  64  89 125 163 208 267 305 379
#     4  10  23  39  60  93 120 165 217 248 308 388
#
# _framework density 21.048295
#
# number of rings (size 3 to 8) (size 9 to 14) (size 15 to 20)
#    0.000    2.154    1.538    0.000    4.308    5.538 
#    2.769    0.000    0.000    0.000    0.000    0.000 
#    0.000    0.000    0.000    0.000    0.000    0.000 
#
# Total GULP energy -322182.917751 kJ/mol
# GULP energy per Si atom -12391.650683 kJ/mol
# Density = 2.100039 g / cm^3
# Si number density = 21.048295 Si / 1000 Ang^3
#
#
#
# Elastic Constant Matrix: (Units=GPa)
#
#
# Indices 1 2 3 4 5 6 
#
# 1 103.8125 28.0968 43.4037 0.0000 8.1027 0.0000
# 2 28.0968 77.2284 41.3710 0.0000 -3.0494 0.0000
# 3 43.4037 41.3710 101.5431 0.0000 -0.3041 0.0000
# 4 0.0000 0.0000 0.0000 30.8811 0.0000 -10.5920
# 5 8.1027 -3.0494 -0.3041 0.0000 33.0635 0.0000
# 6 0.0000 0.0000 0.0000 -10.5920 0.0000 32.1178
#
#
#
# Elastic Compliance Matrix: (Units=1/GPa)
#
#
# Indices 1 2 3 4 5 6 
#
# 1 0.012324 -0.002284 -0.004347 0.000000 -0.003271 0.000000
# 2 -0.002284 0.017058 -0.005967 0.000000 0.002078 0.000000
# 3 -0.004347 -0.005967 0.014139 0.000000 0.000645 0.000000
# 4 0.000000 0.000000 0.000000 0.036512 0.000000 0.012041
# 5 -0.003271 0.002078 0.000645 0.000000 0.031244 0.000000
# 6 0.000000 0.000000 0.000000 0.012041 0.000000 0.035106
#
#
# Mechanical properties :
#
#
# Convention : Reuss Voigt Hill
#
# Bulk Modulus (GPa) = 54.57160 56.48079 55.52620
# Shear Modulus (GPa) = 28.13908 30.52664 29.33286
#
# Velocity S-wave (km/s) = 3.66031 3.81243 3.73714
# Velocity P-wave (km/s) = 6.62170 6.80233 6.71262
#
# Compressibility (1/GPa) = 0.01832455
#
# Stress axis : x y z
#
# Youngs Moduli (GPa) = 81.14493 58.62221 70.72503
#
# Poissons Ratio (x) = 0.13390 0.30743
# Poissons Ratio (y) = 0.18534 0.42205
# Poissons Ratio (z) = 0.35272 0.34983
#
# Static dielectric constant tensor:
#      x y z
#    x 4.091070 0.000000 -0.011290 
#    y 0.000000 3.608410 0.000000 
#    z -0.011290 0.000000 3.786790 
# 
# 
# High freq. dielectric constant tensor:
#      x y z
#    x 1.842810 0.000000 -0.003110 
#    y 0.000000 1.805190 0.000000 
#    z -0.003110 0.000000 1.817720 
# 
# From -- ./inp_files/117942.got.cif
#   From: 2010.06.25/outbox.cif.g09.slc.cpg/sg15_59_cif.got.tgz:117942.got - 2010.06.28 07:06:18.
