data_PCOD8139058
_publ_section_title
;
Structure prediction by ZEFSAII (Michael W. Deem and Ramdas Pophale) SiO2 
 PCOD8139058
Probable space group: C 2/C
;
_chemical_formula_sum "Si O2"
_cell_formula_units_Z 40
_cell_length_a 4.963038
_cell_length_b 28.901867
_cell_length_c 13.569240
_cell_angle_alpha 90.000000
_cell_angle_beta 73.673406
_cell_angle_gamma 90.000000
_cell_volume 1867.898038
_symmetry_space_group_name_H-M "C 2/C"
_symmetry_group_IT_number 15
_symmetry_cell_setting 'monoclinic'
loop_
_space_group_symop_operation_xyz
x,y,z
-x,y,1/2-z
-x,-y,-z
x,-y,1/2+z
1/2+x,1/2+y,z
1/2-x,1/2+y,1/2-z
1/2-x,1/2-y,-z
1/2+x,1/2-y,1/2+z
loop_
_atom_site_type_symbol
_atom_site_label
_atom_site_fract_x
_atom_site_fract_y
_atom_site_fract_z
Si Si1 0.181064 0.567009 0.316795
Si Si2 0.000000 0.206431 0.250000
Si Si3 0.240942 0.646275 0.449027
Si Si4 0.000000 0.520001 0.750000
Si Si5 0.000000 0.230700 0.750000
Si Si6 0.000000 0.918839 0.250000
Si Si7 0.150273 0.843917 0.084177
O O1 0.500000 0.562902 0.250000
O O2 0.157775 0.594534 0.421652
O O3 0.000000 0.593719 0.250000
O O4 0.047456 0.514790 0.339516
O O5 0.154823 0.174859 0.154984
O O6 0.223749 0.238310 0.282068
O O7 0.482330 0.642336 0.504412
O O8 0.966629 0.670367 0.523230
O O9 0.276553 0.551269 0.710622
O O10 0.001023 0.199267 0.847899
O O11 0.830455 0.887529 0.344730
#
# Coordination Sequence:
#
# PCOD8139058 Si02
#       7
#     8   4   8   4   4   4   8
#     4  10  20  38  64  91 130 165 202 268 316 365
#     4  12  26  40  74  93 130 161 220 254 338 374
#     4  12  24  42  67 101 121 177 204 268 318 391
#     4  10  20  38  70  89 128 171 216 262 318 360
#     4  11  26  47  62  99 126 175 204 277 304 381
#     4  11  22  45  64  91 124 189 206 261 314 379
#     4  11  26  43  67  89 138 164 223 252 322 379
#
# _framework density 21.414446000000002
#
# number of rings (size 3 to 8) (size 9 to 14) (size 15 to 20)
#    0.600    0.400    2.000    4.800    1.400    8.000 
#    0.000    6.000    0.000    0.000    0.000    0.000 
#    0.000    0.000    0.000    0.000    0.000    0.000 
#
# Total GULP energy -247971.004709 kJ/mol
# GULP energy per Si atom -12398.550235 kJ/mol
# Density = 2.136571 g / cm^3
# Si number density = 21.414446 Si / 1000 Ang^3
#
#
#
# Elastic Constant Matrix: (Units=GPa)
#
#
# Indices 1 2 3 4 5 6 
#
# 1 131.2264 36.5654 30.4371 0.0000 2.1760 0.0000
# 2 36.5654 110.3536 42.9016 0.0000 -2.1938 0.0000
# 3 30.4371 42.9016 98.9421 0.0000 -3.1666 0.0000
# 4 0.0000 0.0000 0.0000 3.3144 0.0000 7.0527
# 5 2.1760 -2.1938 -3.1666 0.0000 41.8807 0.0000
# 6 0.0000 0.0000 0.0000 7.0527 0.0000 34.7658
#
#
#
# Elastic Compliance Matrix: (Units=1/GPa)
#
#
# Indices 1 2 3 4 5 6 
#
# 1 0.008647 -0.002209 -0.001725 0.000000 -0.000695 0.000000
# 2 -0.002209 0.011465 -0.004279 0.000000 0.000392 0.000000
# 3 -0.001725 -0.004279 0.012519 0.000000 0.000812 0.000000
# 4 0.000000 0.000000 0.000000 0.530878 0.000000 -0.107696
# 5 -0.000695 0.000392 0.000812 0.000000 0.023995 0.000000
# 6 0.000000 0.000000 0.000000 -0.107696 0.000000 0.050611
#
#
# Mechanical properties :
#
#
# Convention : Reuss Voigt Hill
#
# Bulk Modulus (GPa) = 61.70514 62.25892 61.98203
# Shear Modulus (GPa) = 7.57640 31.36672 19.47156
#
# Velocity S-wave (km/s) = 1.88299 3.83135 3.01869
# Velocity P-wave (km/s) = 5.79697 6.97917 6.41536
#
# Compressibility (1/GPa) = 0.01620611
#
# Stress axis : x y z
#
# Youngs Moduli (GPa) = 115.64163 87.22183 79.87846
#
# Poissons Ratio (x) = 0.19264 0.13777
# Poissons Ratio (y) = 0.25540 0.34182
# Poissons Ratio (z) = 0.19945 0.37325
#
# Static dielectric constant tensor:
#      x y z
#    x 4.018790 0.000000 0.066580 
#    y 0.000000 4.023910 0.000000 
#    z 0.066580 0.000000 3.683910 
# 
# 
# High freq. dielectric constant tensor:
#      x y z
#    x 1.861360 0.000000 0.009300 
#    y 0.000000 1.844760 0.000000 
#    z 0.009300 0.000000 1.818730 
# 
# From -- ./inp_files/73665.got.cif
#   From: 2010.06.25/outbox.cif.g09.slc.cpg/sg15_37_cif.got.tgz:73665.got - 2010.06.28 07:06:18.
