data_PCOD8139225
_publ_section_title
;
Structure prediction by ZEFSAII (Michael W. Deem and Ramdas Pophale) SiO2 
 PCOD8139225
Probable space group: C 2/C
;
_chemical_formula_sum "Si O2"
_cell_formula_units_Z 20
_cell_length_a 9.961856
_cell_length_b 8.263729
_cell_length_c 11.971005
_cell_angle_alpha 90.000000
_cell_angle_beta 40.544622
_cell_angle_gamma 90.000000
_cell_volume 640.600182
_symmetry_space_group_name_H-M "C 2/C"
_symmetry_group_IT_number 15
_symmetry_cell_setting 'monoclinic'
loop_
_space_group_symop_operation_xyz
x,y,z
-x,y,1/2-z
-x,-y,-z
x,-y,1/2+z
1/2+x,1/2+y,z
1/2-x,1/2+y,1/2-z
1/2-x,1/2-y,-z
1/2+x,1/2-y,1/2+z
loop_
_atom_site_type_symbol
_atom_site_label
_atom_site_fract_x
_atom_site_fract_y
_atom_site_fract_z
Si Si1 0.000000 0.003355 0.250000
Si Si2 0.441384 0.881707 0.407685
Si Si3 0.965861 0.738503 0.427606
O O1 0.095675 0.884955 0.288359
O O2 0.808366 0.107973 0.419992
O O3 0.500000 0.810911 0.250000
O O4 0.533869 0.748874 0.437370
O O5 0.553171 0.057169 0.349160
O O6 0.750000 0.750000 0.500000
#
# Coordination Sequence:
#
# PCOD8139225 Si02
#       3
#     4   8   8
#     4  10  20  40  70 102 136 186 232 290 352 416
#     4  10  20  38  68 102 140 185 237 287 347 428
#     4   9  19  38  67 102 144 186 227 291 359 412
#
# _framework density 31.220721000000001
#
# number of rings (size 3 to 8) (size 9 to 14) (size 15 to 20)
#    0.000    2.400    2.000    0.000    0.000    0.000 
#    0.000   26.000    0.000   33.600    0.000    8.400 
#    0.000    0.000    0.000    0.000    0.000    0.000 
#
# Total GULP energy -123906.231752 kJ/mol
# GULP energy per Si atom -12390.623175 kJ/mol
# Density = 3.114966 g / cm^3
# Si number density = 31.220721 Si / 1000 Ang^3
#
#
#
# Elastic Constant Matrix: (Units=GPa)
#
#
# Indices 1 2 3 4 5 6 
#
# 1 200.2204 63.9592 122.4911 -0.0001 52.1502 0.0000
# 2 63.9592 152.5998 100.9939 0.0000 6.7890 0.0000
# 3 122.4911 100.9939 250.7178 -0.0001 53.7972 0.0001
# 4 -0.0001 0.0000 -0.0001 62.9708 0.0001 -10.9519
# 5 52.1502 6.7890 53.7972 0.0001 84.9606 -0.0001
# 6 0.0000 0.0000 0.0001 -10.9519 -0.0001 44.2163
#
#
#
# Elastic Compliance Matrix: (Units=1/GPa)
#
#
# Indices 1 2 3 4 5 6 
#
# 1 0.007835 -0.001429 -0.002598 0.000000 -0.003050 0.000000
# 2 -0.001429 0.009443 -0.003625 0.000000 0.002418 0.000000
# 3 -0.002598 -0.003625 0.007306 0.000000 -0.002742 0.000000
# 4 0.000000 0.000000 0.000000 0.016595 0.000000 0.004110
# 5 -0.003050 0.002418 -0.002742 0.000000 0.015185 0.000000
# 6 0.000000 0.000000 0.000000 0.004110 0.000000 0.023634
#
#
# Mechanical properties :
#
#
# Convention : Reuss Voigt Hill
#
# Bulk Modulus (GPa) = 107.73849 130.93627 119.33738
# Shear Modulus (GPa) = 50.81576 59.50248 55.15912
#
# Velocity S-wave (km/s) = 4.03877 4.37036 4.20783
# Velocity P-wave (km/s) = 7.50549 8.21563 7.86858
#
# Compressibility (1/GPa) = 0.00928173
#
# Stress axis : x y z
#
# Youngs Moduli (GPa) = 127.64023 105.89616 136.87196
#
# Poissons Ratio (x) = 0.15131 0.35555
# Poissons Ratio (y) = 0.18237 0.49610
# Poissons Ratio (z) = 0.33157 0.38383
#
# Static dielectric constant tensor:
#      x y z
#    x 5.845420 0.000000 0.688970 
#    y 0.000000 7.007920 0.000000 
#    z 0.688970 0.000000 6.723930 
# 
# 
# High freq. dielectric constant tensor:
#      x y z
#    x 2.280880 0.000000 0.009570 
#    y 0.000000 2.321770 0.000000 
#    z 0.009570 0.000000 2.284610 
# 
# From -- ./inp_files/74604.got.cif
#   From: 2010.06.25/outbox.cif.g09.slc.cpg/sg15_38_cif.got.tgz:74604.got - 2010.06.28 07:06:18.
