data_PCOD8139760
_publ_section_title
;
Structure prediction by ZEFSAII (Michael W. Deem and Ramdas Pophale) SiO2 
 PCOD8139760
Probable space group: C 2/C
;
_chemical_formula_sum "Si O2"
_cell_formula_units_Z 40
_cell_length_a 8.422814
_cell_length_b 12.437307
_cell_length_c 18.893278
_cell_angle_alpha 90.000000
_cell_angle_beta 63.222193
_cell_angle_gamma 90.000000
_cell_volume 1766.956245
_symmetry_space_group_name_H-M "C 2/C"
_symmetry_group_IT_number 15
_symmetry_cell_setting 'monoclinic'
loop_
_space_group_symop_operation_xyz
x,y,z
-x,y,1/2-z
-x,-y,-z
x,-y,1/2+z
1/2+x,1/2+y,z
1/2-x,1/2+y,1/2-z
1/2-x,1/2-y,-z
1/2+x,1/2-y,1/2+z
loop_
_atom_site_type_symbol
_atom_site_label
_atom_site_fract_x
_atom_site_fract_y
_atom_site_fract_z
Si Si1 0.713074 0.418752 0.610619
Si Si2 0.799630 0.046669 0.544809
Si Si3 0.053674 0.296760 0.161506
Si Si4 0.263503 0.156134 0.602677
Si Si5 0.577436 0.149614 0.084949
O O1 0.768818 0.413762 0.517454
O O2 0.556780 0.333546 0.656484
O O3 0.660293 0.542936 0.635660
O O4 0.871673 0.380432 0.629524
O O5 0.749754 0.149720 0.604401
O O6 0.684416 0.948806 0.597756
O O7 0.000000 0.000000 0.500000
O O8 0.000000 0.334858 0.250000
O O9 0.903589 0.333642 0.137255
O O10 0.366828 0.165239 0.507741
O O11 0.113052 0.248153 0.628703
#
# Coordination Sequence:
#
# PCOD8139760 Si02
#       5
#     8   8   8   8   8
#     4  11  22  42  68  96 130 173 230 278 326 406
#     4  11  22  41  72 104 130 181 234 283 337 406
#     4  12  26  45  63  97 147 179 219 284 352 414
#     4  10  21  42  64  98 135 167 218 285 333 396
#     4  10  20  39  73 100 124 166 234 285 326 384
#
# _framework density 22.637799000000001
#
# number of rings (size 3 to 8) (size 9 to 14) (size 15 to 20)
#    0.000    1.200    4.000    3.000    8.400    0.000 
#    7.200    1.000    0.000    0.000    0.000    0.000 
#    0.000    0.000    0.000    0.000    0.000    0.000 
#
# Total GULP energy -247823.649724 kJ/mol
# GULP energy per Si atom -12391.182486 kJ/mol
# Density = 2.258627 g / cm^3
# Si number density = 22.637799 Si / 1000 Ang^3
#
#
#
# Elastic Constant Matrix: (Units=GPa)
#
#
# Indices 1 2 3 4 5 6 
#
# 1 76.8740 51.4427 27.3937 0.0000 11.7070 0.0000
# 2 51.4427 161.7531 47.1160 0.0000 7.6814 0.0000
# 3 27.3937 47.1160 63.5278 0.0000 10.0643 0.0000
# 4 0.0000 0.0000 0.0000 12.1728 0.0000 4.4569
# 5 11.7070 7.6814 10.0643 0.0000 20.3306 0.0000
# 6 0.0000 0.0000 0.0000 4.4569 0.0000 48.2406
#
#
#
# Elastic Compliance Matrix: (Units=1/GPa)
#
#
# Indices 1 2 3 4 5 6 
#
# 1 0.018326 -0.004486 -0.003442 0.000000 -0.007154 0.000000
# 2 -0.004486 0.008984 -0.004992 0.000000 0.001660 0.000000
# 3 -0.003442 -0.004992 0.022043 0.000000 -0.007044 0.000000
# 4 0.000000 0.000000 0.000000 0.085027 0.000000 -0.007856
# 5 -0.007154 0.001660 -0.007044 0.000000 0.056166 0.000000
# 6 0.000000 0.000000 0.000000 -0.007856 0.000000 0.021455
#
#
# Mechanical properties :
#
#
# Convention : Reuss Voigt Hill
#
# Bulk Modulus (GPa) = 42.52703 61.56219 52.04461
# Shear Modulus (GPa) = 20.35169 27.89562 24.12366
#
# Velocity S-wave (km/s) = 3.00161 3.51416 3.26795
# Velocity P-wave (km/s) = 5.55333 6.61205 6.10568
#
# Compressibility (1/GPa) = 0.02351446
#
# Stress axis : x y z
#
# Youngs Moduli (GPa) = 54.56654 111.30725 45.36487
#
# Poissons Ratio (x) = 0.49933 0.15614
# Poissons Ratio (y) = 0.24479 0.22645
# Poissons Ratio (z) = 0.18782 0.55562
#
# Static dielectric constant tensor:
#      x y z
#    x 3.975950 0.000000 0.256640 
#    y 0.000000 4.625350 0.000000 
#    z 0.256640 0.000000 3.576280 
# 
# 
# High freq. dielectric constant tensor:
#      x y z
#    x 1.886730 0.000000 0.023740 
#    y 0.000000 1.919120 0.000000 
#    z 0.023740 0.000000 1.839470 
# 
# From -- ./inp_files/187834.got.cif
#   From: 2010.06.25/outbox.cif.g09.slc.cpg/sg15_94_cif.got.tgz:187834.got - 2010.06.28 07:06:18.
