data_PCOD8139139
_publ_section_title
;
Structure prediction by ZEFSAII (Michael W. Deem and Ramdas Pophale) SiO2 
 PCOD8139139
Probable space group: C 2/C
;
_chemical_formula_sum "Si O2"
_cell_formula_units_Z 64
_cell_length_a 20.542874
_cell_length_b 22.987214
_cell_length_c 17.269536
_cell_angle_alpha 90.000000
_cell_angle_beta 19.961680
_cell_angle_gamma 90.000000
_cell_volume 2784.075636
_symmetry_space_group_name_H-M "C 2/C"
_symmetry_group_IT_number 15
_symmetry_cell_setting 'monoclinic'
loop_
_space_group_symop_operation_xyz
x,y,z
-x,y,1/2-z
-x,-y,-z
x,-y,1/2+z
1/2+x,1/2+y,z
1/2-x,1/2+y,1/2-z
1/2-x,1/2-y,-z
1/2+x,1/2-y,1/2+z
loop_
_atom_site_type_symbol
_atom_site_label
_atom_site_fract_x
_atom_site_fract_y
_atom_site_fract_z
Si Si1 0.009160 0.303241 0.557705
Si Si2 0.101948 0.821694 0.948391
Si Si3 0.991026 0.584798 0.351823
Si Si4 0.678989 0.819474 0.212043
Si Si5 0.413633 0.425735 0.426093
Si Si6 0.104613 0.395369 0.059432
Si Si7 0.349529 0.498274 0.237765
Si Si8 0.412082 0.691461 0.216148
O O1 0.825342 0.318370 0.713433
O O2 0.037264 0.346600 0.598621
O O3 0.001679 0.236469 0.595580
O O4 0.178600 0.311111 0.305997
O O5 0.069961 0.827571 0.893386
O O6 0.023732 0.878316 0.079670
O O7 0.000000 0.574983 0.250000
O O8 0.819242 0.549168 0.583309
O O9 0.187935 0.563000 0.171024
O O10 0.553200 0.874107 0.325614
O O11 0.604404 0.760664 0.254775
O O12 0.901963 0.829526 0.944008
O O13 0.500000 0.401885 0.250000
O O14 0.523683 0.484714 0.327569
O O15 0.000000 0.425143 0.250000
O O16 0.247972 0.439626 0.857894
O O17 0.226414 0.341147 0.957655
O O18 0.500000 0.500000 0.000000
#
# Coordination Sequence:
#
# PCOD8139139 Si02
#       8
#     8   8   8   8   8   8   8   8
#     4  10  21  36  69 103 146 186 231 285 342 421
#     4  10  20  38  66 109 140 184 239 281 337 426
#     4  11  25  46  70 105 146 186 228 296 360 416
#     4  11  22  42  72 105 144 191 233 286 357 428
#     4  11  25  45  74 101 144 191 230 288 366 418
#     4  12  28  48  69 106 142 179 245 303 356 436
#     4  12  29  50  75  98 136 189 247 300 352 428
#     4  11  21  43  71 101 147 187 229 288 356 424
#
# _framework density 22.987881999999999
#
# number of rings (size 3 to 8) (size 9 to 14) (size 15 to 20)
#    0.000    1.000    3.750    3.375    7.000    3.000 
#    0.000    2.500    0.000    0.000    0.000    0.000 
#    0.000    0.000    0.000    0.000    0.000    0.000 
#
# Total GULP energy -396796.305354 kJ/mol
# GULP energy per Si atom -12399.884542 kJ/mol
# Density = 2.293556 g / cm^3
# Si number density = 22.987882 Si / 1000 Ang^3
#
#
#
# Elastic Constant Matrix: (Units=GPa)
#
#
# Indices 1 2 3 4 5 6 
#
# 1 64.6003 41.7407 41.2890 0.0116 -14.3148 -0.0216
# 2 41.7407 100.6032 43.1301 0.2284 -5.6979 -0.0231
# 3 41.2890 43.1301 134.3307 0.1971 -11.1412 -0.0276
# 4 0.0116 0.2284 0.1971 38.7219 -0.0454 -3.1751
# 5 -14.3148 -5.6979 -11.1412 -0.0454 46.9728 0.0097
# 6 -0.0216 -0.0231 -0.0276 -3.1751 0.0097 28.4046
#
#
#
# Elastic Compliance Matrix: (Units=1/GPa)
#
#
# Indices 1 2 3 4 5 6 
#
# 1 0.024815 -0.008013 -0.004599 0.000071 0.005500 0.000014
# 2 -0.008013 0.014127 -0.002176 -0.000072 -0.001244 -0.000004
# 3 -0.004599 -0.002176 0.009607 -0.000034 0.000613 0.000000
# 4 0.000071 -0.000072 -0.000034 0.026065 0.000029 0.002914
# 5 0.005500 -0.001244 0.000613 0.000029 0.022959 -0.000001
# 6 0.000014 -0.000004 0.000000 0.002914 -0.000001 0.035531
#
#
# Mechanical properties :
#
#
# Convention : Reuss Voigt Hill
#
# Bulk Modulus (GPa) = 52.70259 61.31709 57.00984
# Shear Modulus (GPa) = 29.58481 34.37816 31.98149
#
# Velocity S-wave (km/s) = 3.59133 3.87135 3.73397
# Velocity P-wave (km/s) = 6.33821 6.83482 6.59119
#
# Compressibility (1/GPa) = 0.01897440
#
# Stress axis : x y z
#
# Youngs Moduli (GPa) = 40.29780 70.78492 104.08684
#
# Poissons Ratio (x) = 0.56721 0.47865
# Poissons Ratio (y) = 0.32291 0.22650
# Poissons Ratio (z) = 0.18531 0.15403
#
# Static dielectric constant tensor:
#      x y z
#    x 3.939040 -0.000140 -0.167200 
#    y -0.000140 4.222920 0.001590 
#    z -0.167200 0.001590 4.379180 
# 
# 
# High freq. dielectric constant tensor:
#      x y z
#    x 1.895390 -0.000050 -0.016530 
#    y -0.000050 1.898700 0.000100 
#    z -0.016530 0.000100 1.925360 
# 
# From -- ./inp_files/216958.got.cif
#   From: 2010.06.25/outbox.cif.g09.slc.cpg/sg15_109_cif.got.tgz:216958.got - 2010.06.28 07:06:18.
