data_PCOD8139024
_publ_section_title
;
Structure prediction by ZEFSAII (Michael W. Deem and Ramdas Pophale) SiO2 
 PCOD8139024
Probable space group: C 2/C
;
_chemical_formula_sum "Si O2"
_cell_formula_units_Z 40
_cell_length_a 12.166780
_cell_length_b 25.390972
_cell_length_c 8.848055
_cell_angle_alpha 90.000000
_cell_angle_beta 131.854605
_cell_angle_gamma 90.000000
_cell_volume 2035.944984
_symmetry_space_group_name_H-M "C 2/C"
_symmetry_group_IT_number 15
_symmetry_cell_setting 'monoclinic'
loop_
_space_group_symop_operation_xyz
x,y,z
-x,y,1/2-z
-x,-y,-z
x,-y,1/2+z
1/2+x,1/2+y,z
1/2-x,1/2+y,1/2-z
1/2-x,1/2-y,-z
1/2+x,1/2-y,1/2+z
loop_
_atom_site_type_symbol
_atom_site_label
_atom_site_fract_x
_atom_site_fract_y
_atom_site_fract_z
Si Si1 0.000000 0.516401 0.250000
Si Si2 0.000000 0.130729 0.250000
Si Si3 0.490656 0.104044 0.486815
Si Si4 0.041194 0.715823 0.127177
Si Si5 0.172224 0.226303 0.278752
Si Si6 0.207473 0.579479 0.933053
O O1 0.149683 0.481128 0.382057
O O2 0.002098 0.550850 0.402118
O O3 0.095221 0.169299 0.230050
O O4 0.117882 0.089907 0.432704
O O5 0.491828 0.154176 0.380278
O O6 0.631726 0.108996 0.724486
O O7 0.342605 0.104781 0.453209
O O8 0.213184 0.723627 0.253248
O O9 0.000000 0.743436 0.250000
O O10 0.955423 0.735855 0.900137
O O11 0.250000 0.250000 0.500000
#
# Coordination Sequence:
#
# PCOD8139024 Si02
#       6
#     4   4   8   8   8   8
#     4  10  20  42  63  92 120 159 214 260 312 374
#     4  12  22  38  63  96 124 157 216 254 306 364
#     4  10  20  38  64  88 115 164 211 253 306 379
#     4  12  24  40  63  92 129 165 208 261 324 366
#     4  12  24  41  64  91 127 172 213 256 306 385
#     4  10  21  36  64  87 120 157 209 259 304 365
#
# _framework density 19.646896000000002
#
# number of rings (size 3 to 8) (size 9 to 14) (size 15 to 20)
#    0.000    1.200    5.000    4.200    2.800    0.000 
#    0.000    4.000    0.000    0.000    0.000    0.000 
#    0.000    0.000    0.000    0.000    0.000    0.000 
#
# Total GULP energy -247775.968707 kJ/mol
# GULP energy per Si atom -12388.798435 kJ/mol
# Density = 1.960218 g / cm^3
# Si number density = 19.646896 Si / 1000 Ang^3
#
#
#
# Elastic Constant Matrix: (Units=GPa)
#
#
# Indices 1 2 3 4 5 6 
#
# 1 119.8141 23.0038 49.6948 0.0000 14.9059 0.0000
# 2 23.0038 90.0084 30.7277 0.0000 15.2076 0.0000
# 3 49.6948 30.7277 74.9482 0.0000 8.7606 0.0000
# 4 0.0000 0.0000 0.0000 15.4373 0.0000 7.0363
# 5 14.9059 15.2076 8.7606 0.0000 39.0431 0.0000
# 6 0.0000 0.0000 0.0000 7.0363 0.0000 10.8413
#
#
#
# Elastic Compliance Matrix: (Units=1/GPa)
#
#
# Indices 1 2 3 4 5 6 
#
# 1 0.011808 0.000024 -0.007508 0.000000 -0.002833 0.000000
# 2 0.000024 0.013539 -0.005082 0.000000 -0.004142 0.000000
# 3 -0.007508 -0.005082 0.020373 0.000000 0.000275 0.000000
# 4 0.000000 0.000000 0.000000 0.091991 0.000000 -0.059705
# 5 -0.002833 -0.004142 0.000275 0.000000 0.028246 0.000000
# 6 0.000000 0.000000 0.000000 -0.059705 0.000000 0.130990
#
#
# Mechanical properties :
#
#
# Convention : Reuss Voigt Hill
#
# Bulk Modulus (GPa) = 48.57620 54.62479 51.60050
# Shear Modulus (GPa) = 15.20023 25.15397 20.17710
#
# Velocity S-wave (km/s) = 2.78451 3.58201 3.20814
# Velocity P-wave (km/s) = 5.92590 6.70607 6.32802
#
# Compressibility (1/GPa) = 0.02058621
#
# Stress axis : x y z
#
# Youngs Moduli (GPa) = 84.68662 73.86125 49.08574
#
# Poissons Ratio (x) = -0.00177 0.36855
# Poissons Ratio (y) = -0.00203 0.24948
# Poissons Ratio (z) = 0.63585 0.37540
#
# Static dielectric constant tensor:
#      x y z
#    x 3.663840 0.000000 0.059270 
#    y 0.000000 3.555050 0.000000 
#    z 0.059270 0.000000 3.529420 
# 
# 
# High freq. dielectric constant tensor:
#      x y z
#    x 1.764330 0.000000 -0.002400 
#    y 0.000000 1.764660 0.000000 
#    z -0.002400 0.000000 1.760110 
# 
# From -- ./inp_files/33346.got.cif
#   From: 2010.06.25/outbox.cif.g09.slc.cpg/sg15_17_cif.got.tgz:33346.got - 2010.06.28 07:06:18.
