data_PCOD8139837
_publ_section_title
;
Structure prediction by ZEFSAII (Michael W. Deem and Ramdas Pophale) SiO2 
 PCOD8139837
Probable space group: C 2/C
;
_chemical_formula_sum "Si O2"
_cell_formula_units_Z 52
_cell_length_a 8.488473
_cell_length_b 22.009801
_cell_length_c 19.726858
_cell_angle_alpha 90.000000
_cell_angle_beta 133.563467
_cell_angle_gamma 90.000000
_cell_volume 2670.599641
_symmetry_space_group_name_H-M "C 2/C"
_symmetry_group_IT_number 15
_symmetry_cell_setting 'monoclinic'
loop_
_space_group_symop_operation_xyz
x,y,z
-x,y,1/2-z
-x,-y,-z
x,-y,1/2+z
1/2+x,1/2+y,z
1/2-x,1/2+y,1/2-z
1/2-x,1/2-y,-z
1/2+x,1/2-y,1/2+z
loop_
_atom_site_type_symbol
_atom_site_label
_atom_site_fract_x
_atom_site_fract_y
_atom_site_fract_z
Si Si1 0.353203 0.311014 0.557226
Si Si2 0.244906 0.629788 0.162076
Si Si3 0.186870 0.726079 0.251218
Si Si4 0.336284 0.101297 0.602727
Si Si5 0.000000 0.068467 0.750000
Si Si6 0.773604 0.142580 0.782368
Si Si7 0.060700 0.501767 0.095975
O O1 0.250000 0.250000 0.500000
O O2 0.224256 0.336677 0.583893
O O3 0.599648 0.293765 0.645241
O O4 0.335976 0.363818 0.495601
O O5 0.500000 0.615088 0.250000
O O6 0.132991 0.672146 0.184531
O O7 0.088892 0.571914 0.123113
O O8 0.209153 0.784694 0.208226
O O9 0.000000 0.737873 0.250000
O O10 0.571322 0.133032 0.671079
O O11 0.251861 0.106751 0.654559
O O12 0.374366 0.031816 0.586749
O O13 0.016911 0.112092 0.689490
O O14 0.207216 0.027232 0.821754
O O15 0.000000 0.500000 0.000000
#
# Coordination Sequence:
#
# PCOD8139837 Si02
#       7
#     8   8   8   8   4   8   8
#     4  11  20  37  64  92 119 160 212 253 304 380
#     4  10  22  40  63  86 126 168 199 249 319 376
#     4  11  23  40  60  88 129 162 201 263 317 367
#     4  10  21  36  62  93 116 158 204 252 301 373
#     4  10  22  40  64  88 124 162 202 262 308 364
#     4  10  20  40  61  90 122 156 201 251 319 359
#     4  11  21  41  64  87 121 161 211 250 308 376
#
# _framework density 19.471284000000001
#
# number of rings (size 3 to 8) (size 9 to 14) (size 15 to 20)
#    0.000    1.538    4.615    0.923    4.308    0.000 
#    8.308    2.308    0.000    0.000    0.000    0.000 
#    0.000    0.000    0.000    0.000    0.000    0.000 
#
# Total GULP energy -322219.391495 kJ/mol
# GULP energy per Si atom -12393.053519 kJ/mol
# Density = 1.942697 g / cm^3
# Si number density = 19.471284 Si / 1000 Ang^3
#
#
#
# Elastic Constant Matrix: (Units=GPa)
#
#
# Indices 1 2 3 4 5 6 
#
# 1 99.0350 55.2115 30.6241 0.0000 -23.2296 0.0000
# 2 55.2115 159.2330 52.4879 0.0000 -17.2659 0.0000
# 3 30.6241 52.4879 92.7523 0.0000 -23.6277 0.0000
# 4 0.0000 0.0000 0.0000 28.3641 0.0000 -11.6663
# 5 -23.2296 -17.2659 -23.6277 0.0000 23.0589 0.0000
# 6 0.0000 0.0000 0.0000 -11.6663 0.0000 29.1716
#
#
#
# Elastic Compliance Matrix: (Units=1/GPa)
#
#
# Indices 1 2 3 4 5 6 
#
# 1 0.015202 -0.004060 0.000548 0.000000 0.012836 0.000000
# 2 -0.004060 0.008858 -0.004093 0.000000 -0.001651 0.000000
# 3 0.000548 -0.004093 0.016613 0.000000 0.014510 0.000000
# 4 0.000000 0.000000 0.000000 0.042197 0.000000 0.016875
# 5 0.012836 -0.001651 0.014510 0.000000 0.069930 0.000000
# 6 0.000000 0.000000 0.000000 0.016875 0.000000 0.041029
#
#
# Mechanical properties :
#
#
# Convention : Reuss Voigt Hill
#
# Bulk Modulus (GPa) = 39.27154 69.74080 54.50617
# Shear Modulus (GPa) = 22.98579 30.29871 26.64225
#
# Velocity S-wave (km/s) = 3.43956 3.94899 3.70305
# Velocity P-wave (km/s) = 5.99891 7.52912 6.80715
#
# Compressibility (1/GPa) = 0.02546373
#
# Stress axis : x y z
#
# Youngs Moduli (GPa) = 65.77979 112.89387 60.19454
#
# Poissons Ratio (x) = 0.45834 -0.03299
# Poissons Ratio (y) = 0.26706 0.24636
# Poissons Ratio (z) = -0.03605 0.46205
#
# Static dielectric constant tensor:
#      x y z
#    x 3.454510 0.000000 0.012090 
#    y 0.000000 3.833390 0.000000 
#    z 0.012090 0.000000 2.635450 
# 
# 
# High freq. dielectric constant tensor:
#      x y z
#    x 1.742110 0.000000 -0.011800 
#    y 0.000000 1.771580 0.000000 
#    z -0.011800 0.000000 1.760320 
# 
# From -- ./inp_files/136002.got.cif
#   From: 2010.06.25/outbox.cif.g09.slc.cpg/sg15_69_cif.got.tgz:136002.got - 2010.06.28 07:06:18.
