data_PCOD8139297
_publ_section_title
;
Structure prediction by ZEFSAII (Michael W. Deem and Ramdas Pophale) SiO2 
 PCOD8139297
Probable space group: C 2/C
;
_chemical_formula_sum "Si O2"
_cell_formula_units_Z 64
_cell_length_a 18.315405
_cell_length_b 20.923516
_cell_length_c 9.484175
_cell_angle_alpha 90.000000
_cell_angle_beta 93.855328
_cell_angle_gamma 90.000000
_cell_volume 3626.325893
_symmetry_space_group_name_H-M "C 2/C"
_symmetry_group_IT_number 15
_symmetry_cell_setting 'monoclinic'
loop_
_space_group_symop_operation_xyz
x,y,z
-x,y,1/2-z
-x,-y,-z
x,-y,1/2+z
1/2+x,1/2+y,z
1/2-x,1/2+y,1/2-z
1/2-x,1/2-y,-z
1/2+x,1/2-y,1/2+z
loop_
_atom_site_type_symbol
_atom_site_label
_atom_site_fract_x
_atom_site_fract_y
_atom_site_fract_z
Si Si1 0.918510 0.093757 0.729111
Si Si2 0.803833 0.064237 0.500523
Si Si3 0.172987 0.852653 0.758956
Si Si4 0.699880 0.421003 0.056625
Si Si5 0.939687 0.761428 0.137690
Si Si6 0.426721 0.766408 0.321198
Si Si7 0.215238 0.735401 0.343702
Si Si8 0.786828 0.643759 0.794001
O O1 0.871712 0.052892 0.613645
O O2 0.876589 0.088788 0.871664
O O3 0.923513 0.165524 0.671988
O O4 0.000000 0.064280 0.750000
O O5 0.839690 0.096293 0.366672
O O6 0.737829 0.104923 0.566943
O O7 0.775807 0.993975 0.461824
O O8 0.111359 0.796693 0.751185
O O9 0.251359 0.823526 0.733207
O O10 0.182838 0.885414 0.909541
O O11 0.772365 0.396929 0.150614
O O12 0.868977 0.718292 0.154897
O O13 0.000000 0.732736 0.250000
O O14 0.959021 0.753023 0.977185
O O15 0.500000 0.787695 0.250000
O O16 0.368975 0.826251 0.317450
O O17 0.250000 0.750000 0.500000
O O18 0.228307 0.800000 0.258557
#
# Coordination Sequence:
#
# PCOD8139297 Si02
#       8
#     8   8   8   8   8   8   8   8
#     4  10  21  37  52  73 118 158 186 226 275 329
#     4  11  19  40  59  76 114 156 198 228 281 339
#     4  11  21  33  58  84 109 144 200 237 280 342
#     4  11  24  34  56  87 110 149 197 248 266 322
#     4  11  20  34  56  81 113 156 185 220 286 352
#     4  11  23  36  59  87 114 148 182 242 298 340
#     4  11  16  36  60  76 107 156 187 229 297 342
#     4  10  20  39  58  79 116 145 190 237 296 338
#
# _framework density 17.648717999999999
#
# number of rings (size 3 to 8) (size 9 to 14) (size 15 to 20)
#    0.000    1.250    7.500    1.500    3.500    3.500 
#    0.000    1.250    0.000    0.750    0.000    1.750 
#    0.000    0.000    0.000    0.000    0.000    0.000 
#
# Total GULP energy -396452.516659 kJ/mol
# GULP energy per Si atom -12389.141146 kJ/mol
# Density = 1.760855 g / cm^3
# Si number density = 17.648718 Si / 1000 Ang^3
#
#
#
# Elastic Constant Matrix: (Units=GPa)
#
#
# Indices 1 2 3 4 5 6 
#
# 1 107.9704 30.2013 41.7371 0.0000 -0.2904 0.0000
# 2 30.2013 79.9882 39.4935 0.0000 0.2375 0.0000
# 3 41.7371 39.4935 118.0836 0.0000 -2.5914 0.0000
# 4 0.0000 0.0000 0.0000 24.2008 0.0000 6.6338
# 5 -0.2904 0.2375 -2.5914 0.0000 27.9709 0.0000
# 6 0.0000 0.0000 0.0000 6.6338 0.0000 12.8223
#
#
#
# Elastic Compliance Matrix: (Units=1/GPa)
#
#
# Indices 1 2 3 4 5 6 
#
# 1 0.011203 -0.002722 -0.003052 0.000000 -0.000143 0.000000
# 2 -0.002722 0.015646 -0.004283 0.000000 -0.000558 0.000000
# 3 -0.003052 -0.004283 0.011002 0.000000 0.001024 0.000000
# 4 0.000000 0.000000 0.000000 0.048149 0.000000 -0.024911
# 5 -0.000143 -0.000558 0.001024 0.000000 0.035850 0.000000
# 6 0.000000 0.000000 0.000000 -0.024911 0.000000 0.090877
#
#
# Mechanical properties :
#
#
# Convention : Reuss Voigt Hill
#
# Bulk Modulus (GPa) = 56.38246 58.76734 57.57490
# Shear Modulus (GPa) = 20.94205 25.97282 23.45744
#
# Velocity S-wave (km/s) = 3.44845 3.84038 3.64968
# Velocity P-wave (km/s) = 6.91897 7.28253 7.10308
#
# Compressibility (1/GPa) = 0.01773601
#
# Stress axis : x y z
#
# Youngs Moduli (GPa) = 89.26323 63.91398 90.88984
#
# Poissons Ratio (x) = 0.17400 0.27742
# Poissons Ratio (y) = 0.24301 0.38927
# Poissons Ratio (z) = 0.27246 0.27374
#
# Static dielectric constant tensor:
#      x y z
#    x 3.323530 0.000000 0.070310 
#    y 0.000000 3.261210 0.000000 
#    z 0.070310 0.000000 3.595980 
# 
# 
# High freq. dielectric constant tensor:
#      x y z
#    x 1.668050 0.000000 -0.000730 
#    y 0.000000 1.667500 0.000000 
#    z -0.000730 0.000000 1.694870 
# 
# From -- ./inp_files/57531.got.cif
#   From: 2010.06.25/outbox.cif.g09.slc.cpg/sg15_29_cif.got.tgz:57531.got - 2010.06.28 07:06:18.
