data_PCOD8139106
_publ_section_title
;
Structure prediction by ZEFSAII (Michael W. Deem and Ramdas Pophale) SiO2 
 PCOD8139106
Probable space group: C 2/C
;
_chemical_formula_sum "Si O2"
_cell_formula_units_Z 44
_cell_length_a 15.493248
_cell_length_b 9.955418
_cell_length_c 17.698915
_cell_angle_alpha 90.000000
_cell_angle_beta 129.702894
_cell_angle_gamma 90.000000
_cell_volume 2100.304844
_symmetry_space_group_name_H-M "C 2/C"
_symmetry_group_IT_number 15
_symmetry_cell_setting 'monoclinic'
loop_
_space_group_symop_operation_xyz
x,y,z
-x,y,1/2-z
-x,-y,-z
x,-y,1/2+z
1/2+x,1/2+y,z
1/2-x,1/2+y,1/2-z
1/2-x,1/2-y,-z
1/2+x,1/2-y,1/2+z
loop_
_atom_site_type_symbol
_atom_site_label
_atom_site_fract_x
_atom_site_fract_y
_atom_site_fract_z
Si Si1 0.264383 0.530101 0.978444
Si Si2 0.500000 0.608271 0.250000
Si Si3 0.174262 0.902219 0.335812
Si Si4 0.910922 0.444104 0.391604
Si Si5 0.588434 0.764301 0.431471
Si Si6 0.113532 0.602166 0.274789
O O1 0.167529 0.605244 0.972506
O O2 0.219265 0.453326 0.880330
O O3 0.319416 0.424823 0.069044
O O4 0.351387 0.639946 0.991472
O O5 0.588916 0.514110 0.254403
O O6 0.575308 0.706545 0.340877
O O7 0.295426 0.910572 0.366715
O O8 0.118805 0.762060 0.281883
O O9 0.886728 0.549991 0.311210
O O10 0.000000 0.500000 0.500000
O O11 0.966071 0.303928 0.394388
O O12 0.000000 0.548998 0.250000
#
# Coordination Sequence:
#
# PCOD8139106 Si02
#       6
#     8   4   8   8   8   8
#     4  10  21  41  66  91 121 171 213 256 310 382
#     4  10  22  40  66  92 124 170 212 254 318 378
#     4  11  24  42  63  95 132 160 210 270 313 373
#     4  12  25  42  62  96 129 166 208 268 315 367
#     4  10  20  38  65  89 124 160 211 251 309 371
#     4  12  23  42  67  91 124 172 212 250 323 385
#
# _framework density 20.949339999999999
#
# number of rings (size 3 to 8) (size 9 to 14) (size 15 to 20)
#    0.000    1.091    4.545    1.636    2.545    1.455 
#    0.000    0.909    0.000    0.000    0.000    0.000 
#    0.000    0.000    0.000    0.000    0.000    0.000 
#
# Total GULP energy -272691.842330 kJ/mol
# GULP energy per Si atom -12395.083742 kJ/mol
# Density = 2.090166 g / cm^3
# Si number density = 20.949340 Si / 1000 Ang^3
#
#
#
# Elastic Constant Matrix: (Units=GPa)
#
#
# Indices 1 2 3 4 5 6 
#
# 1 94.4835 25.6952 9.2875 0.0000 15.7459 0.0000
# 2 25.6952 92.0177 33.3835 0.0000 -4.1423 0.0000
# 3 9.2875 33.3835 106.5978 0.0000 -5.4795 0.0000
# 4 0.0000 0.0000 0.0000 38.9317 0.0000 17.6481
# 5 15.7459 -4.1423 -5.4795 0.0000 31.4578 0.0000
# 6 0.0000 0.0000 0.0000 17.6481 0.0000 28.3986
#
#
#
# Elastic Compliance Matrix: (Units=1/GPa)
#
#
# Indices 1 2 3 4 5 6 
#
# 1 0.012800 -0.003783 -0.000288 0.000000 -0.006955 0.000000
# 2 -0.003783 0.013407 -0.003714 0.000000 0.003012 0.000000
# 3 -0.000288 -0.003714 0.010647 0.000000 0.001510 0.000000
# 4 0.000000 0.000000 0.000000 0.035760 0.000000 -0.022223
# 5 -0.006955 0.003012 0.001510 0.000000 0.035930 0.000000
# 6 0.000000 0.000000 0.000000 -0.022223 0.000000 0.049023
#
#
# Mechanical properties :
#
#
# Convention : Reuss Voigt Hill
#
# Bulk Modulus (GPa) = 46.98476 47.75905 47.37190
# Shear Modulus (GPa) = 27.74212 34.73979 31.24096
#
# Velocity S-wave (km/s) = 3.64297 4.07661 3.86588
# Velocity P-wave (km/s) = 6.33810 6.70859 6.52597
#
# Compressibility (1/GPa) = 0.02128350
#
# Stress axis : x y z
#
# Youngs Moduli (GPa) = 78.12462 74.58837 93.92354
#
# Poissons Ratio (x) = 0.28216 0.02705
# Poissons Ratio (y) = 0.29554 0.34886
# Poissons Ratio (z) = 0.02250 0.27704
#
# Static dielectric constant tensor:
#      x y z
#    x 4.395820 0.000000 0.750150 
#    y 0.000000 4.165970 0.000000 
#    z 0.750150 0.000000 4.232170 
# 
# 
# High freq. dielectric constant tensor:
#      x y z
#    x 1.801230 0.000000 0.029080 
#    y 0.000000 1.829050 0.000000 
#    z 0.029080 0.000000 1.829780 
# 
# From -- ./inp_files/209739.got.cif
#   From: 2010.06.25/outbox.cif.g09.slc.cpg/sg15_105_cif.got.tgz:209739.got - 2010.06.28 07:06:18.
