data_PCOD8139931
_publ_section_title
;
Structure prediction by ZEFSAII (Michael W. Deem and Ramdas Pophale) SiO2 
 PCOD8139931
Probable space group: C 2/C
;
_chemical_formula_sum "Si O2"
_cell_formula_units_Z 60
_cell_length_a 11.691206
_cell_length_b 30.439675
_cell_length_c 8.921767
_cell_angle_alpha 90.000000
_cell_angle_beta 110.518013
_cell_angle_gamma 90.000000
_cell_volume 2973.628796
_symmetry_space_group_name_H-M "C 2/C"
_symmetry_group_IT_number 15
_symmetry_cell_setting 'monoclinic'
loop_
_space_group_symop_operation_xyz
x,y,z
-x,y,1/2-z
-x,-y,-z
x,-y,1/2+z
1/2+x,1/2+y,z
1/2-x,1/2+y,1/2-z
1/2-x,1/2-y,-z
1/2+x,1/2-y,1/2+z
loop_
_atom_site_type_symbol
_atom_site_label
_atom_site_fract_x
_atom_site_fract_y
_atom_site_fract_z
Si Si1 0.826663 0.282424 0.133157
Si Si2 0.257147 0.871006 0.703449
Si Si3 0.028335 0.838384 0.436976
Si Si4 0.699650 0.369672 0.014955
Si Si5 0.126618 0.539951 0.228403
Si Si6 0.000000 0.320495 0.750000
Si Si7 0.044880 0.739576 0.536530
Si Si8 0.871842 0.549342 0.621192
O O1 0.767775 0.329873 0.128396
O O2 0.834325 0.260376 0.303197
O O3 0.952003 0.286722 0.100081
O O4 0.750000 0.250000 0.000000
O O5 0.168487 0.851866 0.534533
O O6 0.273603 0.923066 0.684916
O O7 0.391961 0.849815 0.768036
O O8 0.195813 0.861818 0.835494
O O9 0.002860 0.788500 0.476469
O O10 0.000000 0.843826 0.250000
O O11 0.939276 0.870684 0.489214
O O12 0.768254 0.414101 0.092454
O O13 0.175919 0.493454 0.311871
O O14 0.000000 0.551896 0.250000
O O15 0.105180 0.537370 0.040905
O O16 0.933888 0.289287 0.599946
O O17 0.000000 0.566011 0.750000
#
# Coordination Sequence:
#
# PCOD8139931 Si02
#       8
#     8   8   8   8   8   4   8   8
#     4  11  22  39  63  88 123 176 213 261 313 376
#     4  11  25  42  68  92 129 167 215 263 320 385
#     4  12  27  43  62  92 128 174 216 265 315 380
#     4  11  24  43  63  94 128 168 219 254 326 379
#     4  10  20  40  63  97 128 162 204 258 324 371
#     4  12  24  42  64  96 128 164 216 278 318 366
#     4  11  25  38  61  91 128 166 219 265 318 371
#     4  10  22  37  66  97 130 163 205 262 316 383
#
# _framework density 20.177365999999999
#
# number of rings (size 3 to 8) (size 9 to 14) (size 15 to 20)
#    0.000    1.067    4.000    2.800    5.600    2.667 
#    0.000    0.667    0.000    0.000    0.000    0.000 
#    0.000    0.000    0.000    0.000    0.000    0.000 
#
# Total GULP energy -372021.782604 kJ/mol
# GULP energy per Si atom -12400.726087 kJ/mol
# Density = 2.013144 g / cm^3
# Si number density = 20.177366 Si / 1000 Ang^3
#
#
#
# Elastic Constant Matrix: (Units=GPa)
#
#
# Indices 1 2 3 4 5 6 
#
# 1 83.6577 40.8437 38.7874 0.0000 -1.2225 0.0000
# 2 40.8437 108.8692 51.4719 0.0000 3.7074 0.0000
# 3 38.7874 51.4719 154.2460 0.0000 1.1067 0.0000
# 4 0.0000 0.0000 0.0000 30.2201 0.0000 0.6118
# 5 -1.2225 3.7074 1.1067 0.0000 29.7336 0.0000
# 6 0.0000 0.0000 0.0000 0.6118 0.0000 22.3146
#
#
#
# Elastic Compliance Matrix: (Units=1/GPa)
#
#
# Indices 1 2 3 4 5 6 
#
# 1 0.015337 -0.004714 -0.002293 0.000000 0.001304 0.000000
# 2 -0.004714 0.012400 -0.002941 0.000000 -0.001630 0.000000
# 3 -0.002293 -0.002941 0.008041 0.000000 -0.000027 0.000000
# 4 0.000000 0.000000 0.000000 0.033109 0.000000 -0.000908
# 5 0.001304 -0.001630 -0.000027 0.000000 0.033890 0.000000
# 6 0.000000 0.000000 0.000000 -0.000908 0.000000 0.044839
#
#
# Mechanical properties :
#
#
# Convention : Reuss Voigt Hill
#
# Bulk Modulus (GPa) = 62.96244 67.66434 65.31339
# Shear Modulus (GPa) = 28.93423 30.83164 29.88293
#
# Velocity S-wave (km/s) = 3.79092 3.91324 3.85257
# Velocity P-wave (km/s) = 7.10167 7.35021 7.22701
#
# Compressibility (1/GPa) = 0.01588249
#
# Stress axis : x y z
#
# Youngs Moduli (GPa) = 65.20063 80.64663 124.35899
#
# Poissons Ratio (x) = 0.38019 0.28515
# Poissons Ratio (y) = 0.30737 0.36569
# Poissons Ratio (z) = 0.14950 0.23715
#
# Static dielectric constant tensor:
#      x y z
#    x 3.311730 0.000000 -0.192590 
#    y 0.000000 6.947240 0.000000 
#    z -0.192590 0.000000 3.779230 
# 
# 
# High freq. dielectric constant tensor:
#      x y z
#    x 1.776310 0.000000 -0.003380 
#    y 0.000000 1.786310 0.000000 
#    z -0.003380 0.000000 1.803530 
# 
# From -- ./inp_files/35730.got.cif
#   From: 2010.06.25/outbox.cif.g09.slc.cpg/sg15_18_cif.got.tgz:35730.got - 2010.06.28 07:06:18.
