data_PCOD8139675
_publ_section_title
;
Structure prediction by ZEFSAII (Michael W. Deem and Ramdas Pophale) SiO2 
 PCOD8139675
Probable space group: C 2/C
;
_chemical_formula_sum "Si O2"
_cell_formula_units_Z 56
_cell_length_a 9.335541
_cell_length_b 13.058680
_cell_length_c 22.031558
_cell_angle_alpha 90.000000
_cell_angle_beta 77.906945
_cell_angle_gamma 90.000000
_cell_volume 2626.260792
_symmetry_space_group_name_H-M "C 2/C"
_symmetry_group_IT_number 15
_symmetry_cell_setting 'monoclinic'
loop_
_space_group_symop_operation_xyz
x,y,z
-x,y,1/2-z
-x,-y,-z
x,-y,1/2+z
1/2+x,1/2+y,z
1/2-x,1/2+y,1/2-z
1/2-x,1/2-y,-z
1/2+x,1/2-y,1/2+z
loop_
_atom_site_type_symbol
_atom_site_label
_atom_site_fract_x
_atom_site_fract_y
_atom_site_fract_z
Si Si1 0.434018 0.360746 0.351249
Si Si2 0.155478 0.846359 0.435631
Si Si3 0.134745 0.475603 0.573056
Si Si4 0.880848 0.645562 0.306972
Si Si5 0.832946 0.542420 0.562484
Si Si6 0.846023 0.842529 0.926314
Si Si7 0.058541 0.074527 0.308475
O O1 0.520262 0.326006 0.403578
O O2 0.405301 0.268239 0.307066
O O3 0.271985 0.394000 0.384977
O O4 0.527198 0.452279 0.312064
O O5 0.095971 0.836202 0.509679
O O6 0.282516 0.765140 0.410177
O O7 0.224772 0.958594 0.417758
O O8 0.092963 0.394000 0.627511
O O9 0.171141 0.416863 0.506726
O O10 0.996834 0.551237 0.574101
O O11 0.727196 0.606085 0.295264
O O12 0.000000 0.599247 0.250000
O O13 0.785195 0.423768 0.566065
O O14 0.981601 0.871715 0.872209
O O15 0.000000 0.118795 0.250000
#
# Coordination Sequence:
#
# PCOD8139675 Si02
#       7
#     8   8   8   8   8   8   8
#     4  11  24  43  71  96 130 166 226 273 337 394
#     4  10  20  39  67 101 130 169 213 279 333 405
#     4  10  21  41  63  98 136 169 219 265 343 389
#     4  12  28  45  66  96 132 179 223 276 325 396
#     4   9  21  38  67  98 131 171 210 279 330 404
#     4   9  21  39  67  93 138 170 214 270 345 388
#     4  11  26  47  67  92 131 179 220 274 327 399
#
# _framework density 21.323091000000002
#
# number of rings (size 3 to 8) (size 9 to 14) (size 15 to 20)
#    0.000    1.714    1.429    1.286   10.000    3.429 
#    0.000    0.714    0.000    0.000    0.000    0.000 
#    0.000    0.000    0.000    0.000    0.000    0.000 
#
# Total GULP energy -347233.066409 kJ/mol
# GULP energy per Si atom -12401.180943 kJ/mol
# Density = 2.127456 g / cm^3
# Si number density = 21.323091 Si / 1000 Ang^3
#
#
#
# Elastic Constant Matrix: (Units=GPa)
#
#
# Indices 1 2 3 4 5 6 
#
# 1 107.7220 20.2274 50.1059 0.0000 -8.2511 0.0000
# 2 20.2274 80.3537 39.9206 0.0000 -6.3737 0.0000
# 3 50.1059 39.9206 104.2304 0.0000 -10.5910 0.0000
# 4 0.0000 0.0000 0.0000 18.2022 0.0000 -1.5296
# 5 -8.2511 -6.3737 -10.5910 0.0000 30.4993 0.0000
# 6 0.0000 0.0000 0.0000 -1.5296 0.0000 19.1190
#
#
#
# Elastic Compliance Matrix: (Units=1/GPa)
#
#
# Indices 1 2 3 4 5 6 
#
# 1 0.012007 -0.000146 -0.005586 0.000000 0.001278 0.000000
# 2 -0.000146 0.015414 -0.005712 0.000000 0.001198 0.000000
# 3 -0.005586 -0.005712 0.014711 0.000000 0.002404 0.000000
# 4 0.000000 0.000000 0.000000 0.055310 0.000000 0.004425
# 5 0.001278 0.001198 0.002404 0.000000 0.034218 0.000000
# 6 0.000000 0.000000 0.000000 0.004425 0.000000 0.052658
#
#
# Mechanical properties :
#
#
# Convention : Reuss Voigt Hill
#
# Bulk Modulus (GPa) = 51.96202 56.97931 54.47066
# Shear Modulus (GPa) = 23.40577 25.70092 24.55335
#
# Velocity S-wave (km/s) = 3.31671 3.47552 3.39704
# Velocity P-wave (km/s) = 6.25214 6.54871 6.40214
#
# Compressibility (1/GPa) = 0.01924483
#
# Stress axis : x y z
#
# Youngs Moduli (GPa) = 83.28604 64.87404 67.97403
#
# Poissons Ratio (x) = 0.00946 0.37972
# Poissons Ratio (y) = 0.01214 0.38826
# Poissons Ratio (z) = 0.46526 0.37056
#
# Static dielectric constant tensor:
#      x y z
#    x 3.724540 0.000000 -0.013330 
#    y 0.000000 3.736690 0.000000 
#    z -0.013330 0.000000 3.906790 
# 
# 
# High freq. dielectric constant tensor:
#      x y z
#    x 1.838270 0.000000 -0.000810 
#    y 0.000000 1.823310 0.000000 
#    z -0.000810 0.000000 1.842330 
# 
# From -- ./inp_files/264238.got.cif
#   From: 2010.06.25/outbox.cif.g09.slc.cpg/sg15_133_cif.got.tgz:264238.got - 2010.06.28 07:06:18.
