data_PCOD8139453
_publ_section_title
;
Structure prediction by ZEFSAII (Michael W. Deem and Ramdas Pophale) SiO2 
 PCOD8139453
Probable space group: C 2/C
;
_chemical_formula_sum "Si O2"
_cell_formula_units_Z 48
_cell_length_a 7.887720
_cell_length_b 26.092242
_cell_length_c 13.112259
_cell_angle_alpha 90.000000
_cell_angle_beta 49.751403
_cell_angle_gamma 90.000000
_cell_volume 2059.710785
_symmetry_space_group_name_H-M "C 2/C"
_symmetry_group_IT_number 15
_symmetry_cell_setting 'monoclinic'
loop_
_space_group_symop_operation_xyz
x,y,z
-x,y,1/2-z
-x,-y,-z
x,-y,1/2+z
1/2+x,1/2+y,z
1/2-x,1/2+y,1/2-z
1/2-x,1/2-y,-z
1/2+x,1/2-y,1/2+z
loop_
_atom_site_type_symbol
_atom_site_label
_atom_site_fract_x
_atom_site_fract_y
_atom_site_fract_z
Si Si1 0.752729 0.284541 0.680873
Si Si2 0.001795 0.609738 0.457888
Si Si3 0.794236 0.081020 0.759775
Si Si4 0.082977 0.110457 0.483298
Si Si5 0.712608 0.034499 0.240361
Si Si6 0.872178 0.227952 0.053815
O O1 0.500000 0.295896 0.750000
O O2 0.896319 0.336417 0.616861
O O3 0.755061 0.256333 0.791914
O O4 0.872526 0.246435 0.554125
O O5 0.166352 0.564068 0.364177
O O6 0.935265 0.604324 0.603828
O O7 0.776697 0.597806 0.486422
O O8 0.000000 0.096649 0.750000
O O9 0.841504 0.106723 0.631221
O O10 0.795537 0.020451 0.741914
O O11 0.094598 0.068126 0.389276
O O12 0.122457 0.167459 0.428826
O O13 0.500000 0.030213 0.250000
O O14 0.750000 0.250000 0.000000
#
# Coordination Sequence:
#
# PCOD8139453 Si02
#       6
#     8   8   8   8   8   8
#     4  12  27  46  66 104 141 176 219 297 360 406
#     4  10  21  40  66  91 132 173 226 271 341 407
#     4  10  22  38  63  95 130 173 225 280 334 409
#     4  10  21  40  65  97 128 171 232 288 319 406
#     4  10  20  39  62  91 134 173 224 280 339 402
#     4  12  25  44  77  98 131 183 241 272 347 423
#
# _framework density 23.304241000000001
#
# number of rings (size 3 to 8) (size 9 to 14) (size 15 to 20)
#    0.000    1.333    3.333    2.000    2.333    2.000 
#    3.000    0.000    0.000    0.000    0.000    0.000 
#    0.000    0.000    0.000    0.000    0.000    0.000 
#
# Total GULP energy -297333.835514 kJ/mol
# GULP energy per Si atom -12388.909813 kJ/mol
# Density = 2.325120 g / cm^3
# Si number density = 23.304241 Si / 1000 Ang^3
#
#
#
# Elastic Constant Matrix: (Units=GPa)
#
#
# Indices 1 2 3 4 5 6 
#
# 1 38.7968 -2.2749 29.9754 0.0000 6.4474 0.0000
# 2 -2.2749 72.2967 48.0359 0.0000 7.5408 0.0000
# 3 29.9754 48.0359 205.5525 0.0000 7.7131 0.0000
# 4 0.0000 0.0000 0.0000 52.9472 0.0000 -0.2376
# 5 6.4474 7.5408 7.7131 0.0000 15.4789 0.0000
# 6 0.0000 0.0000 0.0000 -0.2376 0.0000 29.3367
#
#
#
# Elastic Compliance Matrix: (Units=1/GPa)
#
#
# Indices 1 2 3 4 5 6 
#
# 1 0.032899 0.006306 -0.005749 0.000000 -0.013911 0.000000
# 2 0.006306 0.018186 -0.004829 0.000000 -0.009080 0.000000
# 3 -0.005749 -0.004829 0.006780 0.000000 0.001368 0.000000
# 4 0.000000 0.000000 0.000000 0.018887 0.000000 0.000153
# 5 -0.013911 -0.009080 0.001368 0.000000 0.074140 0.000000
# 6 0.000000 0.000000 0.000000 0.000153 0.000000 0.034088
#
#
# Mechanical properties :
#
#
# Convention : Reuss Voigt Hill
#
# Bulk Modulus (GPa) = 20.27522 52.01320 36.14421
# Shear Modulus (GPa) = 23.81349 35.61319 29.71334
#
# Velocity S-wave (km/s) = 3.20011 3.91344 3.57461
# Velocity P-wave (km/s) = 4.73005 6.54123 5.70794
#
# Compressibility (1/GPa) = 0.04932129
#
# Stress axis : x y z
#
# Youngs Moduli (GPa) = 30.39613 54.98805 147.48307
#
# Poissons Ratio (x) = -0.34676 0.84793
# Poissons Ratio (y) = -0.19168 0.71216
# Poissons Ratio (z) = 0.17476 0.26552
#
# Static dielectric constant tensor:
#      x y z
#    x 3.843550 0.000000 0.034490 
#    y 0.000000 4.050070 0.000000 
#    z 0.034490 0.000000 5.385030 
# 
# 
# High freq. dielectric constant tensor:
#      x y z
#    x 1.880700 0.000000 0.005700 
#    y 0.000000 1.917310 0.000000 
#    z 0.005700 0.000000 1.957400 
# 
# From -- ./inp_files/138912.got.cif
#   From: 2010.06.25/outbox.cif.g09.slc.cpg/sg15_70_cif.got.tgz:138912.got - 2010.06.28 07:06:18.
