data_PCOD8139067
_publ_section_title
;
Structure prediction by ZEFSAII (Michael W. Deem and Ramdas Pophale) SiO2 
 PCOD8139067
Probable space group: C 2/C
;
_chemical_formula_sum "Si O2"
_cell_formula_units_Z 52
_cell_length_a 11.431755
_cell_length_b 13.147629
_cell_length_c 20.107725
_cell_angle_alpha 90.000000
_cell_angle_beta 58.166092
_cell_angle_gamma 90.000000
_cell_volume 2567.603258
_symmetry_space_group_name_H-M "C 2/C"
_symmetry_group_IT_number 15
_symmetry_cell_setting 'monoclinic'
loop_
_space_group_symop_operation_xyz
x,y,z
-x,y,1/2-z
-x,-y,-z
x,-y,1/2+z
1/2+x,1/2+y,z
1/2-x,1/2+y,1/2-z
1/2-x,1/2-y,-z
1/2+x,1/2-y,1/2+z
loop_
_atom_site_type_symbol
_atom_site_label
_atom_site_fract_x
_atom_site_fract_y
_atom_site_fract_z
Si Si1 0.831949 0.854013 0.984364
Si Si2 0.690446 0.910058 0.905134
Si Si3 0.138470 0.217640 0.239941
Si Si4 0.829966 0.523417 0.402028
Si Si5 0.892705 0.383988 0.027053
Si Si6 0.357696 0.314662 0.605707
Si Si7 0.000000 0.586701 0.750000
O O1 0.821249 0.907596 0.915430
O O2 0.988483 0.845806 0.960167
O O3 0.750000 0.750000 0.000000
O O4 0.759918 0.922911 0.061051
O O5 0.729046 0.843508 0.828654
O O6 0.650693 0.028845 0.906081
O O7 0.556551 0.861605 0.982203
O O8 0.146783 0.211098 0.315936
O O9 0.000000 0.166739 0.250000
O O10 0.132479 0.339037 0.224405
O O11 0.860985 0.582144 0.461130
O O12 0.748504 0.596551 0.376919
O O13 0.968156 0.485954 0.322829
O O14 0.814280 0.282453 0.073508
#
# Coordination Sequence:
#
# PCOD8139067 Si02
#       7
#     8   8   8   8   8   8   4
#     4  11  19  39  65  91 118 163 225 262 304 368
#     4  10  20  38  64  93 119 164 219 263 308 371
#     4  10  22  38  65  94 126 157 215 280 311 379
#     4  11  25  40  61  94 134 169 213 266 326 397
#     4  10  24  38  67  88 131 177 213 259 322 399
#     4  12  23  39  64  95 131 166 213 270 329 384
#     4  10  24  42  62  92 126 172 218 268 324 380
#
# _framework density 20.25235
#
# number of rings (size 3 to 8) (size 9 to 14) (size 15 to 20)
#    0.462    0.923    3.077    2.769    6.462    0.000 
#    0.000    0.000    1.692    0.000    0.000    0.000 
#    0.000    0.000    0.000    0.000    0.000    0.000 
#
# Total GULP energy -322148.800337 kJ/mol
# GULP energy per Si atom -12390.338475 kJ/mol
# Density = 2.020625 g / cm^3
# Si number density = 20.252350 Si / 1000 Ang^3
#
#
#
# Elastic Constant Matrix: (Units=GPa)
#
#
# Indices 1 2 3 4 5 6 
#
# 1 68.7387 39.7612 29.4641 0.0000 6.7146 0.0000
# 2 39.7612 124.2142 73.3592 0.0000 -1.1669 0.0000
# 3 29.4641 73.3592 126.5536 0.0000 9.3237 0.0000
# 4 0.0000 0.0000 0.0000 40.6863 0.0000 0.2029
# 5 6.7146 -1.1669 9.3237 0.0000 32.5757 0.0000
# 6 0.0000 0.0000 0.0000 0.2029 0.0000 26.6146
#
#
#
# Elastic Compliance Matrix: (Units=1/GPa)
#
#
# Indices 1 2 3 4 5 6 
#
# 1 0.018420 -0.005415 -0.000874 0.000000 -0.003741 0.000000
# 2 -0.005415 0.014040 -0.007148 0.000000 0.003665 0.000000
# 3 -0.000874 -0.007148 0.012518 0.000000 -0.003659 0.000000
# 4 0.000000 0.000000 0.000000 0.024579 0.000000 -0.000187
# 5 -0.003741 0.003665 -0.003659 0.000000 0.032647 0.000000
# 6 0.000000 0.000000 0.000000 -0.000187 0.000000 0.037575
#
#
# Mechanical properties :
#
#
# Convention : Reuss Voigt Hill
#
# Bulk Modulus (GPa) = 55.23536 67.18616 61.21076
# Shear Modulus (GPa) = 28.95394 31.77012 30.36203
#
# Velocity S-wave (km/s) = 3.78518 3.96499 3.87613
# Velocity P-wave (km/s) = 6.81442 7.36261 7.09381
#
# Compressibility (1/GPa) = 0.01810435
#
# Stress axis : x y z
#
# Youngs Moduli (GPa) = 54.28791 71.22600 79.88456
#
# Poissons Ratio (x) = 0.38572 0.06981
# Poissons Ratio (y) = 0.29399 0.57099
# Poissons Ratio (z) = 0.04744 0.50910
#
# Static dielectric constant tensor:
#      x y z
#    x 4.104680 0.000000 -0.062630 
#    y 0.000000 6.377830 0.000000 
#    z -0.062630 0.000000 3.572840 
# 
# 
# High freq. dielectric constant tensor:
#      x y z
#    x 1.772480 0.000000 0.009710 
#    y 0.000000 1.795030 0.000000 
#    z 0.009710 0.000000 1.785920 
# 
# From -- ./inp_files/237492.got.cif
#   From: 2010.06.25/outbox.cif.g09.slc.cpg/sg15_119_cif.got.tgz:237492.got - 2010.06.28 07:06:18.
