data_PCOD8139476
_publ_section_title
;
Structure prediction by ZEFSAII (Michael W. Deem and Ramdas Pophale) SiO2 
 PCOD8139476
Probable space group: C 2/C
;
_chemical_formula_sum "Si O2"
_cell_formula_units_Z 48
_cell_length_a 16.985851
_cell_length_b 29.801252
_cell_length_c 9.245320
_cell_angle_alpha 90.000000
_cell_angle_beta 150.478352
_cell_angle_gamma 90.000000
_cell_volume 2306.070020
_symmetry_space_group_name_H-M "C 2/C"
_symmetry_group_IT_number 15
_symmetry_cell_setting 'monoclinic'
loop_
_space_group_symop_operation_xyz
x,y,z
-x,y,1/2-z
-x,-y,-z
x,-y,1/2+z
1/2+x,1/2+y,z
1/2-x,1/2+y,1/2-z
1/2-x,1/2-y,-z
1/2+x,1/2-y,1/2+z
loop_
_atom_site_type_symbol
_atom_site_label
_atom_site_fract_x
_atom_site_fract_y
_atom_site_fract_z
Si Si1 0.619433 0.208107 0.076443
Si Si2 0.826931 0.030024 0.530980
Si Si3 0.675202 0.226404 0.740064
Si Si4 0.676809 0.367516 0.485599
Si Si5 0.677428 0.962209 0.090576
Si Si6 0.180692 0.361113 0.090551
O O1 0.766619 0.242853 0.299224
O O2 0.691024 0.158930 0.211430
O O3 0.500000 0.206296 0.750000
O O4 0.516564 0.224840 0.050196
O O5 0.789571 0.080738 0.422662
O O6 0.807609 0.027007 0.673361
O O7 0.700153 0.996272 0.258273
O O8 0.000000 0.015191 0.750000
O O9 0.731507 0.175031 0.795477
O O10 0.750000 0.250000 0.000000
O O11 0.500000 0.352958 0.250000
O O12 0.698145 0.356634 0.350413
O O13 0.697427 0.911286 0.181647
O O14 0.500000 0.968982 0.750000
O O15 0.000000 0.351776 0.750000
#
# Coordination Sequence:
#
# PCOD8139476 Si02
#       6
#     8   8   8   8   8   8
#     4  10  22  40  59  86 121 156 195 252 307 356
#     4  10  21  40  60  90 128 161 203 252 303 362
#     4  10  22  40  59  86 122 154 198 250 301 361
#     4  10  22  38  61  90 120 159 207 248 298 363
#     4  10  21  38  63  93 121 161 207 250 303 360
#     4  10  20  39  63  84 123 163 200 247 304 362
#
# _framework density 20.814633000000001
#
# number of rings (size 3 to 8) (size 9 to 14) (size 15 to 20)
#    0.000    2.000    1.667    1.000    2.333    2.000 
#    6.000    2.500    0.000    0.000    0.000    0.000 
#    0.000    0.000    0.000    0.000    0.000    0.000 
#
# Total GULP energy -297465.655977 kJ/mol
# GULP energy per Si atom -12394.402332 kJ/mol
# Density = 2.076726 g / cm^3
# Si number density = 20.814633 Si / 1000 Ang^3
#
#
#
# Elastic Constant Matrix: (Units=GPa)
#
#
# Indices 1 2 3 4 5 6 
#
# 1 121.2972 50.5938 27.1273 0.0000 22.0774 0.0000
# 2 50.5938 148.4467 60.2751 0.0000 -8.1141 0.0000
# 3 27.1273 60.2751 53.2318 0.0000 4.2356 0.0000
# 4 0.0000 0.0000 0.0000 39.0443 0.0000 -7.6083
# 5 22.0774 -8.1141 4.2356 0.0000 25.7685 0.0000
# 6 0.0000 0.0000 0.0000 -7.6083 0.0000 35.9650
#
#
#
# Elastic Compliance Matrix: (Units=1/GPa)
#
#
# Indices 1 2 3 4 5 6 
#
# 1 0.012553 -0.005112 0.000380 0.000000 -0.012427 0.000000
# 2 -0.005112 0.015661 -0.016079 0.000000 0.011954 0.000000
# 3 0.000380 -0.016079 0.037721 0.000000 -0.011589 0.000000
# 4 0.000000 0.000000 0.000000 0.026713 0.000000 0.005651
# 5 -0.012427 0.011954 -0.011589 0.000000 0.055123 0.000000
# 6 0.000000 0.000000 0.000000 0.005651 0.000000 0.029000
#
#
# Mechanical properties :
#
#
# Convention : Reuss Voigt Hill
#
# Bulk Modulus (GPa) = 41.13059 66.55200 53.84130
# Shear Modulus (GPa) = 22.07525 32.48753 27.28139
#
# Velocity S-wave (km/s) = 3.26016 3.95499 3.62426
# Velocity P-wave (km/s) = 5.82880 7.27317 6.59067
#
# Compressibility (1/GPa) = 0.02431280
#
# Stress axis : x y z
#
# Youngs Moduli (GPa) = 79.65963 63.85367 26.51061
#
# Poissons Ratio (x) = 0.32642 -0.01007
# Poissons Ratio (y) = 0.40722 0.42626
# Poissons Ratio (z) = -0.03027 1.02670
#
# Static dielectric constant tensor:
#      x y z
#    x 4.533810 0.000000 0.379590 
#    y 0.000000 3.946310 0.000000 
#    z 0.379590 0.000000 3.286230 
# 
# 
# High freq. dielectric constant tensor:
#      x y z
#    x 1.838660 0.000000 0.022640 
#    y 0.000000 1.825580 0.000000 
#    z 0.022640 0.000000 1.773340 
# 
# From -- ./inp_files/52731.got.cif
#   From: 2010.06.25/outbox.cif.g09.slc.cpg/sg15_27_cif.got.tgz:52731.got - 2010.06.28 07:06:18.
