data_PCOD8139474
_publ_section_title
;
Structure prediction by ZEFSAII (Michael W. Deem and Ramdas Pophale) SiO2 
 PCOD8139474
Probable space group: C 2/C
;
_chemical_formula_sum "Si O2"
_cell_formula_units_Z 48
_cell_length_a 14.123449
_cell_length_b 11.950734
_cell_length_c 13.415911
_cell_angle_alpha 90.000000
_cell_angle_beta 71.805133
_cell_angle_gamma 90.000000
_cell_volume 2151.191797
_symmetry_space_group_name_H-M "C 2/C"
_symmetry_group_IT_number 15
_symmetry_cell_setting 'monoclinic'
loop_
_space_group_symop_operation_xyz
x,y,z
-x,y,1/2-z
-x,-y,-z
x,-y,1/2+z
1/2+x,1/2+y,z
1/2-x,1/2+y,1/2-z
1/2-x,1/2-y,-z
1/2+x,1/2-y,1/2+z
loop_
_atom_site_type_symbol
_atom_site_label
_atom_site_fract_x
_atom_site_fract_y
_atom_site_fract_z
Si Si1 0.392396 0.567710 0.742102
Si Si2 0.228113 0.391219 0.783942
Si Si3 0.882941 0.333816 0.386984
Si Si4 0.088356 0.591356 0.836193
Si Si5 0.753552 0.727019 0.612653
Si Si6 0.667531 0.679000 0.934239
O O1 0.500000 0.538759 0.750000
O O2 0.321537 0.463836 0.790450
O O3 0.349581 0.673217 0.815726
O O4 0.393367 0.600119 0.622611
O O5 0.129722 0.467800 0.800093
O O6 0.262995 0.344173 0.666213
O O7 0.204228 0.293993 0.869958
O O8 0.898514 0.323493 0.262590
O O9 0.770124 0.382505 0.437091
O O10 0.894401 0.216627 0.446666
O O11 0.970001 0.416344 0.400822
O O12 0.151192 0.646896 0.903475
O O13 0.750000 0.750000 0.500000
#
# Coordination Sequence:
#
# PCOD8139474 Si02
#       6
#     8   8   8   8   8   8
#     4  10  22  41  58  90 126 155 206 254 301 368
#     4  10  20  41  60  88 120 159 199 251 308 351
#     4  10  20  39  63  83 122 154 207 248 295 368
#     4  10  21  38  59  92 118 154 209 252 297 365
#     4  10  22  41  60  87 127 162 201 254 310 364
#     4  10  21  40  63  86 119 165 199 251 308 355
#
# _framework density 22.313213000000001
#
# number of rings (size 3 to 8) (size 9 to 14) (size 15 to 20)
#    0.000    2.000    5.000    0.000    2.333    4.667 
#   12.000    0.833    0.000    0.000    0.000    0.000 
#    0.000    0.000    0.000    0.000    0.000    0.000 
#
# Total GULP energy -297333.513057 kJ/mol
# GULP energy per Si atom -12388.896377 kJ/mol
# Density = 2.226243 g / cm^3
# Si number density = 22.313213 Si / 1000 Ang^3
#
#
#
# Elastic Constant Matrix: (Units=GPa)
#
#
# Indices 1 2 3 4 5 6 
#
# 1 158.2744 33.4921 10.8148 0.0000 -5.5311 0.0000
# 2 33.4921 74.5728 14.2711 0.0000 -1.6079 0.0000
# 3 10.8148 14.2711 56.2842 0.0000 16.0465 0.0000
# 4 0.0000 0.0000 0.0000 17.9595 0.0000 -3.6951
# 5 -5.5311 -1.6079 16.0465 0.0000 31.3453 0.0000
# 6 0.0000 0.0000 0.0000 -3.6951 0.0000 15.4375
#
#
#
# Elastic Compliance Matrix: (Units=1/GPa)
#
#
# Indices 1 2 3 4 5 6 
#
# 1 0.007071 -0.002932 -0.001087 0.000000 0.001654 0.000000
# 2 -0.002932 0.015553 -0.004051 0.000000 0.002354 0.000000
# 3 -0.001087 -0.004051 0.022384 0.000000 -0.011858 0.000000
# 4 0.000000 0.000000 0.000000 0.058565 0.000000 0.014018
# 5 0.001654 0.002354 -0.011858 0.000000 0.038386 0.000000
# 6 0.000000 0.000000 0.000000 0.014018 0.000000 0.068133
#
#
# Mechanical properties :
#
#
# Convention : Reuss Voigt Hill
#
# Bulk Modulus (GPa) = 34.64125 45.14304 39.89215
# Shear Modulus (GPa) = 21.19966 28.31867 24.75917
#
# Velocity S-wave (km/s) = 3.08570 3.56637 3.33471
# Velocity P-wave (km/s) = 5.31546 6.10198 5.72225
#
# Compressibility (1/GPa) = 0.02886732
#
# Stress axis : x y z
#
# Youngs Moduli (GPa) = 141.43081 64.29804 44.67510
#
# Poissons Ratio (x) = 0.18852 0.04854
# Poissons Ratio (y) = 0.41467 0.18099
# Poissons Ratio (z) = 0.15368 0.26049
#
# Static dielectric constant tensor:
#      x y z
#    x 4.264530 0.000000 -0.042460 
#    y 0.000000 3.966950 0.000000 
#    z -0.042460 0.000000 4.149830 
# 
# 
# High freq. dielectric constant tensor:
#      x y z
#    x 1.884630 0.000000 0.012290 
#    y 0.000000 1.852510 0.000000 
#    z 0.012290 0.000000 1.871880 
# 
# From -- ./inp_files/151817.got.cif
#   From: 2010.06.25/outbox.cif.g09.slc.cpg/sg15_76_cif.got.tgz:151817.got - 2010.06.28 07:06:18.
