data_PCOD8139394
_publ_section_title
;
Structure prediction by ZEFSAII (Michael W. Deem and Ramdas Pophale) SiO2 
 PCOD8139394
Probable space group: C 2/C
;
_chemical_formula_sum "Si O2"
_cell_formula_units_Z 48
_cell_length_a 19.639572
_cell_length_b 8.929582
_cell_length_c 17.185234
_cell_angle_alpha 90.000000
_cell_angle_beta 124.400349
_cell_angle_gamma 90.000000
_cell_volume 2486.740568
_symmetry_space_group_name_H-M "C 2/C"
_symmetry_group_IT_number 15
_symmetry_cell_setting 'monoclinic'
loop_
_space_group_symop_operation_xyz
x,y,z
-x,y,1/2-z
-x,-y,-z
x,-y,1/2+z
1/2+x,1/2+y,z
1/2-x,1/2+y,1/2-z
1/2-x,1/2-y,-z
1/2+x,1/2-y,1/2+z
loop_
_atom_site_type_symbol
_atom_site_label
_atom_site_fract_x
_atom_site_fract_y
_atom_site_fract_z
Si Si1 0.749031 0.466496 0.417438
Si Si2 0.698153 0.789092 0.644765
Si Si3 0.685077 0.903498 0.380910
Si Si4 0.757454 0.841882 0.849466
Si Si5 0.087230 0.052469 0.526161
Si Si6 0.914384 0.873357 0.655477
O O1 0.804901 0.537521 0.383390
O O2 0.786461 0.514301 0.523140
O O3 0.753011 0.288459 0.410632
O O4 0.654655 0.522806 0.348766
O O5 0.744710 0.711027 0.601825
O O6 0.746179 0.771678 0.756853
O O7 0.610591 0.702891 0.590753
O O8 0.602736 0.805251 0.340318
O O9 0.682017 0.038974 0.315569
O O10 0.845481 0.923116 0.914662
O O11 0.080716 0.092648 0.431973
O O12 0.000000 0.000000 0.500000
O O13 0.000000 0.916663 0.750000
#
# Coordination Sequence:
#
# PCOD8139394 Si02
#       6
#     8   8   8   8   8   8
#     4  11  19  40  65  88 116 160 213 254 295 359
#     4  10  20  39  61  89 122 163 202 246 304 373
#     4  10  20  40  61  85 118 161 209 245 293 367
#     4  11  23  36  66  94 119 157 209 258 302 363
#     4  11  24  42  59  93 128 159 200 256 314 365
#     4  11  23  39  63  87 119 165 201 246 309 365
#
# _framework density 19.302375000000001
#
# number of rings (size 3 to 8) (size 9 to 14) (size 15 to 20)
#    0.000    1.333    5.000    3.500    7.000    0.000 
#    0.000    3.333    0.000    0.000    0.000    0.000 
#    0.000    0.000    0.000    0.000    0.000    0.000 
#
# Total GULP energy -297427.600254 kJ/mol
# GULP energy per Si atom -12392.816677 kJ/mol
# Density = 1.925844 g / cm^3
# Si number density = 19.302375 Si / 1000 Ang^3
#
#
#
# Elastic Constant Matrix: (Units=GPa)
#
#
# Indices 1 2 3 4 5 6 
#
# 1 97.0902 54.9180 43.0784 0.0000 7.3291 0.0000
# 2 54.9180 110.3873 29.4278 0.0000 5.8229 0.0000
# 3 43.0784 29.4278 111.3595 0.0000 1.3141 0.0000
# 4 0.0000 0.0000 0.0000 24.9902 0.0000 -2.2661
# 5 7.3291 5.8229 1.3141 0.0000 31.5658 0.0000
# 6 0.0000 0.0000 0.0000 -2.2661 0.0000 28.8498
#
#
#
# Elastic Compliance Matrix: (Units=1/GPa)
#
#
# Indices 1 2 3 4 5 6 
#
# 1 0.016311 -0.006795 -0.004486 0.000000 -0.002347 0.000000
# 2 -0.006795 0.012667 -0.000710 0.000000 -0.000729 0.000000
# 3 -0.004486 -0.000710 0.010895 0.000000 0.000719 0.000000
# 4 0.000000 0.000000 0.000000 0.040303 0.000000 0.003166
# 5 -0.002347 -0.000729 0.000719 0.000000 0.032329 0.000000
# 6 0.000000 0.000000 0.000000 0.003166 0.000000 0.034911
#
#
# Mechanical properties :
#
#
# Convention : Reuss Voigt Hill
#
# Bulk Modulus (GPa) = 62.93398 63.74282 63.33840
# Shear Modulus (GPa) = 28.29723 29.84203 29.06963
#
# Velocity S-wave (km/s) = 3.83299 3.93622 3.88495
# Velocity P-wave (km/s) = 7.22939 7.33168 7.28071
#
# Compressibility (1/GPa) = 0.01588967
#
# Stress axis : x y z
#
# Youngs Moduli (GPa) = 61.30861 78.94322 91.78799
#
# Poissons Ratio (x) = 0.53641 0.41180
# Poissons Ratio (y) = 0.41659 0.06520
# Poissons Ratio (z) = 0.27506 0.05607
#
# Static dielectric constant tensor:
#      x y z
#    x 3.577270 0.000000 -0.100960 
#    y 0.000000 3.966740 0.000000 
#    z -0.100960 0.000000 3.450140 
# 
# 
# High freq. dielectric constant tensor:
#      x y z
#    x 1.727450 0.000000 -0.024980 
#    y 0.000000 1.764060 0.000000 
#    z -0.024980 0.000000 1.751250 
# 
# From -- ./inp_files/213545.got.cif
#   From: 2010.06.25/outbox.cif.g09.slc.cpg/sg15_107_cif.got.tgz:213545.got - 2010.06.28 07:06:18.
