data_PCOD8139497
_publ_section_title
;
Structure prediction by ZEFSAII (Michael W. Deem and Ramdas Pophale) SiO2 
 PCOD8139497
Probable space group: C 2/C
;
_chemical_formula_sum "Si O2"
_cell_formula_units_Z 64
_cell_length_a 14.124897
_cell_length_b 27.792491
_cell_length_c 11.406392
_cell_angle_alpha 90.000000
_cell_angle_beta 44.550145
_cell_angle_gamma 90.000000
_cell_volume 3141.299195
_symmetry_space_group_name_H-M "C 2/C"
_symmetry_group_IT_number 15
_symmetry_cell_setting 'monoclinic'
loop_
_space_group_symop_operation_xyz
x,y,z
-x,y,1/2-z
-x,-y,-z
x,-y,1/2+z
1/2+x,1/2+y,z
1/2-x,1/2+y,1/2-z
1/2-x,1/2-y,-z
1/2+x,1/2-y,1/2+z
loop_
_atom_site_type_symbol
_atom_site_label
_atom_site_fract_x
_atom_site_fract_y
_atom_site_fract_z
Si Si1 0.853642 0.207182 0.910199
Si Si2 0.000774 0.924514 0.527411
Si Si3 0.273343 0.641483 0.183268
Si Si4 0.233414 0.871045 0.196828
Si Si5 0.632485 0.210588 0.476643
Si Si6 0.170571 0.704027 0.712430
Si Si7 0.393459 0.507066 0.937212
Si Si8 0.847115 0.568582 0.399244
O O1 0.816609 0.170384 0.842686
O O2 0.000000 0.228796 0.750000
O O3 0.750000 0.250000 0.000000
O O4 0.851086 0.181605 0.038529
O O5 0.106082 0.902418 0.344809
O O6 0.080623 0.949537 0.565845
O O7 0.889019 0.884395 0.661225
O O8 0.913914 0.965936 0.541501
O O9 0.163446 0.665586 0.365162
O O10 0.196161 0.604939 0.165576
O O11 0.301899 0.847156 0.250392
O O12 0.335560 0.905516 0.035961
O O13 0.715429 0.256703 0.356959
O O14 0.674488 0.195113 0.570187
O O15 0.473877 0.223578 0.614309
O O16 0.500000 0.527425 0.750000
O O17 0.243364 0.519855 0.023921
O O18 0.000000 0.551620 0.250000
#
# Coordination Sequence:
#
# PCOD8139497 Si02
#       8
#     8   8   8   8   8   8   8   8
#     4  11  23  36  57  90 127 162 201 251 304 356
#     4  10  21  36  63  91 111 159 202 256 303 363
#     4  10  21  36  62  86 123 156 209 249 300 368
#     4  11  21  37  63  88 123 161 206 250 311 366
#     4  10  22  41  56  85 121 165 211 257 293 361
#     4  10  23  38  60  82 122 167 208 253 306 347
#     4  10  20  39  63  89 118 148 201 254 310 371
#     4  10  21  37  63  92 122 156 188 250 322 378
#
# _framework density 20.373736999999998
#
# number of rings (size 3 to 8) (size 9 to 14) (size 15 to 20)
#    0.000    1.750    2.500    1.500    1.750    6.000 
#    0.000    0.625    5.500    0.000    0.000    0.000 
#    0.000    0.000    0.000    0.000    0.000    0.000 
#
# Total GULP energy -396713.826778 kJ/mol
# GULP energy per Si atom -12397.307087 kJ/mol
# Density = 2.032737 g / cm^3
# Si number density = 20.373737 Si / 1000 Ang^3
#
#
#
# Elastic Constant Matrix: (Units=GPa)
#
#
# Indices 1 2 3 4 5 6 
#
# 1 71.3418 46.2621 41.8304 0.0000 -16.0628 0.0000
# 2 46.2621 90.1140 42.2197 0.0000 -8.3604 0.0000
# 3 41.8304 42.2197 122.2573 0.0000 -23.8489 0.0000
# 4 0.0000 0.0000 0.0000 23.7430 0.0000 0.8124
# 5 -16.0628 -8.3604 -23.8489 0.0000 37.9944 0.0000
# 6 0.0000 0.0000 0.0000 0.8124 0.0000 27.4078
#
#
#
# Elastic Compliance Matrix: (Units=1/GPa)
#
#
# Indices 1 2 3 4 5 6 
#
# 1 0.023935 -0.010073 -0.003612 0.000000 0.005636 0.000000
# 2 -0.010073 0.017478 -0.003042 0.000000 -0.002322 0.000000
# 3 -0.003612 -0.003042 0.011438 0.000000 0.004983 0.000000
# 4 0.000000 0.000000 0.000000 0.042160 0.000000 -0.001250
# 5 0.005636 -0.002322 0.004983 0.000000 0.031319 0.000000
# 6 0.000000 0.000000 0.000000 -0.001250 0.000000 0.036523
#
#
# Mechanical properties :
#
#
# Convention : Reuss Voigt Hill
#
# Bulk Modulus (GPa) = 51.55251 60.48194 56.01722
# Shear Modulus (GPa) = 24.65805 28.05576 26.35691
#
# Velocity S-wave (km/s) = 3.48269 3.71490 3.60067
# Velocity P-wave (km/s) = 6.44442 6.93911 6.69633
#
# Compressibility (1/GPa) = 0.01939770
#
# Stress axis : x y z
#
# Youngs Moduli (GPa) = 41.77927 57.21440 87.42856
#
# Poissons Ratio (x) = 0.57631 0.31576
# Poissons Ratio (y) = 0.42083 0.26599
# Poissons Ratio (z) = 0.15089 0.17407
#
# Static dielectric constant tensor:
#      x y z
#    x 3.674630 0.000000 0.027040 
#    y 0.000000 3.657180 0.000000 
#    z 0.027040 0.000000 3.759640 
# 
# 
# High freq. dielectric constant tensor:
#      x y z
#    x 1.784280 0.000000 -0.000330 
#    y 0.000000 1.784120 0.000000 
#    z -0.000330 0.000000 1.803820 
# 
# From -- ./inp_files/101313.got.cif
#   From: 2010.06.25/outbox.cif.g09.slc.cpg/sg15_51_cif.got.tgz:101313.got - 2010.06.28 07:06:18.
