data_PCOD8139010
_publ_section_title
;
Structure prediction by ZEFSAII (Michael W. Deem and Ramdas Pophale) SiO2 
 PCOD8139010
Probable space group: C 2/C
;
_chemical_formula_sum "Si O2"
_cell_formula_units_Z 60
_cell_length_a 19.090078
_cell_length_b 29.169576
_cell_length_c 5.166429
_cell_angle_alpha 90.000000
_cell_angle_beta 85.993658
_cell_angle_gamma 90.000000
_cell_volume 2869.893036
_symmetry_space_group_name_H-M "C 2/C"
_symmetry_group_IT_number 15
_symmetry_cell_setting 'monoclinic'
loop_
_space_group_symop_operation_xyz
x,y,z
-x,y,1/2-z
-x,-y,-z
x,-y,1/2+z
1/2+x,1/2+y,z
1/2-x,1/2+y,1/2-z
1/2-x,1/2-y,-z
1/2+x,1/2-y,1/2+z
loop_
_atom_site_type_symbol
_atom_site_label
_atom_site_fract_x
_atom_site_fract_y
_atom_site_fract_z
Si Si1 0.703171 0.029630 0.846290
Si Si2 0.782507 0.880598 0.234381
Si Si3 0.608097 0.183754 0.565277
Si Si4 0.423465 0.904869 0.150853
Si Si5 0.076510 0.831234 0.291652
Si Si6 0.758276 0.670849 0.256611
Si Si7 0.619028 0.279058 0.786630
Si Si8 0.500000 0.149443 0.250000
O O1 0.764946 0.066521 0.790128
O O2 0.624737 0.050481 0.847596
O O3 0.712084 0.990754 0.629151
O O4 0.866131 0.871907 0.246838
O O5 0.740277 0.850048 0.455640
O O6 0.760450 0.868027 0.949309
O O7 0.620941 0.133705 0.685440
O O8 0.666166 0.192628 0.327768
O O9 0.608806 0.224622 0.770206
O O10 0.529711 0.182231 0.465893
O O11 0.500000 0.916899 0.250000
O O12 0.436951 0.883628 0.863301
O O13 0.078633 0.806816 0.570828
O O14 0.000000 0.852838 0.250000
O O15 0.090036 0.792531 0.073356
O O16 0.702056 0.711532 0.249489
#
# Coordination Sequence:
#
# PCOD8139010 Si02
#       8
#     8   8   8   8   8   8   8   4
#     4  12  26  42  68  93 114 149 194 260 311 365
#     4  10  21  41  63  91 120 156 199 246 308 368
#     4  11  22  37  58  84 125 168 210 253 297 341
#     4  10  24  41  59  84 119 164 204 243 310 360
#     4  10  22  39  61  89 127 165 199 244 293 355
#     4  10  20  38  64  84 122 164 203 254 292 352
#     4  10  23  35  58  95 122 162 215 248 286 338
#     4  10  24  38  58  80 118 178 198 248 294 364
#
# _framework density 20.906701999999999
#
# number of rings (size 3 to 8) (size 9 to 14) (size 15 to 20)
#    0.000    1.600    1.333    2.400    6.533    2.667 
#    0.000    4.000    0.000    0.800    0.000    0.000 
#    0.000    0.000    0.000    0.000    0.000    0.000 
#
# Total GULP energy -372013.279072 kJ/mol
# GULP energy per Si atom -12400.442636 kJ/mol
# Density = 2.085912 g / cm^3
# Si number density = 20.906702 Si / 1000 Ang^3
#
#
#
# Elastic Constant Matrix: (Units=GPa)
#
#
# Indices 1 2 3 4 5 6 
#
# 1 83.2433 28.0014 -1.2129 0.0000 -3.6405 0.0000
# 2 28.0014 82.9092 3.0578 0.0000 5.2931 0.0000
# 3 -1.2129 3.0578 72.0505 0.0000 1.1854 0.0000
# 4 0.0000 0.0000 0.0000 24.9473 0.0000 5.5159
# 5 -3.6405 5.2931 1.1854 0.0000 26.7095 0.0000
# 6 0.0000 0.0000 0.0000 5.5159 0.0000 27.9064
#
#
#
# Elastic Compliance Matrix: (Units=1/GPa)
#
#
# Indices 1 2 3 4 5 6 
#
# 1 0.013772 -0.004846 0.000391 0.000000 0.002820 0.000000
# 2 -0.004846 0.013937 -0.000617 0.000000 -0.003395 0.000000
# 3 0.000391 -0.000617 0.013919 0.000000 -0.000442 0.000000
# 4 0.000000 0.000000 0.000000 0.041916 0.000000 -0.008285
# 5 0.002820 -0.003395 -0.000442 0.000000 0.038517 0.000000
# 6 0.000000 0.000000 0.000000 -0.008285 0.000000 0.037472
#
#
# Mechanical properties :
#
#
# Convention : Reuss Voigt Hill
#
# Bulk Modulus (GPa) = 31.76120 33.09950 32.43035
# Shear Modulus (GPa) = 27.75122 29.80308 28.77715
#
# Velocity S-wave (km/s) = 3.64728 3.77971 3.71409
# Velocity P-wave (km/s) = 5.74123 5.90886 5.82565
#
# Compressibility (1/GPa) = 0.03148495
#
# Stress axis : x y z
#
# Youngs Moduli (GPa) = 72.61098 71.74902 71.84314
#
# Poissons Ratio (x) = 0.34768 -0.02810
# Poissons Ratio (y) = 0.35185 0.04434
# Poissons Ratio (z) = -0.02840 0.04429
#
# Static dielectric constant tensor:
#      x y z
#    x 3.944500 0.000000 -0.020800 
#    y 0.000000 3.412960 0.000000 
#    z -0.020800 0.000000 4.015540 
# 
# 
# High freq. dielectric constant tensor:
#      x y z
#    x 1.826000 0.000000 -0.001580 
#    y 0.000000 1.781090 0.000000 
#    z -0.001580 0.000000 1.839110 
# 
# From -- ./inp_files/11553.got.cif
#   From: 2010.06.25/outbox.cif.g09.slc.cpg/sg15_6_cif.got.tgz:11553.got - 2010.06.28 07:06:18.
