data_PCOD8139712
_publ_section_title
;
Structure prediction by ZEFSAII (Michael W. Deem and Ramdas Pophale) SiO2 
 PCOD8139712
Probable space group: C 2/C
;
_chemical_formula_sum "Si O2"
_cell_formula_units_Z 40
_cell_length_a 8.518212
_cell_length_b 23.982111
_cell_length_c 7.395241
_cell_angle_alpha 90.000000
_cell_angle_beta 85.963791
_cell_angle_gamma 90.000000
_cell_volume 1506.987658
_symmetry_space_group_name_H-M "C 2/C"
_symmetry_group_IT_number 15
_symmetry_cell_setting 'monoclinic'
loop_
_space_group_symop_operation_xyz
x,y,z
-x,y,1/2-z
-x,-y,-z
x,-y,1/2+z
1/2+x,1/2+y,z
1/2-x,1/2+y,1/2-z
1/2-x,1/2-y,-z
1/2+x,1/2-y,1/2+z
loop_
_atom_site_type_symbol
_atom_site_label
_atom_site_fract_x
_atom_site_fract_y
_atom_site_fract_z
Si Si1 0.614852 0.089791 0.072372
Si Si2 0.181715 0.190996 0.446614
Si Si3 0.317320 0.917944 0.381151
Si Si4 0.674078 0.309775 0.525558
Si Si5 0.183885 0.011859 0.208965
O O1 0.500000 0.106112 0.250000
O O2 0.707425 0.142893 0.982434
O O3 0.501581 0.072817 0.911876
O O4 0.732730 0.040424 0.122285
O O5 0.250000 0.250000 0.500000
O O6 0.181480 0.176015 0.235097
O O7 0.003957 0.188968 0.534629
O O8 0.273195 0.852774 0.395007
O O9 0.208363 0.949918 0.534776
O O10 0.262914 0.948980 0.196910
O O11 0.750000 0.250000 0.500000
O O12 0.000000 0.006271 0.250000
#
# Coordination Sequence:
#
# PCOD8139712 Si02
#       5
#     8   8   8   8   8
#     4  10  20  39  68  91 132 174 217 273 335 388
#     4  11  23  41  72  95 128 179 220 270 337 396
#     4  11  23  42  66  92 134 174 217 276 329 393
#     4  11  24  45  68  97 136 171 220 276 337 395
#     4  11  22  40  65  94 128 175 219 271 333 389
#
# _framework density 26.543015
#
# number of rings (size 3 to 8) (size 9 to 14) (size 15 to 20)
#    0.000    1.200    4.000    3.600    0.000    0.000 
#    7.200    0.000    8.800    0.000    0.000    0.000 
#    0.000    0.000    0.000    0.000    0.000    0.000 
#
# Total GULP energy -248049.995619 kJ/mol
# GULP energy per Si atom -12402.499781 kJ/mol
# Density = 2.648260 g / cm^3
# Si number density = 26.543015 Si / 1000 Ang^3
#
#
#
# Elastic Constant Matrix: (Units=GPa)
#
#
# Indices 1 2 3 4 5 6 
#
# 1 237.2393 70.9766 3.8669 0.0000 0.8169 0.0000
# 2 70.9766 185.4316 0.4295 0.0000 -6.7788 0.0000
# 3 3.8669 0.4295 78.5458 0.0000 10.6003 0.0000
# 4 0.0000 0.0000 0.0000 32.8200 0.0000 -0.1651
# 5 0.8169 -6.7788 10.6003 0.0000 22.2640 0.0000
# 6 0.0000 0.0000 0.0000 -0.1651 0.0000 62.8974
#
#
#
# Elastic Compliance Matrix: (Units=1/GPa)
#
#
# Indices 1 2 3 4 5 6 
#
# 1 0.004774 -0.001852 -0.000134 0.000000 -0.000675 0.000000
# 2 -0.001852 0.006177 -0.000220 0.000000 0.002053 0.000000
# 3 -0.000134 -0.000220 0.013623 0.000000 -0.006548 0.000000
# 4 0.000000 0.000000 0.000000 0.030470 0.000000 0.000080
# 5 -0.000675 0.002053 -0.006548 0.000000 0.048683 0.000000
# 6 0.000000 0.000000 0.000000 0.000080 0.000000 0.015899
#
#
# Mechanical properties :
#
#
# Convention : Reuss Voigt Hill
#
# Bulk Modulus (GPa) = 49.59441 72.41808 61.00625
# Shear Modulus (GPa) = 38.23896 51.99253 45.11575
#
# Velocity S-wave (km/s) = 3.79970 4.43064 4.12724
# Velocity P-wave (km/s) = 6.16241 7.31550 6.76358
#
# Compressibility (1/GPa) = 0.02016356
#
# Stress axis : x y z
#
# Youngs Moduli (GPa) = 209.48570 161.88832 73.40563
#
# Poissons Ratio (x) = 0.29974 0.00982
# Poissons Ratio (y) = 0.38787 0.01613
# Poissons Ratio (z) = 0.02802 0.03557
#
# Static dielectric constant tensor:
#      x y z
#    x 5.049590 0.000000 0.222420 
#    y 0.000000 4.890850 0.000000 
#    z 0.222420 0.000000 5.801390 
# 
# 
# High freq. dielectric constant tensor:
#      x y z
#    x 2.088660 0.000000 -0.005480 
#    y 0.000000 2.074150 0.000000 
#    z -0.005480 0.000000 2.098070 
# 
# From -- ./inp_files/23596.got.cif
#   From: 2010.06.25/outbox.cif.g09.slc.cpg/sg15_12_cif.got.tgz:23596.got - 2010.06.28 07:06:18.
