data_PCOD8139983
_publ_section_title
;
Structure prediction by ZEFSAII (Michael W. Deem and Ramdas Pophale) SiO2 
 PCOD8139983
Probable space group: C 2/C
;
_chemical_formula_sum "Si O2"
_cell_formula_units_Z 48
_cell_length_a 11.727993
_cell_length_b 14.112425
_cell_length_c 26.657134
_cell_angle_alpha 90.000000
_cell_angle_beta 149.495715
_cell_angle_gamma 90.000000
_cell_volume 2239.560554
_symmetry_space_group_name_H-M "C 2/C"
_symmetry_group_IT_number 15
_symmetry_cell_setting 'monoclinic'
loop_
_space_group_symop_operation_xyz
x,y,z
-x,y,1/2-z
-x,-y,-z
x,-y,1/2+z
1/2+x,1/2+y,z
1/2-x,1/2+y,1/2-z
1/2-x,1/2-y,-z
1/2+x,1/2-y,1/2+z
loop_
_atom_site_type_symbol
_atom_site_label
_atom_site_fract_x
_atom_site_fract_y
_atom_site_fract_z
Si Si1 0.453102 0.624969 0.533665
Si Si2 0.247477 0.804274 0.853535
Si Si3 0.485239 0.956232 0.886693
Si Si4 0.960814 0.165970 0.423027
Si Si5 0.308873 0.991549 0.715350
Si Si6 0.375158 0.861629 0.010547
O O1 0.558408 0.727918 0.584255
O O2 0.198013 0.611290 0.455348
O O3 0.463330 0.611500 0.477543
O O4 0.586515 0.548618 0.617044
O O5 0.284952 0.889985 0.829567
O O6 0.000000 0.760352 0.750000
O O7 0.251475 0.846512 0.911007
O O8 0.397432 0.012184 0.804541
O O9 0.523638 0.033439 0.945309
O O10 0.203830 0.147711 0.491580
O O11 0.929592 0.280145 0.412988
O O12 0.755903 0.120278 0.313907
O O13 0.500000 0.023713 0.750000
#
# Coordination Sequence:
#
# PCOD8139983 Si02
#       6
#     8   8   8   8   8   8
#     4  11  23  42  65  97 129 166 219 276 329 375
#     4  11  25  44  65  92 131 179 219 258 326 402
#     4  12  24  41  67  96 130 174 215 273 322 387
#     4  10  20  40  64  92 129 169 210 270 329 380
#     4  12  22  36  65  97 130 161 218 276 324 383
#     4  10  22  41  66  89 129 172 211 264 325 389
#
# _framework density 21.432774999999999
#
# number of rings (size 3 to 8) (size 9 to 14) (size 15 to 20)
#    0.000    1.000    3.333    4.000    0.000    4.000 
#    0.000    0.833    0.000    0.000    0.000    0.000 
#    0.000    0.000    0.000    0.000    0.000    0.000 
#
# Total GULP energy -297541.124135 kJ/mol
# GULP energy per Si atom -12397.546839 kJ/mol
# Density = 2.138399 g / cm^3
# Si number density = 21.432775 Si / 1000 Ang^3
#
#
#
# Elastic Constant Matrix: (Units=GPa)
#
#
# Indices 1 2 3 4 5 6 
#
# 1 70.4862 33.8810 24.6104 -0.0001 -8.4814 0.0000
# 2 33.8810 87.5700 36.2719 0.0001 -7.3374 0.0000
# 3 24.6104 36.2719 92.0748 -0.0001 -9.5164 0.0001
# 4 -0.0001 0.0001 -0.0001 30.7747 0.0000 0.0483
# 5 -8.4814 -7.3374 -9.5164 0.0000 33.1515 0.0000
# 6 0.0000 0.0000 0.0001 0.0483 0.0000 31.2192
#
#
#
# Elastic Compliance Matrix: (Units=1/GPa)
#
#
# Indices 1 2 3 4 5 6 
#
# 1 0.018110 -0.005845 -0.002260 0.000000 0.002691 0.000000
# 2 -0.005845 0.015608 -0.004518 0.000000 0.000662 0.000000
# 3 -0.002260 -0.004518 0.013481 0.000000 0.002292 0.000000
# 4 0.000000 0.000000 0.000000 0.032494 0.000000 -0.000050
# 5 0.002691 0.000662 0.002292 0.000000 0.031657 0.000000
# 6 0.000000 0.000000 0.000000 -0.000050 0.000000 0.032032
#
#
# Mechanical properties :
#
#
# Convention : Reuss Voigt Hill
#
# Bulk Modulus (GPa) = 45.55109 48.85085 47.20097
# Shear Modulus (GPa) = 28.41800 29.38694 28.90247
#
# Velocity S-wave (km/s) = 3.64526 3.70688 3.67620
# Velocity P-wave (km/s) = 6.24631 6.41587 6.33166
#
# Compressibility (1/GPa) = 0.02195337
#
# Stress axis : x y z
#
# Youngs Moduli (GPa) = 55.21945 64.07101 74.17680
#
# Poissons Ratio (x) = 0.37451 0.16762
# Poissons Ratio (y) = 0.32277 0.33511
# Poissons Ratio (z) = 0.12478 0.28945
#
# Static dielectric constant tensor:
#      x y z
#    x 3.793300 0.000000 -0.073270 
#    y 0.000000 4.073400 0.000000 
#    z -0.073270 0.000000 3.741420 
# 
# 
# High freq. dielectric constant tensor:
#      x y z
#    x 1.840490 0.000000 -0.008850 
#    y 0.000000 1.844100 0.000000 
#    z -0.008850 0.000000 1.833390 
# 
# From -- ./inp_files/123569.got.cif
#   From: 2010.06.25/outbox.cif.g09.slc.cpg/sg15_62_cif.got.tgz:123569.got - 2010.06.28 07:06:18.
