data_PCOD8139854
_publ_section_title
;
Structure prediction by ZEFSAII (Michael W. Deem and Ramdas Pophale) SiO2 
 PCOD8139854
Probable space group: C 2/C
;
_chemical_formula_sum "Si O2"
_cell_formula_units_Z 56
_cell_length_a 11.781214
_cell_length_b 8.724622
_cell_length_c 27.819220
_cell_angle_alpha 90.000000
_cell_angle_beta 71.785493
_cell_angle_gamma 90.000000
_cell_volume 2716.165780
_symmetry_space_group_name_H-M "C 2/C"
_symmetry_group_IT_number 15
_symmetry_cell_setting 'monoclinic'
loop_
_space_group_symop_operation_xyz
x,y,z
-x,y,1/2-z
-x,-y,-z
x,-y,1/2+z
1/2+x,1/2+y,z
1/2-x,1/2+y,1/2-z
1/2-x,1/2-y,-z
1/2+x,1/2-y,1/2+z
loop_
_atom_site_type_symbol
_atom_site_label
_atom_site_fract_x
_atom_site_fract_y
_atom_site_fract_z
Si Si1 0.537646 0.422661 0.609123
Si Si2 0.139433 0.599497 0.741215
Si Si3 0.783299 0.400268 0.900279
Si Si4 0.264871 0.238725 0.865498
Si Si5 0.302099 0.663856 0.188259
Si Si6 0.498740 0.762523 0.917886
Si Si7 0.046717 0.838163 0.977035
O O1 0.658090 0.367397 0.618154
O O2 0.426642 0.422519 0.660778
O O3 0.552829 0.595727 0.589039
O O4 0.511047 0.307033 0.567874
O O5 0.183488 0.715699 0.694357
O O6 0.216086 0.443580 0.731735
O O7 0.164875 0.679273 0.789009
O O8 0.000000 0.562312 0.750000
O O9 0.760148 0.579132 0.894460
O O10 0.766883 0.304370 0.852824
O O11 0.690293 0.340357 0.952442
O O12 0.916449 0.386225 0.902452
O O13 0.130044 0.299856 0.881209
O O14 0.491004 0.784501 0.977086
O O15 0.000000 0.000000 0.000000
#
# Coordination Sequence:
#
# PCOD8139854 Si02
#       7
#     8   8   8   8   8   8   8
#     4  10  20  40  62  84 123 155 194 241 298 344
#     4  11  22  40  63  85 119 156 196 244 299 349
#     4  10  21  40  62  88 124 154 197 243 293 349
#     4  11  22  40  60  86 121 155 193 248 294 345
#     4  10  22  42  60  88 118 154 196 248 292 351
#     4  11  21  40  62  88 122 158 196 239 294 351
#     4   9  17  38  64  84 120 164 187 241 298 343
#
# _framework density 20.617298999999999
#
# number of rings (size 3 to 8) (size 9 to 14) (size 15 to 20)
#    0.000    1.714    7.143    0.429    0.000    4.000 
#    5.143    0.714    0.000    0.000    0.000    0.000 
#    0.000    0.000    0.000    0.000    0.000    0.000 
#
# Total GULP energy -347133.518138 kJ/mol
# GULP energy per Si atom -12397.625648 kJ/mol
# Density = 2.057037 g / cm^3
# Si number density = 20.617299 Si / 1000 Ang^3
#
#
#
# Elastic Constant Matrix: (Units=GPa)
#
#
# Indices 1 2 3 4 5 6 
#
# 1 132.8497 18.7623 20.9919 0.0000 -14.9984 0.0000
# 2 18.7623 20.1310 6.5405 0.0000 1.1254 0.0000
# 3 20.9919 6.5405 80.4119 0.0000 -14.5144 0.0000
# 4 0.0000 0.0000 0.0000 15.5901 0.0000 2.7372
# 5 -14.9984 1.1254 -14.5144 0.0000 28.5601 0.0000
# 6 0.0000 0.0000 0.0000 2.7372 0.0000 34.7457
#
#
#
# Elastic Compliance Matrix: (Units=1/GPa)
#
#
# Indices 1 2 3 4 5 6 
#
# 1 0.009459 -0.008804 -0.000874 0.000000 0.004870 0.000000
# 2 -0.008804 0.059756 -0.004208 0.000000 -0.009116 0.000000
# 3 -0.000874 -0.004208 0.014262 0.000000 0.006955 0.000000
# 4 0.000000 0.000000 0.000000 0.065043 0.000000 -0.005124
# 5 0.004870 -0.009116 0.006955 0.000000 0.041465 0.000000
# 6 0.000000 0.000000 0.000000 -0.005124 0.000000 0.029184
#
#
# Mechanical properties :
#
#
# Convention : Reuss Voigt Hill
#
# Bulk Modulus (GPa) = 17.95152 36.22024 27.08588
# Shear Modulus (GPa) = 18.83180 28.25237 23.54209
#
# Velocity S-wave (km/s) = 3.02553 3.70580 3.38281
# Velocity P-wave (km/s) = 4.57504 5.99305 5.33140
#
# Compressibility (1/GPa) = 0.05570560
#
# Stress axis : x y z
#
# Youngs Moduli (GPa) = 105.72430 16.73460 70.11776
#
# Poissons Ratio (x) = 0.14733 0.06129
# Poissons Ratio (y) = 0.93077 0.29504
# Poissons Ratio (z) = 0.09241 0.07041
#
# Static dielectric constant tensor:
#      x y z
#    x 3.842590 0.000000 0.099670 
#    y 0.000000 3.282400 0.000000 
#    z 0.099670 0.000000 4.252500 
# 
# 
# High freq. dielectric constant tensor:
#      x y z
#    x 1.812590 0.000000 -0.005500 
#    y 0.000000 1.767060 0.000000 
#    z -0.005500 0.000000 1.820200 
# 
# From -- ./inp_files/291489.got.cif
#   From: 2010.06.25/outbox.cif.g09.slc.cpg/sg15_146_cif.got.tgz:291489.got - 2010.06.28 07:06:18.
