data_PCOD8139491
_publ_section_title
;
Structure prediction by ZEFSAII (Michael W. Deem and Ramdas Pophale) SiO2 
 PCOD8139491
Probable space group: C 2/C
;
_chemical_formula_sum "Si O2"
_cell_formula_units_Z 64
_cell_length_a 25.965924
_cell_length_b 9.069975
_cell_length_c 14.182640
_cell_angle_alpha 90.000000
_cell_angle_beta 70.156045
_cell_angle_gamma 90.000000
_cell_volume 3141.821076
_symmetry_space_group_name_H-M "C 2/C"
_symmetry_group_IT_number 15
_symmetry_cell_setting 'monoclinic'
loop_
_space_group_symop_operation_xyz
x,y,z
-x,y,1/2-z
-x,-y,-z
x,-y,1/2+z
1/2+x,1/2+y,z
1/2-x,1/2+y,1/2-z
1/2-x,1/2-y,-z
1/2+x,1/2-y,1/2+z
loop_
_atom_site_type_symbol
_atom_site_label
_atom_site_fract_x
_atom_site_fract_y
_atom_site_fract_z
Si Si1 0.006186 0.769290 0.954048
Si Si2 0.700508 0.370223 0.776004
Si Si3 0.981772 0.930603 0.155275
Si Si4 0.137215 0.158328 0.796333
Si Si5 0.876354 0.634136 0.617664
Si Si6 0.302527 0.804366 0.412636
Si Si7 0.313806 0.072953 0.294119
Si Si8 0.390735 0.851306 0.506245
O O1 0.062724 0.688997 0.896330
O O2 0.956266 0.662801 0.955858
O O3 0.998096 0.911086 0.892524
O O4 0.004356 0.809743 0.066805
O O5 0.684132 0.540569 0.787384
O O6 0.664447 0.273743 0.873318
O O7 0.690148 0.300559 0.680934
O O8 0.764354 0.370023 0.759373
O O9 0.916335 0.930814 0.198463
O O10 0.000000 0.894038 0.250000
O O11 0.154310 0.273941 0.702158
O O12 0.129891 0.255955 0.893518
O O13 0.855589 0.539542 0.718708
O O14 0.876917 0.525285 0.527160
O O15 0.250000 0.750000 0.500000
O O16 0.358828 0.790147 0.435641
O O17 0.291951 0.978838 0.396265
#
# Coordination Sequence:
#
# PCOD8139491 Si02
#       8
#     8   8   8   8   8   8   8   8
#     4  10  21  39  62  90 122 164 201 255 314 366
#     4  11  21  39  64  85 117 167 205 245 313 371
#     4  10  22  37  59  90 126 159 202 251 308 375
#     4  10  20  40  59  86 120 161 199 250 310 366
#     4  10  20  39  63  88 118 162 203 243 310 370
#     4  11  23  40  60  92 122 159 210 258 310 368
#     4  10  22  38  60  86 119 162 205 252 307 365
#     4  10  22  38  62  90 126 153 200 258 305 368
#
# _framework density 20.370350999999999
#
# number of rings (size 3 to 8) (size 9 to 14) (size 15 to 20)
#    0.000    1.750    1.250    4.125    1.750    1.000 
#    0.000    3.750    0.000    1.500    0.000    0.000 
#    0.000    0.000    0.000    0.000    0.000    0.000 
#
# Total GULP energy -396670.197126 kJ/mol
# GULP energy per Si atom -12395.943660 kJ/mol
# Density = 2.032399 g / cm^3
# Si number density = 20.370351 Si / 1000 Ang^3
#
#
#
# Elastic Constant Matrix: (Units=GPa)
#
#
# Indices 1 2 3 4 5 6 
#
# 1 111.5633 29.7027 53.4352 0.0000 -8.1182 0.0000
# 2 29.7027 114.2115 36.1125 0.0000 -13.6565 0.0000
# 3 53.4352 36.1125 72.3178 0.0000 -2.0215 0.0000
# 4 0.0000 0.0000 0.0000 36.9655 0.0000 -7.3263
# 5 -8.1182 -13.6565 -2.0215 0.0000 38.9960 0.0000
# 6 0.0000 0.0000 0.0000 -7.3263 0.0000 31.2006
#
#
#
# Elastic Compliance Matrix: (Units=1/GPa)
#
#
# Indices 1 2 3 4 5 6 
#
# 1 0.014095 -0.000133 -0.010283 0.000000 0.002355 0.000000
# 2 -0.000133 0.010862 -0.005228 0.000000 0.003505 0.000000
# 3 -0.010283 -0.005228 0.023960 0.000000 -0.002729 0.000000
# 4 0.000000 0.000000 0.000000 0.028373 0.000000 0.006662
# 5 0.002355 0.003505 -0.002729 0.000000 0.027220 0.000000
# 6 0.000000 0.000000 0.000000 0.006662 0.000000 0.033615
#
#
# Mechanical properties :
#
#
# Convention : Reuss Voigt Hill
#
# Bulk Modulus (GPa) = 56.72012 59.62151 58.17082
# Shear Modulus (GPa) = 28.52415 33.35524 30.93969
#
# Velocity S-wave (km/s) = 3.74609 4.05092 3.90148
# Velocity P-wave (km/s) = 6.82758 7.15627 6.99386
#
# Compressibility (1/GPa) = 0.01763043
#
# Stress axis : x y z
#
# Youngs Moduli (GPa) = 70.94519 92.06018 41.73593
#
# Poissons Ratio (x) = 0.01223 0.42916
# Poissons Ratio (y) = 0.00943 0.21820
# Poissons Ratio (z) = 0.72952 0.48130
#
# Static dielectric constant tensor:
#      x y z
#    x 3.747200 0.000000 -0.317850 
#    y 0.000000 4.069000 0.000000 
#    z -0.317850 0.000000 3.805030 
# 
# 
# High freq. dielectric constant tensor:
#      x y z
#    x 1.798830 0.000000 -0.023080 
#    y 0.000000 1.810820 0.000000 
#    z -0.023080 0.000000 1.775180 
# 
# From -- ./inp_files/176579.got.cif
#   From: 2010.06.25/outbox.cif.g09.slc.cpg/sg15_89_cif.got.tgz:176579.got - 2010.06.28 07:06:18.
