data_PCOD8139229
_publ_section_title
;
Structure prediction by ZEFSAII (Michael W. Deem and Ramdas Pophale) SiO2 
 PCOD8139229
Probable space group: C 2/C
;
_chemical_formula_sum "Si O2"
_cell_formula_units_Z 44
_cell_length_a 26.413459
_cell_length_b 9.576202
_cell_length_c 26.904195
_cell_angle_alpha 90.000000
_cell_angle_beta 160.947705
_cell_angle_gamma 90.000000
_cell_volume 2221.416487
_symmetry_space_group_name_H-M "C 2/C"
_symmetry_group_IT_number 15
_symmetry_cell_setting 'monoclinic'
loop_
_space_group_symop_operation_xyz
x,y,z
-x,y,1/2-z
-x,-y,-z
x,-y,1/2+z
1/2+x,1/2+y,z
1/2-x,1/2+y,1/2-z
1/2-x,1/2-y,-z
1/2+x,1/2-y,1/2+z
loop_
_atom_site_type_symbol
_atom_site_label
_atom_site_fract_x
_atom_site_fract_y
_atom_site_fract_z
Si Si1 0.209001 0.861668 0.527574
Si Si2 0.650564 0.853923 0.058517
Si Si3 0.299392 0.370654 0.719766
Si Si4 0.659609 0.590908 0.560519
Si Si5 0.201592 0.627039 0.239596
Si Si6 0.500000 0.260478 0.250000
O O1 0.158838 0.734940 0.516292
O O2 0.385120 0.840984 0.673478
O O3 0.093869 0.862455 0.373859
O O4 0.197692 0.008449 0.545314
O O5 0.726749 0.772919 0.175498
O O6 0.747377 0.995468 0.139412
O O7 0.473598 0.889763 0.905130
O O8 0.258530 0.232318 0.651075
O O9 0.204773 0.375248 0.683373
O O10 0.480402 0.371825 0.898423
O O11 0.700701 0.500800 0.647266
#
# Coordination Sequence:
#
# PCOD8139229 Si02
#       6
#     8   8   8   8   8   4
#     4  10  21  39  62  89 106 142 184 244 293 345
#     4  11  21  36  59  84 120 151 196 236 280 330
#     4  12  22  36  56  83 121 164 191 230 274 332
#     4  11  23  37  56  83 120 151 196 234 283 334
#     4  11  21  36  55  85 118 161 201 231 263 324
#     4  10  20  38  68  86 106 132 190 240 300 358
#
# _framework density 19.807182999999998
#
# number of rings (size 3 to 8) (size 9 to 14) (size 15 to 20)
#    0.000    1.091    0.000    9.818    0.000    0.000 
#    0.000    0.000    0.000   18.545    0.000    0.000 
#    0.000    0.000    0.000    0.000    0.000    0.000 
#
# Total GULP energy -272965.941927 kJ/mol
# GULP energy per Si atom -12407.542815 kJ/mol
# Density = 1.976210 g / cm^3
# Si number density = 19.807183 Si / 1000 Ang^3
#
#
#
# Elastic Constant Matrix: (Units=GPa)
#
#
# Indices 1 2 3 4 5 6 
#
# 1 61.9387 11.8820 12.6893 -0.0051 4.4450 -0.0180
# 2 11.8820 139.7001 39.4074 0.0117 -6.1440 0.0473
# 3 12.6893 39.4074 120.3637 0.0203 16.0941 0.0443
# 4 -0.0051 0.0117 0.0203 37.7736 -0.0027 -5.0073
# 5 4.4450 -6.1440 16.0941 -0.0027 34.5020 0.0139
# 6 -0.0180 0.0473 0.0443 -5.0073 0.0139 24.6640
#
#
#
# Elastic Compliance Matrix: (Units=1/GPa)
#
#
# Indices 1 2 3 4 5 6 
#
# 1 0.016736 -0.001186 -0.001130 0.000006 -0.001840 0.000019
# 2 -0.001186 0.008229 -0.002971 -0.000003 0.003004 -0.000014
# 3 -0.001130 -0.002971 0.010080 -0.000007 -0.005085 -0.000012
# 4 0.000006 -0.000003 -0.000007 0.027206 0.000002 0.005523
# 5 -0.001840 0.003004 -0.005085 0.000002 0.032128 -0.000016
# 6 0.000019 -0.000014 -0.000012 0.005523 -0.000016 0.041666
#
#
# Mechanical properties :
#
#
# Convention : Reuss Voigt Hill
#
# Bulk Modulus (GPa) = 40.86337 49.99555 45.42946
# Shear Modulus (GPa) = 32.30474 36.58950 34.44712
#
# Velocity S-wave (km/s) = 4.04290 4.30267 4.17480
# Velocity P-wave (km/s) = 6.51680 7.06964 6.79884
#
# Compressibility (1/GPa) = 0.02447180
#
# Stress axis : x y z
#
# Youngs Moduli (GPa) = 59.75128 121.51829 99.20641
#
# Poissons Ratio (x) = 0.14407 0.11212
# Poissons Ratio (y) = 0.07084 0.29474
# Poissons Ratio (z) = 0.06753 0.36102
#
# Static dielectric constant tensor:
#      x y z
#    x 3.592260 0.000000 -0.073650 
#    y 0.000000 3.673990 -0.000080 
#    z -0.073650 -0.000080 3.855400 
# 
# 
# High freq. dielectric constant tensor:
#      x y z
#    x 1.759000 0.000000 0.003810 
#    y 0.000000 1.767820 0.000000 
#    z 0.003810 0.000000 1.797440 
# 
# From -- ./inp_files/68290.got.cif
#   From: 2010.06.25/outbox.cif.g09.slc.cpg/sg15_35_cif.got.tgz:68290.got - 2010.06.28 07:06:18.
