data_PCOD8139209
_publ_section_title
;
Structure prediction by ZEFSAII (Michael W. Deem and Ramdas Pophale) SiO2 
 PCOD8139209
Probable space group: C 2/C
;
_chemical_formula_sum "Si O2"
_cell_formula_units_Z 64
_cell_length_a 9.116858
_cell_length_b 29.015900
_cell_length_c 17.017495
_cell_angle_alpha 90.000000
_cell_angle_beta 135.662079
_cell_angle_gamma 90.000000
_cell_volume 3146.190067
_symmetry_space_group_name_H-M "C 2/C"
_symmetry_group_IT_number 15
_symmetry_cell_setting 'monoclinic'
loop_
_space_group_symop_operation_xyz
x,y,z
-x,y,1/2-z
-x,-y,-z
x,-y,1/2+z
1/2+x,1/2+y,z
1/2-x,1/2+y,1/2-z
1/2-x,1/2-y,-z
1/2+x,1/2-y,1/2+z
loop_
_atom_site_type_symbol
_atom_site_label
_atom_site_fract_x
_atom_site_fract_y
_atom_site_fract_z
Si Si1 0.283394 0.363968 0.138403
Si Si2 0.609977 0.820416 0.458964
Si Si3 0.108082 0.205335 0.948415
Si Si4 0.534632 0.387250 0.855336
Si Si5 0.903006 0.438922 0.542119
Si Si6 0.787736 0.630117 0.134579
Si Si7 0.720057 0.752820 0.364910
Si Si8 0.188475 0.980881 0.872017
O O1 0.500000 0.388593 0.250000
O O2 0.369099 0.321092 0.123130
O O3 0.135800 0.398991 0.035581
O O4 0.122097 0.342570 0.139899
O O5 0.650625 0.791677 0.397959
O O6 0.632220 0.786955 0.542899
O O7 0.782215 0.859327 0.533354
O O8 0.865290 0.221369 0.857523
O O9 0.250000 0.250000 0.000000
O O10 0.166784 0.170212 0.041545
O O11 0.500000 0.373526 0.750000
O O12 0.330028 0.382118 0.830160
O O13 0.595708 0.440119 0.887989
O O14 0.841090 0.416383 0.602932
O O15 0.762616 0.482584 0.464855
O O16 0.140381 0.458312 0.623354
O O17 0.000000 0.651978 0.250000
O O18 0.500000 0.730960 0.250000
O O19 0.000000 0.003926 0.750000
#
# Coordination Sequence:
#
# PCOD8139209 Si02
#       8
#     8   8   8   8   8   8   8   8
#     4  11  22  38  61  86 118 159 200 246 303 368
#     4  11  22  39  59  87 116 157 209 250 302 367
#     4  11  23  40  58  88 123 155 203 255 303 366
#     4  11  22  38  65  91 120 161 208 255 308 366
#     4  10  22  40  61  92 127 156 202 253 303 370
#     4  11  24  40  63  91 124 164 206 258 309 360
#     4  11  23  40  59  83 119 160 202 255 308 361
#     4  10  20  38  67  94 122 162 201 247 309 374
#
# _framework density 20.342065000000002
#
# number of rings (size 3 to 8) (size 9 to 14) (size 15 to 20)
#    0.000    1.250    3.750    3.000    1.750    2.000 
#    0.000    0.000    0.000    0.750    0.000    0.000 
#    0.000    0.000    0.000    0.000    0.000    0.000 
#
# Total GULP energy -396449.069288 kJ/mol
# GULP energy per Si atom -12389.033415 kJ/mol
# Density = 2.029577 g / cm^3
# Si number density = 20.342065 Si / 1000 Ang^3
#
#
#
# Elastic Constant Matrix: (Units=GPa)
#
#
# Indices 1 2 3 4 5 6 
#
# 1 104.7149 27.1120 34.6619 0.0000 14.4012 0.0000
# 2 27.1120 63.9392 6.7181 0.0000 5.9508 0.0000
# 3 34.6619 6.7181 76.4873 0.0000 23.4450 0.0000
# 4 0.0000 0.0000 0.0000 13.4126 0.0000 9.6603
# 5 14.4012 5.9508 23.4450 0.0000 38.5443 0.0000
# 6 0.0000 0.0000 0.0000 9.6603 0.0000 18.8252
#
#
#
# Elastic Compliance Matrix: (Units=1/GPa)
#
#
# Indices 1 2 3 4 5 6 
#
# 1 0.012548 -0.004710 -0.004989 0.000000 -0.000927 0.000000
# 2 -0.004710 0.017675 0.001081 0.000000 -0.001626 0.000000
# 3 -0.004989 0.001081 0.018093 0.000000 -0.009308 0.000000
# 4 0.000000 0.000000 0.000000 0.118269 0.000000 -0.060691
# 5 -0.000927 -0.001626 -0.009308 0.000000 0.032203 0.000000
# 6 0.000000 0.000000 0.000000 -0.060691 0.000000 0.084265
#
#
# Mechanical properties :
#
#
# Convention : Reuss Voigt Hill
#
# Bulk Modulus (GPa) = 32.17577 42.45838 37.31707
# Shear Modulus (GPa) = 16.09531 25.93305 21.01418
#
# Velocity S-wave (km/s) = 2.81594 3.57438 3.21758
# Velocity P-wave (km/s) = 5.14046 6.16055 5.67348
#
# Compressibility (1/GPa) = 0.03107928
#
# Stress axis : x y z
#
# Youngs Moduli (GPa) = 79.69368 56.57721 55.26990
#
# Poissons Ratio (x) = 0.26650 0.27572
# Poissons Ratio (y) = 0.37538 -0.05972
# Poissons Ratio (z) = 0.39757 -0.06114
#
# Static dielectric constant tensor:
#      x y z
#    x 3.736590 0.000000 0.276370 
#    y 0.000000 3.772430 0.000000 
#    z 0.276370 0.000000 4.670640 
# 
# 
# High freq. dielectric constant tensor:
#      x y z
#    x 1.795450 0.000000 0.022460 
#    y 0.000000 1.800250 0.000000 
#    z 0.022460 0.000000 1.796600 
# 
# From -- ./inp_files/194253.got.cif
#   From: 2010.06.25/outbox.cif.g09.slc.cpg/sg15_98_cif.got.tgz:194253.got - 2010.06.28 07:06:18.
