data_PCOD8139662
_publ_section_title
;
Structure prediction by ZEFSAII (Michael W. Deem and Ramdas Pophale) SiO2 
 PCOD8139662
Probable space group: C 2/C
;
_chemical_formula_sum "Si O2"
_cell_formula_units_Z 64
_cell_length_a 13.160205
_cell_length_b 27.458318
_cell_length_c 8.033379
_cell_angle_alpha 90.000000
_cell_angle_beta 79.064472
_cell_angle_gamma 90.000000
_cell_volume 2850.205175
_symmetry_space_group_name_H-M "C 2/C"
_symmetry_group_IT_number 15
_symmetry_cell_setting 'monoclinic'
loop_
_space_group_symop_operation_xyz
x,y,z
-x,y,1/2-z
-x,-y,-z
x,-y,1/2+z
1/2+x,1/2+y,z
1/2-x,1/2+y,1/2-z
1/2-x,1/2-y,-z
1/2+x,1/2-y,1/2+z
loop_
_atom_site_type_symbol
_atom_site_label
_atom_site_fract_x
_atom_site_fract_y
_atom_site_fract_z
Si Si1 0.098284 0.423933 0.827656
Si Si2 0.067265 0.918158 0.892705
Si Si3 0.125355 0.065152 0.850086
Si Si4 0.218660 0.164607 0.761068
Si Si5 0.816519 0.733477 0.135006
Si Si6 0.786641 0.018583 0.350477
Si Si7 0.753989 0.151082 0.112556
Si Si8 0.582254 0.157042 0.583765
O O1 0.163906 0.472807 0.853273
O O2 0.172465 0.387857 0.704847
O O3 0.000000 0.440729 0.750000
O O4 0.058899 0.394750 0.003218
O O5 0.148193 0.960470 0.825520
O O6 0.128593 0.869241 0.921121
O O7 0.000000 0.906071 0.750000
O O8 0.997280 0.939309 0.068323
O O9 0.136659 0.122038 0.813496
O O10 0.173852 0.037765 0.670800
O O11 0.191287 0.046204 0.986179
O O12 0.154817 0.215502 0.785433
O O13 0.277833 0.161993 0.566817
O O14 0.302348 0.157244 0.879835
O O15 0.747830 0.700299 0.279564
O O16 0.750000 0.750000 0.000000
O O17 0.918360 0.702402 0.047762
O O18 0.500000 0.167862 0.750000
#
# Coordination Sequence:
#
# PCOD8139662 Si02
#       8
#     8   8   8   8   8   8   8   8
#     4  10  20  39  66  93 124 165 218 262 317 382
#     4   9  21  39  65  91 124 170 213 258 318 383
#     4  11  23  41  65  90 131 168 214 264 322 385
#     4  11  22  40  62  92 130 166 211 266 320 376
#     4   9  21  39  64  90 129 169 208 259 319 383
#     4  10  22  41  61  92 126 170 211 266 322 381
#     4  10  21  39  66  93 129 167 209 262 317 377
#     4  10  20  40  64  91 122 170 210 259 322 386
#
# _framework density 22.454522999999998
#
# number of rings (size 3 to 8) (size 9 to 14) (size 15 to 20)
#    0.000    2.000    1.250    1.500    8.750    0.500 
#    4.500    1.250    8.250    0.000    0.000    0.000 
#    0.000    0.000    0.000    0.000    0.000    0.000 
#
# Total GULP energy -396630.469363 kJ/mol
# GULP energy per Si atom -12394.702168 kJ/mol
# Density = 2.240342 g / cm^3
# Si number density = 22.454523 Si / 1000 Ang^3
#
#
#
# Elastic Constant Matrix: (Units=GPa)
#
#
# Indices 1 2 3 4 5 6 
#
# 1 88.4505 27.9020 0.0821 0.0000 -10.3342 0.0000
# 2 27.9020 115.1933 12.6497 0.0000 -15.2784 0.0000
# 3 0.0821 12.6497 80.8433 0.0000 -12.9623 0.0000
# 4 0.0000 0.0000 0.0000 30.5629 0.0000 1.0704
# 5 -10.3342 -15.2784 -12.9623 0.0000 23.6952 0.0000
# 6 0.0000 0.0000 0.0000 1.0704 0.0000 17.4485
#
#
#
# Elastic Compliance Matrix: (Units=1/GPa)
#
#
# Indices 1 2 3 4 5 6 
#
# 1 0.012642 -0.002594 0.001106 0.000000 0.004446 0.000000
# 2 -0.002594 0.010048 -0.000781 0.000000 0.004920 0.000000
# 3 0.001106 -0.000781 0.013688 0.000000 0.007467 0.000000
# 4 0.000000 0.000000 0.000000 0.032790 0.000000 -0.002012
# 5 0.004446 0.004920 0.007467 0.000000 0.051399 0.000000
# 6 0.000000 0.000000 0.000000 -0.002012 0.000000 0.057435
#
#
# Mechanical properties :
#
#
# Convention : Reuss Voigt Hill
#
# Bulk Modulus (GPa) = 31.40638 40.63942 36.02290
# Shear Modulus (GPa) = 25.88623 30.59819 28.24221
#
# Velocity S-wave (km/s) = 3.39902 3.69545 3.55033
# Velocity P-wave (km/s) = 5.42415 6.02879 5.73444
#
# Compressibility (1/GPa) = 0.03184066
#
# Stress axis : x y z
#
# Youngs Moduli (GPa) = 79.09833 99.52537 73.05746
#
# Poissons Ratio (x) = 0.25817 -0.08080
# Poissons Ratio (y) = 0.20518 0.05703
# Poissons Ratio (z) = -0.08748 0.07769
#
# Static dielectric constant tensor:
#      x y z
#    x 3.786470 0.000000 0.038070 
#    y 0.000000 4.393120 0.000000 
#    z 0.038070 0.000000 4.278390 
# 
# 
# High freq. dielectric constant tensor:
#      x y z
#    x 1.859080 0.000000 0.006970 
#    y 0.000000 1.881060 0.000000 
#    z 0.006970 0.000000 1.901490 
# 
# From -- ./inp_files/43497.got.cif
#   From: 2010.06.25/outbox.cif.g09.slc.cpg/sg15_22_cif.got.tgz:43497.got - 2010.06.28 07:06:18.
