data_PCOD8139002
_publ_section_title
;
Structure prediction by ZEFSAII (Michael W. Deem and Ramdas Pophale) SiO2 
 PCOD8139002
Probable space group: C 2/C
;
_chemical_formula_sum "Si O2"
_cell_formula_units_Z 44
_cell_length_a 11.103480
_cell_length_b 21.254565
_cell_length_c 9.328491
_cell_angle_alpha 90.000000
_cell_angle_beta 116.731054
_cell_angle_gamma 90.000000
_cell_volume 1966.238998
_symmetry_space_group_name_H-M "C 2/C"
_symmetry_group_IT_number 15
_symmetry_cell_setting 'monoclinic'
loop_
_space_group_symop_operation_xyz
x,y,z
-x,y,1/2-z
-x,-y,-z
x,-y,1/2+z
1/2+x,1/2+y,z
1/2-x,1/2+y,1/2-z
1/2-x,1/2-y,-z
1/2+x,1/2-y,1/2+z
loop_
_atom_site_type_symbol
_atom_site_label
_atom_site_fract_x
_atom_site_fract_y
_atom_site_fract_z
Si Si1 0.000000 0.994364 0.750000
Si Si2 0.177634 0.024587 0.101245
Si Si3 0.992139 0.796149 0.491546
Si Si4 0.258079 0.859378 0.511447
Si Si5 0.741963 0.381776 0.168162
Si Si6 0.500000 0.783638 0.750000
Si Si7 0.500000 0.198740 0.750000
O O1 0.936963 0.035138 0.585176
O O2 0.117081 0.956587 0.726788
O O3 0.244474 0.955761 0.130985
O O4 0.286767 0.077102 0.119210
O O5 0.890829 0.852509 0.480104
O O6 0.011832 0.744965 0.623699
O O7 0.137029 0.821258 0.519559
O O8 0.919954 0.760367 0.319664
O O9 0.230036 0.875695 0.332100
O O10 0.396255 0.822015 0.597893
O O11 0.871381 0.347196 0.171728
#
# Coordination Sequence:
#
# PCOD8139002 Si02
#       7
#     4   8   8   8   8   4   4
#     4  10  20  38  64 102 140 162 230 282 330 402
#     4  11  24  41  71 105 136 185 227 284 353 407
#     4  12  24  45  77 102 133 184 239 290 336 405
#     4  12  25  46  73 103 141 183 233 288 345 419
#     4  12  25  47  71 102 147 180 226 297 345 410
#     4  12  24  44  74  99 136 191 232 266 356 424
#     4  12  28  46  66 109 146 179 230 284 352 410
#
# _framework density 22.377748
#
# number of rings (size 3 to 8) (size 9 to 14) (size 15 to 20)
#    0.000    0.364    5.455    4.364    0.000    5.091 
#    0.000    1.818    0.000    0.000    0.000    0.000 
#    0.000    0.000    0.000    0.000    0.000    0.000 
#
# Total GULP energy -272666.765196 kJ/mol
# GULP energy per Si atom -12393.943873 kJ/mol
# Density = 2.232682 g / cm^3
# Si number density = 22.377748 Si / 1000 Ang^3
#
#
#
# Elastic Constant Matrix: (Units=GPa)
#
#
# Indices 1 2 3 4 5 6 
#
# 1 97.9898 43.0612 17.7515 0.0000 0.1601 0.0000
# 2 43.0612 145.7035 33.0130 0.0000 -3.5943 0.0000
# 3 17.7515 33.0130 84.4956 0.0000 -11.7308 0.0000
# 4 0.0000 0.0000 0.0000 33.5232 0.0000 -8.8608
# 5 0.1601 -3.5943 -11.7308 0.0000 32.8741 0.0000
# 6 0.0000 0.0000 0.0000 -8.8608 0.0000 16.1066
#
#
#
# Elastic Compliance Matrix: (Units=1/GPa)
#
#
# Indices 1 2 3 4 5 6 
#
# 1 0.011869 -0.003222 -0.001359 0.000000 -0.000895 0.000000
# 2 -0.003222 0.008406 -0.002607 0.000000 0.000005 0.000000
# 3 -0.001359 -0.002607 0.013783 0.000000 0.004640 0.000000
# 4 0.000000 0.000000 0.000000 0.034906 0.000000 0.019203
# 5 -0.000895 0.000005 0.004640 0.000000 0.032080 0.000000
# 6 0.000000 0.000000 0.000000 0.019203 0.000000 0.072651
#
#
# Mechanical properties :
#
#
# Convention : Reuss Voigt Hill
#
# Bulk Modulus (GPa) = 50.80598 57.31561 54.06080
# Shear Modulus (GPa) = 25.68973 32.12498 28.90735
#
# Velocity S-wave (km/s) = 3.39190 3.79301 3.59805
# Velocity P-wave (km/s) = 6.17195 6.69709 6.43987
#
# Compressibility (1/GPa) = 0.01968272
#
# Stress axis : x y z
#
# Youngs Moduli (GPa) = 84.25598 118.95982 72.55249
#
# Poissons Ratio (x) = 0.38327 0.09859
# Poissons Ratio (y) = 0.27146 0.18913
# Poissons Ratio (z) = 0.11450 0.31011
#
# Static dielectric constant tensor:
#      x y z
#    x 3.925360 0.000000 -0.209550 
#    y 0.000000 4.259390 0.000000 
#    z -0.209550 0.000000 3.815570 
# 
# 
# High freq. dielectric constant tensor:
#      x y z
#    x 1.868200 0.000000 -0.018420 
#    y 0.000000 1.894830 0.000000 
#    z -0.018420 0.000000 1.884670 
# 
# From -- ./inp_files/30788.got.cif
#   From: 2010.06.25/outbox.cif.g09.slc.cpg/sg15_16_cif.got.tgz:30788.got - 2010.06.28 07:06:18.
