data_PCOD8139587
_publ_section_title
;
Structure prediction by ZEFSAII (Michael W. Deem and Ramdas Pophale) SiO2 
 PCOD8139587
Probable space group: C 2/C
;
_chemical_formula_sum "Si O2"
_cell_formula_units_Z 52
_cell_length_a 22.819364
_cell_length_b 24.578475
_cell_length_c 5.181057
_cell_angle_alpha 90.000000
_cell_angle_beta 126.641210
_cell_angle_gamma 90.000000
_cell_volume 2331.640008
_symmetry_space_group_name_H-M "C 2/C"
_symmetry_group_IT_number 15
_symmetry_cell_setting 'monoclinic'
loop_
_space_group_symop_operation_xyz
x,y,z
-x,y,1/2-z
-x,-y,-z
x,-y,1/2+z
1/2+x,1/2+y,z
1/2-x,1/2+y,1/2-z
1/2-x,1/2-y,-z
1/2+x,1/2-y,1/2+z
loop_
_atom_site_type_symbol
_atom_site_label
_atom_site_fract_x
_atom_site_fract_y
_atom_site_fract_z
Si Si1 0.647323 0.849833 0.893264
Si Si2 0.078740 0.851132 0.085875
Si Si3 0.855186 0.967260 0.276561
Si Si4 0.287385 0.711763 0.804345
Si Si5 0.183900 0.467391 0.840180
Si Si6 0.000000 0.216624 0.750000
Si Si7 0.392387 0.791207 0.235613
O O1 0.641285 0.912189 0.793244
O O2 0.616822 0.814658 0.575481
O O3 0.729322 0.835653 0.211981
O O4 0.599275 0.837465 0.021653
O O5 0.102624 0.912979 0.188016
O O6 0.139405 0.817909 0.095495
O O7 0.066880 0.820987 0.327582
O O8 0.000000 0.849671 0.750000
O O9 0.877577 0.988770 0.617793
O O10 0.769446 0.954959 0.054863
O O11 0.250000 0.750000 0.500000
O O12 0.319450 0.753282 0.109160
O O13 0.161003 0.489068 0.498475
O O14 0.965567 0.254787 0.435244
#
# Coordination Sequence:
#
# PCOD8139587 Si02
#       7
#     8   8   8   8   8   4   8
#     4  11  22  40  66  97 123 165 215 262 335 377
#     4  12  25  43  63  90 129 177 221 266 323 377
#     4  10  24  43  63  88 122 170 223 271 314 363
#     4  10  21  41  61  91 124 166 215 271 318 381
#     4  10  20  39  64  95 127 158 207 272 323 374
#     4  12  26  42  62  92 136 170 218 258 322 386
#     4  11  24  40  63  93 129 169 212 264 316 398
#
# _framework density 22.3019
#
# number of rings (size 3 to 8) (size 9 to 14) (size 15 to 20)
#    0.000    1.231    3.077    3.231    2.154    1.846 
#    2.769    0.000    0.000    0.000    0.000   10.769 
#    0.000    0.000    0.000    0.000    0.000    0.000 
#
# Total GULP energy -322184.773484 kJ/mol
# GULP energy per Si atom -12391.722057 kJ/mol
# Density = 2.225114 g / cm^3
# Si number density = 22.301900 Si / 1000 Ang^3
#
#
#
# Elastic Constant Matrix: (Units=GPa)
#
#
# Indices 1 2 3 4 5 6 
#
# 1 59.5165 36.2355 21.3556 0.0000 -20.1747 0.0000
# 2 36.2355 125.8290 32.2536 0.0000 4.1170 0.0000
# 3 21.3556 32.2536 83.6265 0.0000 -12.5263 0.0000
# 4 0.0000 0.0000 0.0000 26.2778 0.0000 -2.3187
# 5 -20.1747 4.1170 -12.5263 0.0000 28.3338 0.0000
# 6 0.0000 0.0000 0.0000 -2.3187 0.0000 40.4217
#
#
#
# Elastic Compliance Matrix: (Units=1/GPa)
#
#
# Indices 1 2 3 4 5 6 
#
# 1 0.030436 -0.009305 -0.000787 0.000000 0.022676 0.000000
# 2 -0.009305 0.011906 -0.003713 0.000000 -0.009997 0.000000
# 3 -0.000787 -0.003713 0.014552 0.000000 0.006412 0.000000
# 4 0.000000 0.000000 0.000000 0.038249 0.000000 0.002194
# 5 0.022676 -0.009997 0.006412 0.000000 0.055727 0.000000
# 6 0.000000 0.000000 0.000000 0.002194 0.000000 0.024865
#
#
# Mechanical properties :
#
#
# Convention : Reuss Voigt Hill
#
# Bulk Modulus (GPa) = 34.14943 49.85128 42.00036
# Shear Modulus (GPa) = 23.46257 30.94849 27.20553
#
# Velocity S-wave (km/s) = 3.24704 3.72923 3.49646
# Velocity P-wave (km/s) = 5.42248 6.39878 5.93075
#
# Compressibility (1/GPa) = 0.02928307
#
# Stress axis : x y z
#
# Youngs Moduli (GPa) = 32.85558 83.99283 68.72143
#
# Poissons Ratio (x) = 0.78156 0.05409
# Poissons Ratio (y) = 0.30572 0.25517
# Poissons Ratio (z) = 0.02586 0.31188
#
# Static dielectric constant tensor:
#      x y z
#    x 3.932050 0.000000 0.019190 
#    y 0.000000 4.138860 0.000000 
#    z 0.019190 0.000000 4.106390 
# 
# 
# High freq. dielectric constant tensor:
#      x y z
#    x 1.864500 0.000000 -0.007190 
#    y 0.000000 1.881590 0.000000 
#    z -0.007190 0.000000 1.877020 
# 
# From -- ./inp_files/16244.got.cif
#   From: 2010.06.25/outbox.cif.g09.slc.cpg/sg15_9_cif.got.tgz:16244.got - 2010.06.28 07:06:18.
