data_PCOD8139692
_publ_section_title
;
Structure prediction by ZEFSAII (Michael W. Deem and Ramdas Pophale) SiO2 
 PCOD8139692
Probable space group: C 2/C
;
_chemical_formula_sum "Si O2"
_cell_formula_units_Z 52
_cell_length_a 13.013771
_cell_length_b 28.474332
_cell_length_c 8.557280
_cell_angle_alpha 90.000000
_cell_angle_beta 129.978130
_cell_angle_gamma 90.000000
_cell_volume 2429.883539
_symmetry_space_group_name_H-M "C 2/C"
_symmetry_group_IT_number 15
_symmetry_cell_setting 'monoclinic'
loop_
_space_group_symop_operation_xyz
x,y,z
-x,y,1/2-z
-x,-y,-z
x,-y,1/2+z
1/2+x,1/2+y,z
1/2-x,1/2+y,1/2-z
1/2-x,1/2-y,-z
1/2+x,1/2-y,1/2+z
loop_
_atom_site_type_symbol
_atom_site_label
_atom_site_fract_x
_atom_site_fract_y
_atom_site_fract_z
Si Si1 0.475850 0.103741 0.901854
Si Si2 0.760331 0.453398 0.367748
Si Si3 0.000000 0.904517 0.250000
Si Si4 0.500000 0.254547 0.250000
Si Si5 0.500000 0.272709 0.750000
Si Si6 0.374593 0.971176 0.804762
Si Si7 0.119485 0.826259 0.580924
Si Si8 0.097928 0.697816 0.059509
O O1 0.500000 0.085788 0.750000
O O2 0.332869 0.087046 0.833949
O O3 0.603566 0.082445 0.120260
O O4 0.478704 0.160479 0.911022
O O5 0.617318 0.436480 0.292014
O O6 0.861062 0.468390 0.605532
O O7 0.744081 0.501018 0.247034
O O8 0.059911 0.874365 0.452409
O O9 0.613750 0.286933 0.440432
O O10 0.574167 0.222577 0.199420
O O11 0.539928 0.307529 0.652171
O O12 0.390060 0.236643 0.567455
O O13 0.500000 0.000000 0.000000
O O14 0.268565 0.832910 0.791032
#
# Coordination Sequence:
#
# PCOD8139692 Si02
#       8
#     8   8   4   4   4   8   8   8
#     4  11  22  37  62  98 128 161 212 270 325 378
#     4  11  24  43  65  94 133 166 221 259 326 398
#     4  11  26  44  64  95 128 188 219 264 316 399
#     4   9  22  36  58  88 119 169 210 264 322 389
#     4  10  22  42  58  97 129 173 217 274 334 392
#     4  10  20  39  67  93 125 165 201 274 329 376
#     4  10  22  41  61  86 130 170 218 261 332 381
#     4  11  21  37  62  93 123 166 215 272 326 379
#
# _framework density 21.400202
#
# number of rings (size 3 to 8) (size 9 to 14) (size 15 to 20)
#    0.000    1.538    0.769    5.538    4.308    1.846 
#    5.538    1.538    0.000    0.000    0.000    0.000 
#    0.000    0.000    0.000    0.000    0.000    0.000 
#
# Total GULP energy -322090.805413 kJ/mol
# GULP energy per Si atom -12388.107900 kJ/mol
# Density = 2.135149 g / cm^3
# Si number density = 21.400202 Si / 1000 Ang^3
#
#
#
# Elastic Constant Matrix: (Units=GPa)
#
#
# Indices 1 2 3 4 5 6 
#
# 1 116.7029 42.9648 34.1595 0.0000 -5.4153 0.0000
# 2 42.9648 64.5172 -5.9875 0.0000 -1.6087 0.0000
# 3 34.1595 -5.9875 68.5189 0.0000 -11.2795 0.0000
# 4 0.0000 0.0000 0.0000 25.5771 0.0000 -6.0770
# 5 -5.4153 -1.6087 -11.2795 0.0000 42.3649 0.0000
# 6 0.0000 0.0000 0.0000 -6.0770 0.0000 48.6457
#
#
#
# Elastic Compliance Matrix: (Units=1/GPa)
#
#
# Indices 1 2 3 4 5 6 
#
# 1 0.015021 -0.010817 -0.008561 0.000000 -0.000770 0.000000
# 2 -0.010817 0.023456 0.007699 0.000000 0.001558 0.000000
# 3 -0.008561 0.007699 0.020292 0.000000 0.004601 0.000000
# 4 0.000000 0.000000 0.000000 0.040293 0.000000 0.005034
# 5 -0.000770 0.001558 0.004601 0.000000 0.024790 0.000000
# 6 0.000000 0.000000 0.000000 0.005034 0.000000 0.021186
#
#
# Mechanical properties :
#
#
# Convention : Reuss Voigt Hill
#
# Bulk Modulus (GPa) = 28.23839 43.55695 35.89767
# Shear Modulus (GPa) = 27.74687 35.22435 31.48561
#
# Velocity S-wave (km/s) = 3.60470 4.06147 3.83988
# Velocity P-wave (km/s) = 5.52713 6.51090 6.03908
#
# Compressibility (1/GPa) = 0.03541279
#
# Stress axis : x y z
#
# Youngs Moduli (GPa) = 66.57332 42.63220 49.27940
#
# Poissons Ratio (x) = 0.46114 0.42186
# Poissons Ratio (y) = 0.72011 -0.37939
# Poissons Ratio (z) = 0.56991 -0.32822
#
# Static dielectric constant tensor:
#      x y z
#    x 3.750960 0.000000 -0.280050 
#    y 0.000000 4.128310 0.000000 
#    z -0.280050 0.000000 4.028040 
# 
# 
# High freq. dielectric constant tensor:
#      x y z
#    x 1.827320 0.000000 -0.028280 
#    y 0.000000 1.846260 0.000000 
#    z -0.028280 0.000000 1.838840 
# 
# From -- ./inp_files/44957.got.cif
#   From: 2010.06.25/outbox.cif.g09.slc.cpg/sg15_23_cif.got.tgz:44957.got - 2010.06.28 07:06:18.
