data_PCOD8139199
_publ_section_title
;
Structure prediction by ZEFSAII (Michael W. Deem and Ramdas Pophale) SiO2 
 PCOD8139199
Probable space group: C 2/C
;
_chemical_formula_sum "Si O2"
_cell_formula_units_Z 44
_cell_length_a 16.188781
_cell_length_b 11.960848
_cell_length_c 8.516604
_cell_angle_alpha 90.000000
_cell_angle_beta 102.545653
_cell_angle_gamma 90.000000
_cell_volume 1609.708458
_symmetry_space_group_name_H-M "C 2/C"
_symmetry_group_IT_number 15
_symmetry_cell_setting 'monoclinic'
loop_
_space_group_symop_operation_xyz
x,y,z
-x,y,1/2-z
-x,-y,-z
x,-y,1/2+z
1/2+x,1/2+y,z
1/2-x,1/2+y,1/2-z
1/2-x,1/2-y,-z
1/2+x,1/2-y,1/2+z
loop_
_atom_site_type_symbol
_atom_site_label
_atom_site_fract_x
_atom_site_fract_y
_atom_site_fract_z
Si Si1 0.595886 0.364166 0.301783
Si Si2 0.674869 0.457291 0.037008
Si Si3 0.237861 0.640421 0.216417
Si Si4 0.500000 0.827891 0.250000
Si Si5 0.859561 0.703751 0.919215
Si Si6 0.904937 0.461747 0.987554
O O1 0.500000 0.328199 0.250000
O O2 0.631070 0.372531 0.139793
O O3 0.604574 0.481400 0.399411
O O4 0.645553 0.266659 0.415834
O O5 0.729093 0.549024 0.149419
O O6 0.734882 0.383930 0.951917
O O7 0.222709 0.739620 0.717699
O O8 0.134840 0.626541 0.156752
O O9 0.549737 0.761979 0.130428
O O10 0.417372 0.900166 0.160103
O O11 0.847343 0.573561 0.959224
O O12 0.000000 0.500000 0.000000
#
# Coordination Sequence:
#
# PCOD8139199 Si02
#       6
#     8   8   8   4   8   8
#     4  10  20  38  67 100 147 195 246 295 364 448
#     4   9  21  40  62 106 146 190 238 307 370 427
#     4  10  22  44  74 101 147 187 247 306 367 439
#     4  10  24  46  74 108 148 194 242 312 366 438
#     4  10  24  44  72 111 139 194 250 297 373 441
#     4  10  24  47  73 106 151 192 247 307 372 438
#
# _framework density 27.334144999999999
#
# number of rings (size 3 to 8) (size 9 to 14) (size 15 to 20)
#    0.000    2.182    0.000    0.545    8.909    0.727 
#    3.273   10.000    0.000    0.000    0.000    0.000 
#    0.000    0.000    0.000    0.000    0.000    0.000 
#
# Total GULP energy -272614.075770 kJ/mol
# GULP energy per Si atom -12391.548899 kJ/mol
# Density = 2.727193 g / cm^3
# Si number density = 27.334145 Si / 1000 Ang^3
#
#
#
# Elastic Constant Matrix: (Units=GPa)
#
#
# Indices 1 2 3 4 5 6 
#
# 1 113.3713 22.8653 49.6088 0.0000 17.5366 0.0000
# 2 22.8653 90.8885 35.2493 0.0000 22.3037 0.0000
# 3 49.6088 35.2493 143.6594 0.0000 10.8200 0.0000
# 4 0.0000 0.0000 0.0000 40.0300 0.0000 15.2060
# 5 17.5366 22.3037 10.8200 0.0000 67.3066 0.0000
# 6 0.0000 0.0000 0.0000 15.2060 0.0000 41.5391
#
#
#
# Elastic Compliance Matrix: (Units=1/GPa)
#
#
# Indices 1 2 3 4 5 6 
#
# 1 0.010775 -0.000933 -0.003344 0.000000 -0.001961 0.000000
# 2 -0.000933 0.013164 -0.002630 0.000000 -0.003697 0.000000
# 3 -0.003344 -0.002630 0.008736 0.000000 0.000338 0.000000
# 4 0.000000 0.000000 0.000000 0.029016 0.000000 -0.010622
# 5 -0.001961 -0.003697 0.000338 0.000000 0.016539 0.000000
# 6 0.000000 0.000000 0.000000 -0.010622 0.000000 0.027962
#
#
# Mechanical properties :
#
#
# Convention : Reuss Voigt Hill
#
# Bulk Modulus (GPa) = 53.01727 62.59623 57.80675
# Shear Modulus (GPa) = 39.59066 45.78818 42.68942
#
# Velocity S-wave (km/s) = 3.80991 4.09727 3.95620
# Velocity P-wave (km/s) = 6.22832 6.73302 6.48558
#
# Compressibility (1/GPa) = 0.01886178
#
# Stress axis : x y z
#
# Youngs Moduli (GPa) = 92.80360 75.96446 114.47460
#
# Poissons Ratio (x) = 0.07084 0.38286
# Poissons Ratio (y) = 0.08654 0.30102
# Poissons Ratio (z) = 0.31038 0.19975
#
# Static dielectric constant tensor:
#      x y z
#    x 4.946960 0.000000 0.338350 
#    y 0.000000 5.314360 0.000000 
#    z 0.338350 0.000000 6.686050 
# 
# 
# High freq. dielectric constant tensor:
#      x y z
#    x 2.099250 0.000000 0.000560 
#    y 0.000000 2.084020 0.000000 
#    z 0.000560 0.000000 2.129120 
# 
# From -- ./inp_files/47214.got.cif
#   From: 2010.06.25/outbox.cif.g09.slc.cpg/sg15_24_cif.got.tgz:47214.got - 2010.06.28 07:06:18.
