data_PCOD8139777
_publ_section_title
;
Structure prediction by ZEFSAII (Michael W. Deem and Ramdas Pophale) SiO2 
 PCOD8139777
Probable space group: C 2/C
;
_chemical_formula_sum "Si O2"
_cell_formula_units_Z 56
_cell_length_a 24.558406
_cell_length_b 17.219301
_cell_length_c 7.672746
_cell_angle_alpha 90.000000
_cell_angle_beta 122.778032
_cell_angle_gamma 90.000000
_cell_volume 2728.009707
_symmetry_space_group_name_H-M "C 2/C"
_symmetry_group_IT_number 15
_symmetry_cell_setting 'monoclinic'
loop_
_space_group_symop_operation_xyz
x,y,z
-x,y,1/2-z
-x,-y,-z
x,-y,1/2+z
1/2+x,1/2+y,z
1/2-x,1/2+y,1/2-z
1/2-x,1/2-y,-z
1/2+x,1/2-y,1/2+z
loop_
_atom_site_type_symbol
_atom_site_label
_atom_site_fract_x
_atom_site_fract_y
_atom_site_fract_z
Si Si1 0.667018 0.425204 0.429538
Si Si2 0.500000 0.021724 0.750000
Si Si3 0.160604 0.898503 0.024329
Si Si4 0.066382 0.399464 0.668523
Si Si5 0.500000 0.232964 0.250000
Si Si6 0.701623 0.847012 0.824766
Si Si7 0.114355 0.812655 0.632749
Si Si8 0.731371 0.217508 0.737244
O O1 0.659085 0.515908 0.443763
O O2 0.743397 0.411705 0.569335
O O3 0.631860 0.376008 0.516492
O O4 0.639982 0.399002 0.192045
O O5 0.486643 0.077607 0.565867
O O6 0.561831 0.965808 0.811344
O O7 0.109498 0.851216 0.816363
O O8 0.232255 0.858799 0.124987
O O9 0.135017 0.394067 0.690282
O O10 0.049117 0.316619 0.718936
O O11 0.543503 0.282224 0.459646
O O12 0.715092 0.786679 0.690417
O O13 0.697950 0.797081 0.994276
O O14 0.171116 0.746856 0.749933
#
# Coordination Sequence:
#
# PCOD8139777 Si02
#       8
#     8   4   8   8   4   8   8   8
#     4  10  22  39  63  90 124 158 192 256 315 363
#     4   9  22  38  56  84 121 166 198 244 285 360
#     4  11  21  38  65  93 120 159 196 250 317 362
#     4  10  20  40  58  83 122 159 204 241 295 358
#     4  11  24  40  64  82 117 170 200 256 295 354
#     4   9  18  35  61  87 122 155 193 249 304 356
#     4  11  22  43  60  90 124 155 210 251 301 364
#     4   9  19  35  61  92 117 153 194 253 304 359
#
# _framework density 20.527785999999999
#
# number of rings (size 3 to 8) (size 9 to 14) (size 15 to 20)
#    0.000    2.000    2.857    1.286    0.000    3.429 
#    2.571    0.714    0.000    0.000    0.000    0.000 
#    0.000    0.000    0.000    0.000    0.000    0.000 
#
# Total GULP energy -347035.475647 kJ/mol
# GULP energy per Si atom -12394.124130 kJ/mol
# Density = 2.048106 g / cm^3
# Si number density = 20.527786 Si / 1000 Ang^3
#
#
#
# Elastic Constant Matrix: (Units=GPa)
#
#
# Indices 1 2 3 4 5 6 
#
# 1 45.2356 2.8021 26.7495 0.0000 9.8654 0.0000
# 2 2.8021 73.7350 43.1359 0.0000 4.3418 0.0000
# 3 26.7495 43.1359 105.5455 0.0000 -8.9979 0.0000
# 4 0.0000 0.0000 0.0000 29.8036 0.0000 -4.6192
# 5 9.8654 4.3418 -8.9979 0.0000 29.6277 0.0000
# 6 0.0000 0.0000 0.0000 -4.6192 0.0000 12.2609
#
#
#
# Elastic Compliance Matrix: (Units=1/GPa)
#
#
# Indices 1 2 3 4 5 6 
#
# 1 0.032375 0.006913 -0.012356 0.000000 -0.015546 0.000000
# 2 0.006913 0.020037 -0.010664 0.000000 -0.008477 0.000000
# 3 -0.012356 -0.010664 0.017912 0.000000 0.011117 0.000000
# 4 0.000000 0.000000 0.000000 0.035634 0.000000 0.013425
# 5 -0.015546 -0.008477 0.011117 0.000000 0.043547 0.000000
# 6 0.000000 0.000000 0.000000 0.013425 0.000000 0.086618
#
#
# Mechanical properties :
#
#
# Convention : Reuss Voigt Hill
#
# Bulk Modulus (GPa) = 26.23878 41.09901 33.66889
# Shear Modulus (GPa) = 17.79111 24.46035 21.12573
#
# Velocity S-wave (km/s) = 2.94714 3.45566 3.21148
# Velocity P-wave (km/s) = 4.93869 5.99890 5.49443
#
# Compressibility (1/GPa) = 0.03811153
#
# Stress axis : x y z
#
# Youngs Moduli (GPa) = 30.88788 49.90772 55.82832
#
# Poissons Ratio (x) = -0.34503 0.68981
# Poissons Ratio (y) = -0.21354 0.59534
# Poissons Ratio (z) = 0.38165 0.53221
#
# Static dielectric constant tensor:
#      x y z
#    x 3.549950 0.000000 -0.221890 
#    y 0.000000 3.806580 0.000000 
#    z -0.221890 0.000000 3.658940 
# 
# 
# High freq. dielectric constant tensor:
#      x y z
#    x 1.776200 0.000000 -0.018860 
#    y 0.000000 1.808210 0.000000 
#    z -0.018860 0.000000 1.797890 
# 
# From -- ./inp_files/66924.got.cif
#   From: 2010.06.25/outbox.cif.g09.slc.cpg/sg15_34_cif.got.tgz:66924.got - 2010.06.28 07:06:18.
