data_PCOD8139171
_publ_section_title
;
Structure prediction by ZEFSAII (Michael W. Deem and Ramdas Pophale) SiO2 
 PCOD8139171
Probable space group: C 2/C
;
_chemical_formula_sum "Si O2"
_cell_formula_units_Z 36
_cell_length_a 11.470674
_cell_length_b 12.234289
_cell_length_c 13.098408
_cell_angle_alpha 90.000000
_cell_angle_beta 117.236445
_cell_angle_gamma 90.000000
_cell_volume 1634.365639
_symmetry_space_group_name_H-M "C 2/C"
_symmetry_group_IT_number 15
_symmetry_cell_setting 'monoclinic'
loop_
_space_group_symop_operation_xyz
x,y,z
-x,y,1/2-z
-x,-y,-z
x,-y,1/2+z
1/2+x,1/2+y,z
1/2-x,1/2+y,1/2-z
1/2-x,1/2-y,-z
1/2+x,1/2-y,1/2+z
loop_
_atom_site_type_symbol
_atom_site_label
_atom_site_fract_x
_atom_site_fract_y
_atom_site_fract_z
Si Si1 0.772044 0.811723 0.791439
Si Si2 0.500000 0.280751 0.250000
Si Si3 0.962761 0.611503 0.851581
Si Si4 0.321160 0.632523 0.521002
Si Si5 0.677347 0.940224 0.579130
O O1 0.619455 0.792857 0.757626
O O2 0.847859 0.697955 0.820652
O O3 0.783945 0.868524 0.684765
O O4 0.838787 0.888169 0.906249
O O5 0.543425 0.358193 0.362141
O O6 0.912881 0.493848 0.869403
O O7 0.000000 0.601820 0.750000
O O8 0.090614 0.639800 0.972156
O O9 0.250000 0.750000 0.500000
O O10 0.239908 0.532663 0.533762
#
# Coordination Sequence:
#
# PCOD8139171 Si02
#       5
#     8   4   8   8   8
#     4  11  23  40  66  97 130 171 216 269 317 379
#     4  10  20  38  66  92 132 164 212 268 306 376
#     4  11  24  42  65  99 131 170 218 264 320 387
#     4  10  20  41  65  98 128 166 216 265 315 385
#     4  11  23  41  69  97 127 174 217 264 328 377
#
# _framework density 22.026893999999999
#
# number of rings (size 3 to 8) (size 9 to 14) (size 15 to 20)
#    0.000    1.333    4.444    2.667   10.889    0.889 
#    2.000    1.111    0.000    0.000    0.000    0.000 
#    0.000    0.000    0.000    0.000    0.000    0.000 
#
# Total GULP energy -223104.679795 kJ/mol
# GULP energy per Si atom -12394.704433 kJ/mol
# Density = 2.197676 g / cm^3
# Si number density = 22.026894 Si / 1000 Ang^3
#
#
#
# Elastic Constant Matrix: (Units=GPa)
#
#
# Indices 1 2 3 4 5 6 
#
# 1 61.6745 30.4311 43.1736 0.0000 -12.6407 0.0000
# 2 30.4311 80.1409 58.0918 0.0000 1.6568 0.0000
# 3 43.1736 58.0918 223.2480 0.0000 -4.2560 0.0000
# 4 0.0000 0.0000 0.0000 38.2214 0.0000 -0.3981
# 5 -12.6407 1.6568 -4.2560 0.0000 35.8895 0.0000
# 6 0.0000 0.0000 0.0000 -0.3981 0.0000 15.5517
#
#
#
# Elastic Compliance Matrix: (Units=1/GPa)
#
#
# Indices 1 2 3 4 5 6 
#
# 1 0.023156 -0.007185 -0.002452 0.000000 0.008197 0.000000
# 2 -0.007185 0.017659 -0.003277 0.000000 -0.003734 0.000000
# 3 -0.002452 -0.003277 0.005806 0.000000 -0.000024 0.000000
# 4 0.000000 0.000000 0.000000 0.026170 0.000000 0.000670
# 5 0.008197 -0.003734 -0.000024 0.000000 0.030920 0.000000
# 6 0.000000 0.000000 0.000000 0.000670 0.000000 0.064319
#
#
# Mechanical properties :
#
#
# Convention : Reuss Voigt Hill
#
# Bulk Modulus (GPa) = 48.09343 69.82850 58.96096
# Shear Modulus (GPa) = 24.90200 33.49032 29.19616
#
# Velocity S-wave (km/s) = 3.36598 3.90350 3.64466
# Velocity P-wave (km/s) = 6.08176 7.21711 6.67362
#
# Compressibility (1/GPa) = 0.02079286
#
# Stress axis : x y z
#
# Youngs Moduli (GPa) = 43.18591 56.62980 172.24270
#
# Poissons Ratio (x) = 0.40686 0.42239
# Poissons Ratio (y) = 0.31027 0.56440
# Poissons Ratio (z) = 0.10590 0.18556
#
# Static dielectric constant tensor:
#      x y z
#    x 3.636170 0.000000 -0.062170 
#    y 0.000000 3.649840 0.000000 
#    z -0.062170 0.000000 5.121780 
# 
# 
# High freq. dielectric constant tensor:
#      x y z
#    x 1.833720 0.000000 -0.006580 
#    y 0.000000 1.840670 0.000000 
#    z -0.006580 0.000000 1.907620 
# 
# From -- ./inp_files/126810.got.cif
#   From: 2010.06.25/outbox.cif.g09.slc.cpg/sg15_64_cif.got.tgz:126810.got - 2010.06.28 07:06:18.
