data_PCOD8139230
_publ_section_title
;
Structure prediction by ZEFSAII (Michael W. Deem and Ramdas Pophale) SiO2 
 PCOD8139230
Probable space group: C 2/C
;
_chemical_formula_sum "Si O2"
_cell_formula_units_Z 64
_cell_length_a 24.468518
_cell_length_b 8.636886
_cell_length_c 16.103876
_cell_angle_alpha 90.000000
_cell_angle_beta 66.489372
_cell_angle_gamma 90.000000
_cell_volume 3120.743110
_symmetry_space_group_name_H-M "C 2/C"
_symmetry_group_IT_number 15
_symmetry_cell_setting 'monoclinic'
loop_
_space_group_symop_operation_xyz
x,y,z
-x,y,1/2-z
-x,-y,-z
x,-y,1/2+z
1/2+x,1/2+y,z
1/2-x,1/2+y,1/2-z
1/2-x,1/2-y,-z
1/2+x,1/2-y,1/2+z
loop_
_atom_site_type_symbol
_atom_site_label
_atom_site_fract_x
_atom_site_fract_y
_atom_site_fract_z
Si Si1 0.175839 0.592921 0.057675
Si Si2 0.246028 0.295642 0.370395
Si Si3 0.037950 0.352169 0.800778
Si Si4 0.567309 0.266123 0.048848
Si Si5 0.366676 0.307887 0.653960
Si Si6 0.439639 0.458837 0.835038
Si Si7 0.366477 0.396011 0.242769
Si Si8 0.101495 0.645639 0.696008
O O1 0.221376 0.666990 0.094574
O O2 0.117965 0.701336 0.080497
O O3 0.153554 0.430093 0.108288
O O4 0.211067 0.577690 0.948787
O O5 0.200033 0.209080 0.338818
O O6 0.295215 0.377708 0.283980
O O7 0.099109 0.266463 0.788351
O O8 0.052780 0.523488 0.759355
O O9 0.000000 0.266273 0.750000
O O10 0.992361 0.339681 0.906161
O O11 0.556854 0.448702 0.079131
O O12 0.585766 0.247088 0.942001
O O13 0.382091 0.488749 0.657998
O O14 0.370716 0.218870 0.738229
O O15 0.500000 0.490824 0.750000
O O16 0.383599 0.527091 0.819555
O O17 0.429590 0.272705 0.845990
#
# Coordination Sequence:
#
# PCOD8139230 Si02
#       8
#     8   8   8   8   8   8   8   8
#     4  10  20  38  68  88 114 161 216 250 298 370
#     4  10  20  39  65  84 119 164 210 249 299 360
#     4  12  19  37  70  87 117 162 206 247 304 367
#     4  11  20  42  63  89 118 168 206 242 307 378
#     4  10  27  38  57  92 130 157 201 257 309 357
#     4  11  20  37  62  89 120 154 206 253 296 363
#     4  11  20  39  61  89 119 164 204 241 312 372
#     4  11  23  39  58 100 122 152 202 262 308 354
#
# _framework density 20.507936999999998
#
# number of rings (size 3 to 8) (size 9 to 14) (size 15 to 20)
#    0.000    1.250    6.250    0.375    1.750    1.000 
#    0.000    6.250    0.000    0.000    0.000    0.000 
#    0.000    0.000    0.000    0.000    0.000    0.000 
#
# Total GULP energy -396577.029099 kJ/mol
# GULP energy per Si atom -12393.032159 kJ/mol
# Density = 2.046126 g / cm^3
# Si number density = 20.507937 Si / 1000 Ang^3
#
#
#
# Elastic Constant Matrix: (Units=GPa)
#
#
# Indices 1 2 3 4 5 6 
#
# 1 79.9978 26.0086 30.8437 0.0000 -19.7405 0.0000
# 2 26.0086 83.7542 14.7285 0.0001 -5.3772 0.0000
# 3 30.8437 14.7285 58.9464 0.0000 -10.1455 0.0000
# 4 0.0000 0.0001 0.0000 16.1182 0.0000 -4.9066
# 5 -19.7405 -5.3772 -10.1455 0.0000 35.1521 0.0000
# 6 0.0000 0.0000 0.0000 -4.9066 0.0000 25.6452
#
#
#
# Elastic Compliance Matrix: (Units=1/GPa)
#
#
# Indices 1 2 3 4 5 6 
#
# 1 0.018528 -0.003963 -0.007385 0.000000 0.007667 0.000000
# 2 -0.003963 0.013374 -0.001367 0.000000 -0.000574 0.000000
# 3 -0.007385 -0.001367 0.021488 0.000000 0.001845 0.000000
# 4 0.000000 0.000000 0.000000 0.065878 0.000000 0.012604
# 5 0.007667 -0.000574 0.001845 0.000000 0.033198 0.000000
# 6 0.000000 0.000000 0.000000 0.012604 0.000000 0.041405
#
#
# Mechanical properties :
#
#
# Convention : Reuss Voigt Hill
#
# Bulk Modulus (GPa) = 35.76477 40.65112 38.20795
# Shear Modulus (GPa) = 21.87024 25.45760 23.66392
#
# Velocity S-wave (km/s) = 3.26916 3.52711 3.40058
# Velocity P-wave (km/s) = 5.63269 6.03759 5.83865
#
# Compressibility (1/GPa) = 0.02796047
#
# Stress axis : x y z
#
# Youngs Moduli (GPa) = 53.97239 74.77321 46.53764
#
# Poissons Ratio (x) = 0.29630 0.34368
# Poissons Ratio (y) = 0.21387 0.06362
# Poissons Ratio (z) = 0.39859 0.10221
#
# Static dielectric constant tensor:
#      x y z
#    x 3.812480 0.000000 -0.217040 
#    y 0.000000 3.747000 0.000000 
#    z -0.217040 0.000000 3.662930 
# 
# 
# High freq. dielectric constant tensor:
#      x y z
#    x 1.806560 0.000000 -0.016820 
#    y 0.000000 1.790550 0.000000 
#    z -0.016820 0.000000 1.786790 
# 
# From -- ./inp_files/176568.got.cif
#   From: 2010.06.25/outbox.cif.g09.slc.cpg/sg15_89_cif.got.tgz:176568.got - 2010.06.28 07:06:18.
