data_PCOD8139013
_publ_section_title
;
Structure prediction by ZEFSAII (Michael W. Deem and Ramdas Pophale) SiO2 
 PCOD8139013
Probable space group: C 2/C
;
_chemical_formula_sum "Si O2"
_cell_formula_units_Z 52
_cell_length_a 7.993982
_cell_length_b 22.594040
_cell_length_c 14.951652
_cell_angle_alpha 90.000000
_cell_angle_beta 112.176775
_cell_angle_gamma 90.000000
_cell_volume 2500.738764
_symmetry_space_group_name_H-M "C 2/C"
_symmetry_group_IT_number 15
_symmetry_cell_setting 'monoclinic'
loop_
_space_group_symop_operation_xyz
x,y,z
-x,y,1/2-z
-x,-y,-z
x,-y,1/2+z
1/2+x,1/2+y,z
1/2-x,1/2+y,1/2-z
1/2-x,1/2-y,-z
1/2+x,1/2-y,1/2+z
loop_
_atom_site_type_symbol
_atom_site_label
_atom_site_fract_x
_atom_site_fract_y
_atom_site_fract_z
Si Si1 0.353113 0.819417 0.084458
Si Si2 0.756874 0.417020 0.829827
Si Si3 0.317474 0.155647 0.178320
Si Si4 0.000000 0.591253 0.750000
Si Si5 0.194937 0.951765 0.317111
Si Si6 0.406482 0.881379 0.502963
Si Si7 0.928470 0.189378 0.113702
O O1 0.371099 0.868668 0.163298
O O2 0.512646 0.828757 0.042807
O O3 0.360405 0.754251 0.129834
O O4 0.155853 0.826743 0.999963
O O5 0.809730 0.404984 0.736542
O O6 0.655143 0.478734 0.823307
O O7 0.630310 0.361530 0.829580
O O8 0.928981 0.422150 0.930020
O O9 0.500000 0.189239 0.250000
O O10 0.143524 0.195946 0.157702
O O11 0.314224 0.144860 0.072054
O O12 0.857599 0.552538 0.777566
O O13 0.258506 0.920090 0.420703
O O14 0.000000 0.923744 0.250000
#
# Coordination Sequence:
#
# PCOD8139013 Si02
#       7
#     8   8   8   4   8   8   8
#     4   9  21  40  61  86 117 164 208 247 310 379
#     4  10  21  40  61  91 120 159 207 255 308 368
#     4  10  21  35  59  91 122 154 201 252 315 362
#     4  10  24  40  62  88 126 170 204 254 318 366
#     4  11  23  40  63  91 126 164 210 258 307 378
#     4   9  21  40  58  86 127 159 198 256 314 364
#     4  10  20  38  64  85 121 157 207 256 303 379
#
# _framework density 20.793856000000002
#
# number of rings (size 3 to 8) (size 9 to 14) (size 15 to 20)
#    0.000    2.154    0.000    1.846    7.538    0.615 
#    0.000    4.615    0.000    0.000    0.000    0.000 
#    0.000    0.000    0.000    0.000    0.000    0.000 
#
# Total GULP energy -322183.675983 kJ/mol
# GULP energy per Si atom -12391.679845 kJ/mol
# Density = 2.074653 g / cm^3
# Si number density = 20.793856 Si / 1000 Ang^3
#
#
#
# Elastic Constant Matrix: (Units=GPa)
#
#
# Indices 1 2 3 4 5 6 
#
# 1 95.4628 20.5492 45.7028 0.0000 19.8121 0.0000
# 2 20.5492 91.5148 32.1486 0.0000 -0.3963 0.0000
# 3 45.7028 32.1486 120.0978 0.0000 7.9414 0.0000
# 4 0.0000 0.0000 0.0000 17.4042 0.0000 -1.8030
# 5 19.8121 -0.3963 7.9414 0.0000 45.5367 0.0000
# 6 0.0000 0.0000 0.0000 -1.8030 0.0000 11.2282
#
#
#
# Elastic Compliance Matrix: (Units=1/GPa)
#
#
# Indices 1 2 3 4 5 6 
#
# 1 0.014130 -0.001580 -0.004600 0.000000 -0.005359 0.000000
# 2 -0.001580 0.012259 -0.002765 0.000000 0.001276 0.000000
# 3 -0.004600 -0.002765 0.010811 0.000000 0.000092 0.000000
# 4 0.000000 0.000000 0.000000 0.058429 0.000000 0.009382
# 5 -0.005359 0.001276 0.000092 0.000000 0.024287 0.000000
# 6 0.000000 0.000000 0.000000 0.009382 0.000000 0.090568
#
#
# Mechanical properties :
#
#
# Convention : Reuss Voigt Hill
#
# Bulk Modulus (GPa) = 51.78504 55.98628 53.88566
# Shear Modulus (GPa) = 21.29385 28.74549 25.01967
#
# Velocity S-wave (km/s) = 3.20354 3.72210 3.47252
# Velocity P-wave (km/s) = 6.21624 6.74203 6.48447
#
# Compressibility (1/GPa) = 0.01931060
#
# Stress axis : x y z
#
# Youngs Moduli (GPa) = 70.77278 81.57469 92.49916
#
# Poissons Ratio (x) = 0.12890 0.42547
# Poissons Ratio (y) = 0.11183 0.25572
# Poissons Ratio (z) = 0.32553 0.22552
#
# Static dielectric constant tensor:
#      x y z
#    x 3.753550 0.000000 0.108020 
#    y 0.000000 3.423910 0.000000 
#    z 0.108020 0.000000 4.055220 
# 
# 
# High freq. dielectric constant tensor:
#      x y z
#    x 1.806940 0.000000 0.015790 
#    y 0.000000 1.785880 0.000000 
#    z 0.015790 0.000000 1.837550 
# 
# From -- ./inp_files/136109.got.cif
#   From: 2010.06.25/outbox.cif.g09.slc.cpg/sg15_69_cif.got.tgz:136109.got - 2010.06.28 07:06:18.
