data_PCOD8139693
_publ_section_title
;
Structure prediction by ZEFSAII (Michael W. Deem and Ramdas Pophale) SiO2 
 PCOD8139693
Probable space group: C 2/C
;
_chemical_formula_sum "Si O2"
_cell_formula_units_Z 44
_cell_length_a 11.292627
_cell_length_b 19.476830
_cell_length_c 8.847557
_cell_angle_alpha 90.000000
_cell_angle_beta 85.260029
_cell_angle_gamma 90.000000
_cell_volume 1939.316916
_symmetry_space_group_name_H-M "C 2/C"
_symmetry_group_IT_number 15
_symmetry_cell_setting 'monoclinic'
loop_
_space_group_symop_operation_xyz
x,y,z
-x,y,1/2-z
-x,-y,-z
x,-y,1/2+z
1/2+x,1/2+y,z
1/2-x,1/2+y,1/2-z
1/2-x,1/2-y,-z
1/2+x,1/2-y,1/2+z
loop_
_atom_site_type_symbol
_atom_site_label
_atom_site_fract_x
_atom_site_fract_y
_atom_site_fract_z
Si Si1 0.083546 0.859502 0.458571
Si Si2 0.500000 0.712103 0.250000
Si Si3 0.749528 0.474199 0.324475
Si Si4 0.388927 0.182540 0.545336
Si Si5 0.500000 0.250522 0.250000
Si Si6 0.500000 0.075604 0.750000
Si Si7 0.822395 0.911381 0.465189
O O1 0.192466 0.911534 0.427056
O O2 0.093543 0.797295 0.335933
O O3 0.083093 0.832873 0.631056
O O4 0.960249 0.897088 0.437324
O O5 0.594310 0.754188 0.341108
O O6 0.709208 0.467384 0.157011
O O7 0.708365 0.550029 0.376246
O O8 0.892017 0.470954 0.320256
O O9 0.431007 0.201534 0.373397
O O10 0.463531 0.119981 0.607504
O O11 0.250775 0.159819 0.547200
#
# Coordination Sequence:
#
# PCOD8139693 Si02
#       7
#     8   4   8   8   4   4   8
#     4  11  22  43  62 103 128 175 218 274 331 388
#     4   9  22  40  67  93 138 170 221 268 330 395
#     4  11  24  42  66  94 135 177 219 274 320 393
#     4   9  21  43  61  98 126 174 218 276 320 389
#     4  10  20  39  67  93 131 170 212 272 326 382
#     4   9  22  45  60  94 133 166 231 264 320 391
#     4  11  24  41  67  94 139 170 224 270 324 393
#
# _framework density 22.688400000000001
#
# number of rings (size 3 to 8) (size 9 to 14) (size 15 to 20)
#    0.000    1.818    1.818    0.545    2.545    8.000 
#    6.545    3.636    0.000    0.000    0.000    0.000 
#    0.000    0.000    0.000    0.000    0.000    0.000 
#
# Total GULP energy -272790.666067 kJ/mol
# GULP energy per Si atom -12399.575730 kJ/mol
# Density = 2.263676 g / cm^3
# Si number density = 22.688400 Si / 1000 Ang^3
#
#
#
# Elastic Constant Matrix: (Units=GPa)
#
#
# Indices 1 2 3 4 5 6 
#
# 1 116.7804 30.7344 30.7952 0.0000 -18.6207 0.0000
# 2 30.7344 51.5506 21.8098 0.0000 -7.6472 0.0000
# 3 30.7952 21.8098 119.2189 0.0000 -6.2212 0.0000
# 4 0.0000 0.0000 0.0000 39.6166 0.0000 -10.1077
# 5 -18.6207 -7.6472 -6.2212 0.0000 26.8135 0.0000
# 6 0.0000 0.0000 0.0000 -10.1077 0.0000 2.2297
#
#
#
# Elastic Compliance Matrix: (Units=1/GPa)
#
#
# Indices 1 2 3 4 5 6 
#
# 1 0.011315 -0.005150 -0.001667 0.000000 0.006002 0.000000
# 2 -0.005150 0.024102 -0.002942 0.000000 0.002614 0.000000
# 3 -0.001667 -0.002942 0.009366 0.000000 0.000176 0.000000
# 4 0.000000 0.000000 0.000000 -0.161217 0.000000 -0.730815
# 5 0.006002 0.002614 0.000176 0.000000 0.042249 0.000000
# 6 0.000000 0.000000 0.000000 -0.730815 0.000000 -2.864390
#
#
# Mechanical properties :
#
#
# Convention : Reuss Voigt Hill
#
# Bulk Modulus (GPa) = 39.58372 50.46986 45.02679
# Shear Modulus (GPa) = -1.71784 27.34599 12.81407
#
# Velocity S-wave (km/s) = -0.87108 3.47549 2.37910
# Velocity P-wave (km/s) = 4.05867 6.19665 5.23790
#
# Compressibility (1/GPa) = 0.02526291
#
# Stress axis : x y z
#
# Youngs Moduli (GPa) = 88.37575 41.49083 106.76810
#
# Poissons Ratio (x) = 0.21369 0.17803
# Poissons Ratio (y) = 0.45517 0.31415
# Poissons Ratio (z) = 0.14736 0.12208
#
# Static dielectric constant tensor:
#      x y z
#    x 3.942370 0.000000 0.023590 
#    y 0.000000 4.015290 0.000000 
#    z 0.023590 0.000000 4.342180 
# 
# 
# High freq. dielectric constant tensor:
#      x y z
#    x 1.881640 0.000000 0.000340 
#    y 0.000000 1.888870 0.000000 
#    z 0.000340 0.000000 1.911430 
# 
# From -- ./inp_files/30804.got.cif
#   From: 2010.06.25/outbox.cif.g09.slc.cpg/sg15_16_cif.got.tgz:30804.got - 2010.06.28 07:06:18.
