data_PCOD8139527
_publ_section_title
;
Structure prediction by ZEFSAII (Michael W. Deem and Ramdas Pophale) SiO2 
 PCOD8139527
Probable space group: C 2/C
;
_chemical_formula_sum "Si O2"
_cell_formula_units_Z 56
_cell_length_a 18.447410
_cell_length_b 7.284819
_cell_length_c 18.045668
_cell_angle_alpha 90.000000
_cell_angle_beta 71.343220
_cell_angle_gamma 90.000000
_cell_volume 2297.652151
_symmetry_space_group_name_H-M "C 2/C"
_symmetry_group_IT_number 15
_symmetry_cell_setting 'monoclinic'
loop_
_space_group_symop_operation_xyz
x,y,z
-x,y,1/2-z
-x,-y,-z
x,-y,1/2+z
1/2+x,1/2+y,z
1/2-x,1/2+y,1/2-z
1/2-x,1/2-y,-z
1/2+x,1/2-y,1/2+z
loop_
_atom_site_type_symbol
_atom_site_label
_atom_site_fract_x
_atom_site_fract_y
_atom_site_fract_z
Si Si1 0.272978 0.353355 0.136231
Si Si2 0.013168 0.907237 0.660712
Si Si3 0.359488 0.131627 0.923916
Si Si4 0.805993 0.346223 0.042518
Si Si5 0.779046 0.251934 0.796769
Si Si6 0.570083 0.792770 0.683270
Si Si7 0.417748 0.549076 0.060233
O O1 0.212865 0.279940 0.095330
O O2 0.250854 0.562182 0.158512
O O3 0.259250 0.246166 0.216954
O O4 0.360594 0.370523 0.077371
O O5 0.074961 0.783768 0.596511
O O6 0.000000 0.842313 0.750000
O O7 0.933642 0.892215 0.641128
O O8 0.041969 0.116551 0.646500
O O9 0.391384 0.942103 0.880242
O O10 0.330731 0.055267 0.012737
O O11 0.764782 0.392297 0.134941
O O12 0.880783 0.218790 0.028135
O O13 0.750000 0.250000 0.000000
O O14 0.869666 0.222175 0.775005
O O15 0.500000 0.885635 0.750000
O O16 0.500000 0.500000 0.000000
#
# Coordination Sequence:
#
# PCOD8139527 Si02
#       7
#     8   8   8   8   8   8   8
#     4  10  22  41  66  98 132 178 224 281 338 407
#     4  11  25  41  70 104 140 173 229 291 338 398
#     4  11  23  42  70  97 135 181 228 273 347 409
#     4  11  21  45  67  90 136 187 215 280 347 401
#     4  10  22  38  66  91 129 175 223 276 336 401
#     4  10  20  39  63  93 134 178 215 275 348 393
#     4  11  24  44  70  99 138 179 226 282 346 404
#
# _framework density 24.372706000000001
#
# number of rings (size 3 to 8) (size 9 to 14) (size 15 to 20)
#    0.000    1.429    4.286    3.000    6.000    0.571 
#    2.571    1.429    0.000    0.000    0.000    0.000 
#    0.000    0.000    0.000    0.000    0.000    0.000 
#
# Total GULP energy -347036.694309 kJ/mol
# GULP energy per Si atom -12394.167654 kJ/mol
# Density = 2.431723 g / cm^3
# Si number density = 24.372706 Si / 1000 Ang^3
#
#
#
# Elastic Constant Matrix: (Units=GPa)
#
#
# Indices 1 2 3 4 5 6 
#
# 1 147.3944 15.0577 10.3928 0.0000 -2.0990 -0.0001
# 2 15.0577 36.2430 -13.7224 -0.0001 -2.4674 -0.0002
# 3 10.3928 -13.7224 52.0625 0.0000 -15.1747 0.0000
# 4 0.0000 -0.0001 0.0000 18.2674 0.0000 -10.9894
# 5 -2.0990 -2.4674 -15.1747 0.0000 49.2211 0.0000
# 6 -0.0001 -0.0002 0.0000 -10.9894 0.0000 28.1571
#
#
#
# Elastic Compliance Matrix: (Units=1/GPa)
#
#
# Indices 1 2 3 4 5 6 
#
# 1 0.007399 -0.004186 -0.002801 0.000000 -0.000758 0.000000
# 2 -0.004186 0.033922 0.011229 0.000000 0.004984 0.000000
# 3 -0.002801 0.011229 0.025112 0.000000 0.008186 0.000000
# 4 0.000000 0.000000 0.000000 0.071539 0.000000 0.027921
# 5 -0.000758 0.004984 0.008186 0.000000 0.023058 0.000000
# 6 0.000000 0.000000 0.000000 0.027921 0.000000 0.046412
#
#
# Mechanical properties :
#
#
# Convention : Reuss Voigt Hill
#
# Bulk Modulus (GPa) = 13.34819 28.79512 21.07166
# Shear Modulus (GPa) = 22.32834 34.06059 28.19446
#
# Velocity S-wave (km/s) = 3.03003 3.74236 3.40487
# Velocity P-wave (km/s) = 4.21071 5.52393 4.91141
#
# Compressibility (1/GPa) = 0.07491653
#
# Stress axis : x y z
#
# Youngs Moduli (GPa) = 135.15512 29.47969 39.82084
#
# Poissons Ratio (x) = 0.12341 0.11155
# Poissons Ratio (y) = 0.56579 -0.44716
# Poissons Ratio (z) = 0.37861 -0.33103
#
# Static dielectric constant tensor:
#      x y z
#    x 16.315810 0.000020 2.855460 
#    y 0.000020 4.116060 0.000000 
#    z 2.855460 0.000000 5.875740 
# 
# 
# High freq. dielectric constant tensor:
#      x y z
#    x 1.977920 0.000000 -0.006720 
#    y 0.000000 1.954760 0.000000 
#    z -0.006720 0.000000 1.981830 
# 
# From -- ./inp_files/209522.got.cif
#   From: 2010.06.25/outbox.cif.g09.slc.cpg/sg15_105_cif.got.tgz:209522.got - 2010.06.28 07:06:18.
