data_PCOD8139549
_publ_section_title
;
Structure prediction by ZEFSAII (Michael W. Deem and Ramdas Pophale) SiO2 
 PCOD8139549
Probable space group: C 2/C
;
_chemical_formula_sum "Si O2"
_cell_formula_units_Z 48
_cell_length_a 13.378144
_cell_length_b 12.292761
_cell_length_c 26.496847
_cell_angle_alpha 90.000000
_cell_angle_beta 150.478640
_cell_angle_gamma 90.000000
_cell_volume 2147.159810
_symmetry_space_group_name_H-M "C 2/C"
_symmetry_group_IT_number 15
_symmetry_cell_setting 'monoclinic'
loop_
_space_group_symop_operation_xyz
x,y,z
-x,y,1/2-z
-x,-y,-z
x,-y,1/2+z
1/2+x,1/2+y,z
1/2-x,1/2+y,1/2-z
1/2-x,1/2-y,-z
1/2+x,1/2-y,1/2+z
loop_
_atom_site_type_symbol
_atom_site_label
_atom_site_fract_x
_atom_site_fract_y
_atom_site_fract_z
Si Si1 0.230159 0.138638 0.200897
Si Si2 0.421744 0.635571 0.787337
Si Si3 0.503993 0.699363 0.307377
Si Si4 0.579127 0.290360 0.013989
Si Si5 0.756805 0.095038 0.819057
Si Si6 0.832406 0.590230 0.915251
O O1 0.399421 0.233005 0.269698
O O2 0.140574 0.130674 0.218883
O O3 0.332059 0.027267 0.225762
O O4 0.025313 0.153129 0.078989
O O5 0.417303 0.608840 0.844277
O O6 0.629591 0.581663 0.859597
O O7 0.231933 0.585499 0.672231
O O8 0.500000 0.642596 0.250000
O O9 0.735781 0.715904 0.426130
O O10 0.427250 0.823276 0.269563
O O11 0.637896 0.381482 0.081040
O O12 0.424051 0.206275 0.971494
O O13 0.000000 0.500000 0.000000
#
# Coordination Sequence:
#
# PCOD8139549 Si02
#       6
#     8   8   8   8   8   8
#     4  10  20  39  64  85 127 165 208 270 321 377
#     4   9  22  42  58  94 128 163 216 262 321 390
#     4   9  20  38  60  89 123 160 216 262 310 391
#     4  10  21  39  59  93 122 158 221 258 312 395
#     4  10  21  39  60  92 125 169 206 259 331 374
#     4  10  22  41  65  91 126 169 212 269 327 377
#
# _framework density 22.355114
#
# number of rings (size 3 to 8) (size 9 to 14) (size 15 to 20)
#    0.000    2.333    0.000    1.000    2.333    4.667 
#   24.000    0.000    0.000    0.000    0.000    0.000 
#    0.000    0.000    0.000    0.000    0.000    0.000 
#
# Total GULP energy -297416.182901 kJ/mol
# GULP energy per Si atom -12392.340954 kJ/mol
# Density = 2.230423 g / cm^3
# Si number density = 22.355114 Si / 1000 Ang^3
#
#
#
# Elastic Constant Matrix: (Units=GPa)
#
#
# Indices 1 2 3 4 5 6 
#
# 1 97.0116 14.0665 29.3520 0.0000 -8.2707 0.0000
# 2 14.0665 83.9401 21.0361 0.0000 -4.7396 -0.0001
# 3 29.3520 21.0361 72.3744 -0.0003 5.1920 -0.0003
# 4 0.0000 0.0000 -0.0003 25.8029 -0.0003 -0.1214
# 5 -8.2707 -4.7396 5.1920 -0.0003 31.3751 -0.0001
# 6 0.0000 -0.0001 -0.0003 -0.1214 -0.0001 24.1244
#
#
#
# Elastic Compliance Matrix: (Units=1/GPa)
#
#
# Indices 1 2 3 4 5 6 
#
# 1 0.012273 -0.000552 -0.005104 0.000000 0.003996 0.000000
# 2 -0.000552 0.013085 -0.003755 0.000000 0.002453 0.000000
# 3 -0.005104 -0.003755 0.017321 0.000000 -0.004779 0.000000
# 4 0.000000 0.000000 0.000000 0.038756 0.000000 0.000195
# 5 0.003996 0.002453 -0.004779 0.000000 0.034087 0.000000
# 6 0.000000 0.000000 0.000000 0.000195 0.000000 0.041453
#
#
# Mechanical properties :
#
#
# Convention : Reuss Voigt Hill
#
# Bulk Modulus (GPa) = 41.91568 42.47060 42.19314
# Shear Modulus (GPa) = 27.21080 28.85191 28.03135
#
# Velocity S-wave (km/s) = 3.49263 3.59641 3.54490
# Velocity P-wave (km/s) = 5.92075 6.02370 5.97245
#
# Compressibility (1/GPa) = 0.02385742
#
# Stress axis : x y z
#
# Youngs Moduli (GPa) = 81.47985 76.42105 57.73254
#
# Poissons Ratio (x) = 0.04218 0.29465
# Poissons Ratio (y) = 0.04498 0.21681
# Poissons Ratio (z) = 0.41585 0.28699
#
# Static dielectric constant tensor:
#      x y z
#    x 4.223820 0.000000 -0.230400 
#    y 0.000000 4.066720 0.000000 
#    z -0.230400 0.000000 4.033190 
# 
# 
# High freq. dielectric constant tensor:
#      x y z
#    x 1.878480 0.000000 -0.006930 
#    y 0.000000 1.882130 0.000000 
#    z -0.006930 0.000000 1.870930 
# 
# From -- ./inp_files/151858.got.cif
#   From: 2010.06.25/outbox.cif.g09.slc.cpg/sg15_76_cif.got.tgz:151858.got - 2010.06.28 07:06:18.
