data_PCOD8139979
_publ_section_title
;
Structure prediction by ZEFSAII (Michael W. Deem and Ramdas Pophale) SiO2 
 PCOD8139979
Probable space group: C 2/C
;
_chemical_formula_sum "Si O2"
_cell_formula_units_Z 48
_cell_length_a 18.001745
_cell_length_b 14.018336
_cell_length_c 17.972772
_cell_angle_alpha 90.000000
_cell_angle_beta 32.458452
_cell_angle_gamma 90.000000
_cell_volume 2434.153295
_symmetry_space_group_name_H-M "C 2/C"
_symmetry_group_IT_number 15
_symmetry_cell_setting 'monoclinic'
loop_
_space_group_symop_operation_xyz
x,y,z
-x,y,1/2-z
-x,-y,-z
x,-y,1/2+z
1/2+x,1/2+y,z
1/2-x,1/2+y,1/2-z
1/2-x,1/2-y,-z
1/2+x,1/2-y,1/2+z
loop_
_atom_site_type_symbol
_atom_site_label
_atom_site_fract_x
_atom_site_fract_y
_atom_site_fract_z
Si Si1 0.122230 0.682828 0.094482
Si Si2 0.694945 0.308158 0.477586
Si Si3 0.920145 0.647841 0.537441
Si Si4 0.855061 0.464888 0.408685
Si Si5 0.318061 0.947192 0.612210
Si Si6 0.880729 0.787754 0.700441
O O1 0.167563 0.577021 0.079359
O O2 0.000000 0.720609 0.250000
O O3 0.250000 0.750000 0.000000
O O4 0.069605 0.686529 0.054608
O O5 0.750000 0.250000 0.500000
O O6 0.730618 0.418258 0.466034
O O7 0.774686 0.275823 0.336918
O O8 0.532204 0.291830 0.607554
O O9 0.809023 0.560468 0.637378
O O10 0.879517 0.738644 0.620914
O O11 0.067006 0.604306 0.435298
O O12 0.853454 0.429337 0.495514
O O13 0.000000 0.432418 0.250000
O O14 0.173705 0.896993 0.756714
#
# Coordination Sequence:
#
# PCOD8139979 Si02
#       6
#     8   8   8   8   8   8
#     4  10  24  44  66  91 117 165 212 260 310 364
#     4  12  22  36  62  95 132 163 203 254 317 377
#     4  10  22  42  65  87 126 164 210 250 312 377
#     4  10  20  40  64  92 126 164 210 251 311 377
#     4  10  21  40  64  89 122 173 203 252 308 372
#     4  12  23  39  60  98 128 167 206 258 316 373
#
# _framework density 19.719382
#
# number of rings (size 3 to 8) (size 9 to 14) (size 15 to 20)
#    0.000    1.333    3.333    2.500    2.333    1.333 
#    6.000    0.833    0.000    0.000    0.000    0.000 
#    0.000    0.000    0.000    0.000    0.000    0.000 
#
# Total GULP energy -297616.919670 kJ/mol
# GULP energy per Si atom -12400.704986 kJ/mol
# Density = 1.967450 g / cm^3
# Si number density = 19.719382 Si / 1000 Ang^3
#
#
#
# Elastic Constant Matrix: (Units=GPa)
#
#
# Indices 1 2 3 4 5 6 
#
# 1 108.9957 53.2994 59.8514 0.0000 0.3733 0.0001
# 2 53.2994 90.8023 58.9730 0.0000 -5.1182 0.0000
# 3 59.8514 58.9730 116.5041 0.0002 -6.7225 0.0000
# 4 0.0000 0.0000 0.0002 38.4955 -0.0001 -4.2457
# 5 0.3733 -5.1182 -6.7225 -0.0001 34.5886 0.0000
# 6 0.0001 0.0000 0.0000 -4.2457 0.0000 39.3861
#
#
#
# Elastic Compliance Matrix: (Units=1/GPa)
#
#
# Indices 1 2 3 4 5 6 
#
# 1 0.014497 -0.005525 -0.004760 0.000000 -0.001899 0.000000
# 2 -0.005525 0.018535 -0.006455 0.000000 0.001548 0.000000
# 3 -0.004760 -0.006455 0.014406 0.000000 0.001896 0.000000
# 4 0.000000 0.000000 0.000000 0.026290 0.000000 0.002834
# 5 -0.001899 0.001548 0.001896 0.000000 0.029529 0.000000
# 6 0.000000 0.000000 0.000000 0.002834 0.000000 0.025695
#
#
# Mechanical properties :
#
#
# Convention : Reuss Voigt Hill
#
# Bulk Modulus (GPa) = 71.64427 73.39441 72.51934
# Shear Modulus (GPa) = 29.92498 32.10595 31.01546
#
# Velocity S-wave (km/s) = 3.89979 4.03940 3.97021
# Velocity P-wave (km/s) = 7.52918 7.68478 7.60738
#
# Compressibility (1/GPa) = 0.01395785
#
# Stress axis : x y z
#
# Youngs Moduli (GPa) = 68.98059 53.95122 69.41662
#
# Poissons Ratio (x) = 0.29806 0.33046
# Poissons Ratio (y) = 0.38109 0.44807
# Poissons Ratio (z) = 0.32838 0.34825
#
# Static dielectric constant tensor:
#      x y z
#    x 3.789130 0.000000 -0.115890 
#    y 0.000000 3.936730 0.000000 
#    z -0.115890 0.000000 4.380940 
# 
# 
# High freq. dielectric constant tensor:
#      x y z
#    x 1.774150 0.000000 0.008550 
#    y 0.000000 1.774250 0.000000 
#    z 0.008550 0.000000 1.758940 
# 
# From -- ./inp_files/66429.got.cif
#   From: 2010.06.25/outbox.cif.g09.slc.cpg/sg15_34_cif.got.tgz:66429.got - 2010.06.28 07:06:18.
