data_PCOD8139521
_publ_section_title
;
Structure prediction by ZEFSAII (Michael W. Deem and Ramdas Pophale) SiO2 
 PCOD8139521
Probable space group: C 2/C
;
_chemical_formula_sum "Si O2"
_cell_formula_units_Z 48
_cell_length_a 10.291177
_cell_length_b 14.588347
_cell_length_c 29.337189
_cell_angle_alpha 90.000000
_cell_angle_beta 145.180874
_cell_angle_gamma 90.000000
_cell_volume 2514.874647
_symmetry_space_group_name_H-M "C 2/C"
_symmetry_group_IT_number 15
_symmetry_cell_setting 'monoclinic'
loop_
_space_group_symop_operation_xyz
x,y,z
-x,y,1/2-z
-x,-y,-z
x,-y,1/2+z
1/2+x,1/2+y,z
1/2-x,1/2+y,1/2-z
1/2-x,1/2-y,-z
1/2+x,1/2-y,1/2+z
loop_
_atom_site_type_symbol
_atom_site_label
_atom_site_fract_x
_atom_site_fract_y
_atom_site_fract_z
Si Si1 0.126450 0.639739 0.661978
Si Si2 0.578677 0.359073 0.339625
Si Si3 0.266156 0.992644 0.564726
Si Si4 0.879825 0.346508 0.666010
Si Si5 0.227928 0.495454 0.037798
Si Si6 0.070002 0.813664 0.922526
O O1 0.210845 0.621787 0.634211
O O2 0.333118 0.605415 0.752339
O O3 0.888892 0.590772 0.604709
O O4 0.073174 0.748500 0.653459
O O5 0.551306 0.249576 0.337396
O O6 0.615203 0.415149 0.396230
O O7 0.420835 0.926764 0.641171
O O8 0.299016 0.962972 0.521857
O O9 0.000000 0.000000 0.500000
O O10 0.607230 0.352179 0.591869
O O11 0.000000 0.362505 0.750000
O O12 0.327975 0.597949 0.072998
O O13 0.000000 0.500000 0.000000
O O14 0.250000 0.750000 0.000000
#
# Coordination Sequence:
#
# PCOD8139521 Si02
#       6
#     8   8   8   8   8   8
#     4  10  20  39  63  92 122 171 213 254 311 388
#     4  10  21  39  65  92 125 166 216 260 313 381
#     4  12  24  38  63  98 128 164 213 265 317 375
#     4  11  22  41  64  91 126 171 209 254 325 383
#     4  12  23  39  65  98 126 165 213 263 320 376
#     4  11  19  39  65  89 119 172 211 245 310 395
#
# _framework density 19.08644
#
# number of rings (size 3 to 8) (size 9 to 14) (size 15 to 20)
#    0.000    1.000    8.333    1.000    2.333    0.667 
#    0.000    0.000    0.000    0.000    0.000    0.000 
#    0.000    0.000    0.000    0.000    0.000    0.000 
#
# Total GULP energy -297328.710527 kJ/mol
# GULP energy per Si atom -12388.696272 kJ/mol
# Density = 1.904300 g / cm^3
# Si number density = 19.086440 Si / 1000 Ang^3
#
#
#
# Elastic Constant Matrix: (Units=GPa)
#
#
# Indices 1 2 3 4 5 6 
#
# 1 89.7975 46.8865 51.2457 0.0000 -2.2959 0.0000
# 2 46.8865 125.5714 57.6205 0.0000 -19.0934 0.0000
# 3 51.2457 57.6205 98.5939 0.0000 -10.4894 0.0000
# 4 0.0000 0.0000 0.0000 38.7507 0.0000 -2.1449
# 5 -2.2959 -19.0934 -10.4894 0.0000 41.0298 0.0000
# 6 0.0000 0.0000 0.0000 -2.1449 0.0000 37.7061
#
#
#
# Elastic Compliance Matrix: (Units=1/GPa)
#
#
# Indices 1 2 3 4 5 6 
#
# 1 0.016883 -0.003458 -0.007015 0.000000 -0.002458 0.000000
# 2 -0.003458 0.012113 -0.004834 0.000000 0.004207 0.000000
# 3 -0.007015 -0.004834 0.016790 0.000000 0.001650 0.000000
# 4 0.000000 0.000000 0.000000 0.025888 0.000000 0.001473
# 5 -0.002458 0.004207 0.001650 0.000000 0.026615 0.000000
# 6 0.000000 0.000000 0.000000 0.001473 0.000000 0.026605
#
#
# Mechanical properties :
#
#
# Convention : Reuss Voigt Hill
#
# Bulk Modulus (GPa) = 65.92047 69.49647 67.70847
# Shear Modulus (GPa) = 31.14033 34.04464 32.59248
#
# Velocity S-wave (km/s) = 4.04362 4.22798 4.13683
# Velocity P-wave (km/s) = 7.51092 7.76691 7.63999
#
# Compressibility (1/GPa) = 0.01516979
#
# Stress axis : x y z
#
# Youngs Moduli (GPa) = 59.23261 82.55797 59.56101
#
# Poissons Ratio (x) = 0.28552 0.41784
# Poissons Ratio (y) = 0.20485 0.28790
# Poissons Ratio (z) = 0.41554 0.39907
#
# Static dielectric constant tensor:
#      x y z
#    x 3.954150 0.000000 0.199410 
#    y 0.000000 3.695600 0.000000 
#    z 0.199410 0.000000 3.862470 
# 
# 
# High freq. dielectric constant tensor:
#      x y z
#    x 1.716150 0.000000 0.020670 
#    y 0.000000 1.748330 0.000000 
#    z 0.020670 0.000000 1.756170 
# 
# From -- ./inp_files/289108.got.cif
#   From: 2010.06.25/outbox.cif.g09.slc.cpg/sg15_145_cif.got.tgz:289108.got - 2010.06.28 07:06:18.
