data_PCOD8139215
_publ_section_title
;
Structure prediction by ZEFSAII (Michael W. Deem and Ramdas Pophale) SiO2 
 PCOD8139215
Probable space group: C 2/C
;
_chemical_formula_sum "Si O2"
_cell_formula_units_Z 48
_cell_length_a 8.298096
_cell_length_b 25.902840
_cell_length_c 11.145030
_cell_angle_alpha 90.000000
_cell_angle_beta 58.459272
_cell_angle_gamma 90.000000
_cell_volume 2041.660543
_symmetry_space_group_name_H-M "C 2/C"
_symmetry_group_IT_number 15
_symmetry_cell_setting 'monoclinic'
loop_
_space_group_symop_operation_xyz
x,y,z
-x,y,1/2-z
-x,-y,-z
x,-y,1/2+z
1/2+x,1/2+y,z
1/2-x,1/2+y,1/2-z
1/2-x,1/2-y,-z
1/2+x,1/2-y,1/2+z
loop_
_atom_site_type_symbol
_atom_site_label
_atom_site_fract_x
_atom_site_fract_y
_atom_site_fract_z
Si Si1 0.591940 0.680636 0.888670
Si Si2 0.773376 0.471067 0.832723
Si Si3 0.905350 0.295333 0.659863
Si Si4 0.215901 0.643427 0.906651
Si Si5 0.081593 0.869815 0.838595
Si Si6 0.290296 0.978877 0.084005
O O1 0.612821 0.741561 0.903983
O O2 0.387174 0.668476 0.912465
O O3 0.763419 0.660433 0.739949
O O4 0.596133 0.649118 0.011881
O O5 0.712247 0.411359 0.854824
O O6 0.691180 0.500094 0.745370
O O7 0.000000 0.472872 0.750000
O O8 0.696553 0.495518 0.990416
O O9 0.699894 0.318782 0.761591
O O10 0.000000 0.282976 0.750000
O O11 0.021099 0.335885 0.535384
O O12 0.213939 0.582244 0.911057
O O13 0.000000 0.895580 0.750000
O O14 0.500000 0.000000 0.000000
#
# Coordination Sequence:
#
# PCOD8139215 Si02
#       6
#     8   8   8   8   8   8
#     4  11  23  39  67 104 133 168 228 280 339 388
#     4  10  21  42  68  94 126 174 229 276 332 405
#     4  12  20  40  73  99 127 183 231 271 334 414
#     4  11  21  39  67 103 133 164 225 293 321 399
#     4  12  26  43  63  98 144 177 225 279 343 404
#     4  10  20  38  67  97 128 171 228 277 332 398
#
# _framework density 23.510276000000001
#
# number of rings (size 3 to 8) (size 9 to 14) (size 15 to 20)
#    0.000    1.000    5.000    4.000    0.000    2.000 
#    3.000    4.167    0.000    0.000    0.000    0.000 
#    0.000    0.000    0.000    0.000    0.000    0.000 
#
# Total GULP energy -297533.050237 kJ/mol
# GULP energy per Si atom -12397.210427 kJ/mol
# Density = 2.345677 g / cm^3
# Si number density = 23.510276 Si / 1000 Ang^3
#
#
#
# Elastic Constant Matrix: (Units=GPa)
#
#
# Indices 1 2 3 4 5 6 
#
# 1 39.8706 6.9460 24.1967 0.0000 28.9561 0.0000
# 2 6.9460 129.8851 49.0992 0.0000 18.7941 0.0000
# 3 24.1967 49.0992 178.4966 0.0000 38.9330 0.0000
# 4 0.0000 0.0000 0.0000 23.0092 0.0000 5.2622
# 5 28.9561 18.7941 38.9330 0.0000 40.2003 0.0000
# 6 0.0000 0.0000 0.0000 5.2622 0.0000 15.7404
#
#
#
# Elastic Compliance Matrix: (Units=1/GPa)
#
#
# Indices 1 2 3 4 5 6 
#
# 1 0.053707 0.002700 0.000875 0.000000 -0.040794 0.000000
# 2 0.002700 0.008883 -0.001876 0.000000 -0.004281 0.000000
# 3 0.000875 -0.001876 0.007538 0.000000 -0.007054 0.000000
# 4 0.000000 0.000000 0.000000 0.047059 0.000000 -0.015732
# 5 -0.040794 -0.004281 -0.007054 0.000000 0.063092 0.000000
# 6 0.000000 0.000000 0.000000 -0.015732 0.000000 0.068790
#
#
# Mechanical properties :
#
#
# Convention : Reuss Voigt Hill
#
# Bulk Modulus (GPa) = 13.60054 56.52623 35.06338
# Shear Modulus (GPa) = 18.50613 33.65733 26.08173
#
# Velocity S-wave (km/s) = 2.80866 3.78775 3.33434
# Velocity P-wave (km/s) = 4.03926 6.57456 5.45621
#
# Compressibility (1/GPa) = 0.07352650
#
# Stress axis : x y z
#
# Youngs Moduli (GPa) = 18.61961 112.57115 132.65638
#
# Poissons Ratio (x) = -0.30395 -0.11604
# Poissons Ratio (y) = -0.05027 0.24883
# Poissons Ratio (z) = -0.01629 0.21115
#
# Static dielectric constant tensor:
#      x y z
#    x 3.857650 0.000000 0.409720 
#    y 0.000000 4.389670 0.000000 
#    z 0.409720 0.000000 5.344780 
# 
# 
# High freq. dielectric constant tensor:
#      x y z
#    x 1.894350 0.000000 0.012270 
#    y 0.000000 1.932360 0.000000 
#    z 0.012270 0.000000 1.959990 
# 
# From -- ./inp_files/80539.got.cif
#   From: 2010.06.25/outbox.cif.g09.slc.cpg/sg15_41_cif.got.tgz:80539.got - 2010.06.28 07:06:18.
