data_PCOD8139643
_publ_section_title
;
Structure prediction by ZEFSAII (Michael W. Deem and Ramdas Pophale) SiO2 
 PCOD8139643
Probable space group: C 2/C
;
_chemical_formula_sum "Si O2"
_cell_formula_units_Z 48
_cell_length_a 11.632472
_cell_length_b 9.116806
_cell_length_c 22.402493
_cell_angle_alpha 90.000000
_cell_angle_beta 122.315517
_cell_angle_gamma 90.000000
_cell_volume 2007.834731
_symmetry_space_group_name_H-M "C 2/C"
_symmetry_group_IT_number 15
_symmetry_cell_setting 'monoclinic'
loop_
_space_group_symop_operation_xyz
x,y,z
-x,y,1/2-z
-x,-y,-z
x,-y,1/2+z
1/2+x,1/2+y,z
1/2-x,1/2+y,1/2-z
1/2-x,1/2-y,-z
1/2+x,1/2-y,1/2+z
loop_
_atom_site_type_symbol
_atom_site_label
_atom_site_fract_x
_atom_site_fract_y
_atom_site_fract_z
Si Si1 0.738766 0.021348 0.509166
Si Si2 0.220297 0.690538 0.105748
Si Si3 0.571923 0.289021 0.512636
Si Si4 0.293097 0.973777 0.289788
Si Si5 0.226335 0.836280 0.667576
Si Si6 0.098645 0.547101 0.853478
O O1 0.660125 0.145965 0.523585
O O2 0.873435 0.077215 0.512677
O O3 0.786122 0.900451 0.569820
O O4 0.632473 0.950947 0.433213
O O5 0.182996 0.586464 0.150015
O O6 0.327048 0.813755 0.156744
O O7 0.085704 0.771134 0.044573
O O8 0.592180 0.322934 0.588901
O O9 0.227337 0.821781 0.293529
O O10 0.438034 0.940453 0.298708
O O11 0.196691 0.049710 0.213356
O O12 0.349980 0.894299 0.660746
#
# Coordination Sequence:
#
# PCOD8139643 Si02
#       6
#     8   8   8   8   8   8
#     4  10  20  39  66 104 136 173 220 283 342 398
#     4  12  23  41  74 105 136 179 226 289 346 404
#     4  10  21  40  70 103 139 178 229 282 346 402
#     4  12  25  46  69  96 138 183 231 280 347 411
#     4  11  25  45  69  95 137 187 228 280 343 410
#     4  11  25  43  68 102 135 174 226 284 341 405
#
# _framework density 23.906348999999999
#
# number of rings (size 3 to 8) (size 9 to 14) (size 15 to 20)
#    0.000    1.000    3.333    3.500    0.000    4.000 
#    0.000    3.333    0.000    0.000    0.000    0.000 
#    0.000    0.000    0.000    0.000    0.000    0.000 
#
# Total GULP energy -297725.942366 kJ/mol
# GULP energy per Si atom -12405.247599 kJ/mol
# Density = 2.385194 g / cm^3
# Si number density = 23.906349 Si / 1000 Ang^3
#
#
#
# Elastic Constant Matrix: (Units=GPa)
#
#
# Indices 1 2 3 4 5 6 
#
# 1 72.3330 57.6945 41.1050 0.0000 -1.2991 0.0000
# 2 57.6945 141.6109 47.3887 0.0000 1.1251 0.0000
# 3 41.1050 47.3887 107.6923 0.0000 -6.9005 0.0000
# 4 0.0000 0.0000 0.0000 55.2668 0.0000 -15.9702
# 5 -1.2991 1.1251 -6.9005 0.0000 19.9885 0.0000
# 6 0.0000 0.0000 0.0000 -15.9702 0.0000 27.5475
#
#
#
# Elastic Compliance Matrix: (Units=1/GPa)
#
#
# Indices 1 2 3 4 5 6 
#
# 1 0.022908 -0.007515 -0.005435 0.000000 0.000036 0.000000
# 2 -0.007515 0.010807 -0.002002 0.000000 -0.001788 0.000000
# 3 -0.005435 -0.002002 0.012502 0.000000 0.004076 0.000000
# 4 0.000000 0.000000 0.000000 0.021735 0.000000 0.012601
# 5 0.000036 -0.001788 0.004076 0.000000 0.051539 0.000000
# 6 0.000000 0.000000 0.000000 0.012601 0.000000 0.043606
#
#
# Mechanical properties :
#
#
# Convention : Reuss Voigt Hill
#
# Bulk Modulus (GPa) = 61.29399 68.22363 64.75881
# Shear Modulus (GPa) = 25.19680 32.25708 28.72694
#
# Velocity S-wave (km/s) = 3.25003 3.67728 3.47024
# Velocity P-wave (km/s) = 6.30701 6.82859 6.57298
#
# Compressibility (1/GPa) = 0.01631481
#
# Stress axis : x y z
#
# Youngs Moduli (GPa) = 43.65319 92.52994 79.98628
#
# Poissons Ratio (x) = 0.69533 0.43470
# Poissons Ratio (y) = 0.32804 0.16013
# Poissons Ratio (z) = 0.23724 0.18524
#
# Static dielectric constant tensor:
#      x y z
#    x 3.893790 0.000000 -0.252590 
#    y 0.000000 4.568570 0.000000 
#    z -0.252590 0.000000 4.459330 
# 
# 
# High freq. dielectric constant tensor:
#      x y z
#    x 1.919820 0.000000 -0.020210 
#    y 0.000000 1.963450 0.000000 
#    z -0.020210 0.000000 1.960280 
# 
# From -- ./inp_files/272371.got.cif
#   From: 2010.06.25/outbox.cif.g09.slc.cpg/sg15_137_cif.got.tgz:272371.got - 2010.06.28 07:06:18.
