data_PCOD8139319
_publ_section_title
;
Structure prediction by ZEFSAII (Michael W. Deem and Ramdas Pophale) SiO2 
 PCOD8139319
Probable space group: C 2/C
;
_chemical_formula_sum "Si O2"
_cell_formula_units_Z 64
_cell_length_a 17.435709
_cell_length_b 17.996404
_cell_length_c 16.067831
_cell_angle_alpha 90.000000
_cell_angle_beta 141.996060
_cell_angle_gamma 90.000000
_cell_volume 3104.293692
_symmetry_space_group_name_H-M "C 2/C"
_symmetry_group_IT_number 15
_symmetry_cell_setting 'monoclinic'
loop_
_space_group_symop_operation_xyz
x,y,z
-x,y,1/2-z
-x,-y,-z
x,-y,1/2+z
1/2+x,1/2+y,z
1/2-x,1/2+y,1/2-z
1/2-x,1/2-y,-z
1/2+x,1/2-y,1/2+z
loop_
_atom_site_type_symbol
_atom_site_label
_atom_site_fract_x
_atom_site_fract_y
_atom_site_fract_z
Si Si1 0.676694 0.059181 0.571739
Si Si2 0.763325 0.105291 0.470844
Si Si3 0.444640 0.710503 0.544964
Si Si4 0.667998 0.423286 0.824642
Si Si5 0.226000 0.202508 0.256029
Si Si6 0.104493 0.043889 0.449737
Si Si7 0.437260 0.135968 0.327833
Si Si8 0.825902 0.140587 0.833548
O O1 0.750038 0.096665 0.557664
O O2 0.527609 0.068658 0.434133
O O3 0.716348 0.099114 0.690709
O O4 0.713329 0.972163 0.603454
O O5 0.846131 0.178073 0.526088
O O6 0.626289 0.113496 0.313622
O O7 0.834025 0.036613 0.487857
O O8 0.384513 0.719393 0.402541
O O9 0.480191 0.790160 0.612892
O O10 0.563042 0.656438 0.636678
O O11 0.674169 0.340886 0.791820
O O12 0.543921 0.465653 0.687170
O O13 0.664194 0.414248 0.921129
O O14 0.330596 0.150136 0.304539
O O15 0.280128 0.281084 0.332409
O O16 0.130101 0.089940 0.553866
#
# Coordination Sequence:
#
# PCOD8139319 Si02
#       8
#     8   8   8   8   8   8   8   8
#     4  11  23  39  59  92 121 162 200 249 301 359
#     4  10  23  41  59  88 126 160 210 245 299 368
#     4  10  20  39  59  89 120 161 201 247 303 355
#     4  10  22  41  67  87 120 154 206 256 302 358
#     4  10  21  40  61  91 121 157 202 250 298 370
#     4  10  22  41  65  93 112 158 207 258 305 354
#     4  10  22  40  59  86 126 167 197 241 298 366
#     4  11  22  37  64  88 124 152 199 257 306 356
#
# _framework density 20.616606000000001
#
# number of rings (size 3 to 8) (size 9 to 14) (size 15 to 20)
#    0.000    1.750    2.500    1.125    3.500    4.000 
#    4.500    0.000    0.000    0.000    0.000    0.000 
#    0.000    0.000    0.000    0.000    0.000    0.000 
#
# Total GULP energy -396921.338364 kJ/mol
# GULP energy per Si atom -12403.791824 kJ/mol
# Density = 2.056968 g / cm^3
# Si number density = 20.616606 Si / 1000 Ang^3
#
#
#
# Elastic Constant Matrix: (Units=GPa)
#
#
# Indices 1 2 3 4 5 6 
#
# 1 26.9348 14.9824 10.6897 -0.0001 3.3458 -0.0001
# 2 14.9824 60.1511 31.1179 0.0000 -4.6139 0.0000
# 3 10.6897 31.1179 93.4874 -0.0001 4.8165 -0.0001
# 4 -0.0001 0.0000 -0.0001 31.8832 -0.0001 5.4238
# 5 3.3458 -4.6139 4.8165 -0.0001 33.6349 0.0000
# 6 -0.0001 0.0000 -0.0001 5.4238 0.0000 33.4756
#
#
#
# Elastic Compliance Matrix: (Units=1/GPa)
#
#
# Indices 1 2 3 4 5 6 
#
# 1 0.044356 -0.010894 -0.001150 0.000000 -0.005742 0.000000
# 2 -0.010894 0.023237 -0.006759 0.000000 0.005239 0.000000
# 3 -0.001150 -0.006759 0.013217 0.000000 -0.002705 0.000000
# 4 0.000000 0.000000 0.000000 0.032253 0.000000 -0.005226
# 5 -0.005742 0.005239 -0.002705 0.000000 0.031408 0.000000
# 6 0.000000 0.000000 0.000000 -0.005226 0.000000 0.030719
#
#
# Mechanical properties :
#
#
# Convention : Reuss Voigt Hill
#
# Bulk Modulus (GPa) = 23.14553 32.68367 27.91460
# Shear Modulus (GPa) = 22.00737 28.05096 25.02916
#
# Velocity S-wave (km/s) = 3.27074 3.69263 3.48807
# Velocity P-wave (km/s) = 5.05121 5.83680 5.45815
#
# Compressibility (1/GPa) = 0.04320489
#
# Stress axis : x y z
#
# Youngs Moduli (GPa) = 22.54498 43.03572 75.65906
#
# Poissons Ratio (x) = 0.46881 0.08700
# Poissons Ratio (y) = 0.24560 0.51136
# Poissons Ratio (z) = 0.02593 0.29087
#
# Static dielectric constant tensor:
#      x y z
#    x 3.582230 0.000000 0.162370 
#    y 0.000000 3.636870 0.000000 
#    z 0.162370 0.000000 3.860810 
# 
# 
# High freq. dielectric constant tensor:
#      x y z
#    x 1.796590 0.000000 0.007990 
#    y 0.000000 1.799350 0.000000 
#    z 0.007990 0.000000 1.814140 
# 
# From -- ./inp_files/163305.got.cif
#   From: 2010.06.25/outbox.cif.g09.slc.cpg/sg15_82_cif.got.tgz:163305.got - 2010.06.28 07:06:18.
