data_PCOD8139440
_publ_section_title
;
Structure prediction by ZEFSAII (Michael W. Deem and Ramdas Pophale) SiO2 
 PCOD8139440
Probable space group: C 2/C
;
_chemical_formula_sum "Si O2"
_cell_formula_units_Z 56
_cell_length_a 11.706219
_cell_length_b 21.365232
_cell_length_c 11.326471
_cell_angle_alpha 90.000000
_cell_angle_beta 83.412373
_cell_angle_gamma 90.000000
_cell_volume 2814.115805
_symmetry_space_group_name_H-M "C 2/C"
_symmetry_group_IT_number 15
_symmetry_cell_setting 'monoclinic'
loop_
_space_group_symop_operation_xyz
x,y,z
-x,y,1/2-z
-x,-y,-z
x,-y,1/2+z
1/2+x,1/2+y,z
1/2-x,1/2+y,1/2-z
1/2-x,1/2-y,-z
1/2+x,1/2-y,1/2+z
loop_
_atom_site_type_symbol
_atom_site_label
_atom_site_fract_x
_atom_site_fract_y
_atom_site_fract_z
Si Si1 0.101778 0.778966 0.927503
Si Si2 0.343696 0.304178 0.992219
Si Si3 0.631088 0.371554 0.734966
Si Si4 0.626336 0.385185 0.283960
Si Si5 0.249127 0.493992 0.720688
Si Si6 0.727172 0.849123 0.443240
Si Si7 0.868861 0.520417 0.509861
O O1 0.137774 0.802657 0.793693
O O2 0.148552 0.711621 0.953879
O O3 0.965982 0.772602 0.953651
O O4 0.153850 0.834027 0.003361
O O5 0.318150 0.359107 0.900793
O O6 0.250000 0.250000 0.000000
O O7 0.348795 0.339554 0.113066
O O8 0.500000 0.396102 0.750000
O O9 0.706180 0.423033 0.793559
O O10 0.500000 0.371651 0.250000
O O11 0.641681 0.459283 0.304732
O O12 0.733668 0.367754 0.190174
O O13 0.188903 0.499817 0.857911
O O14 0.175854 0.508856 0.610008
O O15 0.650071 0.905133 0.505291
O O16 0.000000 0.500000 0.500000
#
# Coordination Sequence:
#
# PCOD8139440 Si02
#       7
#     8   8   8   8   8   8   8
#     4  10  20  39  62  89 121 165 212 256 317 380
#     4  11  23  39  62  94 131 160 210 270 321 380
#     4  10  21  38  61  91 123 160 207 262 318 385
#     4  11  22  39  61  92 124 163 210 264 320 388
#     4  11  23  40  65  91 127 167 211 265 329 384
#     4  10  21  39  64  86 122 167 211 257 317 383
#     4  11  24  43  63  93 128 170 217 269 325 392
#
# _framework density 19.899678000000002
#
# number of rings (size 3 to 8) (size 9 to 14) (size 15 to 20)
#    0.000    1.429    2.857    2.571    0.000    2.286 
#    0.000    8.571    0.000    0.000    0.000    0.000 
#    0.000    0.000    0.000    0.000    0.000    0.000 
#
# Total GULP energy -346893.939058 kJ/mol
# GULP energy per Si atom -12389.069252 kJ/mol
# Density = 1.985439 g / cm^3
# Si number density = 19.899678 Si / 1000 Ang^3
#
#
#
# Elastic Constant Matrix: (Units=GPa)
#
#
# Indices 1 2 3 4 5 6 
#
# 1 107.2267 54.6101 49.4748 0.0000 9.2653 0.0000
# 2 54.6101 108.8458 38.1258 0.0000 -1.6822 0.0000
# 3 49.4748 38.1258 110.4998 0.0000 16.6514 0.0000
# 4 0.0000 0.0000 0.0000 20.6070 0.0000 3.7600
# 5 9.2653 -1.6822 16.6514 0.0000 27.8906 0.0000
# 6 0.0000 0.0000 0.0000 3.7600 0.0000 23.1246
#
#
#
# Elastic Compliance Matrix: (Units=1/GPa)
#
#
# Indices 1 2 3 4 5 6 
#
# 1 0.014399 -0.005862 -0.004011 0.000000 -0.002742 0.000000
# 2 -0.005862 0.013079 -0.002528 0.000000 0.004245 0.000000
# 3 -0.004011 -0.002528 0.012681 0.000000 -0.006391 0.000000
# 4 0.000000 0.000000 0.000000 0.050011 0.000000 -0.008132
# 5 -0.002742 0.004245 -0.006391 0.000000 0.040837 0.000000
# 6 0.000000 0.000000 0.000000 -0.008132 0.000000 0.044566
#
#
# Mechanical properties :
#
#
# Convention : Reuss Voigt Hill
#
# Bulk Modulus (GPa) = 65.11482 67.88820 66.50151
# Shear Modulus (GPa) = 24.33150 26.61520 25.47335
#
# Velocity S-wave (km/s) = 3.50052 3.66111 3.58171
# Velocity P-wave (km/s) = 7.00933 7.21533 7.11307
#
# Compressibility (1/GPa) = 0.01535749
#
# Stress axis : x y z
#
# Youngs Moduli (GPa) = 69.44853 76.45655 78.85732
#
# Poissons Ratio (x) = 0.44816 0.31633
# Poissons Ratio (y) = 0.40708 0.19935
# Poissons Ratio (z) = 0.27858 0.19329
#
# Static dielectric constant tensor:
#      x y z
#    x 3.522340 0.000000 0.211850 
#    y 0.000000 3.619870 0.000000 
#    z 0.211850 0.000000 3.863670 
# 
# 
# High freq. dielectric constant tensor:
#      x y z
#    x 1.770580 0.000000 0.011270 
#    y 0.000000 1.779390 0.000000 
#    z 0.011270 0.000000 1.792560 
# 
# From -- ./inp_files/88911.got.cif
#   From: 2010.06.25/outbox.cif.g09.slc.cpg/sg15_45_cif.got.tgz:88911.got - 2010.06.28 07:06:18.
