data_PCOD8139080
_publ_section_title
;
Structure prediction by ZEFSAII (Michael W. Deem and Ramdas Pophale) SiO2 
 PCOD8139080
Probable space group: C 2/C
;
_chemical_formula_sum "Si O2"
_cell_formula_units_Z 56
_cell_length_a 15.892055
_cell_length_b 12.902107
_cell_length_c 28.321490
_cell_angle_alpha 90.000000
_cell_angle_beta 28.754454
_cell_angle_gamma 90.000000
_cell_volume 2793.529516
_symmetry_space_group_name_H-M "C 2/C"
_symmetry_group_IT_number 15
_symmetry_cell_setting 'monoclinic'
loop_
_space_group_symop_operation_xyz
x,y,z
-x,y,1/2-z
-x,-y,-z
x,-y,1/2+z
1/2+x,1/2+y,z
1/2-x,1/2+y,1/2-z
1/2-x,1/2-y,-z
1/2+x,1/2-y,1/2+z
loop_
_atom_site_type_symbol
_atom_site_label
_atom_site_fract_x
_atom_site_fract_y
_atom_site_fract_z
Si Si1 0.510051 0.601658 0.464924
Si Si2 0.114004 0.267740 0.903047
Si Si3 0.374437 0.151857 0.442426
Si Si4 0.451934 0.151051 0.707509
Si Si5 0.098670 0.414408 0.747081
Si Si6 0.140313 0.157287 0.148094
Si Si7 0.748125 0.574570 0.995880
O O1 0.500000 0.500000 0.500000
O O2 0.491354 0.686520 0.514427
O O3 0.699429 0.616202 0.348807
O O4 0.366685 0.602114 0.493751
O O5 0.266986 0.213538 0.795056
O O6 0.184524 0.348483 0.907541
O O7 0.985107 0.336549 0.935494
O O8 0.250000 0.250000 0.500000
O O9 0.511392 0.145347 0.332975
O O10 0.257838 0.048413 0.499114
O O11 0.584109 0.220810 0.673521
O O12 0.558591 0.127314 0.605657
O O13 0.420107 0.038780 0.745429
O O14 0.000000 0.369933 0.750000
O O15 0.153195 0.116299 0.088988
O O16 0.000000 0.095742 0.250000
#
# Coordination Sequence:
#
# PCOD8139080 Si02
#       7
#     8   8   8   8   8   8   8
#     4  12  22  37  67  97 128 167 221 270 333 381
#     4  11  22  38  63  92 132 175 203 271 326 381
#     4  11  26  44  60  91 139 171 212 270 336 394
#     4  10  20  38  64  95 125 156 218 278 309 369
#     4  11  22  38  64  94 126 171 221 271 327 387
#     4  10  22  39  65  90 127 158 215 269 315 370
#     4  11  24  41  65  96 126 171 219 270 323 396
#
# _framework density 20.046323999999998
#
# number of rings (size 3 to 8) (size 9 to 14) (size 15 to 20)
#    0.000    1.143    2.857    5.143    4.000    0.571 
#    0.000    2.143    0.000    0.000    0.000    0.000 
#    0.000    0.000    0.000    0.000    0.000    0.000 
#
# Total GULP energy -346887.263698 kJ/mol
# GULP energy per Si atom -12388.830846 kJ/mol
# Density = 2.000070 g / cm^3
# Si number density = 20.046324 Si / 1000 Ang^3
#
#
#
# Elastic Constant Matrix: (Units=GPa)
#
#
# Indices 1 2 3 4 5 6 
#
# 1 112.9251 30.2769 38.5673 0.0003 7.2189 0.0000
# 2 30.2769 64.5431 38.0334 -0.0007 3.6946 0.0003
# 3 38.5673 38.0334 130.0617 -0.0019 12.5043 0.0004
# 4 0.0003 -0.0007 -0.0019 17.4875 0.0000 7.5725
# 5 7.2189 3.6946 12.5043 0.0000 38.2903 -0.0001
# 6 0.0000 0.0003 0.0004 7.5725 -0.0001 26.5765
#
#
#
# Elastic Compliance Matrix: (Units=1/GPa)
#
#
# Indices 1 2 3 4 5 6 
#
# 1 0.010593 -0.003767 -0.001944 -0.000001 -0.000999 0.000000
# 2 -0.003767 0.020058 -0.004781 0.000000 0.000336 0.000000
# 3 -0.001944 -0.004781 0.009894 0.000001 -0.002403 0.000000
# 4 -0.000001 0.000000 0.000001 0.065232 0.000000 -0.018587
# 5 -0.000999 0.000336 -0.002403 0.000000 0.027057 0.000000
# 6 0.000000 0.000000 0.000000 -0.018587 0.000000 0.042923
#
#
# Mechanical properties :
#
#
# Convention : Reuss Voigt Hill
#
# Bulk Modulus (GPa) = 51.11663 57.92056 54.51859
# Shear Modulus (GPa) = 24.59881 29.84767 27.22324
#
# Velocity S-wave (km/s) = 3.50680 3.86286 3.68913
# Velocity P-wave (km/s) = 6.47699 6.98940 6.73807
#
# Compressibility (1/GPa) = 0.01956311
#
# Stress axis : x y z
#
# Youngs Moduli (GPa) = 94.40211 49.85420 101.06969
#
# Poissons Ratio (x) = 0.18778 0.19644
# Poissons Ratio (y) = 0.35558 0.48321
# Poissons Ratio (z) = 0.18348 0.23835
#
# Static dielectric constant tensor:
#      x y z
#    x 4.185990 0.000000 -1.285280 
#    y 0.000000 3.527580 0.000010 
#    z -1.285280 0.000010 6.808830 
# 
# 
# High freq. dielectric constant tensor:
#      x y z
#    x 1.776740 0.000000 0.005270 
#    y 0.000000 1.761720 0.000000 
#    z 0.005270 0.000000 1.803020 
# 
# From -- ./inp_files/296552.got.cif
#   From: 2010.06.25/outbox.cif.g09.slc.cpg/sg15_149_cif.got.tgz:296552.got - 2010.06.28 07:06:18.
