data_PCOD8139722
_publ_section_title
;
Structure prediction by ZEFSAII (Michael W. Deem and Ramdas Pophale) SiO2 
 PCOD8139722
Probable space group: C 2/C
;
_chemical_formula_sum "Si O2"
_cell_formula_units_Z 40
_cell_length_a 7.104636
_cell_length_b 12.795872
_cell_length_c 25.184915
_cell_angle_alpha 90.000000
_cell_angle_beta 48.268515
_cell_angle_gamma 90.000000
_cell_volume 1708.636404
_symmetry_space_group_name_H-M "C 2/C"
_symmetry_group_IT_number 15
_symmetry_cell_setting 'monoclinic'
loop_
_space_group_symop_operation_xyz
x,y,z
-x,y,1/2-z
-x,-y,-z
x,-y,1/2+z
1/2+x,1/2+y,z
1/2-x,1/2+y,1/2-z
1/2-x,1/2-y,-z
1/2+x,1/2-y,1/2+z
loop_
_atom_site_type_symbol
_atom_site_label
_atom_site_fract_x
_atom_site_fract_y
_atom_site_fract_z
Si Si1 0.569640 0.912771 0.530036
Si Si2 0.433782 0.314212 0.060518
Si Si3 0.601646 0.776169 0.337006
Si Si4 0.918620 0.067947 0.325305
Si Si5 0.061590 0.161467 0.819150
O O1 0.524889 0.794269 0.515681
O O2 0.870205 0.909689 0.488363
O O3 0.500000 0.000000 0.500000
O O4 0.388104 0.932828 0.614588
O O5 0.401305 0.291188 0.129788
O O6 0.147206 0.340678 0.095721
O O7 0.526705 0.655557 0.344140
O O8 0.816788 0.783303 0.340302
O O9 0.694123 0.820045 0.263050
O O10 0.024175 0.961887 0.329575
O O11 0.000000 0.085544 0.250000
#
# Coordination Sequence:
#
# PCOD8139722 Si02
#       5
#     8   8   8   8   8
#     4  10  20  39  68  94 131 175 212 268 331 380
#     4  10  21  40  66  91 134 174 210 273 329 378
#     4  10  22  40  64  98 127 174 222 264 331 389
#     4  11  21  41  69  90 132 172 211 274 325 378
#     4  11  21  42  66  94 135 167 221 278 315 387
#
# _framework density 23.410481000000001
#
# number of rings (size 3 to 8) (size 9 to 14) (size 15 to 20)
#    0.000    1.600    4.000    3.000    0.000    0.000 
#    7.200   10.000    0.000    0.000    0.000    0.000 
#    0.000    0.000    0.000    0.000    0.000    0.000 
#
# Total GULP energy -247857.130766 kJ/mol
# GULP energy per Si atom -12392.856538 kJ/mol
# Density = 2.335720 g / cm^3
# Si number density = 23.410481 Si / 1000 Ang^3
#
#
#
# Elastic Constant Matrix: (Units=GPa)
#
#
# Indices 1 2 3 4 5 6 
#
# 1 56.4139 28.9924 28.4273 -0.0046 -26.2508 -0.0008
# 2 28.9924 115.4321 22.0062 -0.0029 -21.1982 0.0002
# 3 28.4273 22.0062 132.0121 -0.0260 -34.6089 -0.0007
# 4 -0.0046 -0.0029 -0.0260 -3.2050 0.0074 -11.6886
# 5 -26.2508 -21.1982 -34.6089 0.0074 43.0950 -0.0009
# 6 -0.0008 0.0002 -0.0007 -11.6886 -0.0009 32.2921
#
#
#
# Elastic Compliance Matrix: (Units=1/GPa)
#
#
# Indices 1 2 3 4 5 6 
#
# 1 0.026635 -0.003999 -0.001686 0.000002 0.012903 0.000002
# 2 -0.003999 0.010145 -0.000203 0.000002 0.002392 0.000001
# 3 -0.001686 -0.000203 0.009724 -0.000027 0.006682 -0.000009
# 4 0.000002 0.000002 -0.000027 -0.134484 0.000003 -0.048678
# 5 0.012903 0.002392 0.006682 0.000003 0.037607 0.000003
# 6 0.000002 0.000001 -0.000009 -0.048678 0.000003 0.013348
#
#
# Mechanical properties :
#
#
# Convention : Reuss Voigt Hill
#
# Bulk Modulus (GPa) = 28.79510 51.41221 40.10365
# Shear Modulus (GPa) = -365.69297 29.39855 -168.14721
#
# Velocity S-wave (km/s) = -12.51192 3.54755 -8.48419
# Velocity P-wave (km/s) = 14.01443 6.22808 8.87736
#
# Compressibility (1/GPa) = 0.03472813
#
# Stress axis : x y z
#
# Youngs Moduli (GPa) = 37.54449 98.56730 102.84036
#
# Poissons Ratio (x) = 0.39414 0.17341
# Poissons Ratio (y) = 0.15013 0.02089
# Poissons Ratio (z) = 0.06331 0.02003
#
# Static dielectric constant tensor:
#      x y z
#    x 3.887880 0.000000 -0.525870 
#    y 0.000000 4.271200 0.000010 
#    z -0.525870 0.000010 4.810030 
# 
# 
# High freq. dielectric constant tensor:
#      x y z
#    x 1.894510 0.000000 -0.030030 
#    y 0.000000 1.925120 0.000000 
#    z -0.030030 0.000000 1.950910 
# 
# From -- ./inp_files/230449.got.cif
#   From: 2010.06.25/outbox.cif.g09.slc.cpg/sg15_116_cif.got.tgz:230449.got - 2010.06.28 07:06:18.
