data_PCOD8139115
_publ_section_title
;
Structure prediction by ZEFSAII (Michael W. Deem and Ramdas Pophale) SiO2 
 PCOD8139115
Probable space group: C 2/C
;
_chemical_formula_sum "Si O2"
_cell_formula_units_Z 48
_cell_length_a 8.699100
_cell_length_b 17.291475
_cell_length_c 14.847620
_cell_angle_alpha 90.000000
_cell_angle_beta 93.381459
_cell_angle_gamma 90.000000
_cell_volume 2229.494619
_symmetry_space_group_name_H-M "C 2/C"
_symmetry_group_IT_number 15
_symmetry_cell_setting 'monoclinic'
loop_
_space_group_symop_operation_xyz
x,y,z
-x,y,1/2-z
-x,-y,-z
x,-y,1/2+z
1/2+x,1/2+y,z
1/2-x,1/2+y,1/2-z
1/2-x,1/2-y,-z
1/2+x,1/2-y,1/2+z
loop_
_atom_site_type_symbol
_atom_site_label
_atom_site_fract_x
_atom_site_fract_y
_atom_site_fract_z
Si Si1 0.834899 0.398207 0.265566
Si Si2 0.927569 0.074113 0.387702
Si Si3 0.833859 0.428405 0.758350
Si Si4 0.731505 0.349751 0.921075
Si Si5 0.161546 0.180783 0.609559
Si Si6 0.383873 0.578527 0.586548
O O1 0.845976 0.483880 0.226036
O O2 0.710459 0.350247 0.207310
O O3 0.776145 0.403919 0.366774
O O4 0.000000 0.358338 0.250000
O O5 0.805659 0.103573 0.308386
O O6 0.843200 0.059850 0.480997
O O7 0.046977 0.145914 0.398879
O O8 0.019029 0.993806 0.366587
O O9 0.800165 0.419948 0.864218
O O10 0.000000 0.387171 0.750000
O O11 0.811580 0.272202 0.888511
O O12 0.759415 0.357486 0.029691
O O13 0.983327 0.157494 0.593745
#
# Coordination Sequence:
#
# PCOD8139115 Si02
#       6
#     8   8   8   8   8   8
#     4  11  23  36  58  93 127 164 214 271 322 381
#     4  10  20  38  65  91 121 168 220 267 321 390
#     4  11  23  36  58  93 127 164 214 271 322 381
#     4  10  22  40  62  90 126 167 212 266 326 384
#     4  10  22  40  62  90 126 167 212 266 326 384
#     4  10  20  38  65  91 121 168 220 267 321 390
#
# _framework density 21.529541999999999
#
# number of rings (size 3 to 8) (size 9 to 14) (size 15 to 20)
#    0.000    1.667    3.333    1.000    0.000    4.000 
#    0.000    3.333    0.000    7.000    0.000    0.000 
#    0.000    0.000    0.000    0.000    0.000    0.000 
#
# Total GULP energy -297313.723612 kJ/mol
# GULP energy per Si atom -12388.071817 kJ/mol
# Density = 2.148054 g / cm^3
# Si number density = 21.529542 Si / 1000 Ang^3
#
#
#
# Elastic Constant Matrix: (Units=GPa)
#
#
# Indices 1 2 3 4 5 6 
#
# 1 97.9879 15.5116 25.3003 0.0000 -24.4484 0.0000
# 2 15.5116 64.9463 4.8260 0.0000 -0.4951 0.0000
# 3 25.3003 4.8260 87.3137 0.0000 -25.3662 0.0000
# 4 0.0000 0.0000 0.0000 29.6685 0.0000 -5.0062
# 5 -24.4484 -0.4951 -25.3662 0.0000 36.4451 0.0000
# 6 0.0000 0.0000 0.0000 -5.0062 0.0000 27.6592
#
#
#
# Elastic Compliance Matrix: (Units=1/GPa)
#
#
# Indices 1 2 3 4 5 6 
#
# 1 0.012939 -0.002931 -0.001350 0.000000 0.007701 0.000000
# 2 -0.002931 0.016132 -0.000689 0.000000 -0.002227 0.000000
# 3 -0.001350 -0.000689 0.014561 0.000000 0.009219 0.000000
# 4 0.000000 0.000000 0.000000 0.034768 0.000000 0.006293
# 5 0.007701 -0.002227 0.009219 0.000000 0.038991 0.000000
# 6 0.000000 0.000000 0.000000 0.006293 0.000000 0.037293
#
#
# Mechanical properties :
#
#
# Convention : Reuss Voigt Hill
#
# Bulk Modulus (GPa) = 29.68224 37.94706 33.81465
# Shear Modulus (GPa) = 28.43254 32.39522 30.41388
#
# Velocity S-wave (km/s) = 3.63799 3.88324 3.76261
# Velocity P-wave (km/s) = 5.60922 6.14572 5.88359
#
# Compressibility (1/GPa) = 0.03369018
#
# Stress axis : x y z
#
# Youngs Moduli (GPa) = 77.28389 61.98983 68.67826
#
# Poissons Ratio (x) = 0.18171 0.09273
# Poissons Ratio (y) = 0.22655 0.04733
# Poissons Ratio (z) = 0.10435 0.04272
#
# Static dielectric constant tensor:
#      x y z
#    x 3.972450 0.000000 -0.130730 
#    y 0.000000 3.647490 0.000000 
#    z -0.130730 0.000000 3.953800 
# 
# 
# High freq. dielectric constant tensor:
#      x y z
#    x 1.830480 0.000000 -0.020430 
#    y 0.000000 1.815740 0.000000 
#    z -0.020430 0.000000 1.851960 
# 
# From -- ./inp_files/134876.got.cif
#   From: 2010.06.25/outbox.cif.g09.slc.cpg/sg15_68_cif.got.tgz:134876.got - 2010.06.28 07:06:18.
