data_PCOD8139191
_publ_section_title
;
Structure prediction by ZEFSAII (Michael W. Deem and Ramdas Pophale) SiO2 
 PCOD8139191
Probable space group: C 2/C
;
_chemical_formula_sum "Si O2"
_cell_formula_units_Z 56
_cell_length_a 25.683649
_cell_length_b 17.244549
_cell_length_c 9.608520
_cell_angle_alpha 90.000000
_cell_angle_beta 38.069085
_cell_angle_gamma 90.000000
_cell_volume 2624.076307
_symmetry_space_group_name_H-M "C 2/C"
_symmetry_group_IT_number 15
_symmetry_cell_setting 'monoclinic'
loop_
_space_group_symop_operation_xyz
x,y,z
-x,y,1/2-z
-x,-y,-z
x,-y,1/2+z
1/2+x,1/2+y,z
1/2-x,1/2+y,1/2-z
1/2-x,1/2-y,-z
1/2+x,1/2-y,1/2+z
loop_
_atom_site_type_symbol
_atom_site_label
_atom_site_fract_x
_atom_site_fract_y
_atom_site_fract_z
Si Si1 0.386371 0.744934 0.394532
Si Si2 0.597501 0.280135 0.077690
Si Si3 0.429649 0.213910 0.094190
Si Si4 0.904814 0.953072 0.499402
Si Si5 0.343707 0.423637 0.925578
Si Si6 0.993090 0.422846 0.928796
Si Si7 0.676516 0.164424 0.709029
O O1 0.373662 0.784888 0.572101
O O2 0.387262 0.651932 0.400594
O O3 0.312080 0.777607 0.449509
O O4 0.475468 0.764375 0.141349
O O5 0.500000 0.256572 0.250000
O O6 0.609696 0.277429 0.218354
O O7 0.621169 0.365155 0.977713
O O8 0.660464 0.217976 0.877065
O O9 0.430935 0.132144 0.174065
O O10 0.894195 0.960891 0.688360
O O11 0.000000 0.971585 0.250000
O O12 0.841979 0.011256 0.550157
O O13 0.251088 0.396837 0.073072
O O14 0.000000 0.438240 0.750000
O O15 0.903425 0.387930 0.156809
O O16 0.000000 0.500000 0.000000
#
# Coordination Sequence:
#
# PCOD8139191 Si02
#       7
#     8   8   8   8   8   8   8
#     4  10  21  37  67  94 126 169 217 270 313 387
#     4  11  18  42  70  95 126 177 219 267 314 385
#     4  10  20  38  66  97 122 163 232 264 309 382
#     4  11  26  43  69  95 132 169 219 270 330 390
#     4  12  26  44  64  99 132 171 210 272 343 384
#     4  11  23  39  64  95 129 170 218 265 321 381
#     4  11  22  44  66  90 135 172 216 269 326 390
#
# _framework density 21.340844000000001
#
# number of rings (size 3 to 8) (size 9 to 14) (size 15 to 20)
#    0.000    1.143    5.714    1.714    8.000    1.143 
#    0.000    0.714    0.000    0.000    0.000    0.000 
#    0.000    0.000    0.000    0.000    0.000    0.000 
#
# Total GULP energy -347135.633803 kJ/mol
# GULP energy per Si atom -12397.701207 kJ/mol
# Density = 2.129227 g / cm^3
# Si number density = 21.340844 Si / 1000 Ang^3
#
#
#
# Elastic Constant Matrix: (Units=GPa)
#
#
# Indices 1 2 3 4 5 6 
#
# 1 112.1751 43.2830 44.0954 0.0000 32.9626 0.0000
# 2 43.2830 99.1491 28.6969 0.0000 16.8999 0.0000
# 3 44.0954 28.6969 74.0473 0.0000 28.4581 0.0000
# 4 0.0000 0.0000 0.0000 26.1291 0.0000 9.3490
# 5 32.9626 16.8999 28.4581 0.0000 44.3179 0.0000
# 6 0.0000 0.0000 0.0000 9.3490 0.0000 45.0157
#
#
#
# Elastic Compliance Matrix: (Units=1/GPa)
#
#
# Indices 1 2 3 4 5 6 
#
# 1 0.013898 -0.003735 -0.004519 0.000000 -0.006011 0.000000
# 2 -0.003735 0.012498 -0.002464 0.000000 -0.000406 0.000000
# 3 -0.004519 -0.002464 0.020576 0.000000 -0.008912 0.000000
# 4 0.000000 0.000000 0.000000 0.041344 0.000000 -0.008586
# 5 -0.006011 -0.000406 -0.008912 0.000000 0.032913 0.000000
# 6 0.000000 0.000000 0.000000 -0.008586 0.000000 0.023998
#
#
# Mechanical properties :
#
#
# Convention : Reuss Voigt Hill
#
# Bulk Modulus (GPa) = 39.15675 57.50244 48.32959
# Shear Modulus (GPa) = 28.54299 34.37895 31.46097
#
# Velocity S-wave (km/s) = 3.66113 4.01801 3.84372
# Velocity P-wave (km/s) = 6.02162 6.96629 6.51111
#
# Compressibility (1/GPa) = 0.02553838
#
# Stress axis : x y z
#
# Youngs Moduli (GPa) = 71.95024 80.00964 48.60109
#
# Poissons Ratio (x) = 0.29882 0.21962
# Poissons Ratio (y) = 0.26872 0.11973
# Poissons Ratio (z) = 0.32513 0.19711
#
# Static dielectric constant tensor:
#      x y z
#    x 4.088510 0.000000 0.368430 
#    y 0.000000 3.966830 0.000000 
#    z 0.368430 0.000000 3.895100 
# 
# 
# High freq. dielectric constant tensor:
#      x y z
#    x 1.830450 0.000000 0.020690 
#    y 0.000000 1.839120 0.000000 
#    z 0.020690 0.000000 1.833350 
# 
# From -- ./inp_files/67106.got.cif
#   From: 2010.06.25/outbox.cif.g09.slc.cpg/sg15_34_cif.got.tgz:67106.got - 2010.06.28 07:06:18.
