data_PCOD8139335
_publ_section_title
;
Structure prediction by ZEFSAII (Michael W. Deem and Ramdas Pophale) SiO2 
 PCOD8139335
Probable space group: C 2/C
;
_chemical_formula_sum "Si O2"
_cell_formula_units_Z 48
_cell_length_a 7.323660
_cell_length_b 27.562883
_cell_length_c 16.437401
_cell_angle_alpha 90.000000
_cell_angle_beta 45.640559
_cell_angle_gamma 90.000000
_cell_volume 2372.315459
_symmetry_space_group_name_H-M "C 2/C"
_symmetry_group_IT_number 15
_symmetry_cell_setting 'monoclinic'
loop_
_space_group_symop_operation_xyz
x,y,z
-x,y,1/2-z
-x,-y,-z
x,-y,1/2+z
1/2+x,1/2+y,z
1/2-x,1/2+y,1/2-z
1/2-x,1/2-y,-z
1/2+x,1/2-y,1/2+z
loop_
_atom_site_type_symbol
_atom_site_label
_atom_site_fract_x
_atom_site_fract_y
_atom_site_fract_z
Si Si1 0.719769 0.370748 0.817044
Si Si2 0.500000 0.573013 0.250000
Si Si3 0.000000 0.786668 0.250000
Si Si4 0.447056 0.572009 0.538446
Si Si5 0.007555 0.776988 0.942831
Si Si6 0.735984 0.508505 0.038580
Si Si7 0.708078 0.328675 0.342223
O O1 0.710814 0.392726 0.728302
O O2 0.530932 0.324516 0.878340
O O3 0.000000 0.351452 0.750000
O O4 0.650351 0.409641 0.908506
O O5 0.589825 0.540183 0.149172
O O6 0.762150 0.754897 0.355778
O O7 0.906097 0.823737 0.211232
O O8 0.242383 0.538130 0.553626
O O9 0.591992 0.541846 0.563788
O O10 0.296357 0.615569 0.627867
O O11 0.750000 0.750000 0.000000
O O12 0.970912 0.794693 0.046602
O O13 0.000000 0.500000 0.000000
O O14 0.000000 0.310170 0.250000
#
# Coordination Sequence:
#
# PCOD8139335 Si02
#       7
#     8   4   4   8   8   8   8
#     4  10  20  39  60  86 121 157 202 255 311 362
#     4  10  22  35  60  92 112 154 208 249 302 372
#     4  12  24  43  68  94 126 178 214 257 328 380
#     4   9  22  38  57  89 124 160 202 261 311 368
#     4  11  23  44  66  94 128 166 216 266 317 379
#     4  10  20  39  61  86 121 159 207 252 312 379
#     4  11  24  42  63  94 134 167 214 267 319 384
#
# _framework density 20.233395999999999
#
# number of rings (size 3 to 8) (size 9 to 14) (size 15 to 20)
#    0.000    1.667    2.500    1.500    0.000    4.667 
#    9.000    1.667    0.000    0.000    0.000    0.000 
#    0.000    0.000    0.000    0.000    0.000    0.000 
#
# Total GULP energy -297467.360182 kJ/mol
# GULP energy per Si atom -12394.473341 kJ/mol
# Density = 2.018734 g / cm^3
# Si number density = 20.233396 Si / 1000 Ang^3
#
#
#
# Elastic Constant Matrix: (Units=GPa)
#
#
# Indices 1 2 3 4 5 6 
#
# 1 159.3385 57.7556 50.8223 0.0000 2.2751 0.0000
# 2 57.7556 101.5938 42.5664 0.0000 4.5413 0.0000
# 3 50.8223 42.5664 88.1504 0.0000 1.1953 0.0000
# 4 0.0000 0.0000 0.0000 17.8919 0.0000 3.2661
# 5 2.2751 4.5413 1.1953 0.0000 38.0412 0.0000
# 6 0.0000 0.0000 0.0000 3.2661 0.0000 34.5600
#
#
#
# Elastic Compliance Matrix: (Units=1/GPa)
#
#
# Indices 1 2 3 4 5 6 
#
# 1 0.008589 -0.003521 -0.003252 0.000000 0.000009 0.000000
# 2 -0.003521 0.013846 -0.004639 0.000000 -0.001297 0.000000
# 3 -0.003252 -0.004639 0.015456 0.000000 0.000263 0.000000
# 4 0.000000 0.000000 0.000000 0.056872 0.000000 -0.005375
# 5 0.000009 -0.001297 0.000263 0.000000 0.026433 0.000000
# 6 0.000000 0.000000 0.000000 -0.005375 0.000000 0.029443
#
#
# Mechanical properties :
#
#
# Convention : Reuss Voigt Hill
#
# Bulk Modulus (GPa) = 66.36565 72.37459 69.37012
# Shear Modulus (GPa) = 28.01353 31.29453 29.65403
#
# Velocity S-wave (km/s) = 3.72495 3.93705 3.83247
# Velocity P-wave (km/s) = 7.16740 7.51762 7.34460
#
# Compressibility (1/GPa) = 0.01506804
#
# Stress axis : x y z
#
# Youngs Moduli (GPa) = 116.42428 72.22219 64.70174
#
# Poissons Ratio (x) = 0.25428 0.21041
# Poissons Ratio (y) = 0.40991 0.30013
# Poissons Ratio (z) = 0.37862 0.33501
#
# Static dielectric constant tensor:
#      x y z
#    x 4.154510 0.000000 0.245090 
#    y 0.000000 3.390720 0.000000 
#    z 0.245090 0.000000 3.730210 
# 
# 
# High freq. dielectric constant tensor:
#      x y z
#    x 1.793470 0.000000 0.009440 
#    y 0.000000 1.800890 0.000000 
#    z 0.009440 0.000000 1.784970 
# 
# From -- ./inp_files/130631.got.cif
#   From: 2010.06.25/outbox.cif.g09.slc.cpg/sg15_66_cif.got.tgz:130631.got - 2010.06.28 07:06:18.
