data_PCOD8139428
_publ_section_title
;
Structure prediction by ZEFSAII (Michael W. Deem and Ramdas Pophale) SiO2 
 PCOD8139428
Probable space group: C 2/C
;
_chemical_formula_sum "Si O2"
_cell_formula_units_Z 44
_cell_length_a 5.068721
_cell_length_b 27.290343
_cell_length_c 14.208526
_cell_angle_alpha 90.000000
_cell_angle_beta 84.302097
_cell_angle_gamma 90.000000
_cell_volume 1955.713928
_symmetry_space_group_name_H-M "C 2/C"
_symmetry_group_IT_number 15
_symmetry_cell_setting 'monoclinic'
loop_
_space_group_symop_operation_xyz
x,y,z
-x,y,1/2-z
-x,-y,-z
x,-y,1/2+z
1/2+x,1/2+y,z
1/2-x,1/2+y,1/2-z
1/2-x,1/2-y,-z
1/2+x,1/2-y,1/2+z
loop_
_atom_site_type_symbol
_atom_site_label
_atom_site_fract_x
_atom_site_fract_y
_atom_site_fract_z
Si Si1 0.500000 0.855832 0.250000
Si Si2 0.500919 0.210367 0.913240
Si Si3 0.511133 0.976141 0.900370
Si Si4 0.816689 0.055913 0.669372
Si Si5 0.502725 0.423364 0.548860
Si Si6 0.969453 0.812450 0.524292
O O1 0.375444 0.819622 0.177654
O O2 0.276414 0.889319 0.305322
O O3 0.672282 0.190347 0.994540
O O4 0.190205 0.198923 0.937368
O O5 0.522135 0.269221 0.897448
O O6 0.801026 0.951170 0.884224
O O7 0.289902 0.934105 0.903572
O O8 0.437501 0.018943 0.827838
O O9 0.500000 0.000000 0.000000
O O10 0.965590 0.058279 0.561984
O O11 0.000000 0.037794 0.750000
O O12 0.538915 0.365607 0.562501
#
# Coordination Sequence:
#
# PCOD8139428 Si02
#       6
#     4   8   8   8   8   8
#     4  12  24  36  62  92 128 150 194 256 322 348
#     4  10  22  37  59  93 122 153 197 250 301 360
#     4  10  23  38  58  87 120 159 208 243 290 366
#     4  11  24  35  59  90 125 156 194 259 313 352
#     4  11  21  40  62  86 118 164 207 242 296 362
#     4  10  20  39  62  87 120 160 203 240 293 365
#
# _framework density 22.498176999999998
#
# number of rings (size 3 to 8) (size 9 to 14) (size 15 to 20)
#    0.000    1.455    1.818    4.364   10.182    0.000 
#    0.000    0.000    2.000    0.000    4.727    0.000 
#    0.000    0.000    0.000    0.000    0.000    0.000 
#
# Total GULP energy -272564.960195 kJ/mol
# GULP energy per Si atom -12389.316373 kJ/mol
# Density = 2.244697 g / cm^3
# Si number density = 22.498177 Si / 1000 Ang^3
#
#
#
# Elastic Constant Matrix: (Units=GPa)
#
#
# Indices 1 2 3 4 5 6 
#
# 1 92.6157 18.4542 17.9363 0.0000 22.7419 0.0000
# 2 18.4542 165.8402 48.5236 0.0000 27.7497 0.0000
# 3 17.9363 48.5236 73.4837 0.0000 17.2668 0.0000
# 4 0.0000 0.0000 0.0000 31.5722 0.0000 -2.3573
# 5 22.7419 27.7497 17.2668 0.0000 28.7993 0.0000
# 6 0.0000 0.0000 0.0000 -2.3573 0.0000 24.5145
#
#
#
# Elastic Compliance Matrix: (Units=1/GPa)
#
#
# Indices 1 2 3 4 5 6 
#
# 1 0.013494 0.000618 -0.001231 0.000000 -0.010513 0.000000
# 2 0.000618 0.008159 -0.004163 0.000000 -0.005853 0.000000
# 3 -0.001231 -0.004163 0.018026 0.000000 -0.005824 0.000000
# 4 0.000000 0.000000 0.000000 0.031902 0.000000 0.003068
# 5 -0.010513 -0.005853 -0.005824 0.000000 0.052157 0.000000
# 6 0.000000 0.000000 0.000000 0.003068 0.000000 0.041087
#
#
# Mechanical properties :
#
#
# Convention : Reuss Voigt Hill
#
# Bulk Modulus (GPa) = 33.19356 55.75197 44.47277
# Shear Modulus (GPa) = 27.11198 33.44559 30.27879
#
# Velocity S-wave (km/s) = 3.47518 3.85982 3.67254
# Velocity P-wave (km/s) = 5.55774 6.68571 6.14765
#
# Compressibility (1/GPa) = 0.03012632
#
# Stress axis : x y z
#
# Youngs Moduli (GPa) = 74.10629 122.57052 55.47414
#
# Poissons Ratio (x) = -0.07573 0.06831
# Poissons Ratio (y) = -0.04578 0.23093
# Poissons Ratio (z) = 0.09126 0.51024
#
# Static dielectric constant tensor:
#      x y z
#    x 6.052210 0.000000 0.608190 
#    y 0.000000 4.593500 0.000000 
#    z 0.608190 0.000000 3.812010 
# 
# 
# High freq. dielectric constant tensor:
#      x y z
#    x 1.897680 0.000000 0.010710 
#    y 0.000000 1.902400 0.000000 
#    z 0.010710 0.000000 1.843410 
# 
# From -- ./inp_files/129713.got.cif
#   From: 2010.06.25/outbox.cif.g09.slc.cpg/sg15_65_cif.got.tgz:129713.got - 2010.06.28 07:06:18.
