data_PCOD8139461
_publ_section_title
;
Structure prediction by ZEFSAII (Michael W. Deem and Ramdas Pophale) SiO2 
 PCOD8139461
Probable space group: C 2/C
;
_chemical_formula_sum "Si O2"
_cell_formula_units_Z 48
_cell_length_a 28.032818
_cell_length_b 9.367295
_cell_length_c 17.930286
_cell_angle_alpha 90.000000
_cell_angle_beta 149.647570
_cell_angle_gamma 90.000000
_cell_volume 2379.208473
_symmetry_space_group_name_H-M "C 2/C"
_symmetry_group_IT_number 15
_symmetry_cell_setting 'monoclinic'
loop_
_space_group_symop_operation_xyz
x,y,z
-x,y,1/2-z
-x,-y,-z
x,-y,1/2+z
1/2+x,1/2+y,z
1/2-x,1/2+y,1/2-z
1/2-x,1/2-y,-z
1/2+x,1/2-y,1/2+z
loop_
_atom_site_type_symbol
_atom_site_label
_atom_site_fract_x
_atom_site_fract_y
_atom_site_fract_z
Si Si1 0.152379 0.062001 0.356921
Si Si2 0.500000 0.888867 0.750000
Si Si3 0.388023 0.131488 0.517801
Si Si4 0.608074 0.043833 0.141598
Si Si5 0.000000 0.155593 0.250000
Si Si6 0.715643 0.198281 0.855920
Si Si7 0.143624 0.251069 0.827251
O O1 0.083434 0.056366 0.334875
O O2 0.254044 0.094244 0.533831
O O3 0.134421 0.193523 0.276037
O O4 0.134333 0.914326 0.289930
O O5 0.564086 0.793143 0.780990
O O6 0.423833 0.982198 0.601060
O O7 0.365382 0.115364 0.400524
O O8 0.471003 0.246129 0.640579
O O9 0.296611 0.194988 0.435708
O O10 0.632912 0.153238 0.240191
O O11 0.671447 0.900890 0.232702
O O12 0.500000 0.000000 0.000000
O O13 0.250000 0.250000 0.000000
#
# Coordination Sequence:
#
# PCOD8139461 Si02
#       7
#     8   4   8   8   4   8   8
#     4  10  20  39  62  93 123 168 227 266 326 402
#     4  11  23  42  68 100 132 178 230 274 350 406
#     4  10  22  40  65  92 131 176 220 272 337 409
#     4  12  24  44  64  99 138 176 221 284 355 400
#     4   9  19  38  66  88 124 178 218 266 326 408
#     4  10  22  39  65  91 128 177 225 271 335 413
#     4  12  24  41  70  99 134 177 226 286 338 411
#
# _framework density 20.174775
#
# number of rings (size 3 to 8) (size 9 to 14) (size 15 to 20)
#    0.000    1.333    3.333    2.500    4.667    2.667 
#    0.000    3.333    0.000    0.000    0.000    0.000 
#    0.000    0.000    0.000    0.000    0.000    0.000 
#
# Total GULP energy -297361.378685 kJ/mol
# GULP energy per Si atom -12390.057445 kJ/mol
# Density = 2.012886 g / cm^3
# Si number density = 20.174775 Si / 1000 Ang^3
#
#
#
# Elastic Constant Matrix: (Units=GPa)
#
#
# Indices 1 2 3 4 5 6 
#
# 1 107.6432 48.4028 46.1715 0.0000 -7.9093 0.0000
# 2 48.4028 137.7050 57.6433 0.0000 -4.6939 0.0000
# 3 46.1715 57.6433 96.6232 0.0000 -8.3434 0.0000
# 4 0.0000 0.0000 0.0000 29.2577 0.0000 -1.0649
# 5 -7.9093 -4.6939 -8.3434 0.0000 37.2620 0.0000
# 6 0.0000 0.0000 0.0000 -1.0649 0.0000 30.1394
#
#
#
# Elastic Compliance Matrix: (Units=1/GPa)
#
#
# Indices 1 2 3 4 5 6 
#
# 1 0.012355 -0.002498 -0.004298 0.000000 0.001346 0.000000
# 2 -0.002498 0.010184 -0.004912 0.000000 -0.000347 0.000000
# 3 -0.004298 -0.004912 0.015501 0.000000 0.001940 0.000000
# 4 0.000000 0.000000 0.000000 0.034223 0.000000 0.001209
# 5 0.001346 -0.000347 0.001940 0.000000 0.027513 0.000000
# 6 0.000000 0.000000 0.000000 0.001209 0.000000 0.033222
#
#
# Mechanical properties :
#
#
# Convention : Reuss Voigt Hill
#
# Bulk Modulus (GPa) = 68.37401 71.82296 70.09848
# Shear Modulus (GPa) = 31.00017 31.98206 31.49112
#
# Velocity S-wave (km/s) = 3.92418 3.98584 3.95513
# Velocity P-wave (km/s) = 7.38218 7.54057 7.46180
#
# Compressibility (1/GPa) = 0.01462544
#
# Stress axis : x y z
#
# Youngs Moduli (GPa) = 80.93583 98.19053 64.51199
#
# Poissons Ratio (x) = 0.24529 0.27725
# Poissons Ratio (y) = 0.20218 0.31688
# Poissons Ratio (z) = 0.34783 0.48231
#
# Static dielectric constant tensor:
#      x y z
#    x 3.493790 0.000000 0.408920 
#    y 0.000000 1.830250 0.000000 
#    z 0.408920 0.000000 3.039700 
# 
# 
# High freq. dielectric constant tensor:
#      x y z
#    x 1.791380 0.000000 0.012360 
#    y 0.000000 1.797390 0.000000 
#    z 0.012360 0.000000 1.773550 
# 
# From -- ./inp_files/208975.got.cif
#   From: 2010.06.25/outbox.cif.g09.slc.cpg/sg15_105_cif.got.tgz:208975.got - 2010.06.28 07:06:18.
