data_PCOD8139135
_publ_section_title
;
Structure prediction by ZEFSAII (Michael W. Deem and Ramdas Pophale) SiO2 
 PCOD8139135
Probable space group: C 2/C
;
_chemical_formula_sum "Si O2"
_cell_formula_units_Z 64
_cell_length_a 8.984044
_cell_length_b 32.419291
_cell_length_c 17.398967
_cell_angle_alpha 90.000000
_cell_angle_beta 36.110657
_cell_angle_gamma 90.000000
_cell_volume 2986.549066
_symmetry_space_group_name_H-M "C 2/C"
_symmetry_group_IT_number 15
_symmetry_cell_setting 'monoclinic'
loop_
_space_group_symop_operation_xyz
x,y,z
-x,y,1/2-z
-x,-y,-z
x,-y,1/2+z
1/2+x,1/2+y,z
1/2-x,1/2+y,1/2-z
1/2-x,1/2-y,-z
1/2+x,1/2-y,1/2+z
loop_
_atom_site_type_symbol
_atom_site_label
_atom_site_fract_x
_atom_site_fract_y
_atom_site_fract_z
Si Si1 0.413124 0.121719 0.199256
Si Si2 0.198489 0.328086 0.458249
Si Si3 0.349425 0.313351 0.131071
Si Si4 0.289290 0.045143 0.156651
Si Si5 0.235416 0.773525 0.611137
Si Si6 0.581668 0.868900 0.355946
Si Si7 0.207535 0.452853 0.350380
Si Si8 0.568424 0.667801 0.066324
O O1 0.500000 0.119477 0.250000
O O2 0.625485 0.138654 0.053422
O O3 0.331792 0.075724 0.209728
O O4 0.183659 0.153895 0.285865
O O5 0.449769 0.305148 0.384470
O O6 0.249235 0.352648 0.358041
O O7 0.000875 0.291890 0.525922
O O8 0.226031 0.272912 0.145633
O O9 0.131539 0.342237 0.258238
O O10 0.483452 0.335441 0.003028
O O11 0.000000 0.050715 0.250000
O O12 0.331152 0.998272 0.169243
O O13 0.504323 0.054440 0.003374
O O14 0.166658 0.785459 0.550147
O O15 0.000000 0.796794 0.750000
O O16 0.647555 0.916917 0.313259
O O17 0.287703 0.864043 0.500279
O O18 0.500000 0.447817 0.250000
#
# Coordination Sequence:
#
# PCOD8139135 Si02
#       8
#     8   8   8   8   8   8   8   8
#     4  12  23  41  65  95 129 165 212 264 330 374
#     4  11  23  41  63  91 121 169 210 267 314 381
#     4  12  24  42  59  94 128 166 212 264 330 380
#     4  10  22  39  68  99 130 167 223 269 317 392
#     4  11  23  40  64  89 120 164 219 267 320 376
#     4  11  23  40  68  92 127 172 215 261 322 393
#     4  10  20  38  66 100 129 169 218 270 319 388
#     4  11  24  41  65  90 125 169 213 270 315 385
#
# _framework density 21.429416
#
# number of rings (size 3 to 8) (size 9 to 14) (size 15 to 20)
#    0.000    1.000    3.750    3.750    1.750    1.000 
#    0.000    2.500    0.000    8.250    0.000    0.000 
#    0.000    0.000    0.000    0.000    0.000    0.000 
#
# Total GULP energy -396502.930260 kJ/mol
# GULP energy per Si atom -12390.716571 kJ/mol
# Density = 2.138064 g / cm^3
# Si number density = 21.429416 Si / 1000 Ang^3
#
#
#
# Elastic Constant Matrix: (Units=GPa)
#
#
# Indices 1 2 3 4 5 6 
#
# 1 103.1091 42.2831 23.8075 0.0000 7.2137 0.0000
# 2 42.2831 150.2384 25.3652 0.0000 9.0055 0.0000
# 3 23.8075 25.3652 84.2386 0.0000 -7.4956 0.0000
# 4 0.0000 0.0000 0.0000 19.1025 0.0000 -13.5476
# 5 7.2137 9.0055 -7.4956 0.0000 40.9237 0.0000
# 6 0.0000 0.0000 0.0000 -13.5476 0.0000 -0.9087
#
#
#
# Elastic Compliance Matrix: (Units=1/GPa)
#
#
# Indices 1 2 3 4 5 6 
#
# 1 0.011542 -0.002690 -0.002623 0.000000 -0.001923 0.000000
# 2 -0.002690 0.007798 -0.001726 0.000000 -0.001558 0.000000
# 3 -0.002623 -0.001726 0.013426 0.000000 0.003301 0.000000
# 4 0.000000 0.000000 0.000000 0.004523 0.000000 -0.067436
# 5 -0.001923 -0.001558 0.003301 0.000000 0.025722 0.000000
# 6 0.000000 0.000000 0.000000 -0.067436 0.000000 -0.095087
#
#
# Mechanical properties :
#
#
# Convention : Reuss Voigt Hill
#
# Bulk Modulus (GPa) = 53.51423 57.83305 55.67364
# Shear Modulus (GPa) = -424.90438 28.23220 -198.33609
#
# Velocity S-wave (km/s) = -14.09650 3.63361 -9.63089
# Velocity P-wave (km/s) = 15.48941 6.68210 9.88108
#
# Compressibility (1/GPa) = 0.01868662
#
# Stress axis : x y z
#
# Youngs Moduli (GPa) = 86.64128 128.23649 74.48262
#
# Poissons Ratio (x) = 0.34499 0.19537
# Poissons Ratio (y) = 0.23308 0.12859
# Poissons Ratio (z) = 0.22726 0.22139
#
# Static dielectric constant tensor:
#      x y z
#    x 3.749410 0.000000 -0.033520 
#    y 0.000000 3.850280 0.000000 
#    z -0.033520 0.000000 4.024890 
# 
# 
# High freq. dielectric constant tensor:
#      x y z
#    x 1.833940 0.000000 -0.013810 
#    y 0.000000 1.834960 0.000000 
#    z -0.013810 0.000000 1.855850 
# 
# From -- ./inp_files/194239.got.cif
#   From: 2010.06.25/outbox.cif.g09.slc.cpg/sg15_98_cif.got.tgz:194239.got - 2010.06.28 07:06:18.
