data_PCOD8139122
_publ_section_title
;
Structure prediction by ZEFSAII (Michael W. Deem and Ramdas Pophale) SiO2 
 PCOD8139122
Probable space group: C 2/C
;
_chemical_formula_sum "Si O2"
_cell_formula_units_Z 56
_cell_length_a 11.950541
_cell_length_b 10.678376
_cell_length_c 20.415733
_cell_angle_alpha 90.000000
_cell_angle_beta 94.908450
_cell_angle_gamma 90.000000
_cell_volume 2595.745629
_symmetry_space_group_name_H-M "C 2/C"
_symmetry_group_IT_number 15
_symmetry_cell_setting 'monoclinic'
loop_
_space_group_symop_operation_xyz
x,y,z
-x,y,1/2-z
-x,-y,-z
x,-y,1/2+z
1/2+x,1/2+y,z
1/2-x,1/2+y,1/2-z
1/2-x,1/2-y,-z
1/2+x,1/2-y,1/2+z
loop_
_atom_site_type_symbol
_atom_site_label
_atom_site_fract_x
_atom_site_fract_y
_atom_site_fract_z
Si Si1 0.863792 0.422417 0.940177
Si Si2 0.341949 0.464664 0.137771
Si Si3 0.225705 0.890183 0.232512
Si Si4 0.405361 0.058930 0.197584
Si Si5 0.521699 0.717234 0.647768
Si Si6 0.049826 0.605485 0.919000
Si Si7 0.084905 0.215935 0.310019
O O1 0.736536 0.460785 0.916913
O O2 0.910991 0.311655 0.896121
O O3 0.930376 0.553879 0.938299
O O4 0.867728 0.373346 0.014896
O O5 0.276362 0.380215 0.188430
O O6 0.435113 0.377226 0.105751
O O7 0.404993 0.567643 0.185081
O O8 0.298380 0.780957 0.203241
O O9 0.103730 0.871957 0.193733
O O10 0.282032 0.028433 0.221092
O O11 0.500000 0.995222 0.250000
O O12 0.439777 0.204162 0.192820
O O13 0.400683 0.000902 0.125292
O O14 0.039792 0.734161 0.878297
O O15 0.000000 0.254578 0.250000
#
# Coordination Sequence:
#
# PCOD8139122 Si02
#       7
#     8   8   8   8   8   8   8
#     4  10  21  44  66  85 125 171 206 258 321 359
#     4  12  24  37  62  93 130 162 205 262 313 377
#     4  11  21  37  62  90 124 164 201 254 322 358
#     4  10  20  38  65  92 122 161 211 258 313 370
#     4  11  23  41  61  94 126 165 209 256 313 380
#     4   9  20  40  67  89 117 167 217 253 307 386
#     4  11  22  39  61  96 125 157 214 259 308 378
#
# _framework density 21.573764000000001
#
# number of rings (size 3 to 8) (size 9 to 14) (size 15 to 20)
#    0.000    1.429    1.429    6.429    2.000    0.571 
#    2.571    7.143    3.143    0.000    0.000    0.000 
#    0.000    0.000    0.000    0.000    0.000    0.000 
#
# Total GULP energy -346891.495220 kJ/mol
# GULP energy per Si atom -12388.981972 kJ/mol
# Density = 2.152466 g / cm^3
# Si number density = 21.573764 Si / 1000 Ang^3
#
#
#
# Elastic Constant Matrix: (Units=GPa)
#
#
# Indices 1 2 3 4 5 6 
#
# 1 91.1625 50.6986 35.3686 0.0000 24.0815 0.0000
# 2 50.6986 88.7618 30.1595 0.0000 15.5122 0.0000
# 3 35.3686 30.1595 129.5298 0.0000 20.0299 0.0000
# 4 0.0000 0.0000 0.0000 1.6500 0.0000 15.3157
# 5 24.0815 15.5122 20.0299 0.0000 24.9101 0.0000
# 6 0.0000 0.0000 0.0000 15.3157 0.0000 33.8597
#
#
#
# Elastic Compliance Matrix: (Units=1/GPa)
#
#
# Indices 1 2 3 4 5 6 
#
# 1 0.019539 -0.008499 -0.001432 0.000000 -0.012445 0.000000
# 2 -0.008499 0.016795 -0.001420 0.000000 -0.001101 0.000000
# 3 -0.001432 -0.001420 0.009240 0.000000 -0.005161 0.000000
# 4 0.000000 0.000000 0.000000 -0.189476 0.000000 0.085705
# 5 -0.012445 -0.001101 -0.005161 0.000000 0.057012 0.000000
# 6 0.000000 0.000000 0.000000 0.085705 0.000000 -0.009233
#
#
# Mechanical properties :
#
#
# Convention : Reuss Voigt Hill
#
# Bulk Modulus (GPa) = 43.71859 60.21194 51.96527
# Shear Modulus (GPa) = -75.98952 24.96577 -25.51187
#
# Velocity S-wave (km/s) = -5.94135 3.40550 -3.44254
# Velocity P-wave (km/s) = 5.17276 6.59042 2.88758
#
# Compressibility (1/GPa) = 0.02287356
#
# Stress axis : x y z
#
# Youngs Moduli (GPa) = 51.18004 59.54094 108.22626
#
# Poissons Ratio (x) = 0.50602 0.15497
# Poissons Ratio (y) = 0.43496 0.15365
# Poissons Ratio (z) = 0.07328 0.08453
#
# Static dielectric constant tensor:
#      x y z
#    x 3.966350 0.000000 0.015360 
#    y 0.000000 3.979970 0.000000 
#    z 0.015360 0.000000 3.774030 
# 
# 
# High freq. dielectric constant tensor:
#      x y z
#    x 1.838800 0.000000 0.006870 
#    y 0.000000 1.848970 0.000000 
#    z 0.006870 0.000000 1.832020 
# 
# From -- ./inp_files/237645.got.cif
#   From: 2010.06.25/outbox.cif.g09.slc.cpg/sg15_119_cif.got.tgz:237645.got - 2010.06.28 07:06:18.
