data_PCOD8139069
_publ_section_title
;
Structure prediction by ZEFSAII (Michael W. Deem and Ramdas Pophale) SiO2 
 PCOD8139069
Probable space group: C 2/C
;
_chemical_formula_sum "Si O2"
_cell_formula_units_Z 60
_cell_length_a 15.136111
_cell_length_b 14.758840
_cell_length_c 18.537787
_cell_angle_alpha 90.000000
_cell_angle_beta 43.034733
_cell_angle_gamma 90.000000
_cell_volume 2826.115451
_symmetry_space_group_name_H-M "C 2/C"
_symmetry_group_IT_number 15
_symmetry_cell_setting 'monoclinic'
loop_
_space_group_symop_operation_xyz
x,y,z
-x,y,1/2-z
-x,-y,-z
x,-y,1/2+z
1/2+x,1/2+y,z
1/2-x,1/2+y,1/2-z
1/2-x,1/2-y,-z
1/2+x,1/2-y,1/2+z
loop_
_atom_site_type_symbol
_atom_site_label
_atom_site_fract_x
_atom_site_fract_y
_atom_site_fract_z
Si Si1 0.729810 0.656346 0.665527
Si Si2 0.653166 0.842660 0.655247
Si Si3 0.500000 0.737185 0.250000
Si Si4 0.128009 0.897826 0.884928
Si Si5 0.468984 0.218534 0.611701
Si Si6 0.475772 0.574303 0.616673
Si Si7 0.761064 0.331393 0.548642
Si Si8 0.270444 0.532963 0.962713
O O1 0.704328 0.738462 0.624221
O O2 0.855376 0.664597 0.640623
O O3 0.607818 0.649711 0.792295
O O4 0.748845 0.565416 0.607961
O O5 0.500000 0.846562 0.750000
O O6 0.719606 0.884162 0.688086
O O7 0.693595 0.899423 0.561118
O O8 0.512177 0.802022 0.313651
O O9 0.370630 0.673337 0.325930
O O10 0.064564 0.825304 0.869360
O O11 0.118260 0.996655 0.857380
O O12 0.050872 0.880990 0.005513
O O13 0.603322 0.190535 0.490672
O O14 0.577517 0.531810 0.611225
O O15 0.750000 0.250000 0.500000
O O16 0.777733 0.429716 0.501407
#
# Coordination Sequence:
#
# PCOD8139069 Si02
#       8
#     8   8   4   8   8   8   8   8
#     4  11  24  39  66  98 129 175 219 268 327 386
#     4  10  22  43  62  93 135 181 219 261 328 387
#     4  10  22  42  68  88 124 170 216 262 332 396
#     4   9  21  39  62  92 128 167 218 273 318 382
#     4  10  23  42  59  96 127 165 212 267 332 382
#     4  10  20  38  64  93 126 167 220 264 319 386
#     4  10  23  42  65  95 126 163 211 268 324 387
#     4  11  23  40  66  96 132 169 217 273 318 394
#
# _framework density 21.230554000000001
#
# number of rings (size 3 to 8) (size 9 to 14) (size 15 to 20)
#    0.000    1.867    0.000    3.200    5.600    3.733 
#   12.000    0.000    0.000    0.000    0.000    0.000 
#    0.000    0.000    0.000    0.000    0.000    0.000 
#
# Total GULP energy -371800.714449 kJ/mol
# GULP energy per Si atom -12393.357148 kJ/mol
# Density = 2.118223 g / cm^3
# Si number density = 21.230554 Si / 1000 Ang^3
#
#
#
# Elastic Constant Matrix: (Units=GPa)
#
#
# Indices 1 2 3 4 5 6 
#
# 1 130.4477 42.9225 59.2509 0.0000 -23.8752 0.0000
# 2 42.9225 107.1748 37.2555 0.0000 -2.6793 0.0000
# 3 59.2509 37.2555 98.0953 0.0000 -22.2769 0.0000
# 4 0.0000 0.0000 0.0000 28.8806 0.0000 1.2760
# 5 -23.8752 -2.6793 -22.2769 0.0000 46.7686 0.0000
# 6 0.0000 0.0000 0.0000 1.2760 0.0000 28.0995
#
#
#
# Elastic Compliance Matrix: (Units=1/GPa)
#
#
# Indices 1 2 3 4 5 6 
#
# 1 0.011511 -0.002729 -0.005177 0.000000 0.003254 0.000000
# 2 -0.002729 0.011490 -0.003232 0.000000 -0.002274 0.000000
# 3 -0.005177 -0.003232 0.015593 0.000000 0.004599 0.000000
# 4 0.000000 0.000000 0.000000 0.034695 0.000000 -0.001575
# 5 0.003254 -0.002274 0.004599 0.000000 0.025103 0.000000
# 6 0.000000 0.000000 0.000000 -0.001575 0.000000 0.035659
#
#
# Mechanical properties :
#
#
# Convention : Reuss Voigt Hill
#
# Bulk Modulus (GPa) = 61.28313 68.28619 64.78466
# Shear Modulus (GPa) = 30.90841 33.83565 32.37203
#
# Velocity S-wave (km/s) = 3.81969 3.99648 3.90909
# Velocity P-wave (km/s) = 6.95569 7.31640 7.13832
#
# Compressibility (1/GPa) = 0.01631770
#
# Stress axis : x y z
#
# Youngs Moduli (GPa) = 86.87299 87.03139 64.12983
#
# Poissons Ratio (x) = 0.23751 0.33203
# Poissons Ratio (y) = 0.23707 0.20727
# Poissons Ratio (z) = 0.44978 0.28128
#
# Static dielectric constant tensor:
#      x y z
#    x 4.040900 0.000000 -0.375500 
#    y 0.000000 3.678200 0.000000 
#    z -0.375500 0.000000 4.107860 
# 
# 
# High freq. dielectric constant tensor:
#      x y z
#    x 1.842780 0.000000 -0.015770 
#    y 0.000000 1.823130 0.000000 
#    z -0.015770 0.000000 1.824490 
# 
# From -- ./inp_files/244693.got.cif
#   From: 2010.06.25/outbox.cif.g09.slc.cpg/sg15_123_cif.got.tgz:244693.got - 2010.06.28 07:06:18.
