data_PCOD8139863
_publ_section_title
;
Structure prediction by ZEFSAII (Michael W. Deem and Ramdas Pophale) SiO2 
 PCOD8139863
Probable space group: C 2/C
;
_chemical_formula_sum "Si O2"
_cell_formula_units_Z 64
_cell_length_a 28.869065
_cell_length_b 21.150187
_cell_length_c 9.099838
_cell_angle_alpha 90.000000
_cell_angle_beta 147.537760
_cell_angle_gamma 90.000000
_cell_volume 2982.273840
_symmetry_space_group_name_H-M "C 2/C"
_symmetry_group_IT_number 15
_symmetry_cell_setting 'monoclinic'
loop_
_space_group_symop_operation_xyz
x,y,z
-x,y,1/2-z
-x,-y,-z
x,-y,1/2+z
1/2+x,1/2+y,z
1/2-x,1/2+y,1/2-z
1/2-x,1/2-y,-z
1/2+x,1/2-y,1/2+z
loop_
_atom_site_type_symbol
_atom_site_label
_atom_site_fract_x
_atom_site_fract_y
_atom_site_fract_z
Si Si1 0.567909 0.864971 0.146001
Si Si2 0.323743 0.541506 0.690224
Si Si3 0.550702 0.747932 0.743385
Si Si4 0.912810 0.445059 0.738003
Si Si5 0.361751 0.064062 0.418421
Si Si6 0.683544 0.157030 0.682942
Si Si7 0.155023 0.083378 0.421301
Si Si8 0.525411 0.631279 0.481830
O O1 0.608528 0.872023 0.417607
O O2 0.645487 0.862621 0.238368
O O3 0.506879 0.803824 0.980230
O O4 0.509473 0.926363 0.944548
O O5 0.237350 0.571439 0.392943
O O6 0.328313 0.467133 0.663683
O O7 0.404297 0.576052 0.830270
O O8 0.325072 0.550263 0.869259
O O9 0.500000 0.722110 0.750000
O O10 0.565043 0.692406 0.666517
O O11 0.647215 0.773312 0.044510
O O12 0.874983 0.508480 0.570556
O O13 0.920346 0.449561 0.934327
O O14 0.846438 0.390121 0.523854
O O15 0.787121 0.146725 0.957655
O O16 0.056961 0.106335 0.149612
O O17 0.500000 0.651876 0.250000
#
# Coordination Sequence:
#
# PCOD8139863 Si02
#       8
#     8   8   8   8   8   8   8   8
#     4  10  23  37  59  86 124 168 202 246 307 368
#     4  11  23  41  63  94 126 158 208 260 313 371
#     4   9  21  44  63  90 122 162 210 254 303 367
#     4  11  21  35  54  84 125 165 202 247 305 372
#     4  12  21  35  55  88 126 159 209 250 307 372
#     4  10  20  40  62  87 126 160 203 253 303 369
#     4  11  23  43  64  94 125 162 206 259 316 371
#     4  10  24  45  67  89 121 163 211 264 315 365
#
# _framework density 21.460135000000001
#
# number of rings (size 3 to 8) (size 9 to 14) (size 15 to 20)
#    0.000    1.500    2.500    3.000    1.750    4.000 
#    2.250    2.500    0.000    0.000    0.000    0.000 
#    0.000    0.000    0.000    0.000    0.000    0.000 
#
# Total GULP energy -396739.366518 kJ/mol
# GULP energy per Si atom -12398.105204 kJ/mol
# Density = 2.141129 g / cm^3
# Si number density = 21.460135 Si / 1000 Ang^3
#
#
#
# Elastic Constant Matrix: (Units=GPa)
#
#
# Indices 1 2 3 4 5 6 
#
# 1 166.2307 16.0284 112.8314 0.0000 22.2803 0.0000
# 2 16.0284 68.1267 15.0546 0.0000 -3.7848 0.0000
# 3 112.8314 15.0546 165.0305 0.0000 25.1816 0.0000
# 4 0.0000 0.0000 0.0000 27.0673 0.0000 -8.0489
# 5 22.2803 -3.7848 25.1816 0.0000 50.3296 0.0000
# 6 0.0000 0.0000 0.0000 -8.0489 0.0000 14.6182
#
#
#
# Elastic Compliance Matrix: (Units=1/GPa)
#
#
# Indices 1 2 3 4 5 6 
#
# 1 0.011375 -0.001103 -0.007465 0.000000 -0.001383 0.000000
# 2 -0.001103 0.015268 -0.000962 0.000000 0.002118 0.000000
# 3 -0.007465 -0.000962 0.011647 0.000000 -0.002595 0.000000
# 4 0.000000 0.000000 0.000000 0.044178 0.000000 0.024325
# 5 -0.001383 0.002118 -0.002595 0.000000 0.021939 0.000000
# 6 0.000000 0.000000 0.000000 0.024325 0.000000 0.081801
#
#
# Mechanical properties :
#
#
# Convention : Reuss Voigt Hill
#
# Bulk Modulus (GPa) = 52.00254 76.35743 64.17998
# Shear Modulus (GPa) = 23.62074 35.43457 29.52765
#
# Velocity S-wave (km/s) = 3.32125 4.06788 3.71338
# Velocity P-wave (km/s) = 6.24439 7.59749 6.95393
#
# Compressibility (1/GPa) = 0.01922983
#
# Stress axis : x y z
#
# Youngs Moduli (GPa) = 87.91562 65.49535 85.85877
#
# Poissons Ratio (x) = 0.07226 0.64094
# Poissons Ratio (y) = 0.09700 0.08256
# Poissons Ratio (z) = 0.65629 0.06298
#
# Static dielectric constant tensor:
#      x y z
#    x 3.954540 0.000000 -0.022060 
#    y 0.000000 3.675170 0.000000 
#    z -0.022060 0.000000 4.130030 
# 
# 
# High freq. dielectric constant tensor:
#      x y z
#    x 1.847440 0.000000 0.001120 
#    y 0.000000 1.817700 0.000000 
#    z 0.001120 0.000000 1.849120 
# 
# From -- ./inp_files/70985.got.cif
#   From: 2010.06.25/outbox.cif.g09.slc.cpg/sg15_36_cif.got.tgz:70985.got - 2010.06.28 07:06:18.
