data_PCOD8139944
_publ_section_title
;
Structure prediction by ZEFSAII (Michael W. Deem and Ramdas Pophale) SiO2 
 PCOD8139944
Probable space group: C 2/C
;
_chemical_formula_sum "Si O2"
_cell_formula_units_Z 64
_cell_length_a 9.543197
_cell_length_b 15.153040
_cell_length_c 25.954505
_cell_angle_alpha 90.000000
_cell_angle_beta 118.800801
_cell_angle_gamma 90.000000
_cell_volume 3288.964559
_symmetry_space_group_name_H-M "C 2/C"
_symmetry_group_IT_number 15
_symmetry_cell_setting 'monoclinic'
loop_
_space_group_symop_operation_xyz
x,y,z
-x,y,1/2-z
-x,-y,-z
x,-y,1/2+z
1/2+x,1/2+y,z
1/2-x,1/2+y,1/2-z
1/2-x,1/2-y,-z
1/2+x,1/2-y,1/2+z
loop_
_atom_site_type_symbol
_atom_site_label
_atom_site_fract_x
_atom_site_fract_y
_atom_site_fract_z
Si Si1 0.781162 0.358523 0.929570
Si Si2 0.768927 0.057183 0.596150
Si Si3 0.322849 0.682272 0.198440
Si Si4 0.309856 0.122694 0.711728
Si Si5 0.467664 0.372369 0.530955
Si Si6 0.687311 0.491748 0.283523
Si Si7 0.585813 0.552252 0.590750
Si Si8 0.113727 0.714638 0.513553
O O1 0.803123 0.463584 0.932956
O O2 0.673540 0.325090 0.862951
O O3 0.689248 0.339348 0.966579
O O4 0.949018 0.307088 0.954401
O O5 0.767606 0.062813 0.657548
O O6 0.650875 0.128364 0.552278
O O7 0.942557 0.079744 0.603435
O O8 0.500000 0.687182 0.250000
O O9 0.242789 0.775827 0.201271
O O10 0.236555 0.592085 0.204443
O O11 0.500000 0.119547 0.750000
O O12 0.238819 0.066612 0.745274
O O13 0.252454 0.075955 0.648419
O O14 0.566915 0.448173 0.577498
O O15 0.417909 0.397703 0.464135
O O16 0.588972 0.291331 0.550679
O O17 0.500000 0.508174 0.250000
O O18 0.250000 0.750000 0.500000
#
# Coordination Sequence:
#
# PCOD8139944 Si02
#       8
#     8   8   8   8   8   8   8   8
#     4  10  22  40  64  88 119 166 208 245 298 380
#     4  10  21  39  62  87 122 161 206 253 303 371
#     4   9  21  39  65  88 118 159 209 251 297 362
#     4  11  23  40  62  91 125 156 203 261 310 354
#     4  10  22  38  64  89 119 164 204 247 302 375
#     4  10  20  40  64  86 113 164 210 246 305 373
#     4  10  20  41  62  87 124 164 199 252 314 364
#     4  12  23  37  58  94 130 155 200 258 314 351
#
# _framework density 19.459012000000001
#
# number of rings (size 3 to 8) (size 9 to 14) (size 15 to 20)
#    0.000    1.750    2.500    1.500    1.750    3.000 
#    4.500    0.625    0.000    0.000    0.000    0.000 
#    0.000    0.000    0.000    0.000    0.000    0.000 
#
# Total GULP energy -396603.206355 kJ/mol
# GULP energy per Si atom -12393.850199 kJ/mol
# Density = 1.941472 g / cm^3
# Si number density = 19.459012 Si / 1000 Ang^3
#
#
#
# Elastic Constant Matrix: (Units=GPa)
#
#
# Indices 1 2 3 4 5 6 
#
# 1 87.4320 61.1910 44.3402 0.0000 -5.5718 0.0000
# 2 61.1910 136.9153 65.2410 0.0000 -10.0726 0.0000
# 3 44.3402 65.2410 122.7646 0.0000 -4.1906 0.0000
# 4 0.0000 0.0000 0.0000 16.2636 0.0000 -2.2313
# 5 -5.5718 -10.0726 -4.1906 0.0000 33.3168 0.0000
# 6 0.0000 0.0000 0.0000 -2.2313 0.0000 32.1820
#
#
#
# Elastic Compliance Matrix: (Units=1/GPa)
#
#
# Indices 1 2 3 4 5 6 
#
# 1 0.017383 -0.006349 -0.002883 0.000000 0.000625 0.000000
# 2 -0.006349 0.012280 -0.004160 0.000000 0.002128 0.000000
# 3 -0.002883 -0.004160 0.011387 0.000000 -0.000308 0.000000
# 4 0.000000 0.000000 0.000000 0.062077 0.000000 0.004304
# 5 0.000625 0.002128 -0.000308 0.000000 0.030724 0.000000
# 6 0.000000 0.000000 0.000000 0.004304 0.000000 0.031372
#
#
# Mechanical properties :
#
#
# Convention : Reuss Voigt Hill
#
# Bulk Modulus (GPa) = 70.09775 76.51738 73.30756
# Shear Modulus (GPa) = 25.41120 28.10847 26.75984
#
# Velocity S-wave (km/s) = 3.61762 3.80478 3.71238
# Velocity P-wave (km/s) = 7.31786 7.66221 7.49201
#
# Compressibility (1/GPa) = 0.01426579
#
# Stress axis : x y z
#
# Youngs Moduli (GPa) = 57.52776 81.43094 87.81674
#
# Poissons Ratio (x) = 0.51702 0.25317
# Poissons Ratio (y) = 0.36525 0.36535
# Poissons Ratio (z) = 0.16585 0.33878
#
# Static dielectric constant tensor:
#      x y z
#    x 3.264620 0.000000 -0.032280 
#    y 0.000000 4.035000 0.000000 
#    z -0.032280 0.000000 3.661920 
# 
# 
# High freq. dielectric constant tensor:
#      x y z
#    x 1.729270 0.000000 -0.002520 
#    y 0.000000 1.780910 0.000000 
#    z -0.002520 0.000000 1.765210 
# 
# From -- ./inp_files/288826.got.cif
#   From: 2010.06.25/outbox.cif.g09.slc.cpg/sg15_145_cif.got.tgz:288826.got - 2010.06.28 07:06:18.
