data_PCOD8139602
_publ_section_title
;
Structure prediction by ZEFSAII (Michael W. Deem and Ramdas Pophale) SiO2 
 PCOD8139602
Probable space group: C 2/C
;
_chemical_formula_sum "Si O2"
_cell_formula_units_Z 48
_cell_length_a 10.490930
_cell_length_b 16.961280
_cell_length_c 20.628864
_cell_angle_alpha 90.000000
_cell_angle_beta 140.823960
_cell_angle_gamma 90.000000
_cell_volume 2318.795047
_symmetry_space_group_name_H-M "C 2/C"
_symmetry_group_IT_number 15
_symmetry_cell_setting 'monoclinic'
loop_
_space_group_symop_operation_xyz
x,y,z
-x,y,1/2-z
-x,-y,-z
x,-y,1/2+z
1/2+x,1/2+y,z
1/2-x,1/2+y,1/2-z
1/2-x,1/2-y,-z
1/2+x,1/2-y,1/2+z
loop_
_atom_site_type_symbol
_atom_site_label
_atom_site_fract_x
_atom_site_fract_y
_atom_site_fract_z
Si Si1 0.289717 0.449913 0.147636
Si Si2 0.520830 0.220972 0.414046
Si Si3 0.926495 0.455141 0.565814
Si Si4 0.900362 0.778417 0.502674
Si Si5 0.780816 0.699552 0.802466
Si Si6 0.892669 0.594534 0.640373
O O1 0.500000 0.491746 0.250000
O O2 0.305864 0.359692 0.178109
O O3 0.117818 0.501798 0.111444
O O4 0.256828 0.447925 0.057560
O O5 0.750000 0.250000 0.500000
O O6 0.510692 0.131211 0.385040
O O7 0.422583 0.222305 0.447725
O O8 0.388566 0.275078 0.314624
O O9 0.850201 0.508352 0.594766
O O10 0.750000 0.750000 0.500000
O O11 0.827692 0.862901 0.445999
O O12 0.122478 0.777000 0.623908
O O13 0.961295 0.651602 0.841021
O O14 0.000000 0.580273 0.750000
#
# Coordination Sequence:
#
# PCOD8139602 Si02
#       6
#     8   8   8   8   8   8
#     4  10  20  39  65  89 126 167 210 267 334 382
#     4  12  24  42  65  96 132 173 220 276 326 393
#     4  10  23  40  62  95 128 165 221 273 319 401
#     4  10  22  40  67  97 125 169 221 268 327 388
#     4  10  21  38  67  91 127 171 219 268 329 391
#     4  10  20  42  65  90 131 174 211 274 340 390
#
# _framework density 20.700406000000001
#
# number of rings (size 3 to 8) (size 9 to 14) (size 15 to 20)
#    0.000    1.667    3.333    1.000    2.333    1.333 
#    6.000    0.833    0.000    0.000    0.000    0.000 
#    0.000    0.000    0.000    0.000    0.000    0.000 
#
# Total GULP energy -297343.187251 kJ/mol
# GULP energy per Si atom -12389.299469 kJ/mol
# Density = 2.065329 g / cm^3
# Si number density = 20.700406 Si / 1000 Ang^3
#
#
#
# Elastic Constant Matrix: (Units=GPa)
#
#
# Indices 1 2 3 4 5 6 
#
# 1 63.6983 38.7769 46.8139 -0.0001 -7.6902 -0.0001
# 2 38.7769 124.8325 48.5130 0.0000 -6.2710 0.0000
# 3 46.8139 48.5130 161.1885 -0.0003 -5.0966 -0.0002
# 4 -0.0001 0.0000 -0.0003 34.0744 -0.0001 -1.6209
# 5 -7.6902 -6.2710 -5.0966 -0.0001 33.3735 -0.0001
# 6 -0.0001 0.0000 -0.0002 -1.6209 -0.0001 6.1370
#
#
#
# Elastic Compliance Matrix: (Units=1/GPa)
#
#
# Indices 1 2 3 4 5 6 
#
# 1 0.022847 -0.004964 -0.005029 0.000000 0.003564 0.000000
# 2 -0.004964 0.010206 -0.001613 0.000000 0.000528 0.000000
# 3 -0.005029 -0.001613 0.008143 0.000000 -0.000218 0.000000
# 4 0.000000 0.000000 0.000000 0.029721 0.000000 0.007850
# 5 0.003564 0.000528 -0.000218 0.000000 0.030851 0.000001
# 6 0.000000 0.000000 0.000000 0.007850 0.000001 0.165020
#
#
# Mechanical properties :
#
#
# Convention : Reuss Voigt Hill
#
# Bulk Modulus (GPa) = 55.60417 68.65855 62.13136
# Shear Modulus (GPa) = 16.89222 29.09134 22.99178
#
# Velocity S-wave (km/s) = 2.85973 3.75287 3.33632
# Velocity P-wave (km/s) = 6.15010 7.21238 6.70232
#
# Compressibility (1/GPa) = 0.01798426
#
# Stress axis : x y z
#
# Youngs Moduli (GPa) = 43.77000 97.98039 122.80285
#
# Poissons Ratio (x) = 0.48633 0.61755
# Poissons Ratio (y) = 0.21726 0.19814
# Poissons Ratio (z) = 0.22011 0.15809
#
# Static dielectric constant tensor:
#      x y z
#    x 3.651050 0.000000 0.225940 
#    y 0.000000 3.821150 0.000000 
#    z 0.225940 0.000000 3.816510 
# 
# 
# High freq. dielectric constant tensor:
#      x y z
#    x 1.800580 0.000000 -0.001930 
#    y 0.000000 1.796770 0.000000 
#    z -0.001930 0.000000 1.827000 
# 
# From -- ./inp_files/87792.got.cif
#   From: 2010.06.25/outbox.cif.g09.slc.cpg/sg15_44_cif.got.tgz:87792.got - 2010.06.28 07:06:18.
