data_PCOD8139880
_publ_section_title
;
Structure prediction by ZEFSAII (Michael W. Deem and Ramdas Pophale) SiO2 
 PCOD8139880
Probable space group: C 2/C
;
_chemical_formula_sum "Si O2"
_cell_formula_units_Z 44
_cell_length_a 15.042877
_cell_length_b 10.558591
_cell_length_c 27.982685
_cell_angle_alpha 90.000000
_cell_angle_beta 151.891246
_cell_angle_gamma 90.000000
_cell_volume 2094.027425
_symmetry_space_group_name_H-M "C 2/C"
_symmetry_group_IT_number 15
_symmetry_cell_setting 'monoclinic'
loop_
_space_group_symop_operation_xyz
x,y,z
-x,y,1/2-z
-x,-y,-z
x,-y,1/2+z
1/2+x,1/2+y,z
1/2-x,1/2+y,1/2-z
1/2-x,1/2-y,-z
1/2+x,1/2-y,1/2+z
loop_
_atom_site_type_symbol
_atom_site_label
_atom_site_fract_x
_atom_site_fract_y
_atom_site_fract_z
Si Si1 0.068672 0.331113 0.921898
Si Si2 0.714967 0.806099 0.287440
Si Si3 0.992658 0.214470 0.402050
Si Si4 0.365396 0.088797 0.230244
Si Si5 0.760664 0.069636 0.050597
Si Si6 0.000000 0.120070 0.250000
O O1 0.930064 0.231744 0.880866
O O2 0.982684 0.385906 0.833039
O O3 0.250000 0.250000 0.000000
O O4 0.120629 0.452016 0.978694
O O5 0.593688 0.799716 0.181402
O O6 0.650020 0.705486 0.294855
O O7 0.697192 0.943450 0.302340
O O8 0.828888 0.169588 0.360735
O O9 0.101735 0.093535 0.430125
O O10 0.139094 0.301657 0.500874
O O11 0.500000 0.126775 0.250000
O O12 0.887197 0.037158 0.157314
#
# Coordination Sequence:
#
# PCOD8139880 Si02
#       6
#     8   8   8   8   8   4
#     4  11  24  41  64  93 130 172 212 265 325 384
#     4  10  20  40  62  91 129 166 211 260 326 380
#     4   9  20  37  65  90 126 176 202 257 335 375
#     4  11  22  40  67  98 130 161 220 274 310 384
#     4  10  20  41  64  92 128 169 215 256 323 389
#     4  10  22  38  64  94 124 172 214 264 312 392
#
# _framework density 21.012139999999999
#
# number of rings (size 3 to 8) (size 9 to 14) (size 15 to 20)
#    0.000    1.818    2.727    1.091    0.000    2.182 
#    1.636    2.727    0.000    0.000    0.000    0.000 
#    0.000    0.000    0.000    0.000    0.000    0.000 
#
# Total GULP energy -272762.311457 kJ/mol
# GULP energy per Si atom -12398.286884 kJ/mol
# Density = 2.096432 g / cm^3
# Si number density = 21.012140 Si / 1000 Ang^3
#
#
#
# Elastic Constant Matrix: (Units=GPa)
#
#
# Indices 1 2 3 4 5 6 
#
# 1 109.2568 15.8468 36.0824 -0.0001 24.7465 0.0000
# 2 15.8468 57.5868 29.0180 -0.0005 4.3577 0.0001
# 3 36.0824 29.0180 112.6147 -0.0006 11.9539 0.0004
# 4 -0.0001 -0.0005 -0.0006 1.7285 0.0000 8.4241
# 5 24.7465 4.3577 11.9539 0.0000 38.0791 0.0002
# 6 0.0000 0.0001 0.0004 8.4241 0.0002 -0.3667
#
#
#
# Elastic Compliance Matrix: (Units=1/GPa)
#
#
# Indices 1 2 3 4 5 6 
#
# 1 0.011746 -0.001366 -0.002708 0.000000 -0.006627 0.000000
# 2 -0.001366 0.020133 -0.004758 0.000000 0.000078 0.000001
# 3 -0.002708 -0.004758 0.011099 0.000000 -0.001180 0.000001
# 4 0.000000 0.000000 0.000000 0.005122 -0.000001 0.117656
# 5 -0.006627 0.000078 -0.001180 -0.000001 0.030929 0.000000
# 6 0.000000 0.000001 0.000001 0.117656 0.000000 -0.024141
#
#
# Mechanical properties :
#
#
# Convention : Reuss Voigt Hill
#
# Bulk Modulus (GPa) = 39.50560 49.03917 44.27239
# Shear Modulus (GPa) = 61.73506 21.12223 41.42865
#
# Velocity S-wave (km/s) = 5.42627 3.17399 4.44515
# Velocity P-wave (km/s) = 7.62243 6.06807 6.88923
#
# Compressibility (1/GPa) = 0.02531287
#
# Stress axis : x y z
#
# Youngs Moduli (GPa) = 85.13326 49.67001 90.09968
#
# Poissons Ratio (x) = 0.06786 0.24400
# Poissons Ratio (y) = 0.11632 0.42871
# Poissons Ratio (z) = 0.23055 0.23634
#
# Static dielectric constant tensor:
#      x y z
#    x 3.656560 0.000000 0.254270 
#    y 0.000000 3.747780 0.000000 
#    z 0.254270 0.000000 3.848920 
# 
# 
# High freq. dielectric constant tensor:
#      x y z
#    x 1.816330 0.000000 0.017400 
#    y 0.000000 1.812800 0.000000 
#    z 0.017400 0.000000 1.835170 
# 
# From -- ./inp_files/151733.got.cif
#   From: 2010.06.25/outbox.cif.g09.slc.cpg/sg15_76_cif.got.tgz:151733.got - 2010.06.28 07:06:18.
