data_PCOD8139223
_publ_section_title
;
Structure prediction by ZEFSAII (Michael W. Deem and Ramdas Pophale) SiO2 
 PCOD8139223
Probable space group: C 2/C
;
_chemical_formula_sum "Si O2"
_cell_formula_units_Z 40
_cell_length_a 7.602824
_cell_length_b 23.839342
_cell_length_c 13.469923
_cell_angle_alpha 90.000000
_cell_angle_beta 141.557194
_cell_angle_gamma 90.000000
_cell_volume 1517.883043
_symmetry_space_group_name_H-M "C 2/C"
_symmetry_group_IT_number 15
_symmetry_cell_setting 'monoclinic'
loop_
_space_group_symop_operation_xyz
x,y,z
-x,y,1/2-z
-x,-y,-z
x,-y,1/2+z
1/2+x,1/2+y,z
1/2-x,1/2+y,1/2-z
1/2-x,1/2-y,-z
1/2+x,1/2-y,1/2+z
loop_
_atom_site_type_symbol
_atom_site_label
_atom_site_fract_x
_atom_site_fract_y
_atom_site_fract_z
Si Si1 0.508948 0.108884 0.370136
Si Si2 0.611287 0.805278 0.066172
Si Si3 0.788862 0.509854 0.571845
Si Si4 0.882805 0.122431 0.071039
Si Si5 0.674128 0.304171 0.129878
O O1 0.500000 0.119120 0.250000
O O2 0.702110 0.154805 0.512681
O O3 0.182611 0.118508 0.261616
O O4 0.611936 0.046164 0.441920
O O5 0.847794 0.807626 0.258549
O O6 0.314438 0.828883 0.975521
O O7 0.550528 0.742550 0.004022
O O8 0.500000 0.500000 0.500000
O O9 0.764975 0.561444 0.484696
O O10 0.000000 0.528688 0.750000
O O11 0.919760 0.138349 0.968691
O O12 0.000000 0.287659 0.250000
#
# Coordination Sequence:
#
# PCOD8139223 Si02
#       5
#     8   8   8   8   8
#     4  11  23  41  66  96 139 182 226 281 343 409
#     4  11  22  40  68 104 134 181 233 284 338 413
#     4  11  21  41  69  98 137 181 226 280 347 406
#     4  11  21  41  69 100 138 179 230 282 339 408
#     4  10  20  38  68 101 137 177 229 282 340 410
#
# _framework density 26.352492999999999
#
# number of rings (size 3 to 8) (size 9 to 14) (size 15 to 20)
#    0.000    1.200    4.000    7.200    0.000    0.800 
#    0.000    5.000    0.000    0.000    0.000    0.000 
#    0.000    0.000    0.000    0.000    0.000    0.000 
#
# Total GULP energy -248026.720350 kJ/mol
# GULP energy per Si atom -12401.336017 kJ/mol
# Density = 2.629251 g / cm^3
# Si number density = 26.352493 Si / 1000 Ang^3
#
#
#
# Elastic Constant Matrix: (Units=GPa)
#
#
# Indices 1 2 3 4 5 6 
#
# 1 40.8785 10.0543 -2.0115 0.0000 -18.8324 0.0000
# 2 10.0543 178.6365 76.7996 0.0000 -16.4144 0.0000
# 3 -2.0115 76.7996 166.9791 0.0000 -9.2650 0.0000
# 4 0.0000 0.0000 0.0000 33.5998 0.0000 3.1544
# 5 -18.8324 -16.4144 -9.2650 0.0000 44.1841 0.0000
# 6 0.0000 0.0000 0.0000 3.1544 0.0000 39.8447
#
#
#
# Elastic Compliance Matrix: (Units=1/GPa)
#
#
# Indices 1 2 3 4 5 6 
#
# 1 0.030861 -0.001259 0.001674 0.000000 0.013037 0.000000
# 2 -0.001259 0.007198 -0.003245 0.000000 0.001457 0.000000
# 3 0.001674 -0.003245 0.007562 0.000000 0.001094 0.000000
# 4 0.000000 0.000000 0.000000 0.029985 0.000000 -0.002374
# 5 0.013037 0.001457 0.001094 0.000000 0.028960 0.000000
# 6 0.000000 0.000000 0.000000 -0.002374 0.000000 0.025285
#
#
# Mechanical properties :
#
#
# Convention : Reuss Voigt Hill
#
# Bulk Modulus (GPa) = 25.02404 61.79766 43.41085
# Shear Modulus (GPa) = 33.59534 43.63583 38.61558
#
# Velocity S-wave (km/s) = 3.57437 4.07363 3.83214
# Velocity P-wave (km/s) = 5.15280 6.75480 6.00744
#
# Compressibility (1/GPa) = 0.03996157
#
# Stress axis : x y z
#
# Youngs Moduli (GPa) = 32.40359 138.93341 132.23981
#
# Poissons Ratio (x) = 0.17488 -0.22138
# Poissons Ratio (y) = 0.04079 0.42909
# Poissons Ratio (z) = -0.05425 0.45081
#
# Static dielectric constant tensor:
#      x y z
#    x 5.118910 0.000000 -0.195340 
#    y 0.000000 9.064970 0.000000 
#    z -0.195340 0.000000 5.082350 
# 
# 
# High freq. dielectric constant tensor:
#      x y z
#    x 2.075770 0.000000 0.004430 
#    y 0.000000 2.050530 0.000000 
#    z 0.004430 0.000000 2.077810 
# 
# From -- ./inp_files/137632.got.cif
#   From: 2010.06.25/outbox.cif.g09.slc.cpg/sg15_69_cif.got.tgz:137632.got - 2010.06.28 07:06:18.
