data_PCOD8139578
_publ_section_title
;
Structure prediction by ZEFSAII (Michael W. Deem and Ramdas Pophale) SiO2 
 PCOD8139578
Probable space group: C 2/C
;
_chemical_formula_sum "Si O2"
_cell_formula_units_Z 44
_cell_length_a 10.575493
_cell_length_b 10.223303
_cell_length_c 31.672967
_cell_angle_alpha 90.000000
_cell_angle_beta 39.162090
_cell_angle_gamma 90.000000
_cell_volume 2162.545478
_symmetry_space_group_name_H-M "C 2/C"
_symmetry_group_IT_number 15
_symmetry_cell_setting 'monoclinic'
loop_
_space_group_symop_operation_xyz
x,y,z
-x,y,1/2-z
-x,-y,-z
x,-y,1/2+z
1/2+x,1/2+y,z
1/2-x,1/2+y,1/2-z
1/2-x,1/2-y,-z
1/2+x,1/2-y,1/2+z
loop_
_atom_site_type_symbol
_atom_site_label
_atom_site_fract_x
_atom_site_fract_y
_atom_site_fract_z
Si Si1 0.583663 0.662411 0.449486
Si Si2 0.815273 0.462086 0.441068
Si Si3 0.541360 0.746009 0.154945
Si Si4 0.526685 0.884054 0.960704
Si Si5 0.283873 0.858920 0.814468
Si Si6 0.000000 0.390086 0.250000
O O1 0.705482 0.536559 0.431942
O O2 0.360194 0.622947 0.490920
O O3 0.589178 0.763694 0.487152
O O4 0.694648 0.713410 0.378938
O O5 0.960204 0.361540 0.379706
O O6 0.928868 0.563592 0.442512
O O7 0.746965 0.663468 0.105983
O O8 0.364661 0.650946 0.186470
O O9 0.464874 0.797773 0.219371
O O10 0.500000 0.000000 0.000000
O O11 0.500000 0.791543 0.750000
O O12 0.311416 0.016723 0.811184
#
# Coordination Sequence:
#
# PCOD8139578 Si02
#       6
#     8   8   8   8   8   4
#     4  10  20  39  64  92 129 167 207 265 318 380
#     4  10  20  39  65  96 126 164 209 264 328 372
#     4  11  23  44  65  91 132 165 213 271 317 378
#     4  11  23  38  64 102 128 163 213 271 326 378
#     4  10  22  43  61  89 126 171 213 257 315 380
#     4  10  24  44  62  88 128 172 214 252 316 382
#
# _framework density 20.346392999999999
#
# number of rings (size 3 to 8) (size 9 to 14) (size 15 to 20)
#    0.545    1.091    1.818    2.727    0.000    5.818 
#   13.091    0.000    0.000    0.000    0.000    0.000 
#    0.000    0.000    0.000    0.000    0.000    0.000 
#
# Total GULP energy -272564.112043 kJ/mol
# GULP energy per Si atom -12389.277820 kJ/mol
# Density = 2.030008 g / cm^3
# Si number density = 20.346393 Si / 1000 Ang^3
#
#
#
# Elastic Constant Matrix: (Units=GPa)
#
#
# Indices 1 2 3 4 5 6 
#
# 1 116.7782 31.6851 55.1626 -0.0001 4.5600 0.0001
# 2 31.6851 64.5917 17.2961 0.0001 2.3981 0.0001
# 3 55.1626 17.2961 112.2309 -0.0005 11.2185 0.0011
# 4 -0.0001 0.0001 -0.0005 17.0328 0.0003 11.9160
# 5 4.5600 2.3981 11.2185 0.0003 27.6251 -0.0001
# 6 0.0001 0.0001 0.0011 11.9160 -0.0001 39.8510
#
#
#
# Elastic Compliance Matrix: (Units=1/GPa)
#
#
# Indices 1 2 3 4 5 6 
#
# 1 0.012356 -0.004632 -0.005416 0.000000 0.000562 0.000000
# 2 -0.004632 0.017889 -0.000418 0.000000 -0.000618 0.000000
# 3 -0.005416 -0.000418 0.012032 0.000001 -0.003956 -0.000001
# 4 0.000000 0.000000 0.000001 0.074240 -0.000001 -0.022199
# 5 0.000562 -0.000618 -0.003956 -0.000001 0.037766 0.000001
# 6 0.000000 0.000000 -0.000001 -0.022199 0.000001 0.031731
#
#
# Mechanical properties :
#
#
# Convention : Reuss Voigt Hill
#
# Bulk Modulus (GPa) = 46.84868 55.76540 51.30704
# Shear Modulus (GPa) = 23.35769 29.53224 26.44496
#
# Velocity S-wave (km/s) = 3.39189 3.81395 3.60910
# Velocity P-wave (km/s) = 6.19802 6.84562 6.52985
#
# Compressibility (1/GPa) = 0.02134532
#
# Stress axis : x y z
#
# Youngs Moduli (GPa) = 80.93089 55.90000 83.11244
#
# Poissons Ratio (x) = 0.25893 0.45010
# Poissons Ratio (y) = 0.37487 0.03478
# Poissons Ratio (z) = 0.43828 0.02339
#
# Static dielectric constant tensor:
#      x y z
#    x 3.857090 0.000000 0.004600 
#    y 0.000000 4.006360 0.000000 
#    z 0.004600 0.000000 3.655330 
# 
# 
# High freq. dielectric constant tensor:
#      x y z
#    x 1.795740 0.000000 0.006380 
#    y 0.000000 1.791460 0.000000 
#    z 0.006380 0.000000 1.793850 
# 
# From -- ./inp_files/307018.got.cif
#   From: 2010.06.25/outbox.cif.g09.slc.cpg/sg15_154_cif.got.tgz:307018.got - 2010.06.28 07:06:18.
