data_PCOD8139376
_publ_section_title
;
Structure prediction by ZEFSAII (Michael W. Deem and Ramdas Pophale) SiO2 
 PCOD8139376
Probable space group: C 2/C
;
_chemical_formula_sum "Si O2"
_cell_formula_units_Z 52
_cell_length_a 16.390569
_cell_length_b 22.200339
_cell_length_c 13.798221
_cell_angle_alpha 90.000000
_cell_angle_beta 148.810551
_cell_angle_gamma 90.000000
_cell_volume 2600.141931
_symmetry_space_group_name_H-M "C 2/C"
_symmetry_group_IT_number 15
_symmetry_cell_setting 'monoclinic'
loop_
_space_group_symop_operation_xyz
x,y,z
-x,y,1/2-z
-x,-y,-z
x,-y,1/2+z
1/2+x,1/2+y,z
1/2-x,1/2+y,1/2-z
1/2-x,1/2-y,-z
1/2+x,1/2-y,1/2+z
loop_
_atom_site_type_symbol
_atom_site_label
_atom_site_fract_x
_atom_site_fract_y
_atom_site_fract_z
Si Si1 0.666561 0.919747 0.391596
Si Si2 0.640005 0.504972 0.785879
Si Si3 0.646433 0.554716 0.598361
Si Si4 0.326672 0.771957 0.864333
Si Si5 0.521094 0.666910 0.974214
Si Si6 0.902031 0.291456 0.231295
Si Si7 0.500000 0.392983 0.250000
O O1 0.500000 0.950456 0.250000
O O2 0.707403 0.929197 0.320624
O O3 0.658380 0.848073 0.393728
O O4 0.792352 0.945745 0.594914
O O5 0.726482 0.523110 0.773594
O O6 0.459909 0.491653 0.571192
O O7 0.642432 0.562154 0.861741
O O8 0.539052 0.611494 0.521376
O O9 0.394442 0.720866 0.859577
O O10 0.247120 0.743048 0.878848
O O11 0.199030 0.814813 0.684242
O O12 0.479533 0.808479 0.058692
O O13 0.540374 0.649694 0.881306
O O14 0.000000 0.252412 0.250000
#
# Coordination Sequence:
#
# PCOD8139376 Si02
#       7
#     8   8   8   8   8   8   4
#     4  11  22  36  56  88 120 153 190 242 293 350
#     4  10  21  39  63  82 115 149 206 234 294 348
#     4  10  20  39  61  85 111 159 190 248 281 353
#     4  10  21  40  56  85 112 155 190 235 294 342
#     4  10  22  37  65  84 116 147 196 242 292 350
#     4  10  21  36  54  82 117 150 190 231 283 348
#     4  10  20  40  64  88 106 150 202 240 286 356
#
# _framework density 19.998909000000001
#
# number of rings (size 3 to 8) (size 9 to 14) (size 15 to 20)
#    0.000    1.846    3.077    0.462    4.308    1.231 
#    0.000    1.538    0.000    0.000    0.000    0.000 
#    0.000    0.000    0.000    0.000    0.000    0.000 
#
# Total GULP energy -322097.617736 kJ/mol
# GULP energy per Si atom -12388.369913 kJ/mol
# Density = 1.995339 g / cm^3
# Si number density = 19.998909 Si / 1000 Ang^3
#
#
#
# Elastic Constant Matrix: (Units=GPa)
#
#
# Indices 1 2 3 4 5 6 
#
# 1 124.1808 35.4275 41.4292 0.0000 -7.9935 0.0000
# 2 35.4275 86.4513 43.8125 0.0000 -13.1513 0.0000
# 3 41.4292 43.8125 81.6054 0.0000 -9.1003 0.0000
# 4 0.0000 0.0000 0.0000 35.7190 0.0000 -13.7926
# 5 -7.9935 -13.1513 -9.1003 0.0000 24.4436 0.0000
# 6 0.0000 0.0000 0.0000 -13.7926 0.0000 23.8998
#
#
#
# Elastic Compliance Matrix: (Units=1/GPa)
#
#
# Indices 1 2 3 4 5 6 
#
# 1 0.009974 -0.001993 -0.003911 0.000000 0.000733 0.000000
# 2 -0.001993 0.017061 -0.007509 0.000000 0.005732 0.000000
# 3 -0.003911 -0.007509 0.018444 0.000000 0.001548 0.000000
# 4 0.000000 0.000000 0.000000 0.036024 0.000000 0.020790
# 5 0.000733 0.005732 0.001548 0.000000 0.044810 0.000000
# 6 0.000000 0.000000 0.000000 0.020790 0.000000 0.053839
#
#
# Mechanical properties :
#
#
# Convention : Reuss Voigt Hill
#
# Bulk Modulus (GPa) = 53.61475 59.28622 56.45048
# Shear Modulus (GPa) = 23.45255 28.25037 25.85146
#
# Velocity S-wave (km/s) = 3.42817 3.76253 3.59924
# Velocity P-wave (km/s) = 6.52203 6.97026 6.74987
#
# Compressibility (1/GPa) = 0.01865158
#
# Stress axis : x y z
#
# Youngs Moduli (GPa) = 100.26508 58.61168 54.21905
#
# Poissons Ratio (x) = 0.11684 0.21207
# Poissons Ratio (y) = 0.19987 0.40712
# Poissons Ratio (z) = 0.39218 0.44010
#
# Static dielectric constant tensor:
#      x y z
#    x 4.021450 0.000000 -0.012520 
#    y 0.000000 3.604670 0.000000 
#    z -0.012520 0.000000 3.434050 
# 
# 
# High freq. dielectric constant tensor:
#      x y z
#    x 1.797660 0.000000 -0.006160 
#    y 0.000000 1.768400 0.000000 
#    z -0.006160 0.000000 1.759050 
# 
# From -- ./inp_files/42316.got.cif
#   From: 2010.06.25/outbox.cif.g09.slc.cpg/sg15_22_cif.got.tgz:42316.got - 2010.06.28 07:06:18.
