data_PCOD8139595
_publ_section_title
;
Structure prediction by ZEFSAII (Michael W. Deem and Ramdas Pophale) SiO2 
 PCOD8139595
Probable space group: C 2/C
;
_chemical_formula_sum "Si O2"
_cell_formula_units_Z 56
_cell_length_a 12.342184
_cell_length_b 14.259784
_cell_length_c 31.421542
_cell_angle_alpha 90.000000
_cell_angle_beta 29.371721
_cell_angle_gamma 90.000000
_cell_volume 2712.365297
_symmetry_space_group_name_H-M "C 2/C"
_symmetry_group_IT_number 15
_symmetry_cell_setting 'monoclinic'
loop_
_space_group_symop_operation_xyz
x,y,z
-x,y,1/2-z
-x,-y,-z
x,-y,1/2+z
1/2+x,1/2+y,z
1/2-x,1/2+y,1/2-z
1/2-x,1/2-y,-z
1/2+x,1/2-y,1/2+z
loop_
_atom_site_type_symbol
_atom_site_label
_atom_site_fract_x
_atom_site_fract_y
_atom_site_fract_z
Si Si1 0.418488 0.794940 0.409235
Si Si2 0.758973 0.876540 0.588156
Si Si3 0.736025 0.633559 0.181743
Si Si4 0.381851 0.997101 0.939903
Si Si5 0.895637 0.004050 0.116195
Si Si6 0.174922 0.186411 0.903678
Si Si7 0.712001 0.846093 0.737174
O O1 0.250000 0.750000 0.500000
O O2 0.475807 0.898173 0.406087
O O3 0.329006 0.800423 0.391830
O O4 0.641576 0.733685 0.335132
O O5 0.912240 0.921291 0.571921
O O6 0.548711 0.821232 0.679959
O O7 0.916976 0.809405 0.506248
O O8 0.656819 0.959478 0.594545
O O9 0.500000 0.589782 0.250000
O O10 0.775168 0.732120 0.146028
O O11 0.729511 0.650431 0.233793
O O12 0.931735 0.564051 0.100181
O O13 0.148870 0.988989 0.045053
O O14 0.755405 0.050421 0.202127
O O15 0.780686 0.909726 0.137882
#
# Coordination Sequence:
#
# PCOD8139595 Si02
#       7
#     8   8   8   8   8   8   8
#     4  12  21  41  69  98 127 179 221 267 332 401
#     4  10  20  39  65 103 131 158 224 290 319 385
#     4  11  25  43  61  95 139 176 221 270 318 407
#     4  10  21  39  65  93 131 169 214 272 328 388
#     4  11  20  40  69  99 125 169 223 282 334 381
#     4  11  22  42  72  92 131 180 218 265 341 397
#     4  11  24  37  63  99 135 164 224 279 326 381
#
# _framework density 20.646184999999999
#
# number of rings (size 3 to 8) (size 9 to 14) (size 15 to 20)
#    0.000    1.143    5.714    1.286    0.000    8.571 
#    0.000    5.714    0.000    0.000    0.000    0.000 
#    0.000    0.000    0.000    0.000    0.000    0.000 
#
# Total GULP energy -347160.120805 kJ/mol
# GULP energy per Si atom -12398.575743 kJ/mol
# Density = 2.059919 g / cm^3
# Si number density = 20.646185 Si / 1000 Ang^3
#
#
#
# Elastic Constant Matrix: (Units=GPa)
#
#
# Indices 1 2 3 4 5 6 
#
# 1 71.0758 42.9169 27.2285 -0.0046 -2.9284 -0.0031
# 2 42.9169 99.6081 29.8653 -0.0020 2.1249 -0.0029
# 3 27.2285 29.8653 99.3408 -0.0157 -11.0911 -0.0100
# 4 -0.0046 -0.0020 -0.0157 38.0140 0.0029 -1.0228
# 5 -2.9284 2.1249 -11.0911 0.0029 40.4832 0.0032
# 6 -0.0031 -0.0029 -0.0100 -1.0228 0.0032 25.5821
#
#
#
# Elastic Compliance Matrix: (Units=1/GPa)
#
#
# Indices 1 2 3 4 5 6 
#
# 1 0.019919 -0.007695 -0.003033 0.000001 0.001014 0.000000
# 2 -0.007695 0.014099 -0.002346 -0.000001 -0.001939 0.000000
# 3 -0.003033 -0.002346 0.011958 0.000004 0.003180 0.000004
# 4 0.000001 -0.000001 0.000004 0.026334 -0.000001 0.001053
# 5 0.001014 -0.001939 0.003180 -0.000001 0.025748 -0.000002
# 6 0.000000 0.000000 0.000004 0.001053 -0.000002 0.039132
#
#
# Mechanical properties :
#
#
# Convention : Reuss Voigt Hill
#
# Bulk Modulus (GPa) = 50.43204 52.22734 51.32969
# Shear Modulus (GPa) = 29.42056 32.15015 30.78535
#
# Velocity S-wave (km/s) = 3.77900 3.95041 3.86565
# Velocity P-wave (km/s) = 6.59704 6.79404 6.69626
#
# Compressibility (1/GPa) = 0.01982867
#
# Stress axis : x y z
#
# Youngs Moduli (GPa) = 50.20232 70.92464 83.62487
#
# Poissons Ratio (x) = 0.54574 0.25366
# Poissons Ratio (y) = 0.38629 0.19621
# Poissons Ratio (z) = 0.15228 0.16641
#
# Static dielectric constant tensor:
#      x y z
#    x 3.745560 -0.000010 -0.186250 
#    y -0.000010 3.844100 0.000100 
#    z -0.186250 0.000100 4.072710 
# 
# 
# High freq. dielectric constant tensor:
#      x y z
#    x 1.794980 0.000000 -0.005740 
#    y 0.000000 1.793600 0.000000 
#    z -0.005740 0.000000 1.824810 
# 
# From -- ./inp_files/311301.got.cif
#   From: 2010.06.25/outbox.cif.g09.slc.cpg/sg15_156_cif.got.tgz:311301.got - 2010.06.28 07:06:18.
