data_PCOD8139713
_publ_section_title
;
Structure prediction by ZEFSAII (Michael W. Deem and Ramdas Pophale) SiO2 
 PCOD8139713
Probable space group: C 2/C
;
_chemical_formula_sum "Si O2"
_cell_formula_units_Z 48
_cell_length_a 15.583745
_cell_length_b 26.052899
_cell_length_c 9.567800
_cell_angle_alpha 90.000000
_cell_angle_beta 40.348077
_cell_angle_gamma 90.000000
_cell_volume 2514.968020
_symmetry_space_group_name_H-M "C 2/C"
_symmetry_group_IT_number 15
_symmetry_cell_setting 'monoclinic'
loop_
_space_group_symop_operation_xyz
x,y,z
-x,y,1/2-z
-x,-y,-z
x,-y,1/2+z
1/2+x,1/2+y,z
1/2-x,1/2+y,1/2-z
1/2-x,1/2-y,-z
1/2+x,1/2-y,1/2+z
loop_
_atom_site_type_symbol
_atom_site_label
_atom_site_fract_x
_atom_site_fract_y
_atom_site_fract_z
Si Si1 0.500000 0.815534 0.750000
Si Si2 0.778836 0.145257 0.938805
Si Si3 0.346344 0.780965 0.482878
Si Si4 0.500000 0.504559 0.250000
Si Si5 0.943951 0.228893 0.621319
Si Si6 0.156200 0.142387 0.331053
Si Si7 0.936568 0.066821 0.575657
O O1 0.623792 0.853201 0.604725
O O2 0.509307 0.780093 0.601978
O O3 0.847316 0.201409 0.853016
O O4 0.836398 0.112201 0.738560
O O5 0.811935 0.124338 0.050696
O O6 0.500000 0.787852 0.250000
O O7 0.250000 0.750000 0.500000
O O8 0.346681 0.745282 0.618240
O O9 0.288375 0.838641 0.585834
O O10 0.401122 0.539204 0.471574
O O11 0.574268 0.470929 0.276013
O O12 0.060155 0.191065 0.431465
O O13 0.083481 0.091270 0.364050
#
# Coordination Sequence:
#
# PCOD8139713 Si02
#       7
#     4   8   8   4   8   8   8
#     4  12  20  31  56  84 110 162 202 237 276 336
#     4  11  21  34  57  85 118 148 201 248 287 339
#     4  12  25  37  51  79 124 176 206 236 281 337
#     4  10  20  39  68  92 106 136 188 243 322 376
#     4  11  20  34  55  79 112 159 208 237 275 327
#     4  11  20  37  56  82 120 150 200 247 287 338
#     4  10  21  39  63  93 111 142 184 253 306 358
#
# _framework density 19.085730000000002
#
# number of rings (size 3 to 8) (size 9 to 14) (size 15 to 20)
#    0.000    1.000    6.667    2.500    0.000    2.667 
#    0.000    0.000    0.000    1.000    8.667    0.000 
#    0.000    0.000    0.000    0.000    0.000    0.000 
#
# Total GULP energy -297318.229640 kJ/mol
# GULP energy per Si atom -12388.259568 kJ/mol
# Density = 1.904229 g / cm^3
# Si number density = 19.085730 Si / 1000 Ang^3
#
#
#
# Elastic Constant Matrix: (Units=GPa)
#
#
# Indices 1 2 3 4 5 6 
#
# 1 90.0881 27.3208 24.5344 0.0000 5.6209 0.0000
# 2 27.3208 76.5806 36.0940 0.0000 0.9607 0.0000
# 3 24.5344 36.0940 82.1688 0.0000 -4.8487 0.0000
# 4 0.0000 0.0000 0.0000 26.7271 0.0000 13.9273
# 5 5.6209 0.9607 -4.8487 0.0000 39.5544 0.0000
# 6 0.0000 0.0000 0.0000 13.9273 0.0000 15.9781
#
#
#
# Elastic Compliance Matrix: (Units=1/GPa)
#
#
# Indices 1 2 3 4 5 6 
#
# 1 0.012943 -0.003421 -0.002483 0.000000 -0.002061 0.000000
# 2 -0.003421 0.017438 -0.006683 0.000000 -0.000757 0.000000
# 3 -0.002483 -0.006683 0.015993 0.000000 0.002476 0.000000
# 4 0.000000 0.000000 0.000000 0.068553 0.000000 -0.059754
# 5 -0.002061 -0.000757 0.002476 0.000000 0.025896 0.000000
# 6 0.000000 0.000000 0.000000 -0.059754 0.000000 0.114670
#
#
# Mechanical properties :
#
#
# Convention : Reuss Voigt Hill
#
# Bulk Modulus (GPa) = 47.17215 47.19286 47.18250
# Shear Modulus (GPa) = 17.37713 27.17781 22.27747
#
# Velocity S-wave (km/s) = 3.02069 3.77767 3.42018
# Velocity P-wave (km/s) = 6.07747 6.61877 6.35389
#
# Compressibility (1/GPa) = 0.02119895
#
# Stress axis : x y z
#
# Youngs Moduli (GPa) = 77.26420 57.34600 62.52624
#
# Poissons Ratio (x) = 0.19619 0.15527
# Poissons Ratio (y) = 0.26433 0.41787
# Poissons Ratio (z) = 0.19187 0.38325
#
# Static dielectric constant tensor:
#      x y z
#    x 3.652530 0.000000 0.087650 
#    y 0.000000 3.529610 0.000000 
#    z 0.087650 0.000000 3.627030 
# 
# 
# High freq. dielectric constant tensor:
#      x y z
#    x 1.739650 0.000000 0.013530 
#    y 0.000000 1.724670 0.000000 
#    z 0.013530 0.000000 1.732600 
# 
# From -- ./inp_files/44453.got.cif
#   From: 2010.06.25/outbox.cif.g09.slc.cpg/sg15_23_cif.got.tgz:44453.got - 2010.06.28 07:06:18.
