data_PCOD8139613
_publ_section_title
;
Structure prediction by ZEFSAII (Michael W. Deem and Ramdas Pophale) SiO2 
 PCOD8139613
Probable space group: C 2/C
;
_chemical_formula_sum "Si O2"
_cell_formula_units_Z 48
_cell_length_a 8.388850
_cell_length_b 15.241132
_cell_length_c 26.268487
_cell_angle_alpha 90.000000
_cell_angle_beta 137.217116
_cell_angle_gamma 90.000000
_cell_volume 2281.216541
_symmetry_space_group_name_H-M "C 2/C"
_symmetry_group_IT_number 15
_symmetry_cell_setting 'monoclinic'
loop_
_space_group_symop_operation_xyz
x,y,z
-x,y,1/2-z
-x,-y,-z
x,-y,1/2+z
1/2+x,1/2+y,z
1/2-x,1/2+y,1/2-z
1/2-x,1/2-y,-z
1/2+x,1/2-y,1/2+z
loop_
_atom_site_type_symbol
_atom_site_label
_atom_site_fract_x
_atom_site_fract_y
_atom_site_fract_z
Si Si1 0.080488 0.236385 0.063505
Si Si2 0.768813 0.639850 0.674660
Si Si3 0.443769 0.413518 0.016809
Si Si4 0.936004 0.795703 0.641595
Si Si5 0.926086 0.253195 0.786530
Si Si6 0.998943 0.596767 0.477349
O O1 0.345103 0.199696 0.136090
O O2 0.933868 0.235887 0.081832
O O3 0.972595 0.169495 0.997024
O O4 0.079915 0.333685 0.039383
O O5 0.602150 0.575578 0.604439
O O6 0.838215 0.721116 0.655311
O O7 0.630943 0.671657 0.691526
O O8 0.000000 0.589883 0.750000
O O9 0.500000 0.500000 0.000000
O O10 0.174197 0.401097 0.970301
O O11 0.762659 0.879404 0.604514
O O12 0.200694 0.817846 0.724077
O O13 0.000000 0.210979 0.750000
O O14 0.000000 0.500000 0.500000
#
# Coordination Sequence:
#
# PCOD8139613 Si02
#       6
#     8   8   8   8   8   8
#     4  11  21  41  67  93 129 175 219 271 334 396
#     4  10  20  39  65  91 126 168 218 267 330 392
#     4  12  25  41  64  97 132 174 223 274 334 398
#     4  10  21  37  66  93 129 169 220 268 332 393
#     4   9  19  37  65  94 122 173 221 268 331 398
#     4  12  24  38  62  97 135 168 221 274 333 395
#
# _framework density 21.041405000000001
#
# number of rings (size 3 to 8) (size 9 to 14) (size 15 to 20)
#    0.000    1.333    3.333    3.000    2.333    0.000 
#    0.000    4.167    0.000    7.000    0.000    0.000 
#    0.000    0.000    0.000    0.000    0.000    0.000 
#
# Total GULP energy -297425.854149 kJ/mol
# GULP energy per Si atom -12392.743923 kJ/mol
# Density = 2.099351 g / cm^3
# Si number density = 21.041405 Si / 1000 Ang^3
#
#
#
# Elastic Constant Matrix: (Units=GPa)
#
#
# Indices 1 2 3 4 5 6 
#
# 1 141.5768 41.5628 47.2137 0.0000 -0.0689 0.0000
# 2 41.5628 106.0492 44.5838 0.0000 0.2816 0.0000
# 3 47.2137 44.5838 145.4156 -0.0001 6.0768 0.0000
# 4 0.0000 0.0000 -0.0001 25.0218 0.0000 -3.5532
# 5 -0.0689 0.2816 6.0768 0.0000 35.0949 0.0000
# 6 0.0000 0.0000 0.0000 -3.5532 0.0000 28.2759
#
#
#
# Elastic Compliance Matrix: (Units=1/GPa)
#
#
# Indices 1 2 3 4 5 6 
#
# 1 0.008458 -0.002473 -0.002004 0.000000 0.000383 0.000000
# 2 -0.002473 0.011557 -0.002756 0.000000 0.000380 0.000000
# 3 -0.002004 -0.002756 0.008433 0.000000 -0.001442 0.000000
# 4 0.000000 0.000000 0.000000 0.040691 0.000000 0.005113
# 5 0.000383 0.000380 -0.001442 0.000000 0.028742 0.000000
# 6 0.000000 0.000000 0.000000 0.005113 0.000000 0.036008
#
#
# Mechanical properties :
#
#
# Convention : Reuss Voigt Hill
#
# Bulk Modulus (GPa) = 71.52708 73.30691 72.41699
# Shear Modulus (GPa) = 32.67655 34.99061 33.83358
#
# Velocity S-wave (km/s) = 3.94504 4.08234 4.01428
# Velocity P-wave (km/s) = 7.40395 7.55881 7.48178
#
# Compressibility (1/GPa) = 0.01398072
#
# Stress axis : x y z
#
# Youngs Moduli (GPa) = 118.23347 86.53072 118.58646
#
# Poissons Ratio (x) = 0.21403 0.23762
# Poissons Ratio (y) = 0.29244 0.32682
# Poissons Ratio (z) = 0.23691 0.23848
#
# Static dielectric constant tensor:
#      x y z
#    x 4.444210 0.000000 0.490060 
#    y 0.000000 3.497350 0.000000 
#    z 0.490060 0.000000 5.047640 
# 
# 
# High freq. dielectric constant tensor:
#      x y z
#    x 1.854590 0.000000 0.004690 
#    y 0.000000 1.762940 0.000000 
#    z 0.004690 0.000000 1.850690 
# 
# From -- ./inp_files/231062.got.cif
#   From: 2010.06.25/outbox.cif.g09.slc.cpg/sg15_116_cif.got.tgz:231062.got - 2010.06.28 07:06:18.
