data_PCOD8139117
_publ_section_title
;
Structure prediction by ZEFSAII (Michael W. Deem and Ramdas Pophale) SiO2 
 PCOD8139117
Probable space group: C 2/C
;
_chemical_formula_sum "Si O2"
_cell_formula_units_Z 56
_cell_length_a 21.835827
_cell_length_b 19.878769
_cell_length_c 11.161246
_cell_angle_alpha 90.000000
_cell_angle_beta 31.046492
_cell_angle_gamma 90.000000
_cell_volume 2498.602138
_symmetry_space_group_name_H-M "C 2/C"
_symmetry_group_IT_number 15
_symmetry_cell_setting 'monoclinic'
loop_
_space_group_symop_operation_xyz
x,y,z
-x,y,1/2-z
-x,-y,-z
x,-y,1/2+z
1/2+x,1/2+y,z
1/2-x,1/2+y,1/2-z
1/2-x,1/2-y,-z
1/2+x,1/2-y,1/2+z
loop_
_atom_site_type_symbol
_atom_site_label
_atom_site_fract_x
_atom_site_fract_y
_atom_site_fract_z
Si Si1 0.874595 0.133976 0.446768
Si Si2 0.446456 0.414840 0.206390
Si Si3 0.373787 0.095762 0.989943
Si Si4 0.107864 0.683442 0.325678
Si Si5 0.829849 0.954456 0.818166
Si Si6 0.715564 0.677522 0.659237
Si Si7 0.622058 0.228424 0.671069
O O1 0.791463 0.097040 0.488439
O O2 0.798639 0.134142 0.696109
O O3 0.923773 0.206062 0.320615
O O4 0.000000 0.092266 0.250000
O O5 0.500000 0.412265 0.250000
O O6 0.349236 0.473488 0.347062
O O7 0.379226 0.346028 0.284238
O O8 0.551892 0.424877 0.936969
O O9 0.500000 0.060536 0.750000
O O10 0.368216 0.168293 0.937700
O O11 0.362707 0.114970 0.148825
O O12 0.272289 0.045182 0.112658
O O13 0.191036 0.744795 0.232035
O O14 0.969463 0.706085 0.569383
O O15 0.149924 0.668685 0.118223
O O16 0.750000 0.250000 0.500000
#
# Coordination Sequence:
#
# PCOD8139117 Si02
#       7
#     8   8   8   8   8   8   8
#     4  12  19  37  61  91 127 171 209 268 325 398
#     4  11  24  40  61  97 130 169 218 284 333 379
#     4  10  20  38  65  91 124 168 215 264 320 394
#     4  10  21  38  59  93 131 164 208 264 330 392
#     4  11  23  37  64  95 124 167 229 270 322 391
#     4  11  22  38  62  89 135 173 202 268 343 383
#     4  11  19  34  62  92 125 167 218 256 317 399
#
# _framework density 22.41253
#
# number of rings (size 3 to 8) (size 9 to 14) (size 15 to 20)
#    0.000    1.143    5.714    1.714    2.000    0.000 
#    0.000    0.714    0.000    9.429    0.000    0.000 
#    0.000    0.000    0.000    0.000    0.000    0.000 
#
# Total GULP energy -346991.619467 kJ/mol
# GULP energy per Si atom -12392.557838 kJ/mol
# Density = 2.236152 g / cm^3
# Si number density = 22.412530 Si / 1000 Ang^3
#
#
#
# Elastic Constant Matrix: (Units=GPa)
#
#
# Indices 1 2 3 4 5 6 
#
# 1 96.1431 26.7186 46.3492 0.0000 -1.4564 0.0000
# 2 26.7186 48.4277 12.5558 0.0000 0.9402 0.0000
# 3 46.3492 12.5558 149.9395 0.0000 14.4453 0.0000
# 4 0.0000 0.0000 0.0000 19.0510 0.0000 -4.5498
# 5 -1.4564 0.9402 14.4453 0.0000 44.1384 0.0000
# 6 0.0000 0.0000 0.0000 -4.5498 0.0000 28.4284
#
#
#
# Elastic Compliance Matrix: (Units=1/GPa)
#
#
# Indices 1 2 3 4 5 6 
#
# 1 0.014281 -0.006873 -0.004025 0.000000 0.001935 0.000000
# 2 -0.006873 0.024416 0.000157 0.000000 -0.000798 0.000000
# 3 -0.004025 0.000157 0.008171 0.000000 -0.002810 0.000000
# 4 0.000000 0.000000 0.000000 0.054577 0.000000 0.008735
# 5 0.001935 -0.000798 -0.002810 0.000000 0.023657 0.000000
# 6 0.000000 0.000000 0.000000 0.008735 0.000000 0.036574
#
#
# Mechanical properties :
#
#
# Convention : Reuss Voigt Hill
#
# Bulk Modulus (GPa) = 39.39275 51.75084 45.57180
# Shear Modulus (GPa) = 26.09314 32.24932 29.17123
#
# Velocity S-wave (km/s) = 3.41577 3.79739 3.61163
# Velocity P-wave (km/s) = 5.75943 6.50901 6.14566
#
# Compressibility (1/GPa) = 0.02538538
#
# Stress axis : x y z
#
# Youngs Moduli (GPa) = 70.02235 40.95639 122.37924
#
# Poissons Ratio (x) = 0.28150 0.49263
# Poissons Ratio (y) = 0.48127 -0.01920
# Poissons Ratio (z) = 0.28187 -0.00643
#
# Static dielectric constant tensor:
#      x y z
#    x 4.003660 0.000000 0.197790 
#    y 0.000000 3.900770 0.000000 
#    z 0.197790 0.000000 4.113990 
# 
# 
# High freq. dielectric constant tensor:
#      x y z
#    x 1.866860 0.000000 0.008800 
#    y 0.000000 1.859790 0.000000 
#    z 0.008800 0.000000 1.888930 
# 
# From -- ./inp_files/119803.got.cif
#   From: 2010.06.25/outbox.cif.g09.slc.cpg/sg15_60_cif.got.tgz:119803.got - 2010.06.28 07:06:18.
