data_PCOD8139814
_publ_section_title
;
Structure prediction by ZEFSAII (Michael W. Deem and Ramdas Pophale) SiO2 
 PCOD8139814
Probable space group: C 2/C
;
_chemical_formula_sum "Si O2"
_cell_formula_units_Z 56
_cell_length_a 17.201073
_cell_length_b 14.907584
_cell_length_c 18.553338
_cell_angle_alpha 90.000000
_cell_angle_beta 34.652212
_cell_angle_gamma 90.000000
_cell_volume 2705.121867
_symmetry_space_group_name_H-M "C 2/C"
_symmetry_group_IT_number 15
_symmetry_cell_setting 'monoclinic'
loop_
_space_group_symop_operation_xyz
x,y,z
-x,y,1/2-z
-x,-y,-z
x,-y,1/2+z
1/2+x,1/2+y,z
1/2-x,1/2+y,1/2-z
1/2-x,1/2-y,-z
1/2+x,1/2-y,1/2+z
loop_
_atom_site_type_symbol
_atom_site_label
_atom_site_fract_x
_atom_site_fract_y
_atom_site_fract_z
Si Si1 0.379700 0.529691 0.038422
Si Si2 0.362338 0.079106 0.526584
Si Si3 0.864344 0.990830 0.887785
Si Si4 0.927234 0.769229 0.519361
Si Si5 0.154747 0.787398 0.634645
Si Si6 0.659961 0.020880 0.317094
Si Si7 0.732588 0.779595 0.799406
O O1 0.378483 0.636439 0.023712
O O2 0.240576 0.498912 0.182728
O O3 0.500000 0.500000 0.000000
O O4 0.385080 0.480524 0.957722
O O5 0.385294 0.185822 0.500464
O O6 0.501913 0.022139 0.414238
O O7 0.263917 0.052434 0.535935
O O8 0.303841 0.054798 0.650769
O O9 0.842549 0.894387 0.869472
O O10 0.000000 0.035261 0.750000
O O11 0.851933 0.752247 0.652871
O O12 0.091278 0.774186 0.397804
O O13 0.250000 0.750000 0.500000
O O14 0.214689 0.751801 0.663154
O O15 0.000000 0.750642 0.750000
O O16 0.705499 0.114870 0.316145
#
# Coordination Sequence:
#
# PCOD8139814 Si02
#       7
#     8   8   8   8   8   8   8
#     4  11  25  41  63  96 127 163 219 256 316 376
#     4  10  20  42  65  91 126 167 209 251 329 369
#     4  11  25  41  65  92 130 169 206 266 322 377
#     4  10  24  37  69  92 121 168 209 265 295 387
#     4  11  24  40  61  93 131 166 205 262 318 378
#     4   9  20  39  64  91 123 166 204 262 304 388
#     4  10  20  40  60  93 126 157 215 250 317 364
#
# _framework density 20.70147
#
# number of rings (size 3 to 8) (size 9 to 14) (size 15 to 20)
#    0.000    1.714    1.429    1.714   12.000    1.143 
#    2.571    0.000    0.000    0.000    0.000    0.000 
#    0.000    0.000    0.000    0.000    0.000    0.000 
#
# Total GULP energy -347222.865719 kJ/mol
# GULP energy per Si atom -12400.816633 kJ/mol
# Density = 2.065435 g / cm^3
# Si number density = 20.701470 Si / 1000 Ang^3
#
#
#
# Elastic Constant Matrix: (Units=GPa)
#
#
# Indices 1 2 3 4 5 6 
#
# 1 103.5471 3.2916 29.1434 0.0003 -5.0236 -0.0001
# 2 3.2916 49.1465 -0.5593 0.0000 -9.0339 0.0001
# 3 29.1434 -0.5593 126.1350 0.0007 2.0801 -0.0001
# 4 0.0003 0.0000 0.0007 28.9117 -0.0003 -0.3547
# 5 -5.0236 -9.0339 2.0801 -0.0003 30.3592 0.0000
# 6 -0.0001 0.0001 -0.0001 -0.3547 0.0000 16.7885
#
#
#
# Elastic Compliance Matrix: (Units=1/GPa)
#
#
# Indices 1 2 3 4 5 6 
#
# 1 0.010444 -0.000401 -0.002444 0.000000 0.001776 0.000000
# 2 -0.000401 0.021540 0.000084 0.000000 0.006338 0.000000
# 3 -0.002444 0.000084 0.008509 0.000000 -0.000963 0.000000
# 4 0.000000 0.000000 0.000000 0.034597 0.000000 0.000731
# 5 0.001776 0.006338 -0.000963 0.000000 0.035185 0.000000
# 6 0.000000 0.000000 0.000000 0.000731 0.000000 0.059580
#
#
# Mechanical properties :
#
#
# Convention : Reuss Voigt Hill
#
# Bulk Modulus (GPa) = 28.59549 38.06444 33.32997
# Shear Modulus (GPa) = 26.73300 31.67541 29.20420
#
# Velocity S-wave (km/s) = 3.59744 3.91590 3.76004
# Velocity P-wave (km/s) = 5.57662 6.23481 5.91488
#
# Compressibility (1/GPa) = 0.03497054
#
# Stress axis : x y z
#
# Youngs Moduli (GPa) = 95.74610 46.42510 117.52276
#
# Poissons Ratio (x) = 0.01861 0.28725
# Poissons Ratio (y) = 0.03837 -0.00982
# Poissons Ratio (z) = 0.23402 -0.00388
#
# Static dielectric constant tensor:
#      x y z
#    x 3.470300 -0.000010 -0.223760 
#    y -0.000010 3.733830 -0.000010 
#    z -0.223760 -0.000010 4.007240 
# 
# 
# High freq. dielectric constant tensor:
#      x y z
#    x 1.793570 0.000000 -0.009250 
#    y 0.000000 1.805350 0.000000 
#    z -0.009250 0.000000 1.826520 
# 
# From -- ./inp_files/206260.got.cif
#   From: 2010.06.25/outbox.cif.g09.slc.cpg/sg15_104_cif.got.tgz:206260.got - 2010.06.28 07:06:18.
