data_PCOD8139972
_publ_section_title
;
Structure prediction by ZEFSAII (Michael W. Deem and Ramdas Pophale) SiO2 
 PCOD8139972
Probable space group: C 2/C
;
_chemical_formula_sum "Si O2"
_cell_formula_units_Z 60
_cell_length_a 30.490225
_cell_length_b 13.125191
_cell_length_c 16.640200
_cell_angle_alpha 90.000000
_cell_angle_beta 154.176906
_cell_angle_gamma 90.000000
_cell_volume 2900.725578
_symmetry_space_group_name_H-M "C 2/C"
_symmetry_group_IT_number 15
_symmetry_cell_setting 'monoclinic'
loop_
_space_group_symop_operation_xyz
x,y,z
-x,y,1/2-z
-x,-y,-z
x,-y,1/2+z
1/2+x,1/2+y,z
1/2-x,1/2+y,1/2-z
1/2-x,1/2-y,-z
1/2+x,1/2-y,1/2+z
loop_
_atom_site_type_symbol
_atom_site_label
_atom_site_fract_x
_atom_site_fract_y
_atom_site_fract_z
Si Si1 0.500000 0.817762 0.750000
Si Si2 0.859438 0.706036 0.154619
Si Si3 0.652513 0.650484 0.307819
Si Si4 0.060547 0.190161 0.572189
Si Si5 0.242039 0.042859 0.889524
Si Si6 0.758295 0.815786 0.388042
Si Si7 0.647538 0.958443 0.086398
Si Si8 0.408105 0.813859 0.035223
O O1 0.582394 0.752170 0.832139
O O2 0.444970 0.887663 0.592951
O O3 0.934979 0.719241 0.353970
O O4 0.750000 0.750000 0.000000
O O5 0.836741 0.588224 0.095857
O O6 0.730914 0.570460 0.402040
O O7 0.679650 0.761893 0.318664
O O8 0.654350 0.643018 0.408181
O O9 0.541760 0.626018 0.092583
O O10 0.143619 0.110600 0.737483
O O11 0.065838 0.237176 0.492968
O O12 0.263968 0.041539 0.832111
O O13 0.699872 0.910517 0.251507
O O14 0.806921 0.733847 0.407224
O O15 0.612068 0.075533 0.037781
O O16 0.500000 0.821239 0.250000
#
# Coordination Sequence:
#
# PCOD8139972 Si02
#       8
#     4   8   8   8   8   8   8   8
#     4  10  20  40  64  90 130 168 212 274 324 388
#     4   9  21  39  62  95 129 172 219 267 331 392
#     4  11  23  40  62  91 129 166 215 269 325 391
#     4  11  22  40  64  93 127 167 214 271 324 391
#     4  10  21  39  64  88 129 171 212 270 326 388
#     4  11  24  41  62  92 127 169 212 264 328 391
#     4  11  22  40  64  94 124 170 217 264 328 389
#     4  12  23  42  65  95 130 167 216 268 325 388
#
# _framework density 20.684480000000001
#
# number of rings (size 3 to 8) (size 9 to 14) (size 15 to 20)
#    0.000    1.333    4.667    1.200    1.867    0.000 
#    0.000    1.333    0.000    0.000    0.000    0.000 
#    0.000    0.000    0.000    0.000    0.000    0.000 
#
# Total GULP energy -371646.047625 kJ/mol
# GULP energy per Si atom -12388.201588 kJ/mol
# Density = 2.063740 g / cm^3
# Si number density = 20.684480 Si / 1000 Ang^3
#
#
#
# Elastic Constant Matrix: (Units=GPa)
#
#
# Indices 1 2 3 4 5 6 
#
# 1 102.1628 20.8160 29.5181 0.0000 -0.5108 0.0000
# 2 20.8160 73.0450 30.3310 0.0000 -13.0217 0.0000
# 3 29.5181 30.3310 98.7776 0.0000 -13.9736 0.0000
# 4 0.0000 0.0000 0.0000 21.8803 0.0000 5.7026
# 5 -0.5108 -13.0217 -13.9736 0.0000 35.9092 0.0000
# 6 0.0000 0.0000 0.0000 5.7026 0.0000 21.0746
#
#
#
# Elastic Compliance Matrix: (Units=1/GPa)
#
#
# Indices 1 2 3 4 5 6 
#
# 1 0.011071 -0.002286 -0.002859 0.000000 -0.001784 0.000000
# 2 -0.002286 0.016736 -0.003812 0.000000 0.004553 0.000000
# 3 -0.002859 -0.003812 0.012643 0.000000 0.003497 0.000000
# 4 0.000000 0.000000 0.000000 0.049171 0.000000 -0.013305
# 5 -0.001784 0.004553 0.003497 0.000000 0.030835 0.000000
# 6 0.000000 0.000000 0.000000 -0.013305 0.000000 0.051051
#
#
# Mechanical properties :
#
#
# Convention : Reuss Voigt Hill
#
# Bulk Modulus (GPa) = 44.37089 48.36839 46.36964
# Shear Modulus (GPa) = 25.38943 28.66085 27.02514
#
# Velocity S-wave (km/s) = 3.50732 3.72643 3.61853
# Velocity P-wave (km/s) = 6.15626 6.47686 6.31860
#
# Compressibility (1/GPa) = 0.02253730
#
# Stress axis : x y z
#
# Youngs Moduli (GPa) = 90.32471 59.75100 79.09350
#
# Poissons Ratio (x) = 0.13659 0.22612
# Poissons Ratio (y) = 0.20647 0.30149
# Poissons Ratio (z) = 0.25823 0.22776
#
# Static dielectric constant tensor:
#      x y z
#    x 3.914600 0.000000 0.008440 
#    y 0.000000 3.632140 0.000000 
#    z 0.008440 0.000000 3.934070 
# 
# 
# High freq. dielectric constant tensor:
#      x y z
#    x 1.816880 0.000000 0.002870 
#    y 0.000000 1.786360 0.000000 
#    z 0.002870 0.000000 1.817790 
# 
# From -- ./inp_files/178564.got.cif
#   From: 2010.06.25/outbox.cif.g09.slc.cpg/sg15_90_cif.got.tgz:178564.got - 2010.06.28 07:06:18.
