data_PCOD8139261
_publ_section_title
;
Structure prediction by ZEFSAII (Michael W. Deem and Ramdas Pophale) SiO2 
 PCOD8139261
Probable space group: C 2/C
;
_chemical_formula_sum "Si O2"
_cell_formula_units_Z 28
_cell_length_a 7.039025
_cell_length_b 18.266526
_cell_length_c 11.679241
_cell_angle_alpha 90.000000
_cell_angle_beta 59.318337
_cell_angle_gamma 90.000000
_cell_volume 1291.485182
_symmetry_space_group_name_H-M "C 2/C"
_symmetry_group_IT_number 15
_symmetry_cell_setting 'monoclinic'
loop_
_space_group_symop_operation_xyz
x,y,z
-x,y,1/2-z
-x,-y,-z
x,-y,1/2+z
1/2+x,1/2+y,z
1/2-x,1/2+y,1/2-z
1/2-x,1/2-y,-z
1/2+x,1/2-y,1/2+z
loop_
_atom_site_type_symbol
_atom_site_label
_atom_site_fract_x
_atom_site_fract_y
_atom_site_fract_z
Si Si1 0.620910 0.076043 0.976456
Si Si2 0.000000 0.462334 0.750000
Si Si3 0.409323 0.555929 0.620585
Si Si4 0.355966 0.183359 0.900783
O O1 0.515443 0.141142 0.938512
O O2 0.880914 0.071930 0.860207
O O3 0.595585 0.090566 0.121711
O O4 0.500000 0.000000 0.000000
O O5 0.809117 0.517705 0.756177
O O6 0.500000 0.500000 0.500000
O O7 0.340124 0.631306 0.581777
O O8 0.500000 0.212863 0.750000
O O9 0.250000 0.250000 0.000000
#
# Coordination Sequence:
#
# PCOD8139261 Si02
#       4
#     8   4   8   8
#     4  11  22  41  69 101 135 177 228 288 338 406
#     4  10  20  38  70 106 128 172 234 286 342 394
#     4  10  20  42  68 101 133 175 231 276 341 405
#     4  12  27  47  66 102 143 185 226 283 348 408
#
# _framework density 21.680464000000001
#
# number of rings (size 3 to 8) (size 9 to 14) (size 15 to 20)
#    0.000    1.143    7.143    0.000    0.000   10.286 
#    0.000    0.000    0.000    0.000    0.000    0.000 
#    0.000    0.000    0.000    0.000    0.000    0.000 
#
# Total GULP energy -173558.051917 kJ/mol
# GULP energy per Si atom -12397.003708 kJ/mol
# Density = 2.163112 g / cm^3
# Si number density = 21.680464 Si / 1000 Ang^3
#
#
#
# Elastic Constant Matrix: (Units=GPa)
#
#
# Indices 1 2 3 4 5 6 
#
# 1 182.5354 50.8298 52.9015 0.0000 -30.1907 0.0000
# 2 50.8298 120.7380 73.2230 0.0000 -10.1050 0.0000
# 3 52.9015 73.2230 159.8595 0.0000 -19.7435 0.0000
# 4 0.0000 0.0000 0.0000 37.4355 0.0000 1.8653
# 5 -30.1907 -10.1050 -19.7435 0.0000 34.6378 0.0000
# 6 0.0000 0.0000 0.0000 1.8653 0.0000 26.1386
#
#
#
# Elastic Compliance Matrix: (Units=1/GPa)
#
#
# Indices 1 2 3 4 5 6 
#
# 1 0.007143 -0.002116 -0.000755 0.000000 0.005178 0.000000
# 2 -0.002116 0.012099 -0.004985 0.000000 -0.001156 0.000000
# 3 -0.000755 -0.004985 0.009173 0.000000 0.003117 0.000000
# 4 0.000000 0.000000 0.000000 0.026808 0.000000 -0.001913
# 5 0.005178 -0.001156 0.003117 0.000000 0.034823 0.000000
# 6 0.000000 0.000000 0.000000 -0.001913 0.000000 0.038394
#
#
# Mechanical properties :
#
#
# Convention : Reuss Voigt Hill
#
# Bulk Modulus (GPa) = 78.71097 90.78239 84.74668
# Shear Modulus (GPa) = 33.69578 38.72095 36.20837
#
# Velocity S-wave (km/s) = 3.94661 4.23067 4.09111
# Velocity P-wave (km/s) = 7.55986 8.11348 7.84156
#
# Compressibility (1/GPa) = 0.01270471
#
# Stress axis : x y z
#
# Youngs Moduli (GPa) = 140.00028 82.64881 109.00996
#
# Poissons Ratio (x) = 0.17487 0.08231
# Poissons Ratio (y) = 0.29621 0.54337
# Poissons Ratio (z) = 0.10571 0.41197
#
# Static dielectric constant tensor:
#      x y z
#    x 4.615710 0.000000 -0.007170 
#    y 0.000000 3.186150 0.000000 
#    z -0.007170 0.000000 5.433680 
# 
# 
# High freq. dielectric constant tensor:
#      x y z
#    x 1.875150 0.000000 -0.001980 
#    y 0.000000 1.805550 0.000000 
#    z -0.001980 0.000000 1.892670 
# 
# From -- ./inp_files/133419.got.cif
#   From: 2010.06.25/outbox.cif.g09.slc.cpg/sg15_67_cif.got.tgz:133419.got - 2010.06.28 07:06:18.
