data_PCOD8139932
_publ_section_title
;
Structure prediction by ZEFSAII (Michael W. Deem and Ramdas Pophale) SiO2 
 PCOD8139932
Probable space group: C 2/C
;
_chemical_formula_sum "Si O2"
_cell_formula_units_Z 48
_cell_length_a 9.347528
_cell_length_b 26.020875
_cell_length_c 15.255681
_cell_angle_alpha 90.000000
_cell_angle_beta 39.079446
_cell_angle_gamma 90.000000
_cell_volume 2339.185504
_symmetry_space_group_name_H-M "C 2/C"
_symmetry_group_IT_number 15
_symmetry_cell_setting 'monoclinic'
loop_
_space_group_symop_operation_xyz
x,y,z
-x,y,1/2-z
-x,-y,-z
x,-y,1/2+z
1/2+x,1/2+y,z
1/2-x,1/2+y,1/2-z
1/2-x,1/2-y,-z
1/2+x,1/2-y,1/2+z
loop_
_atom_site_type_symbol
_atom_site_label
_atom_site_fract_x
_atom_site_fract_y
_atom_site_fract_z
Si Si1 0.786205 0.695906 0.285961
Si Si2 0.951714 0.899996 0.675357
Si Si3 0.063688 0.571052 0.625811
Si Si4 0.891426 0.276107 0.007881
Si Si5 0.741797 0.888818 0.384483
Si Si6 0.031325 0.531725 0.396451
O O1 0.658961 0.642196 0.335452
O O2 0.607575 0.737827 0.409039
O O3 0.000000 0.689124 0.250000
O O4 0.861618 0.713573 0.151884
O O5 0.788404 0.949325 0.761706
O O6 0.000000 0.877962 0.750000
O O7 0.179002 0.917622 0.520545
O O8 0.000000 0.594928 0.750000
O O9 0.898096 0.597696 0.635417
O O10 0.031329 0.509061 0.648773
O O11 0.769582 0.328462 0.093615
O O12 0.750000 0.250000 0.000000
O O13 0.635942 0.918819 0.519032
O O14 0.000000 0.906411 0.250000
O O15 0.000000 0.500000 0.500000
#
# Coordination Sequence:
#
# PCOD8139932 Si02
#       6
#     8   8   8   8   8   8
#     4  10  22  39  66  97 128 171 217 270 322 381
#     4  12  22  45  70  90 136 173 217 268 323 402
#     4  11  27  43  63 103 135 168 217 278 334 386
#     4  10  20  40  63  98 129 168 225 266 319 385
#     4  11  22  41  70  93 129 178 222 266 326 393
#     4  10  22  40  67  91 126 175 221 252 333 390
#
# _framework density 20.519964000000002
#
# number of rings (size 3 to 8) (size 9 to 14) (size 15 to 20)
#    0.000    1.333    5.000    1.500    4.667    5.333 
#    0.000    4.167    0.000    0.000    0.000    0.000 
#    0.000    0.000    0.000    0.000    0.000    0.000 
#
# Total GULP energy -297511.220770 kJ/mol
# GULP energy per Si atom -12396.300865 kJ/mol
# Density = 2.047326 g / cm^3
# Si number density = 20.519964 Si / 1000 Ang^3
#
#
#
# Elastic Constant Matrix: (Units=GPa)
#
#
# Indices 1 2 3 4 5 6 
#
# 1 69.4361 52.2800 61.4279 0.0000 -11.9732 0.0000
# 2 52.2800 131.6143 49.1274 0.0000 -7.1892 0.0000
# 3 61.4279 49.1274 173.6020 0.0000 -17.2236 0.0000
# 4 0.0000 0.0000 0.0000 23.1511 0.0000 6.0302
# 5 -11.9732 -7.1892 -17.2236 0.0000 28.9466 0.0000
# 6 0.0000 0.0000 0.0000 6.0302 0.0000 28.5242
#
#
#
# Elastic Compliance Matrix: (Units=1/GPa)
#
#
# Indices 1 2 3 4 5 6 
#
# 1 0.027500 -0.008049 -0.006932 0.000000 0.005251 0.000000
# 2 -0.008049 0.010866 -0.000307 0.000000 -0.000814 0.000000
# 3 -0.006932 -0.000307 0.008510 0.000000 0.002120 0.000000
# 4 0.000000 0.000000 0.000000 0.045712 0.000000 -0.009664
# 5 0.005251 -0.000814 0.002120 0.000000 0.037778 0.000000
# 6 0.000000 0.000000 0.000000 -0.009664 0.000000 0.037101
#
#
# Mechanical properties :
#
#
# Convention : Reuss Voigt Hill
#
# Bulk Modulus (GPa) = 61.35344 77.81365 69.58355
# Shear Modulus (GPa) = 24.57283 30.24553 27.40918
#
# Velocity S-wave (km/s) = 3.46426 3.84338 3.65873
# Velocity P-wave (km/s) = 6.77980 7.59596 7.19946
#
# Compressibility (1/GPa) = 0.01629900
#
# Stress axis : x y z
#
# Youngs Moduli (GPa) = 36.36343 92.03343 117.50277
#
# Poissons Ratio (x) = 0.74081 0.81451
# Poissons Ratio (y) = 0.29270 0.03612
# Poissons Ratio (z) = 0.25207 0.02829
#
# Static dielectric constant tensor:
#      x y z
#    x 3.616200 0.000000 0.155270 
#    y 0.000000 4.149600 0.000000 
#    z 0.155270 0.000000 4.251850 
# 
# 
# High freq. dielectric constant tensor:
#      x y z
#    x 1.772620 0.000000 0.004470 
#    y 0.000000 1.811970 0.000000 
#    z 0.004470 0.000000 1.820570 
# 
# From -- ./inp_files/138896.got.cif
#   From: 2010.06.25/outbox.cif.g09.slc.cpg/sg15_70_cif.got.tgz:138896.got - 2010.06.28 07:06:18.
