data_PCOD8139107
_publ_section_title
;
Structure prediction by ZEFSAII (Michael W. Deem and Ramdas Pophale) SiO2 
 PCOD8139107
Probable space group: C 2/C
;
_chemical_formula_sum "Si O2"
_cell_formula_units_Z 36
_cell_length_a 17.088008
_cell_length_b 8.073183
_cell_length_c 16.839128
_cell_angle_alpha 90.000000
_cell_angle_beta 52.010420
_cell_angle_gamma 90.000000
_cell_volume 1830.836973
_symmetry_space_group_name_H-M "C 2/C"
_symmetry_group_IT_number 15
_symmetry_cell_setting 'monoclinic'
loop_
_space_group_symop_operation_xyz
x,y,z
-x,y,1/2-z
-x,-y,-z
x,-y,1/2+z
1/2+x,1/2+y,z
1/2-x,1/2+y,1/2-z
1/2-x,1/2-y,-z
1/2+x,1/2-y,1/2+z
loop_
_atom_site_type_symbol
_atom_site_label
_atom_site_fract_x
_atom_site_fract_y
_atom_site_fract_z
Si Si1 0.000000 0.281190 0.750000
Si Si2 0.692556 0.835280 0.965219
Si Si3 0.008726 0.598883 0.832651
Si Si4 0.691615 0.603898 0.681316
Si Si5 0.295955 0.273087 0.749086
O O1 0.997491 0.399396 0.829817
O O2 0.096098 0.165345 0.693189
O O3 0.575656 0.833884 0.055792
O O4 0.750000 0.750000 0.000000
O O5 0.716157 0.734352 0.869370
O O6 0.732623 0.024743 0.930456
O O7 0.114566 0.641126 0.804406
O O8 0.000000 0.682903 0.750000
O O9 0.662949 0.460433 0.764142
O O10 0.742923 0.754941 0.696919
#
# Coordination Sequence:
#
# PCOD8139107 Si02
#       5
#     4   8   8   8   8
#     4  10  22  38  64  90 126 166 212 252 318 364
#     4  10  21  37  69  92 123 170 212 253 324 370
#     4  10  20  38  65  89 127 162 210 259 309 369
#     4  10  23  40  64  91 129 164 208 262 312 376
#     4  10  22  40  64  89 131 161 209 261 315 367
#
# _framework density 19.663138
#
# number of rings (size 3 to 8) (size 9 to 14) (size 15 to 20)
#    2.000    0.000    2.222    1.333    4.667    1.778 
#    0.000    1.111    0.000    0.000    0.000    0.000 
#    0.000    0.000    0.000    0.000    0.000    0.000 
#
# Total GULP energy -223028.742066 kJ/mol
# GULP energy per Si atom -12390.485670 kJ/mol
# Density = 1.961838 g / cm^3
# Si number density = 19.663138 Si / 1000 Ang^3
#
#
#
# Elastic Constant Matrix: (Units=GPa)
#
#
# Indices 1 2 3 4 5 6 
#
# 1 90.8772 25.7580 35.0288 0.0000 -21.7583 0.0001
# 2 25.7580 76.5972 20.6181 0.0000 -11.0594 0.0002
# 3 35.0288 20.6181 122.4028 0.0000 -31.0465 0.0000
# 4 0.0000 0.0000 0.0000 27.4551 0.0000 5.8376
# 5 -21.7583 -11.0594 -31.0465 0.0000 26.3088 0.0000
# 6 0.0001 0.0002 0.0000 5.8376 0.0000 37.1353
#
#
#
# Elastic Compliance Matrix: (Units=1/GPa)
#
#
# Indices 1 2 3 4 5 6 
#
# 1 0.014627 -0.003239 -0.001309 0.000000 0.009190 0.000000
# 2 -0.003239 0.014747 -0.000948 0.000000 0.002401 0.000000
# 3 -0.001309 -0.000948 0.011886 0.000000 0.012545 0.000000
# 4 0.000000 0.000000 0.000000 0.037683 0.000000 -0.005924
# 5 0.009190 0.002401 0.012545 0.000000 0.061425 0.000000
# 6 0.000000 0.000000 0.000000 -0.005924 0.000000 0.027860
#
#
# Mechanical properties :
#
#
# Convention : Reuss Voigt Hill
#
# Bulk Modulus (GPa) = 33.03958 50.29856 41.66907
# Shear Modulus (GPa) = 26.41191 32.07799 29.24495
#
# Velocity S-wave (km/s) = 3.66897 4.04341 3.86073
# Velocity P-wave (km/s) = 5.89811 6.88728 6.41180
#
# Compressibility (1/GPa) = 0.03026672
#
# Stress axis : x y z
#
# Youngs Moduli (GPa) = 68.36642 67.81269 84.13193
#
# Poissons Ratio (x) = 0.21967 0.11015
# Poissons Ratio (y) = 0.22147 0.07974
# Poissons Ratio (z) = 0.08951 0.06428
#
# Static dielectric constant tensor:
#      x y z
#    x 3.391440 0.000000 -0.138780 
#    y 0.000000 3.485480 0.000000 
#    z -0.138780 0.000000 3.492340 
# 
# 
# High freq. dielectric constant tensor:
#      x y z
#    x 1.763700 0.000000 -0.006910 
#    y 0.000000 1.752600 0.000000 
#    z -0.006910 0.000000 1.744150 
# 
# From -- ./inp_files/158487.got.cif
#   From: 2010.06.25/outbox.cif.g09.slc.cpg/sg15_80_cif.got.tgz:158487.got - 2010.06.28 07:06:18.
