data_PCOD8139562
_publ_section_title
;
Structure prediction by ZEFSAII (Michael W. Deem and Ramdas Pophale) SiO2 
 PCOD8139562
Probable space group: C 2/C
;
_chemical_formula_sum "Si O2"
_cell_formula_units_Z 60
_cell_length_a 29.722918
_cell_length_b 14.797819
_cell_length_c 20.004120
_cell_angle_alpha 90.000000
_cell_angle_beta 19.930597
_cell_angle_gamma 90.000000
_cell_volume 2999.246819
_symmetry_space_group_name_H-M "C 2/C"
_symmetry_group_IT_number 15
_symmetry_cell_setting 'monoclinic'
loop_
_space_group_symop_operation_xyz
x,y,z
-x,y,1/2-z
-x,-y,-z
x,-y,1/2+z
1/2+x,1/2+y,z
1/2-x,1/2+y,1/2-z
1/2-x,1/2-y,-z
1/2+x,1/2-y,1/2+z
loop_
_atom_site_type_symbol
_atom_site_label
_atom_site_fract_x
_atom_site_fract_y
_atom_site_fract_z
Si Si1 0.648573 0.955539 0.170408
Si Si2 0.234772 0.716883 0.172269
Si Si3 0.000000 0.748970 0.250000
Si Si4 0.652853 0.152509 0.538897
Si Si5 0.340503 0.079365 0.109048
Si Si6 0.272631 0.123380 0.715804
Si Si7 0.350564 0.355270 0.974406
Si Si8 0.930719 0.654609 0.213057
O O1 0.711815 0.910768 0.015109
O O2 0.498480 0.925003 0.390770
O O3 0.653146 0.063042 0.163702
O O4 0.742213 0.925592 0.100068
O O5 0.195760 0.636816 0.275842
O O6 0.228756 0.817024 0.213112
O O7 0.143955 0.721541 0.233272
O O8 0.384070 0.690794 0.942866
O O9 0.935885 0.688155 0.281590
O O10 0.500000 0.128478 0.750000
O O11 0.713985 0.128433 0.381429
O O12 0.676246 0.257843 0.522239
O O13 0.265735 0.983508 0.211961
O O14 0.424565 0.144232 0.521405
O O15 0.171507 0.151475 0.915338
O O16 0.500000 0.387177 0.750000
#
# Coordination Sequence:
#
# PCOD8139562 Si02
#       8
#     8   8   4   8   8   8   8   8
#     4  10  21  36  64  89 115 155 208 251 286 353
#     4  11  21  40  63  90 121 155 197 252 299 351
#     4  10  24  40  62  90 118 158 194 252 306 348
#     4   9  19  34  59  89 116 155 199 248 295 348
#     4  10  20  39  64  89 118 156 206 246 292 348
#     4  10  22  39  64  88 119 158 201 250 290 352
#     4  11  21  38  55  88 127 161 192 241 308 359
#     4  10  22  40  67  90 112 154 209 252 293 347
#
# _framework density 20.005022
#
# number of rings (size 3 to 8) (size 9 to 14) (size 15 to 20)
#    0.000    1.867    1.333    2.400    6.533    2.133 
#    7.200    0.000    0.000    4.000    0.000    0.000 
#    0.000    0.000    0.000    0.000    0.000    0.000 
#
# Total GULP energy -371938.409383 kJ/mol
# GULP energy per Si atom -12397.946979 kJ/mol
# Density = 1.995949 g / cm^3
# Si number density = 20.005022 Si / 1000 Ang^3
#
#
#
# Elastic Constant Matrix: (Units=GPa)
#
#
# Indices 1 2 3 4 5 6 
#
# 1 131.4175 52.6594 40.3737 0.0001 6.0099 0.0000
# 2 52.6594 100.2495 32.6536 0.0002 -10.9059 -0.0001
# 3 40.3737 32.6536 80.4929 0.0007 13.9797 -0.0002
# 4 0.0001 0.0002 0.0007 24.4758 -0.0003 -4.9560
# 5 6.0099 -10.9059 13.9797 -0.0003 27.1936 0.0001
# 6 0.0000 -0.0001 -0.0002 -4.9560 0.0001 28.4507
#
#
#
# Elastic Compliance Matrix: (Units=1/GPa)
#
#
# Indices 1 2 3 4 5 6 
#
# 1 0.010591 -0.004969 -0.002793 0.000000 -0.002897 0.000000
# 2 -0.004969 0.015505 -0.005565 0.000000 0.010177 0.000000
# 3 -0.002793 -0.005565 0.017967 -0.000001 -0.010851 0.000000
# 4 0.000000 0.000000 -0.000001 0.042350 0.000001 0.007377
# 5 -0.002897 0.010177 -0.010851 0.000001 0.047074 0.000000
# 6 0.000000 0.000000 0.000000 0.007377 0.000000 0.036434
#
#
# Mechanical properties :
#
#
# Convention : Reuss Voigt Hill
#
# Bulk Modulus (GPa) = 57.44457 62.61483 60.02970
# Shear Modulus (GPa) = 24.70630 28.45558 26.58094
#
# Velocity S-wave (km/s) = 3.51808 3.77559 3.64911
# Velocity P-wave (km/s) = 6.72903 7.09749 6.91571
#
# Compressibility (1/GPa) = 0.01740808
#
# Stress axis : x y z
#
# Youngs Moduli (GPa) = 94.42052 64.49569 55.65805
#
# Poissons Ratio (x) = 0.32045 0.15548
# Poissons Ratio (y) = 0.46913 0.30976
# Poissons Ratio (z) = 0.26376 0.35894
#
# Static dielectric constant tensor:
#      x y z
#    x 3.729610 0.000000 0.184610 
#    y 0.000000 3.572410 0.000000 
#    z 0.184610 0.000000 3.585870 
# 
# 
# High freq. dielectric constant tensor:
#      x y z
#    x 1.786960 0.000000 0.016590 
#    y 0.000000 1.777220 0.000000 
#    z 0.016590 0.000000 1.767470 
# 
# From -- ./inp_files/259381.got.cif
#   From: 2010.06.25/outbox.cif.g09.slc.cpg/sg15_130_cif.got.tgz:259381.got - 2010.06.28 07:06:18.
