data_PCOD8139762
_publ_section_title
;
Structure prediction by ZEFSAII (Michael W. Deem and Ramdas Pophale) SiO2 
 PCOD8139762
Probable space group: C 2/C
;
_chemical_formula_sum "Si O2"
_cell_formula_units_Z 56
_cell_length_a 11.476097
_cell_length_b 29.660230
_cell_length_c 9.706756
_cell_angle_alpha 90.000000
_cell_angle_beta 121.392246
_cell_angle_gamma 90.000000
_cell_volume 2820.382950
_symmetry_space_group_name_H-M "C 2/C"
_symmetry_group_IT_number 15
_symmetry_cell_setting 'monoclinic'
loop_
_space_group_symop_operation_xyz
x,y,z
-x,y,1/2-z
-x,-y,-z
x,-y,1/2+z
1/2+x,1/2+y,z
1/2-x,1/2+y,1/2-z
1/2-x,1/2-y,-z
1/2+x,1/2-y,1/2+z
loop_
_atom_site_type_symbol
_atom_site_label
_atom_site_fract_x
_atom_site_fract_y
_atom_site_fract_z
Si Si1 0.500000 0.922289 0.750000
Si Si2 0.415027 0.134115 0.945977
Si Si3 0.500000 0.929612 0.250000
Si Si4 0.088958 0.706112 0.941671
Si Si5 0.370012 0.470998 0.248156
Si Si6 0.209402 0.492854 0.888016
Si Si7 0.892204 0.133689 0.797681
Si Si8 0.894206 0.808695 0.561751
O O1 0.427456 0.891198 0.595810
O O2 0.614487 0.955438 0.755734
O O3 0.464896 0.101438 0.856446
O O4 0.510931 0.178244 0.011561
O O5 0.259269 0.150134 0.833635
O O6 0.367963 0.959986 0.137353
O O7 0.095260 0.758026 0.991759
O O8 0.000000 0.700212 0.750000
O O9 0.238866 0.684368 0.016499
O O10 0.500000 0.492135 0.250000
O O11 0.337310 0.500127 0.364195
O O12 0.397897 0.420210 0.313879
O O13 0.247779 0.473457 0.062033
O O14 0.000000 0.150614 0.750000
O O15 0.933647 0.155690 0.968514
O O16 0.000000 0.816825 0.750000
#
# Coordination Sequence:
#
# PCOD8139762 Si02
#       8
#     4   8   4   8   8   8   8   8
#     4  11  24  36  60  94 132 156 212 270 306 373
#     4  12  21  41  63  93 125 171 208 259 326 381
#     4  11  20  34  68  88 118 160 214 264 312 373
#     4  10  20  39  73  94 125 159 212 263 317 383
#     4  11  23  40  61  83 126 172 205 255 315 380
#     4  11  21  40  59  91 120 162 214 263 308 366
#     4  11  23  42  62  88 132 172 202 260 331 376
#     4  10  22  42  67 100 123 160 213 268 311 381
#
# _framework density 19.855457999999999
#
# number of rings (size 3 to 8) (size 9 to 14) (size 15 to 20)
#    0.000    1.143    5.000    1.286    0.000    3.429 
#    1.286    1.429    0.000    0.000    0.000    0.000 
#    0.000    0.000    0.000    0.000    0.000    0.000 
#
# Total GULP energy -347236.842589 kJ/mol
# GULP energy per Si atom -12401.315807 kJ/mol
# Density = 1.981027 g / cm^3
# Si number density = 19.855458 Si / 1000 Ang^3
#
#
#
# Elastic Constant Matrix: (Units=GPa)
#
#
# Indices 1 2 3 4 5 6 
#
# 1 142.5498 52.1869 41.0045 0.0000 -0.5324 0.0000
# 2 52.1869 88.4543 34.7416 0.0000 -10.3139 0.0000
# 3 41.0045 34.7416 94.1923 0.0000 -3.5162 0.0000
# 4 0.0000 0.0000 0.0000 26.9949 0.0000 0.9682
# 5 -0.5324 -10.3139 -3.5162 0.0000 32.5051 0.0000
# 6 0.0000 0.0000 0.0000 0.9682 0.0000 28.2586
#
#
#
# Elastic Compliance Matrix: (Units=1/GPa)
#
#
# Indices 1 2 3 4 5 6 
#
# 1 0.009470 -0.004835 -0.002400 0.000000 -0.001639 0.000000
# 2 -0.004835 0.016144 -0.003676 0.000000 0.004646 0.000000
# 3 -0.002400 -0.003676 0.013025 0.000000 0.000203 0.000000
# 4 0.000000 0.000000 0.000000 0.037090 0.000000 -0.001271
# 5 -0.001639 0.004646 0.000203 0.000000 0.032234 0.000000
# 6 0.000000 0.000000 0.000000 -0.001271 0.000000 0.035431
#
#
# Mechanical properties :
#
#
# Convention : Reuss Voigt Hill
#
# Bulk Modulus (GPa) = 59.47023 64.56250 62.01636
# Shear Modulus (GPa) = 29.27062 30.70263 29.98662
#
# Velocity S-wave (km/s) = 3.84368 3.93658 3.89040
# Velocity P-wave (km/s) = 7.05089 7.29719 7.17510
#
# Compressibility (1/GPa) = 0.01681514
#
# Stress axis : x y z
#
# Youngs Moduli (GPa) = 105.60163 61.94441 76.77652
#
# Poissons Ratio (x) = 0.29952 0.18427
# Poissons Ratio (y) = 0.51062 0.28223
# Poissons Ratio (z) = 0.25345 0.22770
#
# Static dielectric constant tensor:
#      x y z
#    x 3.774300 0.000000 0.276410 
#    y 0.000000 3.724300 0.000000 
#    z 0.276410 0.000000 3.288810 
# 
# 
# High freq. dielectric constant tensor:
#      x y z
#    x 1.784640 0.000000 0.012520 
#    y 0.000000 1.772410 0.000000 
#    z 0.012520 0.000000 1.764460 
# 
# From -- ./inp_files/35822.got.cif
#   From: 2010.06.25/outbox.cif.g09.slc.cpg/sg15_18_cif.got.tgz:35822.got - 2010.06.28 07:06:18.
