data_PCOD8139374
_publ_section_title
;
Structure prediction by ZEFSAII (Michael W. Deem and Ramdas Pophale) SiO2 
 PCOD8139374
Probable space group: C 2/C
;
_chemical_formula_sum "Si O2"
_cell_formula_units_Z 60
_cell_length_a 15.941688
_cell_length_b 12.057431
_cell_length_c 17.541988
_cell_angle_alpha 90.000000
_cell_angle_beta 61.546378
_cell_angle_gamma 90.000000
_cell_volume 2964.538475
_symmetry_space_group_name_H-M "C 2/C"
_symmetry_group_IT_number 15
_symmetry_cell_setting 'monoclinic'
loop_
_space_group_symop_operation_xyz
x,y,z
-x,y,1/2-z
-x,-y,-z
x,-y,1/2+z
1/2+x,1/2+y,z
1/2-x,1/2+y,1/2-z
1/2-x,1/2-y,-z
1/2+x,1/2-y,1/2+z
loop_
_atom_site_type_symbol
_atom_site_label
_atom_site_fract_x
_atom_site_fract_y
_atom_site_fract_z
Si Si1 0.913567 0.989130 0.642389
Si Si2 0.000000 0.331397 0.750000
Si Si3 0.849148 0.847620 0.296742
Si Si4 0.602381 0.397659 0.507424
Si Si5 0.673365 0.286656 0.883829
Si Si6 0.940271 0.443724 0.924860
Si Si7 0.222407 0.911888 0.013389
Si Si8 0.972138 0.327763 0.476770
O O1 0.884351 0.048324 0.732976
O O2 0.922677 0.074769 0.568998
O O3 0.829545 0.899963 0.663429
O O4 0.017602 0.932237 0.602510
O O5 0.080891 0.253896 0.749828
O O6 0.045088 0.411451 0.668187
O O7 0.745691 0.802155 0.316061
O O8 0.847306 0.883224 0.386117
O O9 0.696707 0.464372 0.493266
O O10 0.612575 0.263073 0.499607
O O11 0.704779 0.317358 0.957030
O O12 0.569843 0.235800 0.921771
O O13 0.831716 0.411727 0.995587
O O14 0.954620 0.575568 0.923550
O O15 0.019693 0.382274 0.942593
#
# Coordination Sequence:
#
# PCOD8139374 Si02
#       8
#     8   4   8   8   8   8   8   8
#     4   9  20  36  59  91 118 155 200 246 293 356
#     4  12  24  36  60  88 118 154 200 250 298 350
#     4  12  21  36  62  93 114 153 208 249 289 355
#     4   9  19  40  61  83 124 159 195 242 303 351
#     4  10  20  39  61  84 122 161 192 247 303 348
#     4  11  23  40  59  89 120 158 198 244 300 362
#     4  11  21  39  64  90 120 152 199 256 296 347
#     4  10  21  40  62  82 120 164 193 233 306 362
#
# _framework density 20.239238
#
# number of rings (size 3 to 8) (size 9 to 14) (size 15 to 20)
#    0.000    1.600    2.667    3.600    0.000    1.600 
#    2.400    2.667    0.000    0.000    0.000    0.000 
#    0.000    0.000    0.000    0.000    0.000    0.000 
#
# Total GULP energy -371892.071335 kJ/mol
# GULP energy per Si atom -12396.402378 kJ/mol
# Density = 2.019317 g / cm^3
# Si number density = 20.239238 Si / 1000 Ang^3
#
#
#
# Elastic Constant Matrix: (Units=GPa)
#
#
# Indices 1 2 3 4 5 6 
#
# 1 46.8233 15.1846 11.1339 0.0000 1.8044 0.0000
# 2 15.1846 118.9518 29.5912 0.0000 3.2320 0.0000
# 3 11.1339 29.5912 89.5807 0.0000 1.8163 0.0000
# 4 0.0000 0.0000 0.0000 -0.1923 0.0000 -1.0500
# 5 1.8044 3.2320 1.8163 0.0000 15.8326 0.0000
# 6 0.0000 0.0000 0.0000 -1.0500 0.0000 31.5172
#
#
#
# Elastic Compliance Matrix: (Units=1/GPa)
#
#
# Indices 1 2 3 4 5 6 
#
# 1 0.022666 -0.002344 -0.002005 0.000000 -0.001875 0.000000
# 2 -0.002344 0.009439 -0.002799 0.000000 -0.001339 0.000000
# 3 -0.002005 -0.002799 0.012350 0.000000 -0.000617 0.000000
# 4 0.000000 0.000000 0.000000 -4.399562 0.000000 -0.146568
# 5 -0.001875 -0.001339 -0.000617 0.000000 0.063719 0.000000
# 6 0.000000 0.000000 0.000000 -0.146568 0.000000 0.026846
#
#
# Mechanical properties :
#
#
# Convention : Reuss Voigt Hill
#
# Bulk Modulus (GPa) = 33.15862 40.79724 36.97793
# Shear Modulus (GPa) = -1.17919 22.72790 10.77435
#
# Velocity S-wave (km/s) = -0.76413 3.35470 2.30977
# Velocity P-wave (km/s) = 3.95479 5.93351 5.04217
#
# Compressibility (1/GPa) = 0.03015807
#
# Stress axis : x y z
#
# Youngs Moduli (GPa) = 44.11913 105.94644 80.97452
#
# Poissons Ratio (x) = 0.24830 0.16235
# Poissons Ratio (y) = 0.10340 0.22669
# Poissons Ratio (z) = 0.08846 0.29659
#
# Static dielectric constant tensor:
#      x y z
#    x 3.611730 0.000000 -0.097310 
#    y 0.000000 3.988540 0.000000 
#    z -0.097310 0.000000 3.565890 
# 
# 
# High freq. dielectric constant tensor:
#      x y z
#    x 1.777370 0.000000 -0.004890 
#    y 0.000000 1.805370 0.000000 
#    z -0.004890 0.000000 1.767230 
# 
# From -- ./inp_files/210624.got.cif
#   From: 2010.06.25/outbox.cif.g09.slc.cpg/sg15_106_cif.got.tgz:210624.got - 2010.06.28 07:06:18.
