data_PCOD8139893
_publ_section_title
;
Structure prediction by ZEFSAII (Michael W. Deem and Ramdas Pophale) SiO2 
 PCOD8139893
Probable space group: C 2/C
;
_chemical_formula_sum "Si O2"
_cell_formula_units_Z 48
_cell_length_a 14.305816
_cell_length_b 16.722017
_cell_length_c 12.688603
_cell_angle_alpha 90.000000
_cell_angle_beta 133.506708
_cell_angle_gamma 90.000000
_cell_volume 2201.552546
_symmetry_space_group_name_H-M "C 2/C"
_symmetry_group_IT_number 15
_symmetry_cell_setting 'monoclinic'
loop_
_space_group_symop_operation_xyz
x,y,z
-x,y,1/2-z
-x,-y,-z
x,-y,1/2+z
1/2+x,1/2+y,z
1/2-x,1/2+y,1/2-z
1/2-x,1/2-y,-z
1/2+x,1/2-y,1/2+z
loop_
_atom_site_type_symbol
_atom_site_label
_atom_site_fract_x
_atom_site_fract_y
_atom_site_fract_z
Si Si1 0.000000 0.663061 0.250000
Si Si2 0.405702 0.067958 0.473257
Si Si3 0.733317 0.423053 0.032092
Si Si4 0.244479 0.414902 0.849508
Si Si5 0.500000 0.668650 0.250000
Si Si6 0.612234 0.193502 0.699852
Si Si7 0.648030 0.741287 0.013425
O O1 0.122221 0.606423 0.328157
O O2 0.015994 0.720758 0.365319
O O3 0.327433 0.040634 0.515574
O O4 0.298926 0.091660 0.304981
O O5 0.485252 0.144594 0.571281
O O6 0.500000 0.000000 0.500000
O O7 0.703030 0.496874 0.085811
O O8 0.799368 0.352842 0.149629
O O9 0.602070 0.389356 0.883991
O O10 0.360951 0.352628 0.963210
O O11 0.430826 0.722867 0.283453
O O12 0.689628 0.211078 0.651567
O O13 0.750000 0.750000 0.000000
#
# Coordination Sequence:
#
# PCOD8139893 Si02
#       7
#     4   8   8   8   4   8   8
#     4  10  20  40  62  96 132 184 230 282 352 418
#     4  12  23  42  74 108 137 180 250 307 347 422
#     4  12  27  45  71 108 143 195 241 298 371 433
#     4  11  23  40  65  99 139 174 238 292 354 421
#     4  12  28  46  72 102 154 194 242 300 370 446
#     4  12  24  45  72 104 139 191 252 300 354 437
#     4  10  24  39  65 101 140 179 231 298 360 429
#
# _framework density 21.802797000000002
#
# number of rings (size 3 to 8) (size 9 to 14) (size 15 to 20)
#    0.000    0.667    5.000    2.500    4.667    0.667 
#    0.000    3.333    0.000    0.000    0.000    0.000 
#    0.000    0.000    0.000    0.000    0.000    0.000 
#
# Total GULP energy -297535.836774 kJ/mol
# GULP energy per Si atom -12397.326532 kJ/mol
# Density = 2.175317 g / cm^3
# Si number density = 21.802797 Si / 1000 Ang^3
#
#
#
# Elastic Constant Matrix: (Units=GPa)
#
#
# Indices 1 2 3 4 5 6 
#
# 1 71.9581 14.5703 42.8127 0.0000 -18.2291 0.0000
# 2 14.5703 106.9939 75.7796 0.0000 16.5678 0.0000
# 3 42.8127 75.7796 157.1466 0.0000 -12.8777 0.0000
# 4 0.0000 0.0000 0.0000 35.6377 0.0000 -5.5981
# 5 -18.2291 16.5678 -12.8777 0.0000 20.8582 0.0000
# 6 0.0000 0.0000 0.0000 -5.5981 0.0000 32.0845
#
#
#
# Elastic Compliance Matrix: (Units=1/GPa)
#
#
# Indices 1 2 3 4 5 6 
#
# 1 0.021419 -0.005255 -0.001501 0.000000 0.021966 0.000000
# 2 -0.005255 0.023887 -0.012659 0.000000 -0.031382 0.000000
# 3 -0.001501 -0.012659 0.014318 0.000000 0.017583 0.000000
# 4 0.000000 0.000000 0.000000 0.028851 0.000000 0.005034
# 5 0.021966 -0.031382 0.017583 0.000000 0.102923 0.000000
# 6 0.000000 0.000000 0.000000 0.005034 0.000000 0.032046
#
#
# Mechanical properties :
#
#
# Convention : Reuss Voigt Hill
#
# Bulk Modulus (GPa) = 48.09175 66.93596 57.51385
# Shear Modulus (GPa) = 18.57318 31.24516 24.90917
#
# Velocity S-wave (km/s) = 2.92185 3.78971 3.38372
# Velocity P-wave (km/s) = 5.78692 7.06516 6.45774
#
# Compressibility (1/GPa) = 0.02079359
#
# Stress axis : x y z
#
# Youngs Moduli (GPa) = 46.68778 41.86332 69.84344
#
# Poissons Ratio (x) = 0.22000 0.10484
# Poissons Ratio (y) = 0.24535 0.88414
# Poissons Ratio (z) = 0.07008 0.52995
#
# Static dielectric constant tensor:
#      x y z
#    x 3.927300 0.000000 -0.302340 
#    y 0.000000 4.173550 0.000000 
#    z -0.302340 0.000000 4.459950 
# 
# 
# High freq. dielectric constant tensor:
#      x y z
#    x 1.845710 0.000000 -0.027470 
#    y 0.000000 1.864230 0.000000 
#    z -0.027470 0.000000 1.865780 
# 
# From -- ./inp_files/162395.got.cif
#   From: 2010.06.25/outbox.cif.g09.slc.cpg/sg15_82_cif.got.tgz:162395.got - 2010.06.28 07:06:18.
