data_PCOD8139241
_publ_section_title
;
Structure prediction by ZEFSAII (Michael W. Deem and Ramdas Pophale) SiO2 
 PCOD8139241
Probable space group: C 2/C
;
_chemical_formula_sum "Si O2"
_cell_formula_units_Z 40
_cell_length_a 10.235973
_cell_length_b 24.214553
_cell_length_c 8.080875
_cell_angle_alpha 90.000000
_cell_angle_beta 62.256148
_cell_angle_gamma 90.000000
_cell_volume 1772.661024
_symmetry_space_group_name_H-M "C 2/C"
_symmetry_group_IT_number 15
_symmetry_cell_setting 'monoclinic'
loop_
_space_group_symop_operation_xyz
x,y,z
-x,y,1/2-z
-x,-y,-z
x,-y,1/2+z
1/2+x,1/2+y,z
1/2-x,1/2+y,1/2-z
1/2-x,1/2-y,-z
1/2+x,1/2-y,1/2+z
loop_
_atom_site_type_symbol
_atom_site_label
_atom_site_fract_x
_atom_site_fract_y
_atom_site_fract_z
Si Si1 0.543493 0.369562 0.033840
Si Si2 0.344743 0.719990 0.246070
Si Si3 0.661404 0.052668 0.652094
Si Si4 0.149171 0.969143 0.761780
Si Si5 0.736384 0.832303 0.115454
O O1 0.500000 0.371726 0.250000
O O2 0.396539 0.360724 0.016588
O O3 0.646401 0.316538 0.926925
O O4 0.619179 0.426192 0.928374
O O5 0.500000 0.724847 0.250000
O O6 0.290738 0.782757 0.236379
O O7 0.219913 0.693008 0.440254
O O8 0.500000 0.022885 0.750000
O O9 0.724965 0.055190 0.429646
O O10 0.630813 0.116382 0.723936
O O11 0.782782 0.024419 0.698735
O O12 0.000000 0.984490 0.750000
#
# Coordination Sequence:
#
# PCOD8139241 Si02
#       5
#     8   8   8   8   8
#     4  11  23  40  67  99 132 177 233 278 330 412
#     4   9  18  39  65  95 128 168 222 280 335 407
#     4  12  26  43  68 104 139 177 228 290 344 400
#     4  12  25  46  70  98 136 185 233 278 336 416
#     4  10  20  38  68  93 127 173 227 272 340 403
#
# _framework density 22.564943
#
# number of rings (size 3 to 8) (size 9 to 14) (size 15 to 20)
#    0.000    1.200    4.000    2.400    2.800    0.800 
#    0.000    0.000    0.000    0.000    0.000    0.000 
#    0.000    0.000    0.000    0.000    0.000    0.000 
#
# Total GULP energy -247809.817987 kJ/mol
# GULP energy per Si atom -12390.490899 kJ/mol
# Density = 2.251358 g / cm^3
# Si number density = 22.564943 Si / 1000 Ang^3
#
#
#
# Elastic Constant Matrix: (Units=GPa)
#
#
# Indices 1 2 3 4 5 6 
#
# 1 66.7963 47.4898 43.6844 0.0000 -16.0617 0.0000
# 2 47.4898 187.9936 67.5026 0.0000 6.8967 0.0000
# 3 43.6844 67.5026 141.8139 0.0000 4.0511 0.0000
# 4 0.0000 0.0000 0.0000 32.3708 0.0000 -6.0539
# 5 -16.0617 6.8967 4.0511 0.0000 29.6689 0.0000
# 6 0.0000 0.0000 0.0000 -6.0539 0.0000 19.1941
#
#
#
# Elastic Compliance Matrix: (Units=1/GPa)
#
#
# Indices 1 2 3 4 5 6 
#
# 1 0.026633 -0.005086 -0.006253 0.000000 0.016454 0.000000
# 2 -0.005086 0.007422 -0.001845 0.000000 -0.004227 0.000000
# 3 -0.006253 -0.001845 0.009979 0.000000 -0.004319 0.000000
# 4 0.000000 0.000000 0.000000 0.032828 0.000000 0.010354
# 5 0.016454 -0.004227 -0.004319 0.000000 0.044185 0.000000
# 6 0.000000 0.000000 0.000000 0.010354 0.000000 0.055365
#
#
# Mechanical properties :
#
#
# Convention : Reuss Voigt Hill
#
# Bulk Modulus (GPa) = 56.60855 79.32861 67.96858
# Shear Modulus (GPa) = 23.96117 32.10855 28.03486
#
# Velocity S-wave (km/s) = 3.26218 3.77628 3.52860
# Velocity P-wave (km/s) = 6.27140 7.36517 6.84018
#
# Compressibility (1/GPa) = 0.01766518
#
# Stress axis : x y z
#
# Youngs Moduli (GPa) = 37.54725 134.73790 100.20646
#
# Poissons Ratio (x) = 0.68531 0.62660
# Poissons Ratio (y) = 0.19097 0.18490
# Poissons Ratio (z) = 0.23479 0.24862
#
# Static dielectric constant tensor:
#      x y z
#    x 3.762510 0.000000 -0.313840 
#    y 0.000000 4.472920 0.000000 
#    z -0.313840 0.000000 4.221820 
# 
# 
# High freq. dielectric constant tensor:
#      x y z
#    x 1.845520 0.000000 -0.027260 
#    y 0.000000 1.912270 0.000000 
#    z -0.027260 0.000000 1.889570 
# 
# From -- ./inp_files/31756.got.cif
#   From: 2010.06.25/outbox.cif.g09.slc.cpg/sg15_16_cif.got.tgz:31756.got - 2010.06.28 07:06:18.
