data_PCOD8139822
_publ_section_title
;
Structure prediction by ZEFSAII (Michael W. Deem and Ramdas Pophale) SiO2 
 PCOD8139822
Probable space group: C 2/C
;
_chemical_formula_sum "Si O2"
_cell_formula_units_Z 56
_cell_length_a 9.117676
_cell_length_b 12.552446
_cell_length_c 28.876100
_cell_angle_alpha 90.000000
_cell_angle_beta 58.368782
_cell_angle_gamma 90.000000
_cell_volume 2813.881290
_symmetry_space_group_name_H-M "C 2/C"
_symmetry_group_IT_number 15
_symmetry_cell_setting 'monoclinic'
loop_
_space_group_symop_operation_xyz
x,y,z
-x,y,1/2-z
-x,-y,-z
x,-y,1/2+z
1/2+x,1/2+y,z
1/2-x,1/2+y,1/2-z
1/2-x,1/2-y,-z
1/2+x,1/2-y,1/2+z
loop_
_atom_site_type_symbol
_atom_site_label
_atom_site_fract_x
_atom_site_fract_y
_atom_site_fract_z
Si Si1 0.276684 0.011667 0.120958
Si Si2 0.533674 0.655820 0.294034
Si Si3 0.430742 0.868339 0.169075
Si Si4 0.277586 0.480022 0.114409
Si Si5 0.641683 0.385775 0.056834
Si Si6 0.127950 0.358297 0.570768
Si Si7 0.679444 0.986984 0.732444
O O1 0.305871 0.910699 0.149802
O O2 0.235234 0.963734 0.077622
O O3 0.116147 0.078220 0.165248
O O4 0.441471 0.088923 0.094132
O O5 0.500000 0.711437 0.250000
O O6 0.571878 0.740804 0.328029
O O7 0.706819 0.589854 0.255145
O O8 0.368918 0.909702 0.229494
O O9 0.627431 0.898675 0.124845
O O10 0.462179 0.435522 0.068285
O O11 0.231457 0.592200 0.097364
O O12 0.286703 0.487727 0.168482
O O13 0.607641 0.268012 0.083490
O O14 0.765575 0.379906 0.992828
O O15 0.500000 0.927841 0.750000
#
# Coordination Sequence:
#
# PCOD8139822 Si02
#       7
#     8   8   8   8   8   8   8
#     4  11  23  41  62  90 121 157 202 246 294 358
#     4  12  22  40  62  89 123 161 198 240 298 356
#     4  10  23  40  59  89 126 157 198 245 294 356
#     4  10  20  40  61  83 122 160 195 243 298 353
#     4  11  22  40  64  89 118 157 204 248 301 352
#     4  10  24  40  61  91 120 156 200 252 302 349
#     4  10  21  40  56  89 121 155 199 242 291 356
#
# _framework density 19.901336000000001
#
# number of rings (size 3 to 8) (size 9 to 14) (size 15 to 20)
#    0.000    1.429    2.857    3.000    2.000    0.000 
#    2.571    0.000    0.000    9.429    0.000    0.000 
#    0.000    0.000    0.000    0.000    0.000    0.000 
#
# Total GULP energy -347144.565544 kJ/mol
# GULP energy per Si atom -12398.020198 kJ/mol
# Density = 1.985604 g / cm^3
# Si number density = 19.901336 Si / 1000 Ang^3
#
#
#
# Elastic Constant Matrix: (Units=GPa)
#
#
# Indices 1 2 3 4 5 6 
#
# 1 101.9029 48.8678 30.1276 -0.0001 -14.1205 0.0000
# 2 48.8678 70.7108 3.8576 -0.0001 -8.8785 0.0000
# 3 30.1276 3.8576 55.6988 -0.0001 -0.5772 0.0000
# 4 -0.0001 -0.0001 -0.0001 188.6667 0.0000 -15.6359
# 5 -14.1205 -8.8785 -0.5772 0.0000 31.9604 0.0000
# 6 0.0000 0.0000 0.0000 -15.6359 0.0000 34.5967
#
#
#
# Elastic Compliance Matrix: (Units=1/GPa)
#
#
# Indices 1 2 3 4 5 6 
#
# 1 0.019049 -0.012035 -0.009419 0.000000 0.004903 0.000000
# 2 -0.012035 0.022310 0.004975 0.000000 0.000970 0.000000
# 3 -0.009419 0.004975 0.022679 0.000000 -0.002370 0.000000
# 4 0.000000 0.000000 0.000000 0.005507 0.000000 0.002489
# 5 0.004903 0.000970 -0.002370 0.000000 0.033681 0.000000
# 6 0.000000 0.000000 0.000000 0.002489 0.000000 0.030029
#
#
# Mechanical properties :
#
#
# Convention : Reuss Voigt Hill
#
# Bulk Modulus (GPa) = 32.17605 43.77985 37.97795
# Shear Modulus (GPa) = 28.31665 60.74206 44.52936
#
# Velocity S-wave (km/s) = 3.77616 5.53063 4.73536
# Velocity P-wave (km/s) = 5.93426 7.92654 7.00162
#
# Compressibility (1/GPa) = 0.03107902
#
# Stress axis : x y z
#
# Youngs Moduli (GPa) = 52.49648 44.82303 44.09271
#
# Poissons Ratio (x) = 0.53945 0.41532
# Poissons Ratio (y) = 0.63180 -0.21935
# Poissons Ratio (z) = 0.49448 -0.22298
#
# Static dielectric constant tensor:
#      x y z
#    x 3.852250 0.000000 -0.002480 
#    y 0.000000 3.559960 0.000000 
#    z -0.002480 0.000000 3.564260 
# 
# 
# High freq. dielectric constant tensor:
#      x y z
#    x 1.791360 0.000000 -0.004700 
#    y 0.000000 1.768960 0.000000 
#    z -0.004700 0.000000 1.777490 
# 
# From -- ./inp_files/287943.got.cif
#   From: 2010.06.25/outbox.cif.g09.slc.cpg/sg15_144_cif.got.tgz:287943.got - 2010.06.28 07:06:18.
