data_PCOD8139211
_publ_section_title
;
Structure prediction by ZEFSAII (Michael W. Deem and Ramdas Pophale) SiO2 
 PCOD8139211
Probable space group: C 2/C
;
_chemical_formula_sum "Si O2"
_cell_formula_units_Z 40
_cell_length_a 7.862592
_cell_length_b 12.325151
_cell_length_c 18.823038
_cell_angle_alpha 90.000000
_cell_angle_beta 124.377696
_cell_angle_gamma 90.000000
_cell_volume 1505.487348
_symmetry_space_group_name_H-M "C 2/C"
_symmetry_group_IT_number 15
_symmetry_cell_setting 'monoclinic'
loop_
_space_group_symop_operation_xyz
x,y,z
-x,y,1/2-z
-x,-y,-z
x,-y,1/2+z
1/2+x,1/2+y,z
1/2-x,1/2+y,1/2-z
1/2-x,1/2-y,-z
1/2+x,1/2-y,1/2+z
loop_
_atom_site_type_symbol
_atom_site_label
_atom_site_fract_x
_atom_site_fract_y
_atom_site_fract_z
Si Si1 0.229827 0.202075 0.276295
Si Si2 0.340492 0.122963 0.523923
Si Si3 0.374961 0.643931 0.401569
Si Si4 0.085142 0.624101 0.452876
Si Si5 0.302815 0.080087 0.666497
O O1 0.245399 0.189427 0.194977
O O2 0.386015 0.119935 0.353155
O O3 0.299679 0.326159 0.309718
O O4 0.000000 0.176463 0.250000
O O5 0.512601 0.177174 0.511590
O O6 0.393743 0.142910 0.618614
O O7 0.115877 0.176567 0.454577
O O8 0.334357 0.994878 0.507974
O O9 0.267470 0.683833 0.451011
O O10 0.360135 0.511600 0.394440
O O11 0.500000 0.024842 0.750000
#
# Coordination Sequence:
#
# PCOD8139211 Si02
#       5
#     8   8   8   8   8
#     4  11  22  40  64  94 130 173 208 258 322 382
#     4  10  21  40  70  96 122 170 215 262 323 381
#     4  11  21  43  71  91 130 170 213 266 317 381
#     4  10  20  38  67  95 126 163 211 260 323 368
#     4  10  22  40  66  95 127 172 212 259 327 381
#
# _framework density 26.569469999999999
#
# number of rings (size 3 to 8) (size 9 to 14) (size 15 to 20)
#    0.000    1.600    2.000    5.400    0.000    0.800 
#    0.000    6.000   30.800    0.000    0.000    0.000 
#    0.000    0.000    0.000    0.000    0.000    0.000 
#
# Total GULP energy -247894.413607 kJ/mol
# GULP energy per Si atom -12394.720680 kJ/mol
# Density = 2.650900 g / cm^3
# Si number density = 26.569470 Si / 1000 Ang^3
#
#
#
# Elastic Constant Matrix: (Units=GPa)
#
#
# Indices 1 2 3 4 5 6 
#
# 1 175.1566 53.4683 58.9617 0.0000 -25.2249 0.0000
# 2 53.4683 72.1435 3.7041 0.0000 -14.6431 0.0000
# 3 58.9617 3.7041 96.6289 0.0000 -27.8515 0.0000
# 4 0.0000 0.0000 0.0000 10.4066 0.0000 10.3125
# 5 -25.2249 -14.6431 -27.8515 0.0000 65.3434 0.0000
# 6 0.0000 0.0000 0.0000 10.3125 0.0000 44.7111
#
#
#
# Elastic Compliance Matrix: (Units=1/GPa)
#
#
# Indices 1 2 3 4 5 6 
#
# 1 0.009735 -0.006971 -0.005746 0.000000 -0.000253 0.000000
# 2 -0.006971 0.019530 0.004550 0.000000 0.003625 0.000000
# 3 -0.005746 0.004550 0.015203 0.000000 0.005281 0.000000
# 4 0.000000 0.000000 0.000000 0.124563 0.000000 -0.028730
# 5 -0.000253 0.003625 0.005281 0.000000 0.018269 0.000000
# 6 0.000000 0.000000 0.000000 -0.028730 0.000000 0.028992
#
#
# Mechanical properties :
#
#
# Convention : Reuss Voigt Hill
#
# Bulk Modulus (GPa) = 35.54516 64.02192 49.78354
# Shear Modulus (GPa) = 20.66074 39.27857 29.96965
#
# Velocity S-wave (km/s) = 2.79159 3.84908 3.36217
# Velocity P-wave (km/s) = 4.87831 6.62588 5.81808
#
# Compressibility (1/GPa) = 0.02813323
#
# Stress axis : x y z
#
# Youngs Moduli (GPa) = 102.72221 51.20298 65.77724
#
# Poissons Ratio (x) = 0.35696 0.37795
# Poissons Ratio (y) = 0.71611 -0.29928
# Poissons Ratio (z) = 0.59024 -0.23297
#
# Static dielectric constant tensor:
#      x y z
#    x 5.066820 0.000000 -0.433410 
#    y 0.000000 4.685450 0.000000 
#    z -0.433410 0.000000 4.888480 
# 
# 
# High freq. dielectric constant tensor:
#      x y z
#    x 2.066860 0.000000 -0.018660 
#    y 0.000000 2.086550 0.000000 
#    z -0.018660 0.000000 2.072820 
# 
# From -- ./inp_files/189060.got.cif
#   From: 2010.06.25/outbox.cif.g09.slc.cpg/sg15_95_cif.got.tgz:189060.got - 2010.06.28 07:06:18.
