data_PCOD8139820
_publ_section_title
;
Structure prediction by ZEFSAII (Michael W. Deem and Ramdas Pophale) SiO2 
 PCOD8139820
Probable space group: C 2/C
;
_chemical_formula_sum "Si O2"
_cell_formula_units_Z 56
_cell_length_a 16.145106
_cell_length_b 8.833993
_cell_length_c 20.738292
_cell_angle_alpha 90.000000
_cell_angle_beta 105.964608
_cell_angle_gamma 90.000000
_cell_volume 2843.736866
_symmetry_space_group_name_H-M "C 2/C"
_symmetry_group_IT_number 15
_symmetry_cell_setting 'monoclinic'
loop_
_space_group_symop_operation_xyz
x,y,z
-x,y,1/2-z
-x,-y,-z
x,-y,1/2+z
1/2+x,1/2+y,z
1/2-x,1/2+y,1/2-z
1/2-x,1/2-y,-z
1/2+x,1/2-y,1/2+z
loop_
_atom_site_type_symbol
_atom_site_label
_atom_site_fract_x
_atom_site_fract_y
_atom_site_fract_z
Si Si1 0.012234 0.304854 0.569688
Si Si2 0.302491 0.788230 0.835341
Si Si3 0.547199 0.360339 0.698336
Si Si4 0.685144 0.284597 0.930079
Si Si5 0.903460 0.079867 0.623727
Si Si6 0.009868 0.656111 0.922181
Si Si7 0.799156 0.947350 0.223691
O O1 0.103538 0.247665 0.616787
O O2 0.003243 0.269839 0.491867
O O3 0.931013 0.224257 0.586846
O O4 0.013316 0.481992 0.582544
O O5 0.230070 0.752000 0.872270
O O6 0.290447 0.966201 0.813639
O O7 0.281220 0.682948 0.770382
O O8 0.500000 0.282179 0.750000
O O9 0.491405 0.506841 0.667731
O O10 0.554053 0.244005 0.640074
O O11 0.642036 0.416769 0.735759
O O12 0.650420 0.457064 0.929347
O O13 0.606642 0.168621 0.917087
O O14 0.750000 0.250000 0.000000
O O15 0.844359 0.131218 0.671296
#
# Coordination Sequence:
#
# PCOD8139820 Si02
#       7
#     8   8   8   8   8   8   8
#     4  11  22  40  61  90 119 157 199 253 296 351
#     4  11  23  38  62  85 123 155 199 249 296 352
#     4   9  18  38  59  84 116 156 198 240 290 361
#     4  10  20  40  61  83 118 158 194 242 298 357
#     4   9  20  38  61  83 117 158 198 246 292 358
#     4  10  23  38  62  88 123 153 201 243 303 354
#     4  10  22  38  57  89 122 156 200 247 306 347
#
# _framework density 19.692399999999999
#
# number of rings (size 3 to 8) (size 9 to 14) (size 15 to 20)
#    0.000    2.000    2.857    0.857    2.000    4.571 
#    2.571    0.714    0.000    0.000    0.000    0.000 
#    0.000    0.000    0.000    0.000    0.000    0.000 
#
# Total GULP energy -347148.298593 kJ/mol
# GULP energy per Si atom -12398.153521 kJ/mol
# Density = 1.964758 g / cm^3
# Si number density = 19.692400 Si / 1000 Ang^3
#
#
#
# Elastic Constant Matrix: (Units=GPa)
#
#
# Indices 1 2 3 4 5 6 
#
# 1 77.0682 26.5603 34.7189 0.0000 -13.9444 0.0000
# 2 26.5603 51.3252 45.2428 0.0000 -21.4479 0.0000
# 3 34.7189 45.2428 118.3892 0.0000 -22.6682 0.0000
# 4 0.0000 0.0000 0.0000 33.2705 0.0000 -10.4322
# 5 -13.9444 -21.4479 -22.6682 0.0000 32.9116 0.0000
# 6 0.0000 0.0000 0.0000 -10.4322 0.0000 26.9136
#
#
#
# Elastic Compliance Matrix: (Units=1/GPa)
#
#
# Indices 1 2 3 4 5 6 
#
# 1 0.016268 -0.005761 -0.002267 0.000000 0.001577 0.000000
# 2 -0.005761 0.037358 -0.009668 0.000000 0.015246 0.000000
# 3 -0.002267 -0.009668 0.013150 0.000000 0.001796 0.000000
# 4 0.000000 0.000000 0.000000 0.034215 0.000000 0.013262
# 5 0.001577 0.015246 0.001796 0.000000 0.042225 0.000000
# 6 0.000000 0.000000 0.000000 0.013262 0.000000 0.042297
#
#
# Mechanical properties :
#
#
# Convention : Reuss Voigt Hill
#
# Bulk Modulus (GPa) = 31.86373 51.09184 41.47779
# Shear Modulus (GPa) = 21.61078 27.96982 24.79030
#
# Velocity S-wave (km/s) = 3.31632 3.77282 3.55191
# Velocity P-wave (km/s) = 5.55696 6.70673 6.15874
#
# Compressibility (1/GPa) = 0.03138365
#
# Stress axis : x y z
#
# Youngs Moduli (GPa) = 61.47199 26.76808 76.04475
#
# Poissons Ratio (x) = 0.15421 0.17241
# Poissons Ratio (y) = 0.35414 0.73519
# Poissons Ratio (z) = 0.13937 0.25879
#
# Static dielectric constant tensor:
#      x y z
#    x 3.593740 0.000000 -0.009740 
#    y 0.000000 3.278340 0.000000 
#    z -0.009740 0.000000 3.883120 
# 
# 
# High freq. dielectric constant tensor:
#      x y z
#    x 1.768270 0.000000 -0.001190 
#    y 0.000000 1.745230 0.000000 
#    z -0.001190 0.000000 1.780890 
# 
# From -- ./inp_files/247007.got.cif
#   From: 2010.06.25/outbox.cif.g09.slc.cpg/sg15_124_cif.got.tgz:247007.got - 2010.06.28 07:06:18.
