data_PCOD8139005
_publ_section_title
;
Structure prediction by ZEFSAII (Michael W. Deem and Ramdas Pophale) SiO2 
 PCOD8139005
Probable space group: C 2/C
;
_chemical_formula_sum "Si O2"
_cell_formula_units_Z 56
_cell_length_a 15.120317
_cell_length_b 8.993151
_cell_length_c 25.192463
_cell_angle_alpha 90.000000
_cell_angle_beta 117.559805
_cell_angle_gamma 90.000000
_cell_volume 3036.938897
_symmetry_space_group_name_H-M "C 2/C"
_symmetry_group_IT_number 15
_symmetry_cell_setting 'monoclinic'
loop_
_space_group_symop_operation_xyz
x,y,z
-x,y,1/2-z
-x,-y,-z
x,-y,1/2+z
1/2+x,1/2+y,z
1/2-x,1/2+y,1/2-z
1/2-x,1/2-y,-z
1/2+x,1/2-y,1/2+z
loop_
_atom_site_type_symbol
_atom_site_label
_atom_site_fract_x
_atom_site_fract_y
_atom_site_fract_z
Si Si1 0.924162 0.264427 0.375449
Si Si2 0.391830 0.632479 0.694376
Si Si3 0.292858 0.028496 0.306612
Si Si4 0.605728 0.395611 0.892137
Si Si5 0.775511 0.779557 0.382584
Si Si6 0.443190 0.637302 0.007667
Si Si7 0.275194 0.915770 0.680397
O O1 0.885023 0.429260 0.353222
O O2 0.835164 0.147763 0.348893
O O3 0.005391 0.204416 0.354744
O O4 0.976606 0.259535 0.448342
O O5 0.500000 0.633224 0.750000
O O6 0.313839 0.547029 0.710997
O O7 0.400701 0.553029 0.639813
O O8 0.352791 0.800570 0.675215
O O9 0.299274 0.190145 0.335311
O O10 0.310180 0.047678 0.249362
O O11 0.700431 0.308146 0.898375
O O12 0.620682 0.423296 0.959401
O O13 0.876811 0.791722 0.443633
O O14 0.725651 0.936498 0.355020
O O15 0.500000 0.500000 0.000000
#
# Coordination Sequence:
#
# PCOD8139005 Si02
#       7
#     8   8   8   8   8   8   8
#     4   9  20  38  58  82 112 150 197 226 292 347
#     4  10  21  37  57  82 120 153 191 240 296 348
#     4  10  22  37  60  87 117 153 195 242 290 358
#     4   9  21  37  58  84 113 147 191 242 291 338
#     4  11  20  37  60  86 116 150 188 247 293 333
#     4  10  20  38  64  80 114 155 197 236 288 358
#     4  11  21  36  58  85 117 151 194 230 290 357
#
# _framework density 18.439622
#
# number of rings (size 3 to 8) (size 9 to 14) (size 15 to 20)
#    0.857    1.143    1.429    3.000    0.000    4.000 
#    0.000    1.429    0.000    0.000    0.000    0.000 
#    0.000    0.000    0.000    0.000    0.000    0.000 
#
# Total GULP energy -347076.869420 kJ/mol
# GULP energy per Si atom -12395.602479 kJ/mol
# Density = 1.839765 g / cm^3
# Si number density = 18.439622 Si / 1000 Ang^3
#
#
#
# Elastic Constant Matrix: (Units=GPa)
#
#
# Indices 1 2 3 4 5 6 
#
# 1 55.1058 22.0096 22.0484 0.0000 16.0683 0.0000
# 2 22.0096 111.5600 44.0702 0.0000 14.3525 0.0000
# 3 22.0484 44.0702 106.3112 0.0000 21.1940 0.0000
# 4 0.0000 0.0000 0.0000 23.8111 0.0000 -1.7672
# 5 16.0683 14.3525 21.1940 0.0000 29.0772 0.0000
# 6 0.0000 0.0000 0.0000 -1.7672 0.0000 21.4251
#
#
#
# Elastic Compliance Matrix: (Units=1/GPa)
#
#
# Indices 1 2 3 4 5 6 
#
# 1 0.022775 -0.002537 -0.001652 0.000000 -0.010129 0.000000
# 2 -0.002537 0.011147 -0.003834 0.000000 -0.001305 0.000000
# 3 -0.001652 -0.003834 0.012612 0.000000 -0.006387 0.000000
# 4 0.000000 0.000000 0.000000 0.042256 0.000000 0.003485
# 5 -0.010129 -0.001305 -0.006387 0.000000 0.045288 0.000000
# 6 0.000000 0.000000 0.000000 0.003485 0.000000 0.046962
#
#
# Mechanical properties :
#
#
# Convention : Reuss Voigt Hill
#
# Bulk Modulus (GPa) = 32.80255 49.91483 41.35869
# Shear Modulus (GPa) = 24.12550 27.18592 25.65571
#
# Velocity S-wave (km/s) = 3.62104 3.84385 3.73411
# Velocity P-wave (km/s) = 5.94225 6.84313 6.40854
#
# Compressibility (1/GPa) = 0.03048543
#
# Stress axis : x y z
#
# Youngs Moduli (GPa) = 43.90794 89.70981 79.29066
#
# Poissons Ratio (x) = 0.22763 0.13101
# Poissons Ratio (y) = 0.11141 0.30404
# Poissons Ratio (z) = 0.07255 0.34399
#
# Static dielectric constant tensor:
#      x y z
#    x 3.389750 0.000000 0.105440 
#    y 0.000000 3.457180 0.000000 
#    z 0.105440 0.000000 3.661780 
# 
# 
# High freq. dielectric constant tensor:
#      x y z
#    x 1.713990 0.000000 0.006820 
#    y 0.000000 1.713700 0.000000 
#    z 0.006820 0.000000 1.715080 
# 
# From -- ./inp_files/295248.got.cif
#   From: 2010.06.25/outbox.cif.g09.slc.cpg/sg15_148_cif.got.tgz:295248.got - 2010.06.28 07:06:18.
