data_PCOD8139805
_publ_section_title
;
Structure prediction by ZEFSAII (Michael W. Deem and Ramdas Pophale) SiO2 
 PCOD8139805
Probable space group: C 2/C
;
_chemical_formula_sum "Si O2"
_cell_formula_units_Z 60
_cell_length_a 11.797306
_cell_length_b 11.324623
_cell_length_c 21.014826
_cell_angle_alpha 90.000000
_cell_angle_beta 83.772748
_cell_angle_gamma 90.000000
_cell_volume 2791.015471
_symmetry_space_group_name_H-M "C 2/C"
_symmetry_group_IT_number 15
_symmetry_cell_setting 'monoclinic'
loop_
_space_group_symop_operation_xyz
x,y,z
-x,y,1/2-z
-x,-y,-z
x,-y,1/2+z
1/2+x,1/2+y,z
1/2-x,1/2+y,1/2-z
1/2-x,1/2-y,-z
1/2+x,1/2-y,1/2+z
loop_
_atom_site_type_symbol
_atom_site_label
_atom_site_fract_x
_atom_site_fract_y
_atom_site_fract_z
Si Si1 0.495741 0.371254 0.970709
Si Si2 0.333090 0.429232 0.643079
Si Si3 0.960380 0.699701 0.079858
Si Si4 0.808764 0.234915 0.404502
Si Si5 0.901748 0.505373 0.883690
Si Si6 0.309921 0.267402 0.759860
Si Si7 0.922463 0.841570 0.197857
Si Si8 0.000000 0.588828 0.750000
O O1 0.584069 0.355254 0.907484
O O2 0.369543 0.352571 0.949882
O O3 0.500000 0.500000 0.000000
O O4 0.526377 0.274170 0.022079
O O5 0.211467 0.427152 0.616290
O O6 0.327069 0.379311 0.714445
O O7 0.377916 0.561880 0.650236
O O8 0.825298 0.716540 0.074488
O O9 0.989343 0.748692 0.148927
O O10 0.009187 0.564607 0.075391
O O11 0.861919 0.366662 0.412983
O O12 0.837631 0.196064 0.330714
O O13 0.960604 0.509970 0.811185
O O14 0.182616 0.220169 0.760847
O O15 0.395315 0.166643 0.730981
O O16 0.000000 0.892560 0.250000
#
# Coordination Sequence:
#
# PCOD8139805 Si02
#       8
#     8   8   8   8   8   8   8   4
#     4  12  25  45  68  95 140 184 230 280 339 416
#     4  12  23  41  66  99 137 175 221 286 335 413
#     4  11  24  44  70  98 130 188 226 277 348 406
#     4  10  23  46  69  99 135 176 233 287 346 412
#     4  11  23  42  68  98 136 172 227 287 338 414
#     4  10  22  39  64  98 130 173 214 282 350 390
#     4  11  23  40  63 101 136 168 226 274 345 416
#     4  10  20  40  60  90 130 168 212 276 342 402
#
# _framework density 21.497551999999999
#
# number of rings (size 3 to 8) (size 9 to 14) (size 15 to 20)
#    0.000    1.067    5.333    2.800    7.467    1.067 
#    0.000    1.333    0.000    0.000    0.000    0.000 
#    0.000    0.000    0.000    0.000    0.000    0.000 
#
# Total GULP energy -371960.663501 kJ/mol
# GULP energy per Si atom -12398.688783 kJ/mol
# Density = 2.144862 g / cm^3
# Si number density = 21.497552 Si / 1000 Ang^3
#
#
#
# Elastic Constant Matrix: (Units=GPa)
#
#
# Indices 1 2 3 4 5 6 
#
# 1 80.8355 49.1849 59.6733 0.0000 16.3134 0.0000
# 2 49.1849 107.9553 46.4951 0.0000 11.8151 0.0000
# 3 59.6733 46.4951 79.4395 0.0000 -3.2031 0.0000
# 4 0.0000 0.0000 0.0000 40.2527 0.0000 8.1702
# 5 16.3134 11.8151 -3.2031 0.0000 25.7242 0.0000
# 6 0.0000 0.0000 0.0000 8.1702 0.0000 34.6978
#
#
#
# Elastic Compliance Matrix: (Units=1/GPa)
#
#
# Indices 1 2 3 4 5 6 
#
# 1 0.045303 -0.002620 -0.033777 0.000000 -0.031732 0.000000
# 2 -0.002620 0.013772 -0.006312 0.000000 -0.005450 0.000000
# 3 -0.033777 -0.006312 0.042850 0.000000 0.029655 0.000000
# 4 0.000000 0.000000 0.000000 0.026090 0.000000 -0.006143
# 5 -0.031732 -0.005450 0.029655 0.000000 0.065193 0.000000
# 6 0.000000 0.000000 0.000000 -0.006143 0.000000 0.030267
#
#
# Mechanical properties :
#
#
# Convention : Reuss Voigt Hill
#
# Bulk Modulus (GPa) = 60.57740 64.32631 62.45185
# Shear Modulus (GPa) = 15.90357 27.66008 21.78183
#
# Velocity S-wave (km/s) = 2.72285 3.59090 3.18657
# Velocity P-wave (km/s) = 6.17456 6.86879 6.53091
#
# Compressibility (1/GPa) = 0.01650781
#
# Stress axis : x y z
#
# Youngs Moduli (GPa) = 22.07360 72.61221 23.33696
#
# Poissons Ratio (x) = 0.19026 0.78824
# Poissons Ratio (y) = 0.05784 0.14730
# Poissons Ratio (z) = 0.74557 0.45833
#
# Static dielectric constant tensor:
#      x y z
#    x 3.984340 0.000000 -0.130450 
#    y 0.000000 3.728350 0.000000 
#    z -0.130450 0.000000 3.970970 
# 
# 
# High freq. dielectric constant tensor:
#      x y z
#    x 1.846460 0.000000 -0.008060 
#    y 0.000000 1.832110 0.000000 
#    z -0.008060 0.000000 1.849990 
# 
# From -- ./inp_files/237605.got.cif
#   From: 2010.06.25/outbox.cif.g09.slc.cpg/sg15_119_cif.got.tgz:237605.got - 2010.06.28 07:06:18.
