data_PCOD8139925
_publ_section_title
;
Structure prediction by ZEFSAII (Michael W. Deem and Ramdas Pophale) SiO2 
 PCOD8139925
Probable space group: C 2/C
;
_chemical_formula_sum "Si O2"
_cell_formula_units_Z 56
_cell_length_a 8.188452
_cell_length_b 19.732457
_cell_length_c 25.969449
_cell_angle_alpha 90.000000
_cell_angle_beta 35.813087
_cell_angle_gamma 90.000000
_cell_volume 2455.317501
_symmetry_space_group_name_H-M "C 2/C"
_symmetry_group_IT_number 15
_symmetry_cell_setting 'monoclinic'
loop_
_space_group_symop_operation_xyz
x,y,z
-x,y,1/2-z
-x,-y,-z
x,-y,1/2+z
1/2+x,1/2+y,z
1/2-x,1/2+y,1/2-z
1/2-x,1/2-y,-z
1/2+x,1/2-y,1/2+z
loop_
_atom_site_type_symbol
_atom_site_label
_atom_site_fract_x
_atom_site_fract_y
_atom_site_fract_z
Si Si1 0.485311 0.292403 0.623105
Si Si2 0.138996 0.736176 0.951125
Si Si3 0.409523 0.555988 0.385559
Si Si4 0.739034 0.538313 0.730887
Si Si5 0.400964 0.980833 0.946694
Si Si6 0.474165 0.822200 0.198961
Si Si7 0.902320 0.847918 0.463293
O O1 0.309952 0.265466 0.618795
O O2 0.437063 0.371619 0.647311
O O3 0.361493 0.244532 0.699217
O O4 0.816392 0.283746 0.535423
O O5 0.320270 0.669813 0.923878
O O6 0.250838 0.793772 0.961185
O O7 0.654585 0.505220 0.303203
O O8 0.254611 0.537184 0.478644
O O9 0.171486 0.554136 0.403051
O O10 0.500000 0.539103 0.750000
O O11 0.016840 0.510924 0.630446
O O12 0.771728 0.614256 0.743192
O O13 0.178812 0.921863 0.997218
O O14 0.500000 0.798115 0.250000
O O15 0.777026 0.844567 0.102902
#
# Coordination Sequence:
#
# PCOD8139925 Si02
#       7
#     8   8   8   8   8   8   8
#     4  10  21  39  67  95 127 170 223 272 327 397
#     4   9  20  37  64  97 126 161 221 270 324 399
#     4  10  21  40  65  98 131 169 220 278 323 398
#     4  10  24  44  66  94 131 172 229 276 330 413
#     4  10  21  37  69  93 126 181 215 260 348 386
#     4  11  25  41  63  93 129 177 214 279 340 395
#     4  10  20  40  63  93 131 169 214 270 329 409
#
# _framework density 22.807639999999999
#
# number of rings (size 3 to 8) (size 9 to 14) (size 15 to 20)
#    0.000    2.000    1.429    0.857    6.000    4.571 
#    2.571    0.000    0.000    0.000    0.000    0.000 
#    0.000    0.000    0.000    0.000    0.000    0.000 
#
# Total GULP energy -346970.088665 kJ/mol
# GULP energy per Si atom -12391.788881 kJ/mol
# Density = 2.275573 g / cm^3
# Si number density = 22.807640 Si / 1000 Ang^3
#
#
#
# Elastic Constant Matrix: (Units=GPa)
#
#
# Indices 1 2 3 4 5 6 
#
# 1 65.7170 37.2355 18.7840 -0.1533 19.2671 0.1980
# 2 37.2355 153.1042 47.9953 0.1102 11.8211 -0.0783
# 3 18.7840 47.9953 91.4518 0.3287 23.0573 -0.3327
# 4 -0.1533 0.1102 0.3287 34.4781 0.1224 -0.6894
# 5 19.2671 11.8211 23.0573 0.1224 32.8762 -0.3329
# 6 0.1980 -0.0783 -0.3327 -0.6894 -0.3329 8.0191
#
#
#
# Elastic Compliance Matrix: (Units=1/GPa)
#
#
# Indices 1 2 3 4 5 6 
#
# 1 0.020784 -0.004472 0.000902 0.000118 -0.011215 -0.000975
# 2 -0.004472 0.008780 -0.004318 -0.000013 0.002493 0.000119
# 3 0.000902 -0.004318 0.015498 -0.000092 -0.009843 0.000162
# 4 0.000118 -0.000013 -0.000092 0.029055 -0.000083 0.002487
# 5 -0.011215 0.002493 -0.009843 -0.000083 0.043014 0.001671
# 6 -0.000975 0.000119 0.000162 0.002487 0.001671 0.125017
#
#
# Mechanical properties :
#
#
# Convention : Reuss Voigt Hill
#
# Bulk Modulus (GPa) = 34.14514 57.58917 45.86715
# Shear Modulus (GPa) = 18.67851 28.82524 23.75187
#
# Velocity S-wave (km/s) = 2.86485 3.55891 3.23057
# Velocity P-wave (km/s) = 5.09378 6.49558 5.83691
#
# Compressibility (1/GPa) = 0.02928675
#
# Stress axis : x y z
#
# Youngs Moduli (GPa) = 48.11310 113.89289 64.52393
#
# Poissons Ratio (x) = 0.50935 -0.05818
# Poissons Ratio (y) = 0.21517 0.27858
# Poissons Ratio (z) = -0.04338 0.49173
#
# Static dielectric constant tensor:
#      x y z
#    x 4.153010 0.000000 -0.194270 
#    y 0.000000 4.158880 0.001100 
#    z -0.194270 0.001100 4.941390 
# 
# 
# High freq. dielectric constant tensor:
#      x y z
#    x 1.894900 0.000030 0.005470 
#    y 0.000030 1.903490 -0.000010 
#    z 0.005470 -0.000010 1.886910 
# 
# From -- ./inp_files/289697.got.cif
#   From: 2010.06.25/outbox.cif.g09.slc.cpg/sg15_145_cif.got.tgz:289697.got - 2010.06.28 07:06:18.
