data_PCOD8139657
_publ_section_title
;
Structure prediction by ZEFSAII (Michael W. Deem and Ramdas Pophale) SiO2 
 PCOD8139657
Probable space group: C 2/C
;
_chemical_formula_sum "Si O2"
_cell_formula_units_Z 36
_cell_length_a 19.410110
_cell_length_b 13.871725
_cell_length_c 18.109094
_cell_angle_alpha 90.000000
_cell_angle_beta 22.058010
_cell_angle_gamma 90.000000
_cell_volume 1831.122249
_symmetry_space_group_name_H-M "C 2/C"
_symmetry_group_IT_number 15
_symmetry_cell_setting 'monoclinic'
loop_
_space_group_symop_operation_xyz
x,y,z
-x,y,1/2-z
-x,-y,-z
x,-y,1/2+z
1/2+x,1/2+y,z
1/2-x,1/2+y,1/2-z
1/2-x,1/2-y,-z
1/2+x,1/2-y,1/2+z
loop_
_atom_site_type_symbol
_atom_site_label
_atom_site_fract_x
_atom_site_fract_y
_atom_site_fract_z
Si Si1 0.684204 0.149377 0.475259
Si Si2 0.500000 0.180906 0.250000
Si Si3 0.137731 0.133989 0.672229
Si Si4 0.965238 0.980830 0.619325
Si Si5 0.263722 0.131704 0.908239
O O1 0.474657 0.116373 0.676833
O O2 0.766742 0.120949 0.473398
O O3 0.692622 0.263553 0.454120
O O4 0.803992 0.096586 0.293684
O O5 0.349024 0.113488 0.438703
O O6 0.398476 0.250017 0.289888
O O7 0.000000 0.084793 0.750000
O O8 0.101032 0.085469 0.786705
O O9 0.150321 0.948214 0.476541
O O10 0.000000 0.000000 0.500000
#
# Coordination Sequence:
#
# PCOD8139657 Si02
#       5
#     8   4   8   8   8
#     4  10  20  39  67  90 116 159 210 260 296 352
#     4   8  18  38  64  86  98 150 202 248 300 324
#     4   9  18  38  61  84 111 144 207 249 282 345
#     4  12  25  38  55  94 131 162 194 242 313 380
#     4  10  20  39  66  91 117 156 212 259 302 344
#
# _framework density 19.660074000000002
#
# number of rings (size 3 to 8) (size 9 to 14) (size 15 to 20)
#    0.667    1.333    2.222    2.000    0.000    4.444 
#    4.000    0.000    0.000    0.000    0.000    0.000 
#    0.000    0.000    0.000    0.000    0.000    0.000 
#
# Total GULP energy -223148.566763 kJ/mol
# GULP energy per Si atom -12397.142598 kJ/mol
# Density = 1.961533 g / cm^3
# Si number density = 19.660074 Si / 1000 Ang^3
#
#
#
# Elastic Constant Matrix: (Units=GPa)
#
#
# Indices 1 2 3 4 5 6 
#
# 1 81.0042 42.8835 69.3828 0.0272 14.0638 -0.0084
# 2 42.8835 71.1658 52.5215 0.1812 13.9779 -0.0663
# 3 69.3828 52.5215 165.6115 0.1261 6.7065 -0.0596
# 4 0.0272 0.1812 0.1261 33.1645 -0.0468 2.2960
# 5 14.0638 13.9779 6.7065 -0.0468 38.8932 0.0159
# 6 -0.0084 -0.0663 -0.0596 2.2960 0.0159 17.3152
#
#
#
# Elastic Compliance Matrix: (Units=1/GPa)
#
#
# Indices 1 2 3 4 5 6 
#
# 1 0.023426 -0.008025 -0.007093 0.000049 -0.004364 -0.000046
# 2 -0.008025 0.022406 -0.003560 -0.000115 -0.004537 0.000089
# 3 -0.007093 -0.003560 0.010053 -0.000011 0.002111 0.000017
# 4 0.000049 -0.000115 -0.000011 0.030433 0.000064 -0.004036
# 5 -0.004364 -0.004537 0.002111 0.000064 0.028556 -0.000047
# 6 -0.000046 0.000089 0.000017 -0.004036 -0.000047 0.058288
#
#
# Mechanical properties :
#
#
# Convention : Reuss Voigt Hill
#
# Bulk Modulus (GPa) = 53.96492 71.92855 62.94673
# Shear Modulus (GPa) = 23.07395 28.07417 25.57406
#
# Velocity S-wave (km/s) = 3.42957 3.78296 3.61059
# Velocity P-wave (km/s) = 6.57200 7.46636 7.03341
#
# Compressibility (1/GPa) = 0.01853056
#
# Stress axis : x y z
#
# Youngs Moduli (GPa) = 42.68740 44.63057 99.47013
#
# Poissons Ratio (x) = 0.35815 0.70552
# Poissons Ratio (y) = 0.34256 0.35411
# Poissons Ratio (z) = 0.30277 0.15888
#
# Static dielectric constant tensor:
#      x y z
#    x 3.193470 0.000270 -0.215890 
#    y 0.000270 3.426880 0.000040 
#    z -0.215890 0.000040 3.674260 
# 
# 
# High freq. dielectric constant tensor:
#      x y z
#    x 1.717890 -0.000010 -0.023920 
#    y -0.000010 1.765600 0.000010 
#    z -0.023920 0.000010 1.783640 
# 
# From -- ./inp_files/215532.got.cif
#   From: 2010.06.25/outbox.cif.g09.slc.cpg/sg15_108_cif.got.tgz:215532.got - 2010.06.28 07:06:18.
