data_PCOD8139663
_publ_section_title
;
Structure prediction by ZEFSAII (Michael W. Deem and Ramdas Pophale) SiO2 
 PCOD8139663
Probable space group: C 2/C
;
_chemical_formula_sum "Si O2"
_cell_formula_units_Z 60
_cell_length_a 10.822912
_cell_length_b 30.586294
_cell_length_c 16.516665
_cell_angle_alpha 90.000000
_cell_angle_beta 147.179162
_cell_angle_gamma 90.000000
_cell_volume 2963.491976
_symmetry_space_group_name_H-M "C 2/C"
_symmetry_group_IT_number 15
_symmetry_cell_setting 'monoclinic'
loop_
_space_group_symop_operation_xyz
x,y,z
-x,y,1/2-z
-x,-y,-z
x,-y,1/2+z
1/2+x,1/2+y,z
1/2-x,1/2+y,1/2-z
1/2-x,1/2-y,-z
1/2+x,1/2-y,1/2+z
loop_
_atom_site_type_symbol
_atom_site_label
_atom_site_fract_x
_atom_site_fract_y
_atom_site_fract_z
Si Si1 0.780148 0.033098 0.170391
Si Si2 0.811696 0.436595 0.358685
Si Si3 0.183820 0.286177 0.282067
Si Si4 0.500000 0.653643 0.250000
Si Si5 0.815000 0.105257 0.302784
Si Si6 0.050520 0.291571 0.512532
Si Si7 0.067513 0.125138 0.602873
Si Si8 0.340142 0.863070 0.504194
O O1 0.753098 0.055388 0.243773
O O2 0.000000 0.053803 0.250000
O O3 0.823958 0.981557 0.204228
O O4 0.574712 0.047814 0.997696
O O5 0.726511 0.411716 0.231598
O O6 0.776251 0.405519 0.416190
O O7 0.389911 0.251782 0.404316
O O8 0.273921 0.335349 0.337432
O O9 0.000000 0.278021 0.250000
O O10 0.071594 0.275491 0.135083
O O11 0.460568 0.626310 0.310078
O O12 0.723611 0.682325 0.388701
O O13 0.575507 0.130644 0.183369
O O14 0.954811 0.103705 0.462169
O O15 0.871195 0.321256 0.463345
O O16 0.871336 0.144305 0.552948
#
# Coordination Sequence:
#
# PCOD8139663 Si02
#       8
#     8   8   8   4   8   8   8   8
#     4  10  20  39  66  93 128 170 214 260 317 385
#     4  10  22  40  65  93 125 176 215 255 320 383
#     4  12  26  40  63  94 125 163 214 266 324 373
#     4  10  20  42  66  84 132 168 208 254 330 394
#     4  10  22  37  65  96 124 167 214 263 323 377
#     4  11  24  41  64  89 124 167 210 265 318 381
#     4  12  24  40  64  93 132 165 216 268 312 383
#     4  10  22  43  63  88 125 177 214 251 323 389
#
# _framework density 20.246386000000001
#
# number of rings (size 3 to 8) (size 9 to 14) (size 15 to 20)
#    0.000    1.333    2.667    2.800    3.733    2.133 
#    0.000    0.000    0.000    1.600    0.000    0.000 
#    0.000    0.000    0.000    0.000    0.000    0.000 
#
# Total GULP energy -371979.229282 kJ/mol
# GULP energy per Si atom -12399.307643 kJ/mol
# Density = 2.020030 g / cm^3
# Si number density = 20.246386 Si / 1000 Ang^3
#
#
#
# Elastic Constant Matrix: (Units=GPa)
#
#
# Indices 1 2 3 4 5 6 
#
# 1 82.4035 36.3321 38.7691 0.0000 -5.4845 0.0000
# 2 36.3321 120.9005 57.2312 0.0000 -13.7476 0.0000
# 3 38.7691 57.2312 124.2130 0.0000 -31.4110 0.0000
# 4 0.0000 0.0000 0.0000 37.7334 0.0000 -1.1518
# 5 -5.4845 -13.7476 -31.4110 0.0000 35.5623 0.0000
# 6 0.0000 0.0000 0.0000 -1.1518 0.0000 11.1204
#
#
#
# Elastic Compliance Matrix: (Units=1/GPa)
#
#
# Indices 1 2 3 4 5 6 
#
# 1 0.015137 -0.002940 -0.003949 0.000000 -0.002290 0.000000
# 2 -0.002940 0.011152 -0.004178 0.000000 0.000167 0.000000
# 3 -0.003949 -0.004178 0.013708 0.000000 0.009883 0.000000
# 4 0.000000 0.000000 0.000000 0.026586 0.000000 0.002754
# 5 -0.002290 0.000167 0.009883 0.000000 0.036561 0.000000
# 6 0.000000 0.000000 0.000000 0.002754 0.000000 0.090210
#
#
# Mechanical properties :
#
#
# Convention : Reuss Voigt Hill
#
# Bulk Modulus (GPa) = 55.98523 65.79796 60.89160
# Shear Modulus (GPa) = 22.57933 29.89554 26.23743
#
# Velocity S-wave (km/s) = 3.34313 3.84681 3.60378
# Velocity P-wave (km/s) = 6.52794 7.23186 6.88889
#
# Compressibility (1/GPa) = 0.01786185
#
# Stress axis : x y z
#
# Youngs Moduli (GPa) = 66.06244 89.67306 72.95154
#
# Poissons Ratio (x) = 0.26363 0.28810
# Poissons Ratio (y) = 0.19422 0.30481
# Poissons Ratio (z) = 0.26089 0.37468
#
# Static dielectric constant tensor:
#      x y z
#    x 3.538580 0.000000 0.108180 
#    y 0.000000 3.779490 0.000000 
#    z 0.108180 0.000000 3.847840 
# 
# 
# High freq. dielectric constant tensor:
#      x y z
#    x 1.774620 0.000000 0.009070 
#    y 0.000000 1.798800 0.000000 
#    z 0.009070 0.000000 1.803620 
# 
# From -- ./inp_files/201419.got.cif
#   From: 2010.06.25/outbox.cif.g09.slc.cpg/sg15_101_cif.got.tgz:201419.got - 2010.06.28 07:06:18.
