data_PCOD8139152
_publ_section_title
;
Structure prediction by ZEFSAII (Michael W. Deem and Ramdas Pophale) SiO2 
 PCOD8139152
Probable space group: C 2/C
;
_chemical_formula_sum "Si O2"
_cell_formula_units_Z 60
_cell_length_a 16.805748
_cell_length_b 18.344484
_cell_length_c 13.656123
_cell_angle_alpha 90.000000
_cell_angle_beta 45.985813
_cell_angle_gamma 90.000000
_cell_volume 3027.756781
_symmetry_space_group_name_H-M "C 2/C"
_symmetry_group_IT_number 15
_symmetry_cell_setting 'monoclinic'
loop_
_space_group_symop_operation_xyz
x,y,z
-x,y,1/2-z
-x,-y,-z
x,-y,1/2+z
1/2+x,1/2+y,z
1/2-x,1/2+y,1/2-z
1/2-x,1/2-y,-z
1/2+x,1/2-y,1/2+z
loop_
_atom_site_type_symbol
_atom_site_label
_atom_site_fract_x
_atom_site_fract_y
_atom_site_fract_z
Si Si1 0.957722 0.241847 0.118067
Si Si2 0.000000 0.946899 0.250000
Si Si3 0.293819 0.461172 0.949775
Si Si4 0.595961 0.095593 0.890378
Si Si5 0.357408 0.294650 0.912059
Si Si6 0.178469 0.029123 0.859097
Si Si7 0.551897 0.996027 0.604631
Si Si8 0.460263 0.396100 0.499674
O O1 0.087859 0.235712 0.032708
O O2 0.909367 0.317923 0.120202
O O3 0.917719 0.220029 0.259256
O O4 0.923837 0.184808 0.062169
O O5 0.032770 0.900336 0.125485
O O6 0.106384 0.995839 0.190677
O O7 0.329338 0.379091 0.937409
O O8 0.277020 0.492250 0.072244
O O9 0.177053 0.472997 0.996146
O O10 0.720144 0.062730 0.788711
O O11 0.525734 0.062382 0.861957
O O12 0.541513 0.072749 0.040228
O O13 0.250000 0.250000 0.000000
O O14 0.080358 0.088110 0.943196
O O15 0.126369 0.950969 0.871409
O O16 0.500000 0.967520 0.750000
#
# Coordination Sequence:
#
# PCOD8139152 Si02
#       8
#     8   4   8   8   8   8   8   8
#     4  11  24  39  59  94 130 159 209 254 327 384
#     4  10  22  38  64  90 122 166 212 270 310 362
#     4  11  20  38  65  92 123 159 217 264 314 371
#     4  11  24  42  61  92 125 171 208 254 315 382
#     4  11  23  37  59  93 129 165 191 264 331 381
#     4  10  20  38  66  89 125 159 212 265 313 371
#     4  11  24  41  65  89 122 169 219 257 300 380
#     4  10  22  39  62  96 123 162 210 266 322 377
#
# _framework density 19.816651
#
# number of rings (size 3 to 8) (size 9 to 14) (size 15 to 20)
#    0.000    1.333    2.667    3.200    7.467    0.000 
#    1.200    0.000    0.000    4.000    0.000    0.000 
#    0.000    0.000    0.000    0.000    0.000    0.000 
#
# Total GULP energy -371657.219040 kJ/mol
# GULP energy per Si atom -12388.573968 kJ/mol
# Density = 1.977155 g / cm^3
# Si number density = 19.816651 Si / 1000 Ang^3
#
#
#
# Elastic Constant Matrix: (Units=GPa)
#
#
# Indices 1 2 3 4 5 6 
#
# 1 89.9482 50.6266 37.9247 0.0000 -10.4504 0.0000
# 2 50.6266 67.1395 60.8601 0.0000 -10.9063 0.0000
# 3 37.9247 60.8601 81.4647 0.0000 -1.6608 0.0000
# 4 0.0000 0.0000 0.0000 12.7978 0.0000 -1.4597
# 5 -10.4504 -10.9063 -1.6608 0.0000 39.8317 0.0000
# 6 0.0000 0.0000 0.0000 -1.4597 0.0000 23.5993
#
#
#
# Elastic Compliance Matrix: (Units=1/GPa)
#
#
# Indices 1 2 3 4 5 6 
#
# 1 0.020260 -0.020909 0.006186 0.000000 -0.000152 0.000000
# 2 -0.020909 0.073325 -0.044786 0.000000 0.012724 0.000000
# 3 0.006186 -0.044786 0.042673 0.000000 -0.008861 0.000000
# 4 0.000000 0.000000 0.000000 0.078694 0.000000 0.004868
# 5 -0.000152 0.012724 -0.008861 0.000000 0.028180 0.000000
# 6 0.000000 0.000000 0.000000 0.004868 0.000000 0.042675
#
#
# Mechanical properties :
#
#
# Convention : Reuss Voigt Hill
#
# Bulk Modulus (GPa) = 58.00448 59.70835 58.85642
# Shear Modulus (GPa) = 12.17809 21.18849 16.68329
#
# Velocity S-wave (km/s) = 2.48168 3.27345 2.90467
# Velocity P-wave (km/s) = 6.12746 6.66957 6.40425
#
# Compressibility (1/GPa) = 0.01724005
#
# Stress axis : x y z
#
# Youngs Moduli (GPa) = 49.35748 13.63790 23.43379
#
# Poissons Ratio (x) = 0.28516 -0.14495
# Poissons Ratio (y) = 1.03202 1.04950
# Poissons Ratio (z) = -0.30531 0.61079
#
# Static dielectric constant tensor:
#      x y z
#    x 4.797520 0.000000 -0.930920 
#    y 0.000000 3.321400 0.000000 
#    z -0.930920 0.000000 4.386400 
# 
# 
# High freq. dielectric constant tensor:
#      x y z
#    x 1.784150 0.000000 -0.003830 
#    y 0.000000 1.749710 0.000000 
#    z -0.003830 0.000000 1.778150 
# 
# From -- ./inp_files/163533.got.cif
#   From: 2010.06.25/outbox.cif.g09.slc.cpg/sg15_82_cif.got.tgz:163533.got - 2010.06.28 07:06:18.
