data_PCOD8139921
_publ_section_title
;
Structure prediction by ZEFSAII (Michael W. Deem and Ramdas Pophale) SiO2 
 PCOD8139921
Probable space group: C 2/C
;
_chemical_formula_sum "Si O2"
_cell_formula_units_Z 56
_cell_length_a 9.628509
_cell_length_b 14.170355
_cell_length_c 19.875495
_cell_angle_alpha 90.000000
_cell_angle_beta 92.944994
_cell_angle_gamma 90.000000
_cell_volume 2708.219003
_symmetry_space_group_name_H-M "C 2/C"
_symmetry_group_IT_number 15
_symmetry_cell_setting 'monoclinic'
loop_
_space_group_symop_operation_xyz
x,y,z
-x,y,1/2-z
-x,-y,-z
x,-y,1/2+z
1/2+x,1/2+y,z
1/2-x,1/2+y,1/2-z
1/2-x,1/2-y,-z
1/2+x,1/2-y,1/2+z
loop_
_atom_site_type_symbol
_atom_site_label
_atom_site_fract_x
_atom_site_fract_y
_atom_site_fract_z
Si Si1 0.587574 0.557564 0.185839
Si Si2 0.652055 0.755036 0.221163
Si Si3 0.891666 0.763672 0.465560
Si Si4 0.730367 0.364383 0.160990
Si Si5 0.525298 0.927467 0.171795
Si Si6 0.925500 0.070421 0.047054
Si Si7 0.596413 0.944207 0.554210
O O1 0.500000 0.550315 0.250000
O O2 0.684636 0.653042 0.188393
O O3 0.682713 0.466050 0.186196
O O4 0.476244 0.560554 0.123713
O O5 0.500000 0.746310 0.250000
O O6 0.765630 0.784411 0.280287
O O7 0.641804 0.843841 0.169241
O O8 0.750000 0.750000 0.500000
O O9 0.871771 0.825511 0.397885
O O10 0.977248 0.827117 0.520687
O O11 0.960174 0.663662 0.448389
O O12 0.884671 0.384022 0.136036
O O13 0.500000 0.956278 0.250000
O O14 0.577323 0.015705 0.129247
O O15 0.759099 0.053319 0.038530
O O16 0.000000 0.000000 0.000000
O O17 0.500000 0.000000 0.500000
#
# Coordination Sequence:
#
# PCOD8139921 Si02
#       7
#     8   8   8   8   8   8   8
#     4  11  24  38  66  94 127 168 215 267 321 379
#     4   8  20  35  61  90 120 165 210 255 305 388
#     4  10  22  38  65  87 122 168 219 257 305 396
#     4  10  20  40  63  93 125 161 216 257 318 369
#     4   9  20  38  62  91 125 162 212 264 310 379
#     4  11  24  44  67  95 127 170 220 270 320 377
#     4  11  25  40  68  93 127 171 218 261 324 381
#
# _framework density 20.677795
#
# number of rings (size 3 to 8) (size 9 to 14) (size 15 to 20)
#    0.000    2.286    1.429    1.714   18.000    0.000 
#    0.000    4.286    0.000    0.000    0.000    0.000 
#    0.000    0.000    0.000    0.000    0.000    0.000 
#
# Total GULP energy -346879.113883 kJ/mol
# GULP energy per Si atom -12388.539782 kJ/mol
# Density = 2.063073 g / cm^3
# Si number density = 20.677795 Si / 1000 Ang^3
#
#
#
# Elastic Constant Matrix: (Units=GPa)
#
#
# Indices 1 2 3 4 5 6 
#
# 1 47.3437 30.4575 30.6823 0.0000 8.0129 0.0000
# 2 30.4575 172.1827 68.0702 0.0000 -8.1394 0.0000
# 3 30.6823 68.0702 122.6684 0.0000 6.7336 0.0000
# 4 0.0000 0.0000 0.0000 44.7878 0.0000 2.8724
# 5 8.0129 -8.1394 6.7336 0.0000 26.0537 0.0000
# 6 0.0000 0.0000 0.0000 2.8724 0.0000 28.6637
#
#
#
# Elastic Compliance Matrix: (Units=1/GPa)
#
#
# Indices 1 2 3 4 5 6 
#
# 1 0.027751 -0.003521 -0.004523 0.000000 -0.008466 0.000000
# 2 -0.003521 0.008204 -0.003927 0.000000 0.004661 0.000000
# 3 -0.004523 -0.003927 0.011618 0.000000 -0.002839 0.000000
# 4 0.000000 0.000000 0.000000 0.022472 0.000000 -0.002252
# 5 -0.008466 0.004661 -0.002839 0.000000 0.043176 0.000000
# 6 0.000000 0.000000 0.000000 -0.002252 0.000000 0.035113
#
#
# Mechanical properties :
#
#
# Convention : Reuss Voigt Hill
#
# Bulk Modulus (GPa) = 42.31724 66.73497 54.52611
# Shear Modulus (GPa) = 27.75410 34.10004 30.92707
#
# Velocity S-wave (km/s) = 3.66760 4.06533 3.87158
# Velocity P-wave (km/s) = 6.20037 7.37426 6.81265
#
# Compressibility (1/GPa) = 0.02363103
#
# Stress axis : x y z
#
# Youngs Moduli (GPa) = 36.03430 121.89730 86.07003
#
# Poissons Ratio (x) = 0.42923 0.38926
# Poissons Ratio (y) = 0.12689 0.33803
# Poissons Ratio (z) = 0.16297 0.47874
#
# Static dielectric constant tensor:
#      x y z
#    x 3.322240 0.000000 0.116150 
#    y 0.000000 4.596750 0.000000 
#    z 0.116150 0.000000 3.716430 
# 
# 
# High freq. dielectric constant tensor:
#      x y z
#    x 1.762250 0.000000 0.018700 
#    y 0.000000 1.831910 0.000000 
#    z 0.018700 0.000000 1.815940 
# 
# From -- ./inp_files/237138.got.cif
#   From: 2010.06.25/outbox.cif.g09.slc.cpg/sg15_119_cif.got.tgz:237138.got - 2010.06.28 07:06:18.
