data_PCOD8139380
_publ_section_title
;
Structure prediction by ZEFSAII (Michael W. Deem and Ramdas Pophale) SiO2 
 PCOD8139380
Probable space group: C 2/C
;
_chemical_formula_sum "Si O2"
_cell_formula_units_Z 52
_cell_length_a 23.763494
_cell_length_b 17.564250
_cell_length_c 8.106640
_cell_angle_alpha 90.000000
_cell_angle_beta 53.685134
_cell_angle_gamma 90.000000
_cell_volume 2726.430267
_symmetry_space_group_name_H-M "C 2/C"
_symmetry_group_IT_number 15
_symmetry_cell_setting 'monoclinic'
loop_
_space_group_symop_operation_xyz
x,y,z
-x,y,1/2-z
-x,-y,-z
x,-y,1/2+z
1/2+x,1/2+y,z
1/2-x,1/2+y,1/2-z
1/2-x,1/2-y,-z
1/2+x,1/2-y,1/2+z
loop_
_atom_site_type_symbol
_atom_site_label
_atom_site_fract_x
_atom_site_fract_y
_atom_site_fract_z
Si Si1 0.219707 0.504278 0.095307
Si Si2 0.500000 0.828866 0.750000
Si Si3 0.816663 0.750334 0.770680
Si Si4 0.647814 0.102426 0.965592
Si Si5 0.689990 0.417191 0.809459
Si Si6 0.031375 0.234529 0.375176
Si Si7 0.533646 0.573665 0.517383
O O1 0.179593 0.574081 0.081287
O O2 0.162571 0.464122 0.309009
O O3 0.286790 0.542547 0.063414
O O4 0.250844 0.438473 0.926016
O O5 0.434300 0.884706 0.874366
O O6 0.494112 0.777993 0.593430
O O7 0.813341 0.680274 0.650673
O O8 0.816117 0.826248 0.660730
O O9 0.886163 0.745487 0.763603
O O10 0.750000 0.750000 0.000000
O O11 0.614475 0.448640 0.893616
O O12 0.021064 0.144403 0.416686
O O13 0.000000 0.258476 0.250000
O O14 0.500000 0.595403 0.750000
O O15 0.500000 0.500000 0.500000
#
# Coordination Sequence:
#
# PCOD8139380 Si02
#       7
#     8   4   8   8   8   8   8
#     4  10  21  39  59  87 120 154 201 253 311 360
#     4  10  22  44  62  88 124 154 208 258 310 372
#     4  10  20  39  61  86 119 159 200 244 301 366
#     4  10  22  40  63  87 121 156 199 259 306 375
#     4  10  21  37  58  84 121 159 198 251 300 356
#     4  10  22  40  61  88 122 161 199 258 309 361
#     4  11  21  36  56  85 122 164 210 249 304 370
#
# _framework density 19.072558999999998
#
# number of rings (size 3 to 8) (size 9 to 14) (size 15 to 20)
#    0.000    1.846    2.308    1.385    0.000    3.692 
#    5.538    0.000    0.000    0.000    0.000    0.000 
#    0.000    0.000    0.000    0.000    0.000    0.000 
#
# Total GULP energy -322371.801727 kJ/mol
# GULP energy per Si atom -12398.915451 kJ/mol
# Density = 1.902915 g / cm^3
# Si number density = 19.072559 Si / 1000 Ang^3
#
#
#
# Elastic Constant Matrix: (Units=GPa)
#
#
# Indices 1 2 3 4 5 6 
#
# 1 104.1412 72.7009 50.8259 0.0000 1.3470 0.0000
# 2 72.7009 128.6865 38.2114 0.0000 -0.2428 0.0000
# 3 50.8259 38.2114 97.9506 0.0000 -9.8698 0.0000
# 4 0.0000 0.0000 0.0000 16.0989 0.0000 -16.3337
# 5 1.3470 -0.2428 -9.8698 0.0000 40.3995 0.0000
# 6 0.0000 0.0000 0.0000 -16.3337 0.0000 16.2039
#
#
#
# Elastic Compliance Matrix: (Units=1/GPa)
#
#
# Indices 1 2 3 4 5 6 
#
# 1 0.019007 -0.008759 -0.006679 0.000000 -0.002318 0.000000
# 2 -0.008759 0.012851 -0.000442 0.000000 0.000261 0.000000
# 3 -0.006679 -0.000442 0.014220 0.000000 0.003694 0.000000
# 4 0.000000 0.000000 0.000000 -2.734410 0.000000 -2.756318
# 5 -0.002318 0.000261 0.003694 0.000000 0.025734 0.000000
# 6 0.000000 0.000000 0.000000 -2.756318 0.000000 -2.716687
#
#
# Mechanical properties :
#
#
# Convention : Reuss Voigt Hill
#
# Bulk Modulus (GPa) = 69.84598 72.69496 71.27047
# Shear Modulus (GPa) = -0.93585 25.80980 12.43697
#
# Velocity S-wave (km/s) = -0.70124 3.68264 2.55637
# Velocity P-wave (km/s) = 6.00375 7.50201 6.79430
#
# Compressibility (1/GPa) = 0.01431722
#
# Stress axis : x y z
#
# Youngs Moduli (GPa) = 52.61342 77.81617 70.32545
#
# Poissons Ratio (x) = 0.68158 0.46971
# Poissons Ratio (y) = 0.46083 0.03108
# Poissons Ratio (z) = 0.35141 0.03439
#
# Static dielectric constant tensor:
#      x y z
#    x 3.995390 0.000000 0.679040 
#    y 0.000000 3.580030 0.000000 
#    z 0.679040 0.000000 4.688560 
# 
# 
# High freq. dielectric constant tensor:
#      x y z
#    x 1.734950 0.000000 -0.009000 
#    y 0.000000 1.750720 0.000000 
#    z -0.009000 0.000000 1.746790 
# 
# From -- ./inp_files/66115.got.cif
#   From: 2010.06.25/outbox.cif.g09.slc.cpg/sg15_34_cif.got.tgz:66115.got - 2010.06.28 07:06:18.
