data_PCOD8139827
_publ_section_title
;
Structure prediction by ZEFSAII (Michael W. Deem and Ramdas Pophale) SiO2 
 PCOD8139827
Probable space group: C 2/C
;
_chemical_formula_sum "Si O2"
_cell_formula_units_Z 40
_cell_length_a 9.109858
_cell_length_b 25.895874
_cell_length_c 8.369379
_cell_angle_alpha 90.000000
_cell_angle_beta 107.977499
_cell_angle_gamma 90.000000
_cell_volume 1878.006628
_symmetry_space_group_name_H-M "C 2/C"
_symmetry_group_IT_number 15
_symmetry_cell_setting 'monoclinic'
loop_
_space_group_symop_operation_xyz
x,y,z
-x,y,1/2-z
-x,-y,-z
x,-y,1/2+z
1/2+x,1/2+y,z
1/2-x,1/2+y,1/2-z
1/2-x,1/2-y,-z
1/2+x,1/2-y,1/2+z
loop_
_atom_site_type_symbol
_atom_site_label
_atom_site_fract_x
_atom_site_fract_y
_atom_site_fract_z
Si Si1 0.323420 0.754928 0.196369
Si Si2 0.836341 0.658285 0.275821
Si Si3 0.677344 0.456624 0.258167
Si Si4 0.834314 0.633009 0.648186
Si Si5 0.179711 0.447492 0.860013
O O1 0.500000 0.739260 0.250000
O O2 0.248290 0.712671 0.290068
O O3 0.303191 0.814827 0.243657
O O4 0.250000 0.750000 0.000000
O O5 0.840549 0.647675 0.465323
O O6 0.754537 0.608552 0.169485
O O7 0.000000 0.664614 0.250000
O O8 0.500000 0.455346 0.250000
O O9 0.705007 0.409530 0.143687
O O10 0.799034 0.451368 0.443241
O O11 0.711080 0.510338 0.183537
O O12 0.000000 0.609166 0.750000
O O13 0.000000 0.454322 0.750000
#
# Coordination Sequence:
#
# PCOD8139827 Si02
#       5
#     8   8   8   8   8
#     4   9  20  37  59  85 119 159 195 240 297 348
#     4  10  21  38  62  91 119 158 204 247 294 354
#     4  12  25  40  62  93 122 155 199 253 303 350
#     4  10  20  40  61  86 124 163 199 242 297 362
#     4  11  23  41  62  87 119 163 201 240 298 364
#
# _framework density 21.299181000000001
#
# number of rings (size 3 to 8) (size 9 to 14) (size 15 to 20)
#    0.000    1.600    0.000    5.400    0.000    4.800 
#    0.000   14.000    0.000    0.000    0.000    0.000 
#    0.000    0.000    0.000    0.000    0.000    0.000 
#
# Total GULP energy -247901.884145 kJ/mol
# GULP energy per Si atom -12395.094207 kJ/mol
# Density = 2.125070 g / cm^3
# Si number density = 21.299181 Si / 1000 Ang^3
#
#
#
# Elastic Constant Matrix: (Units=GPa)
#
#
# Indices 1 2 3 4 5 6 
#
# 1 128.3065 79.7401 23.6793 0.0000 -9.9841 0.0000
# 2 79.7401 188.4740 15.0028 0.0000 -29.1568 0.0000
# 3 23.6793 15.0028 73.8495 0.0000 -3.1525 0.0000
# 4 0.0000 0.0000 0.0000 36.9687 0.0000 -8.8459
# 5 -9.9841 -29.1568 -3.1525 0.0000 35.0603 0.0000
# 6 0.0000 0.0000 0.0000 -8.8459 0.0000 35.0608
#
#
#
# Elastic Compliance Matrix: (Units=1/GPa)
#
#
# Indices 1 2 3 4 5 6 
#
# 1 0.011084 -0.004621 -0.002655 0.000000 -0.000925 0.000000
# 2 -0.004621 0.008094 0.000069 0.000000 0.005421 0.000000
# 3 -0.002655 0.000069 0.014404 0.000000 0.000596 0.000000
# 4 0.000000 0.000000 0.000000 0.028788 0.000000 0.007263
# 5 -0.000925 0.005421 0.000596 0.000000 0.032821 0.000000
# 6 0.000000 0.000000 0.000000 0.007263 0.000000 0.030354
#
#
# Mechanical properties :
#
#
# Convention : Reuss Voigt Hill
#
# Bulk Modulus (GPa) = 52.17129 69.71938 60.94533
# Shear Modulus (GPa) = 34.16516 39.56514 36.86515
#
# Velocity S-wave (km/s) = 4.00942 4.31465 4.16483
# Velocity P-wave (km/s) = 6.78097 7.59118 7.19749
#
# Compressibility (1/GPa) = 0.01916763
#
# Stress axis : x y z
#
# Youngs Moduli (GPa) = 90.22243 123.54637 69.42654
#
# Poissons Ratio (x) = 0.57093 0.18430
# Poissons Ratio (y) = 0.41693 -0.00478
# Poissons Ratio (z) = 0.23951 -0.00850
#
# Static dielectric constant tensor:
#      x y z
#    x 3.762350 0.000000 -0.036940 
#    y 0.000000 4.943420 0.000000 
#    z -0.036940 0.000000 3.814530 
# 
# 
# High freq. dielectric constant tensor:
#      x y z
#    x 1.822810 0.000000 0.000930 
#    y 0.000000 1.863690 0.000000 
#    z 0.000930 0.000000 1.826830 
# 
# From -- ./inp_files/24429.got.cif
#   From: 2010.06.25/outbox.cif.g09.slc.cpg/sg15_13_cif.got.tgz:24429.got - 2010.06.28 07:06:18.
