data_PCOD8139673
_publ_section_title
;
Structure prediction by ZEFSAII (Michael W. Deem and Ramdas Pophale) SiO2 
 PCOD8139673
Probable space group: C 2/C
;
_chemical_formula_sum "Si O2"
_cell_formula_units_Z 56
_cell_length_a 17.246861
_cell_length_b 8.587438
_cell_length_c 17.697105
_cell_angle_alpha 90.000000
_cell_angle_beta 111.063244
_cell_angle_gamma 90.000000
_cell_volume 2445.926049
_symmetry_space_group_name_H-M "C 2/C"
_symmetry_group_IT_number 15
_symmetry_cell_setting 'monoclinic'
loop_
_space_group_symop_operation_xyz
x,y,z
-x,y,1/2-z
-x,-y,-z
x,-y,1/2+z
1/2+x,1/2+y,z
1/2-x,1/2+y,1/2-z
1/2-x,1/2-y,-z
1/2+x,1/2-y,1/2+z
loop_
_atom_site_type_symbol
_atom_site_label
_atom_site_fract_x
_atom_site_fract_y
_atom_site_fract_z
Si Si1 0.472475 0.139263 0.820080
Si Si2 0.906685 0.051724 0.949340
Si Si3 0.612224 0.294107 0.335374
Si Si4 0.620600 0.630857 0.398129
Si Si5 0.257910 0.619076 0.333196
Si Si6 0.045016 0.306555 0.649960
Si Si7 0.195612 0.277795 0.293875
O O1 0.500000 0.061943 0.750000
O O2 0.542664 0.251451 0.878461
O O3 0.394482 0.249134 0.775483
O O4 0.446122 0.992393 0.863778
O O5 0.909564 0.207283 0.899548
O O6 0.853777 0.911706 0.891814
O O7 0.855562 0.089315 0.007871
O O8 0.000000 0.000000 0.000000
O O9 0.601774 0.478115 0.342260
O O10 0.707621 0.229251 0.375225
O O11 0.554804 0.220400 0.381117
O O12 0.583190 0.249052 0.241861
O O13 0.697469 0.707773 0.379518
O O14 0.212057 0.457291 0.309724
O O15 0.244663 0.693712 0.244927
#
# Coordination Sequence:
#
# PCOD8139673 Si02
#       7
#     8   8   8   8   8   8   8
#     4  10  20  39  67 100 126 174 233 290 332 409
#     4  12  26  44  65 103 141 185 227 284 360 436
#     4  11  22  42  72 101 125 182 231 296 335 407
#     4  11  24  41  66  98 143 181 223 272 358 419
#     4  12  25  44  70 100 139 172 242 293 346 415
#     4  11  21  42  72  99 133 174 240 285 347 406
#     4  11  23  41  67  99 128 175 229 290 343 395
#
# _framework density 22.895215
#
# number of rings (size 3 to 8) (size 9 to 14) (size 15 to 20)
#    0.000    0.857    4.286    4.286    6.000    1.714 
#    0.000    0.000    0.000    0.000    0.000    0.000 
#    0.000    0.000    0.000    0.000    0.000    0.000 
#
# Total GULP energy -346977.572616 kJ/mol
# GULP energy per Si atom -12392.056165 kJ/mol
# Density = 2.284310 g / cm^3
# Si number density = 22.895215 Si / 1000 Ang^3
#
#
#
# Elastic Constant Matrix: (Units=GPa)
#
#
# Indices 1 2 3 4 5 6 
#
# 1 87.2359 24.1195 25.1028 0.0000 -11.7482 0.0000
# 2 24.1195 134.1202 37.7572 0.0000 -15.1930 0.0000
# 3 25.1028 37.7572 64.7054 0.0000 -12.5836 0.0000
# 4 0.0000 0.0000 0.0000 20.6378 0.0000 1.0390
# 5 -11.7482 -15.1930 -12.5836 0.0000 41.0343 0.0000
# 6 0.0000 0.0000 0.0000 1.0390 0.0000 40.1186
#
#
#
# Elastic Compliance Matrix: (Units=1/GPa)
#
#
# Indices 1 2 3 4 5 6 
#
# 1 0.013213 -0.000966 -0.004143 0.000000 0.002155 0.000000
# 2 -0.000966 0.009121 -0.004620 0.000000 0.001684 0.000000
# 3 -0.004143 -0.004620 0.020412 0.000000 0.003363 0.000000
# 4 0.000000 0.000000 0.000000 0.048518 0.000000 -0.001257
# 5 0.002155 0.001684 0.003363 0.000000 0.026641 0.000000
# 6 0.000000 0.000000 0.000000 -0.001257 0.000000 0.024959
#
#
# Mechanical properties :
#
#
# Convention : Reuss Voigt Hill
#
# Bulk Modulus (GPa) = 42.94208 51.11340 47.02774
# Shear Modulus (GPa) = 29.39709 33.63028 31.51368
#
# Velocity S-wave (km/s) = 3.58716 3.83675 3.71405
# Velocity P-wave (km/s) = 5.99613 6.48081 6.24318
#
# Compressibility (1/GPa) = 0.02328718
#
# Stress axis : x y z
#
# Youngs Moduli (GPa) = 75.68527 109.63611 48.99039
#
# Poissons Ratio (x) = 0.10586 0.20299
# Poissons Ratio (y) = 0.07308 0.22635
# Poissons Ratio (z) = 0.31360 0.50656
#
# Static dielectric constant tensor:
#      x y z
#    x 4.760950 0.000000 -0.157440 
#    y 0.000000 4.229260 0.000000 
#    z -0.157440 0.000000 4.013140 
# 
# 
# High freq. dielectric constant tensor:
#      x y z
#    x 1.916420 0.000000 -0.009250 
#    y 0.000000 1.914090 0.000000 
#    z -0.009250 0.000000 1.869010 
# 
# From -- ./inp_files/209640.got.cif
#   From: 2010.06.25/outbox.cif.g09.slc.cpg/sg15_105_cif.got.tgz:209640.got - 2010.06.28 07:06:18.
