data_PCOD8139895
_publ_section_title
;
Structure prediction by ZEFSAII (Michael W. Deem and Ramdas Pophale) SiO2 
 PCOD8139895
Probable space group: C 2/C
;
_chemical_formula_sum "Si O2"
_cell_formula_units_Z 32
_cell_length_a 7.292771
_cell_length_b 30.737895
_cell_length_c 5.498062
_cell_angle_alpha 90.000000
_cell_angle_beta 88.275694
_cell_angle_gamma 90.000000
_cell_volume 1231.911850
_symmetry_space_group_name_H-M "C 2/C"
_symmetry_group_IT_number 15
_symmetry_cell_setting 'monoclinic'
loop_
_space_group_symop_operation_xyz
x,y,z
-x,y,1/2-z
-x,-y,-z
x,-y,1/2+z
1/2+x,1/2+y,z
1/2-x,1/2+y,1/2-z
1/2-x,1/2-y,-z
1/2+x,1/2-y,1/2+z
loop_
_atom_site_type_symbol
_atom_site_label
_atom_site_fract_x
_atom_site_fract_y
_atom_site_fract_z
Si Si1 0.779260 0.304248 0.372307
Si Si2 0.500000 0.334961 0.750000
Si Si3 0.000000 0.741295 0.250000
Si Si4 0.693206 0.387334 0.115541
Si Si5 0.204457 0.517129 0.962253
O O1 0.603166 0.304233 0.558501
O O2 0.965223 0.289365 0.507297
O O3 0.689530 0.268541 0.191937
O O4 0.811474 0.352459 0.265939
O O5 0.344221 0.365881 0.642486
O O6 0.500000 0.398272 0.250000
O O7 0.806580 0.431171 0.073014
O O8 0.302493 0.504120 0.216659
O O9 0.000000 0.500000 0.000000
#
# Coordination Sequence:
#
# PCOD8139895 Si02
#       5
#     8   4   4   8   8
#     4  10  21  41  64 100 139 188 232 300 348 430
#     4  10  20  40  62  97 132 188 231 288 356 434
#     4  10  20  42  64  97 146 176 247 288 354 420
#     4  10  22  42  68  99 140 184 239 292 370 429
#     4  10  24  46  69 102 142 183 233 307 363 439
#
# _framework density 25.975885000000002
#
# number of rings (size 3 to 8) (size 9 to 14) (size 15 to 20)
#    0.000    2.000    3.750    0.000    7.000    2.000 
#    9.000    0.000    0.000    0.000    0.000    0.000 
#    0.000    0.000    0.000    0.000    0.000    0.000 
#
# Total GULP energy -198256.510811 kJ/mol
# GULP energy per Si atom -12391.031926 kJ/mol
# Density = 2.591676 g / cm^3
# Si number density = 25.975885 Si / 1000 Ang^3
#
#
#
# Elastic Constant Matrix: (Units=GPa)
#
#
# Indices 1 2 3 4 5 6 
#
# 1 107.2636 66.8083 33.0531 0.0000 31.6150 0.0000
# 2 66.8083 206.2465 62.3460 0.0000 18.7028 0.0000
# 3 33.0531 62.3460 160.3336 0.0000 25.8356 0.0000
# 4 0.0000 0.0000 0.0000 8.9059 0.0000 5.8857
# 5 31.6150 18.7028 25.8356 0.0000 32.2753 0.0000
# 6 0.0000 0.0000 0.0000 5.8857 0.0000 45.6551
#
#
#
# Elastic Compliance Matrix: (Units=1/GPa)
#
#
# Indices 1 2 3 4 5 6 
#
# 1 0.015591 -0.003987 0.000488 0.000000 -0.013352 0.000000
# 2 -0.003987 0.006596 -0.002016 0.000000 0.001697 0.000000
# 3 0.000488 -0.002016 0.007818 0.000000 -0.005567 0.000000
# 4 0.000000 0.000000 0.000000 0.122742 0.000000 -0.015823
# 5 -0.013352 0.001697 -0.005567 0.000000 0.047535 0.000000
# 6 0.000000 0.000000 0.000000 -0.015823 0.000000 0.023943
#
#
# Mechanical properties :
#
#
# Convention : Reuss Voigt Hill
#
# Bulk Modulus (GPa) = 52.70559 88.69539 70.70049
# Shear Modulus (GPa) = 20.69702 38.14304 29.42003
#
# Velocity S-wave (km/s) = 2.82579 3.83613 3.36905
# Velocity P-wave (km/s) = 5.56606 7.33762 6.51236
#
# Compressibility (1/GPa) = 0.01897332
#
# Stress axis : x y z
#
# Youngs Moduli (GPa) = 64.13826 151.61518 127.91709
#
# Poissons Ratio (x) = 0.60449 -0.06239
# Poissons Ratio (y) = 0.25572 0.25792
# Poissons Ratio (z) = -0.03128 0.30570
#
# Static dielectric constant tensor:
#      x y z
#    x 4.347570 0.000000 0.194230 
#    y 0.000000 4.590500 0.000000 
#    z 0.194230 0.000000 5.001400 
# 
# 
# High freq. dielectric constant tensor:
#      x y z
#    x 2.019190 0.000000 0.010830 
#    y 0.000000 2.041120 0.000000 
#    z 0.010830 0.000000 2.057380 
# 
# From -- ./inp_files/2414.got.cif
#   From: 2010.06.25/outbox.cif.g09.slc.cpg/sg15_2_cif.got.tgz:2414.got - 2010.06.28 07:06:18.
