data_PCOD8139776
_publ_section_title
;
Structure prediction by ZEFSAII (Michael W. Deem and Ramdas Pophale) SiO2 
 PCOD8139776
Probable space group: C 2/C
;
_chemical_formula_sum "Si O2"
_cell_formula_units_Z 60
_cell_length_a 20.330866
_cell_length_b 29.289271
_cell_length_c 14.640533
_cell_angle_alpha 90.000000
_cell_angle_beta 159.564998
_cell_angle_gamma 90.000000
_cell_volume 3043.873627
_symmetry_space_group_name_H-M "C 2/C"
_symmetry_group_IT_number 15
_symmetry_cell_setting 'monoclinic'
loop_
_space_group_symop_operation_xyz
x,y,z
-x,y,1/2-z
-x,-y,-z
x,-y,1/2+z
1/2+x,1/2+y,z
1/2-x,1/2+y,1/2-z
1/2-x,1/2-y,-z
1/2+x,1/2-y,1/2+z
loop_
_atom_site_type_symbol
_atom_site_label
_atom_site_fract_x
_atom_site_fract_y
_atom_site_fract_z
Si Si1 0.036580 0.734419 0.530409
Si Si2 0.591826 0.610959 0.268468
Si Si3 0.928362 0.088153 0.555994
Si Si4 0.140644 0.192331 0.016494
Si Si5 0.056441 0.793338 0.926627
Si Si6 0.894452 0.047502 0.871988
Si Si7 0.500000 0.923381 0.250000
Si Si8 0.875919 0.481620 0.918241
O O1 0.063901 0.777332 0.499293
O O2 0.016067 0.751584 0.607164
O O3 0.217650 0.701285 0.765930
O O4 0.851307 0.706330 0.259774
O O5 0.500000 0.607585 0.250000
O O6 0.540228 0.660672 0.162985
O O7 0.817956 0.606452 0.545034
O O8 0.488956 0.571865 0.080125
O O9 0.851818 0.139377 0.444723
O O10 0.775089 0.051745 0.324816
O O11 0.000000 0.077425 0.750000
O O12 0.103165 0.080001 0.714140
O O13 0.000000 0.199780 0.750000
O O14 0.000000 0.781709 0.750000
O O15 0.685818 0.031015 0.622113
O O16 0.000000 0.000000 0.000000
O O17 0.528352 0.954446 0.375477
O O18 0.000000 0.500000 0.000000
#
# Coordination Sequence:
#
# PCOD8139776 Si02
#       8
#     8   8   8   8   8   8   4   8
#     4  10  21  38  65  86 129 161 207 260 311 386
#     4  11  23  41  64  91 127 168 214 265 324 380
#     4  10  22  39  61  85 122 167 203 255 318 371
#     4  10  21  39  63  94 122 162 210 256 321 373
#     4  10  22  40  58  93 124 168 208 255 319 374
#     4  10  20  40  58  83 118 158 204 252 311 371
#     4  12  24  42  64  96 124 170 212 268 330 382
#     4  11  25  39  63  93 121 162 215 262 316 381
#
# _framework density 19.711725999999999
#
# number of rings (size 3 to 8) (size 9 to 14) (size 15 to 20)
#    0.000    1.600    2.667    2.400    1.867    5.333 
#    6.000    0.000    0.000    3.200    0.000    0.000 
#    0.000    0.000    0.000    0.000    0.000    0.000 
#
# Total GULP energy -371694.272451 kJ/mol
# GULP energy per Si atom -12389.809082 kJ/mol
# Density = 1.966686 g / cm^3
# Si number density = 19.711726 Si / 1000 Ang^3
#
#
#
# Elastic Constant Matrix: (Units=GPa)
#
#
# Indices 1 2 3 4 5 6 
#
# 1 120.4173 53.1359 60.7556 0.0020 13.9628 -0.0007
# 2 53.1359 114.6791 67.9748 -0.0001 5.0412 -0.0002
# 3 60.7556 67.9748 129.6208 0.0046 10.4179 -0.0018
# 4 0.0020 -0.0001 0.0046 -13.3771 0.0029 11.7191
# 5 13.9628 5.0412 10.4179 0.0029 39.0060 -0.0011
# 6 -0.0007 -0.0002 -0.0018 11.7191 -0.0011 21.9143
#
#
#
# Elastic Compliance Matrix: (Units=1/GPa)
#
#
# Indices 1 2 3 4 5 6 
#
# 1 0.011905 -0.003220 -0.003661 0.000000 -0.002868 0.000000
# 2 -0.003220 0.013525 -0.005657 -0.000002 0.000916 0.000001
# 3 -0.003661 -0.005657 0.012502 0.000003 -0.001297 -0.000001
# 4 0.000000 -0.000002 0.000003 -0.050906 0.000004 0.027223
# 5 -0.002868 0.000916 -0.001297 0.000004 0.026892 -0.000001
# 6 0.000000 0.000001 -0.000001 0.027223 -0.000001 0.031074
#
#
# Mechanical properties :
#
#
# Convention : Reuss Voigt Hill
#
# Bulk Modulus (GPa) = 77.78720 80.93885 79.36302
# Shear Modulus (GPa) = 67.24714 21.69869 44.47292
#
# Velocity S-wave (km/s) = 5.84717 3.32143 4.75506
# Velocity P-wave (km/s) = 9.22680 7.47393 8.39623
#
# Compressibility (1/GPa) = 0.01285559
#
# Stress axis : x y z
#
# Youngs Moduli (GPa) = 83.99861 73.93846 79.99001
#
# Poissons Ratio (x) = 0.23809 0.29284
# Poissons Ratio (y) = 0.27048 0.45249
# Poissons Ratio (z) = 0.30752 0.41826
#
# Static dielectric constant tensor:
#      x y z
#    x 3.657730 -0.000010 0.338260 
#    y -0.000010 5.506930 -0.000020 
#    z 0.338260 -0.000020 3.738930 
# 
# 
# High freq. dielectric constant tensor:
#      x y z
#    x 1.788750 0.000000 0.002030 
#    y 0.000000 1.773840 0.000000 
#    z 0.002030 0.000000 1.764780 
# 
# From -- ./inp_files/169983.got.cif
#   From: 2010.06.25/outbox.cif.g09.slc.cpg/sg15_85_cif.got.tgz:169983.got - 2010.06.28 07:06:18.
