data_PCOD8139298
_publ_section_title
;
Structure prediction by ZEFSAII (Michael W. Deem and Ramdas Pophale) SiO2 
 PCOD8139298
Probable space group: C 2/C
;
_chemical_formula_sum "Si O2"
_cell_formula_units_Z 48
_cell_length_a 14.579761
_cell_length_b 28.772392
_cell_length_c 9.541809
_cell_angle_alpha 90.000000
_cell_angle_beta 141.108500
_cell_angle_gamma 90.000000
_cell_volume 2513.109015
_symmetry_space_group_name_H-M "C 2/C"
_symmetry_group_IT_number 15
_symmetry_cell_setting 'monoclinic'
loop_
_space_group_symop_operation_xyz
x,y,z
-x,y,1/2-z
-x,-y,-z
x,-y,1/2+z
1/2+x,1/2+y,z
1/2-x,1/2+y,1/2-z
1/2-x,1/2-y,-z
1/2+x,1/2-y,1/2+z
loop_
_atom_site_type_symbol
_atom_site_label
_atom_site_fract_x
_atom_site_fract_y
_atom_site_fract_z
Si Si1 0.923756 0.064358 0.522961
Si Si2 0.190361 0.697472 0.598624
Si Si3 0.877243 0.715664 0.297060
Si Si4 0.177179 0.370589 0.600850
Si Si5 0.847742 0.385148 0.248186
Si Si6 0.880571 0.961078 0.494840
O O1 0.807269 0.098497 0.316216
O O2 0.057923 0.052000 0.582689
O O3 0.844970 0.015739 0.469125
O O4 0.000000 0.087484 0.750000
O O5 0.164601 0.692837 0.402118
O O6 0.324896 0.732679 0.771431
O O7 0.220730 0.648183 0.711523
O O8 0.051529 0.719399 0.512955
O O9 0.807025 0.681869 0.327607
O O10 0.188362 0.365305 0.447772
O O11 0.022411 0.391417 0.471461
O O12 0.773727 0.435429 0.170302
O O13 0.000000 0.944443 0.750000
#
# Coordination Sequence:
#
# PCOD8139298 Si02
#       6
#     8   8   8   8   8   8
#     4  10  22  37  58  84 113 147 187 235 279 329
#     4   9  19  36  55  78 109 147 180 229 279 325
#     4   9  19  36  54  79 112 140 186 230 273 330
#     4  10  21  38  56  84 113 148 187 229 278 333
#     4  10  21  37  59  80 115 150 184 229 278 335
#     4  10  20  39  58  81 115 149 186 230 281 332
#
# _framework density 19.099848999999999
#
# number of rings (size 3 to 8) (size 9 to 14) (size 15 to 20)
#    0.000    2.333    1.667    0.000    2.333    2.667 
#    3.000    0.000    0.000    0.000    0.000    0.000 
#    0.000    0.000    0.000    0.000    0.000    0.000 
#
# Total GULP energy -297512.539585 kJ/mol
# GULP energy per Si atom -12396.355816 kJ/mol
# Density = 1.905638 g / cm^3
# Si number density = 19.099849 Si / 1000 Ang^3
#
#
#
# Elastic Constant Matrix: (Units=GPa)
#
#
# Indices 1 2 3 4 5 6 
#
# 1 51.8801 12.6312 6.1525 0.0000 -12.2978 0.0000
# 2 12.6312 36.9857 6.4715 0.0000 2.4898 0.0000
# 3 6.1525 6.4715 65.6960 0.0000 -5.4700 0.0000
# 4 0.0000 0.0000 0.0000 25.5473 0.0000 0.0318
# 5 -12.2978 2.4898 -5.4700 0.0000 27.9842 0.0000
# 6 0.0000 0.0000 0.0000 0.0318 0.0000 31.1504
#
#
#
# Elastic Compliance Matrix: (Units=1/GPa)
#
#
# Indices 1 2 3 4 5 6 
#
# 1 0.024195 -0.008950 -0.000440 0.000000 0.011343 0.000000
# 2 -0.008950 0.031077 -0.002827 0.000000 -0.007250 0.000000
# 3 -0.000440 -0.002827 0.015803 0.000000 0.003147 0.000000
# 4 0.000000 0.000000 0.000000 0.039143 0.000000 -0.000040
# 5 0.011343 -0.007250 0.003147 0.000000 0.041979 0.000000
# 6 0.000000 0.000000 0.000000 -0.000040 0.000000 0.032102
#
#
# Mechanical properties :
#
#
# Convention : Reuss Voigt Hill
#
# Bulk Modulus (GPa) = 21.43969 22.78579 22.11274
# Shear Modulus (GPa) = 22.29357 25.55682 23.92519
#
# Velocity S-wave (km/s) = 3.42015 3.66192 3.54310
# Velocity P-wave (km/s) = 5.18132 5.46217 5.32360
#
# Compressibility (1/GPa) = 0.04664247
#
# Stress axis : x y z
#
# Youngs Moduli (GPa) = 41.33072 32.17854 63.27784
#
# Poissons Ratio (x) = 0.28798 0.02783
# Poissons Ratio (y) = 0.36989 0.17887
# Poissons Ratio (z) = 0.01818 0.09096
#
# Static dielectric constant tensor:
#      x y z
#    x 3.562810 0.000000 -0.112880 
#    y 0.000000 3.382990 0.000000 
#    z -0.112880 0.000000 3.509590 
# 
# 
# High freq. dielectric constant tensor:
#      x y z
#    x 1.747550 0.000000 -0.009270 
#    y 0.000000 1.730140 0.000000 
#    z -0.009270 0.000000 1.740880 
# 
# From -- ./inp_files/33781.got.cif
#   From: 2010.06.25/outbox.cif.g09.slc.cpg/sg15_17_cif.got.tgz:33781.got - 2010.06.28 07:06:18.
