data_PCOD8139364
_publ_section_title
;
Structure prediction by ZEFSAII (Michael W. Deem and Ramdas Pophale) SiO2 
 PCOD8139364
Probable space group: C 2/C
;
_chemical_formula_sum "Si O2"
_cell_formula_units_Z 64
_cell_length_a 9.091595
_cell_length_b 20.059551
_cell_length_c 21.813321
_cell_angle_alpha 90.000000
_cell_angle_beta 124.744543
_cell_angle_gamma 90.000000
_cell_volume 3268.865204
_symmetry_space_group_name_H-M "C 2/C"
_symmetry_group_IT_number 15
_symmetry_cell_setting 'monoclinic'
loop_
_space_group_symop_operation_xyz
x,y,z
-x,y,1/2-z
-x,-y,-z
x,-y,1/2+z
1/2+x,1/2+y,z
1/2-x,1/2+y,1/2-z
1/2-x,1/2-y,-z
1/2+x,1/2-y,1/2+z
loop_
_atom_site_type_symbol
_atom_site_label
_atom_site_fract_x
_atom_site_fract_y
_atom_site_fract_z
Si Si1 0.601654 0.693554 0.456977
Si Si2 0.389101 0.566070 0.954663
Si Si3 0.018634 0.505315 0.825620
Si Si4 0.966375 0.368278 0.611203
Si Si5 0.314140 0.392037 0.062710
Si Si6 0.745613 0.251442 0.425715
Si Si7 0.136511 0.136910 0.332960
Si Si8 0.673383 0.516784 0.824072
O O1 0.750000 0.750000 0.500000
O O2 0.630173 0.623497 0.498832
O O3 0.431090 0.732860 0.439869
O O4 0.579452 0.672891 0.381508
O O5 0.188499 0.545551 0.890496
O O6 0.491526 0.599141 0.921819
O O7 0.500000 0.500000 0.000000
O O8 0.038688 0.426474 0.840093
O O9 0.000000 0.521142 0.750000
O O10 0.840210 0.526902 0.818691
O O11 0.843112 0.390789 0.524900
O O12 0.894437 0.303856 0.630082
O O13 0.159341 0.346240 0.633484
O O14 0.315092 0.325916 0.105732
O O15 0.273827 0.451667 0.098855
O O16 0.750000 0.250000 0.500000
O O17 0.000000 0.165899 0.250000
O O18 0.120106 0.057507 0.331070
O O19 0.500000 0.549559 0.750000
#
# Coordination Sequence:
#
# PCOD8139364 Si02
#       8
#     8   8   8   8   8   8   8   8
#     4  12  24  40  69  98 131 168 219 270 321 394
#     4  12  23  40  66 101 126 168 223 272 328 386
#     4  11  24  40  64  95 129 168 216 273 329 387
#     4  10  21  39  64  91 124 171 215 264 321 386
#     4  11  21  39  65  91 132 163 216 269 319 393
#     4  10  20  39  60  93 125 165 206 260 325 379
#     4  10  24  42  64  94 131 171 215 272 322 382
#     4  10  23  42  64  92 131 173 213 270 331 384
#
# _framework density 19.578658999999998
#
# number of rings (size 3 to 8) (size 9 to 14) (size 15 to 20)
#    0.000    1.250    3.750    3.000    3.500    6.000 
#    0.000    2.500    0.000    0.000    0.000    0.000 
#    0.000    0.000    0.000    0.000    0.000    0.000 
#
# Total GULP energy -396654.952783 kJ/mol
# GULP energy per Si atom -12395.467274 kJ/mol
# Density = 1.953410 g / cm^3
# Si number density = 19.578659 Si / 1000 Ang^3
#
#
#
# Elastic Constant Matrix: (Units=GPa)
#
#
# Indices 1 2 3 4 5 6 
#
# 1 159.1209 70.7679 69.1452 0.0000 7.0249 0.0000
# 2 70.7679 99.9432 46.5588 0.0000 1.8067 0.0000
# 3 69.1452 46.5588 101.3569 0.0000 -2.9650 0.0000
# 4 0.0000 0.0000 0.0000 4.3620 0.0000 -3.1096
# 5 7.0249 1.8067 -2.9650 0.0000 35.6534 0.0000
# 6 0.0000 0.0000 0.0000 -3.1096 0.0000 42.6191
#
#
#
# Elastic Compliance Matrix: (Units=1/GPa)
#
#
# Indices 1 2 3 4 5 6 
#
# 1 0.010988 -0.005363 -0.005101 0.000000 -0.002317 0.000000
# 2 -0.005363 0.015393 -0.003413 0.000000 -0.000007 0.000000
# 3 -0.005101 -0.003413 0.014984 0.000000 0.002424 0.000000
# 4 0.000000 0.000000 0.000000 0.241831 0.000000 0.017645
# 5 -0.002317 -0.000007 0.002424 0.000000 0.028706 0.000000
# 6 0.000000 0.000000 0.000000 0.017645 0.000000 0.024751
#
#
# Mechanical properties :
#
#
# Convention : Reuss Voigt Hill
#
# Bulk Modulus (GPa) = 73.45569 81.48497 77.47033
# Shear Modulus (GPa) = 13.55222 28.12349 20.83786
#
# Velocity S-wave (km/s) = 2.63381 3.79415 3.26592
# Velocity P-wave (km/s) = 6.84463 7.80408 7.34005
#
# Compressibility (1/GPa) = 0.01361365
#
# Stress axis : x y z
#
# Youngs Moduli (GPa) = 91.00637 64.96581 66.73664
#
# Poissons Ratio (x) = 0.34838 0.34040
# Poissons Ratio (y) = 0.48803 0.22775
# Poissons Ratio (z) = 0.46419 0.22170
#
# Static dielectric constant tensor:
#      x y z
#    x 3.724170 0.000000 0.198900 
#    y 0.000000 4.405010 0.000000 
#    z 0.198900 0.000000 3.434550 
# 
# 
# High freq. dielectric constant tensor:
#      x y z
#    x 1.782720 0.000000 0.004070 
#    y 0.000000 1.770410 0.000000 
#    z 0.004070 0.000000 1.746760 
# 
# From -- ./inp_files/233885.got.cif
#   From: 2010.06.25/outbox.cif.g09.slc.cpg/sg15_117_cif.got.tgz:233885.got - 2010.06.28 07:06:18.
