data_PCOD8139062
_publ_section_title
;
Structure prediction by ZEFSAII (Michael W. Deem and Ramdas Pophale) SiO2 
 PCOD8139062
Probable space group: C 2/C
;
_chemical_formula_sum "Si O2"
_cell_formula_units_Z 60
_cell_length_a 18.876166
_cell_length_b 9.064952
_cell_length_c 20.534017
_cell_angle_alpha 90.000000
_cell_angle_beta 57.771365
_cell_angle_gamma 90.000000
_cell_volume 2972.254330
_symmetry_space_group_name_H-M "C 2/C"
_symmetry_group_IT_number 15
_symmetry_cell_setting 'monoclinic'
loop_
_space_group_symop_operation_xyz
x,y,z
-x,y,1/2-z
-x,-y,-z
x,-y,1/2+z
1/2+x,1/2+y,z
1/2-x,1/2+y,1/2-z
1/2-x,1/2-y,-z
1/2+x,1/2-y,1/2+z
loop_
_atom_site_type_symbol
_atom_site_label
_atom_site_fract_x
_atom_site_fract_y
_atom_site_fract_z
Si Si1 0.294157 0.742796 0.577919
Si Si2 0.969776 0.271578 0.546594
Si Si3 0.064380 0.861939 0.115932
Si Si4 0.597121 0.044727 0.132404
Si Si5 0.238118 0.017081 0.016353
Si Si6 0.371582 0.826039 0.274799
Si Si7 0.463311 0.081730 0.609847
Si Si8 0.000000 0.916285 0.750000
O O1 0.382562 0.704031 0.566752
O O2 0.275559 0.912688 0.565317
O O3 0.294382 0.648926 0.512280
O O4 0.226398 0.694358 0.664792
O O5 0.941579 0.417574 0.598625
O O6 0.022897 0.157241 0.564549
O O7 0.026773 0.310755 0.456421
O O8 0.055128 0.705182 0.157318
O O9 0.161900 0.905612 0.066091
O O10 0.011888 0.984089 0.180250
O O11 0.597618 0.974553 0.203808
O O12 0.548507 0.926693 0.110403
O O13 0.688607 0.070045 0.056614
O O14 0.388572 0.850619 0.190099
O O15 0.418266 0.682840 0.279931
#
# Coordination Sequence:
#
# PCOD8139062 Si02
#       8
#     8   8   8   8   8   8   8   4
#     4  10  21  40  62  90 126 174 208 256 314 392
#     4  10  23  41  63  90 129 165 210 261 323 380
#     4  11  25  39  61 101 129 157 206 279 321 356
#     4  10  20  38  69  89 120 163 216 260 305 374
#     4  10  20  38  64  92 125 164 213 258 311 378
#     4  11  22  40  66  90 120 168 218 253 306 386
#     4  10  20  39  66  87 117 172 213 248 309 392
#     4  12  24  38  62  96 126 158 204 272 314 362
#
# _framework density 20.186699000000001
#
# number of rings (size 3 to 8) (size 9 to 14) (size 15 to 20)
#    0.000    1.600    4.000    0.400    5.600    0.533 
#    2.400    1.333    0.000    0.000    0.000    0.000 
#    0.000    0.000    0.000    0.000    0.000    0.000 
#
# Total GULP energy -371985.264446 kJ/mol
# GULP energy per Si atom -12399.508815 kJ/mol
# Density = 2.014075 g / cm^3
# Si number density = 20.186699 Si / 1000 Ang^3
#
#
#
# Elastic Constant Matrix: (Units=GPa)
#
#
# Indices 1 2 3 4 5 6 
#
# 1 47.4923 6.8519 18.4791 -0.0001 2.3625 -0.0001
# 2 6.8519 67.4683 39.2857 -0.0001 2.5515 -0.0003
# 3 18.4791 39.2857 102.8338 0.0000 15.4161 0.0000
# 4 -0.0001 -0.0001 0.0000 19.9227 0.0000 0.3582
# 5 2.3625 2.5515 15.4161 0.0000 23.4479 0.0000
# 6 -0.0001 -0.0003 0.0000 0.3582 0.0000 29.1169
#
#
#
# Elastic Compliance Matrix: (Units=1/GPa)
#
#
# Indices 1 2 3 4 5 6 
#
# 1 0.022644 0.000119 -0.004183 0.000000 0.000456 0.000000
# 2 0.000119 0.019256 -0.007834 0.000000 0.003043 0.000000
# 3 -0.004183 -0.007834 0.014730 0.000000 -0.008410 0.000000
# 4 0.000000 0.000000 0.000000 0.050205 0.000000 -0.000618
# 5 0.000456 0.003043 -0.008410 0.000000 0.047800 0.000000
# 6 0.000000 0.000000 0.000000 -0.000618 0.000000 0.034352
#
#
# Mechanical properties :
#
#
# Convention : Reuss Voigt Hill
#
# Bulk Modulus (GPa) = 30.45661 38.55862 34.50762
# Shear Modulus (GPa) = 22.34861 24.70934 23.52897
#
# Velocity S-wave (km/s) = 3.33091 3.50242 3.41775
# Velocity P-wave (km/s) = 5.46933 5.95806 5.71892
#
# Compressibility (1/GPa) = 0.03283360
#
# Stress axis : x y z
#
# Youngs Moduli (GPa) = 44.16231 51.93120 67.89008
#
# Poissons Ratio (x) = -0.00616 0.28396
# Poissons Ratio (y) = -0.00524 0.53185
# Poissons Ratio (z) = 0.18472 0.40683
#
# Static dielectric constant tensor:
#      x y z
#    x 3.613030 0.000000 0.062760 
#    y 0.000000 3.580700 0.000000 
#    z 0.062760 0.000000 3.654870 
# 
# 
# High freq. dielectric constant tensor:
#      x y z
#    x 1.773420 0.000000 -0.005010 
#    y 0.000000 1.782530 0.000000 
#    z -0.005010 0.000000 1.793440 
# 
# From -- ./inp_files/252102.got.cif
#   From: 2010.06.25/outbox.cif.g09.slc.cpg/sg15_127_cif.got.tgz:252102.got - 2010.06.28 07:06:18.
