data_PCOD8139547
_publ_section_title
;
Structure prediction by ZEFSAII (Michael W. Deem and Ramdas Pophale) SiO2 
 PCOD8139547
Probable space group: C 2/C
;
_chemical_formula_sum "Si O2"
_cell_formula_units_Z 40
_cell_length_a 6.881232
_cell_length_b 30.908989
_cell_length_c 10.345004
_cell_angle_alpha 90.000000
_cell_angle_beta 68.057764
_cell_angle_gamma 90.000000
_cell_volume 2040.911474
_symmetry_space_group_name_H-M "C 2/C"
_symmetry_group_IT_number 15
_symmetry_cell_setting 'monoclinic'
loop_
_space_group_symop_operation_xyz
x,y,z
-x,y,1/2-z
-x,-y,-z
x,-y,1/2+z
1/2+x,1/2+y,z
1/2-x,1/2+y,1/2-z
1/2-x,1/2-y,-z
1/2+x,1/2-y,1/2+z
loop_
_atom_site_type_symbol
_atom_site_label
_atom_site_fract_x
_atom_site_fract_y
_atom_site_fract_z
Si Si1 0.494787 0.302416 0.896080
Si Si2 0.857586 0.999772 0.407226
Si Si3 0.474365 0.205197 0.898652
Si Si4 0.004517 0.444801 0.895299
Si Si5 0.624490 0.153938 0.097150
O O1 0.500000 0.320342 0.750000
O O2 0.579772 0.253033 0.878169
O O3 0.629449 0.338293 0.939264
O O4 0.268152 0.298573 0.011482
O O5 0.732306 0.044750 0.404435
O O6 0.000000 0.986656 0.250000
O O7 0.677576 0.964272 0.470338
O O8 0.000000 0.000000 0.500000
O O9 0.500000 0.185458 0.750000
O O10 0.596481 0.176979 0.969509
O O11 0.958225 0.394325 0.898838
O O12 0.000000 0.464209 0.750000
O O13 0.500000 0.175342 0.250000
#
# Coordination Sequence:
#
# PCOD8139547 Si02
#       5
#     8   8   8   8   8
#     4  10  20  39  64  85 122 169 211 249 313 369
#     4  11  22  43  69  92 122 166 200 249 319 379
#     4  10  22  39  59  91 123 162 211 262 303 364
#     4  10  23  41  63  97 124 155 214 255 303 384
#     4  11  22  40  62  91 123 165 205 258 311 367
#
# _framework density 19.599086
#
# number of rings (size 3 to 8) (size 9 to 14) (size 15 to 20)
#    0.000    1.600    4.000    0.600    0.000    2.400 
#    7.200    0.000    0.000    0.000    0.000    0.000 
#    0.000    0.000    0.000    0.000    0.000    0.000 
#
# Total GULP energy -247821.906073 kJ/mol
# GULP energy per Si atom -12391.095304 kJ/mol
# Density = 1.955448 g / cm^3
# Si number density = 19.599086 Si / 1000 Ang^3
#
#
#
# Elastic Constant Matrix: (Units=GPa)
#
#
# Indices 1 2 3 4 5 6 
#
# 1 138.0910 54.3643 54.5648 0.0000 20.1646 0.0000
# 2 54.3643 68.7976 34.7302 0.0000 15.9510 0.0000
# 3 54.5648 34.7302 152.2117 0.0000 14.1037 0.0000
# 4 0.0000 0.0000 0.0000 31.5166 0.0000 1.3253
# 5 20.1646 15.9510 14.1037 0.0000 39.3492 0.0000
# 6 0.0000 0.0000 0.0000 1.3253 0.0000 38.2368
#
#
#
# Elastic Compliance Matrix: (Units=1/GPa)
#
#
# Indices 1 2 3 4 5 6 
#
# 1 0.011295 -0.007354 -0.002184 0.000000 -0.002025 0.000000
# 2 -0.007354 0.022452 -0.002061 0.000000 -0.004594 0.000000
# 3 -0.002184 -0.002061 0.007904 0.000000 -0.000879 0.000000
# 4 0.000000 0.000000 0.000000 0.031776 0.000000 -0.001101
# 5 -0.002025 -0.004594 -0.000879 0.000000 0.028628 0.000000
# 6 0.000000 0.000000 0.000000 -0.001101 0.000000 0.026191
#
#
# Mechanical properties :
#
#
# Convention : Reuss Voigt Hill
#
# Bulk Modulus (GPa) = 54.18685 71.82434 63.00559
# Shear Modulus (GPa) = 31.72701 36.18326 33.95514
#
# Velocity S-wave (km/s) = 4.02780 4.30137 4.16683
# Velocity P-wave (km/s) = 7.02414 7.83552 7.44090
#
# Compressibility (1/GPa) = 0.01845466
#
# Stress axis : x y z
#
# Youngs Moduli (GPa) = 88.53391 44.53943 126.51450
#
# Poissons Ratio (x) = 0.32753 0.27625
# Poissons Ratio (y) = 0.65106 0.26075
# Poissons Ratio (z) = 0.19332 0.09180
#
# Static dielectric constant tensor:
#      x y z
#    x 3.702000 0.000000 0.054440 
#    y 0.000000 3.428220 0.000000 
#    z 0.054440 0.000000 3.904900 
# 
# 
# High freq. dielectric constant tensor:
#      x y z
#    x 1.770630 0.000000 0.002160 
#    y 0.000000 1.738240 0.000000 
#    z 0.002160 0.000000 1.780470 
# 
# From -- ./inp_files/73792.got.cif
#   From: 2010.06.25/outbox.cif.g09.slc.cpg/sg15_37_cif.got.tgz:73792.got - 2010.06.28 07:06:18.
