data_PCOD8139739
_publ_section_title
;
Structure prediction by ZEFSAII (Michael W. Deem and Ramdas Pophale) SiO2 
 PCOD8139739
Probable space group: C 2/C
;
_chemical_formula_sum "Si O2"
_cell_formula_units_Z 48
_cell_length_a 14.608800
_cell_length_b 13.827111
_cell_length_c 11.777682
_cell_angle_alpha 90.000000
_cell_angle_beta 110.074859
_cell_angle_gamma 90.000000
_cell_volume 2234.522278
_symmetry_space_group_name_H-M "C 2/C"
_symmetry_group_IT_number 15
_symmetry_cell_setting 'monoclinic'
loop_
_space_group_symop_operation_xyz
x,y,z
-x,y,1/2-z
-x,-y,-z
x,-y,1/2+z
1/2+x,1/2+y,z
1/2-x,1/2+y,1/2-z
1/2-x,1/2-y,-z
1/2+x,1/2-y,1/2+z
loop_
_atom_site_type_symbol
_atom_site_label
_atom_site_fract_x
_atom_site_fract_y
_atom_site_fract_z
Si Si1 0.000000 0.191548 0.250000
Si Si2 0.200912 0.368106 0.202769
Si Si3 0.661157 0.685223 0.919477
Si Si4 0.845620 0.852364 0.843759
Si Si5 0.664845 0.819424 0.428037
Si Si6 0.145218 0.425916 0.649367
Si Si7 0.000000 0.681293 0.250000
O O1 0.062330 0.119015 0.195407
O O2 0.069619 0.259298 0.354474
O O3 0.304983 0.372726 0.179587
O O4 0.151270 0.265198 0.157607
O O5 0.210437 0.380902 0.342769
O O6 0.135738 0.458300 0.134051
O O7 0.569377 0.750980 0.853245
O O8 0.750000 0.750000 0.000000
O O9 0.638112 0.614867 0.017767
O O10 0.747084 0.895165 0.750310
O O11 0.750000 0.750000 0.500000
O O12 0.635588 0.888837 0.517771
O O13 0.058142 0.386239 0.688478
#
# Coordination Sequence:
#
# PCOD8139739 Si02
#       7
#     4   8   8   8   8   8   4
#     4  10  20  39  69  96 122 176 222 267 349 396
#     4  10  23  39  66  97 131 174 222 270 339 394
#     4  10  20  42  65  91 136 176 218 272 332 406
#     4  10  21  42  62  90 133 171 211 277 335 391
#     4  11  21  43  66  92 134 177 220 278 341 406
#     4  12  24  39  68 100 131 174 225 280 334 403
#     4  12  22  41  71  98 128 186 222 265 355 390
#
# _framework density 21.481102
#
# number of rings (size 3 to 8) (size 9 to 14) (size 15 to 20)
#    0.000    1.333    6.667    1.000    2.333    2.667 
#    0.000    8.333    0.000    3.000    0.000    0.000 
#    0.000    0.000    0.000    0.000    0.000    0.000 
#
# Total GULP energy -297422.257850 kJ/mol
# GULP energy per Si atom -12392.594077 kJ/mol
# Density = 2.143221 g / cm^3
# Si number density = 21.481102 Si / 1000 Ang^3
#
#
#
# Elastic Constant Matrix: (Units=GPa)
#
#
# Indices 1 2 3 4 5 6 
#
# 1 151.9641 15.1743 62.1561 0.0000 -29.1012 0.0000
# 2 15.1743 26.5587 12.9815 0.0000 -0.0660 0.0000
# 3 62.1561 12.9815 106.0660 0.0000 -26.5574 0.0000
# 4 0.0000 0.0000 0.0000 13.7428 0.0000 -2.1484
# 5 -29.1012 -0.0660 -26.5574 0.0000 67.4743 0.0000
# 6 0.0000 0.0000 0.0000 -2.1484 0.0000 22.3708
#
#
#
# Elastic Compliance Matrix: (Units=1/GPa)
#
#
# Indices 1 2 3 4 5 6 
#
# 1 0.009110 -0.003040 -0.004419 0.000000 0.002187 0.000000
# 2 -0.003040 0.041332 -0.003988 0.000000 -0.002840 0.000000
# 3 -0.004419 -0.003988 0.013343 0.000000 0.003342 0.000000
# 4 0.000000 0.000000 0.000000 0.073874 0.000000 0.007095
# 5 0.002187 -0.002840 0.003342 0.000000 0.017076 0.000000
# 6 0.000000 0.000000 0.000000 0.007095 0.000000 0.045383
#
#
# Mechanical properties :
#
#
# Convention : Reuss Voigt Hill
#
# Bulk Modulus (GPa) = 24.45596 51.69030 38.07313
# Shear Modulus (GPa) = 21.12893 33.66937 27.39915
#
# Velocity S-wave (km/s) = 3.13965 3.96333 3.57529
# Velocity P-wave (km/s) = 4.95508 6.71263 5.89967
#
# Compressibility (1/GPa) = 0.04088984
#
# Stress axis : x y z
#
# Youngs Moduli (GPa) = 109.76521 24.19456 74.94755
#
# Poissons Ratio (x) = 0.07355 0.33121
# Poissons Ratio (y) = 0.33366 0.29893
# Poissons Ratio (z) = 0.48507 0.09650
#
# Static dielectric constant tensor:
#      x y z
#    x 4.478370 0.000000 -0.759690 
#    y 0.000000 3.577730 0.000000 
#    z -0.759690 0.000000 4.165560 
# 
# 
# High freq. dielectric constant tensor:
#      x y z
#    x 1.857130 0.000000 -0.028760 
#    y 0.000000 1.804590 0.000000 
#    z -0.028760 0.000000 1.858630 
# 
# From -- ./inp_files/96570.got.cif
#   From: 2010.06.25/outbox.cif.g09.slc.cpg/sg15_49_cif.got.tgz:96570.got - 2010.06.28 07:06:18.
