data_PCOD8139544
_publ_section_title
;
Structure prediction by ZEFSAII (Michael W. Deem and Ramdas Pophale) SiO2 
 PCOD8139544
Probable space group: C 2/C
;
_chemical_formula_sum "Si O2"
_cell_formula_units_Z 44
_cell_length_a 14.472159
_cell_length_b 8.635334
_cell_length_c 13.327313
_cell_angle_alpha 90.000000
_cell_angle_beta 105.594421
_cell_angle_gamma 90.000000
_cell_volume 1604.229370
_symmetry_space_group_name_H-M "C 2/C"
_symmetry_group_IT_number 15
_symmetry_cell_setting 'monoclinic'
loop_
_space_group_symop_operation_xyz
x,y,z
-x,y,1/2-z
-x,-y,-z
x,-y,1/2+z
1/2+x,1/2+y,z
1/2-x,1/2+y,1/2-z
1/2-x,1/2-y,-z
1/2+x,1/2-y,1/2+z
loop_
_atom_site_type_symbol
_atom_site_label
_atom_site_fract_x
_atom_site_fract_y
_atom_site_fract_z
Si Si1 0.268811 0.320642 0.114282
Si Si2 0.437144 0.525240 0.112793
Si Si3 0.000000 0.312363 0.250000
Si Si4 0.888675 0.466577 0.967373
Si Si5 0.620600 0.628893 0.614982
Si Si6 0.322543 0.995945 0.177008
O O1 0.351012 0.450079 0.149710
O O2 0.168666 0.404124 0.115594
O O3 0.306253 0.178834 0.194996
O O4 0.250000 0.250000 0.000000
O O5 0.459746 0.703012 0.149436
O O6 0.532439 0.421165 0.161453
O O7 0.399728 0.522761 0.988292
O O8 0.914514 0.425968 0.262770
O O9 0.875670 0.307877 0.906441
O O10 0.841851 0.462502 0.064426
O O11 0.000000 0.500000 0.000000
O O12 0.725645 0.586966 0.689071
#
# Coordination Sequence:
#
# PCOD8139544 Si02
#       6
#     8   8   4   8   8   8
#     4  10  20  39  64 101 126 172 223 282 321 394
#     4  11  23  41  70  99 136 175 225 283 338 403
#     4  12  26  44  62  98 148 182 214 280 364 402
#     4  11  21  36  67 102 127 165 230 283 323 383
#     4  11  21  41  71  99 125 177 238 274 324 402
#     4  11  23  41  67  97 136 178 219 281 337 409
#
# _framework density 27.427498
#
# number of rings (size 3 to 8) (size 9 to 14) (size 15 to 20)
#    0.000    1.091    5.455    3.818    2.545    0.727 
#    0.000    7.273    0.000    0.000    0.000    0.000 
#    0.000    0.000    0.000    0.000    0.000    0.000 
#
# Total GULP energy -272766.860601 kJ/mol
# GULP energy per Si atom -12398.493664 kJ/mol
# Density = 2.736507 g / cm^3
# Si number density = 27.427498 Si / 1000 Ang^3
#
#
#
# Elastic Constant Matrix: (Units=GPa)
#
#
# Indices 1 2 3 4 5 6 
#
# 1 247.9781 109.7033 39.7171 0.0000 47.3692 0.0000
# 2 109.7033 227.3404 8.1230 0.0000 33.7833 0.0000
# 3 39.7171 8.1230 65.2883 0.0000 38.0310 0.0000
# 4 0.0000 0.0000 0.0000 25.7826 0.0000 28.1938
# 5 47.3692 33.7833 38.0310 0.0000 52.2187 0.0000
# 6 0.0000 0.0000 0.0000 28.1938 0.0000 65.5613
#
#
#
# Elastic Compliance Matrix: (Units=1/GPa)
#
#
# Indices 1 2 3 4 5 6 
#
# 1 0.005851 -0.002401 -0.001865 0.000000 -0.002396 0.000000
# 2 -0.002401 0.006029 0.002977 0.000000 -0.003891 0.000000
# 3 -0.001865 0.002977 0.028167 0.000000 -0.020748 0.000000
# 4 0.000000 0.000000 0.000000 0.073216 0.000000 -0.031486
# 5 -0.002396 -0.003891 -0.020748 0.000000 0.038952 0.000000
# 6 0.000000 0.000000 0.000000 -0.031486 0.000000 0.028793
#
#
# Mechanical properties :
#
#
# Convention : Reuss Voigt Hill
#
# Bulk Modulus (GPa) = 26.68875 95.07707 60.88291
# Shear Modulus (GPa) = 25.50045 54.25007 39.87526
#
# Velocity S-wave (km/s) = 3.05247 4.45223 3.81707
# Velocity P-wave (km/s) = 4.70906 7.82112 6.45543
#
# Compressibility (1/GPa) = 0.03746897
#
# Stress axis : x y z
#
# Youngs Moduli (GPa) = 170.90775 165.86620 35.50299
#
# Poissons Ratio (x) = 0.39820 0.06621
# Poissons Ratio (y) = 0.41030 -0.10568
# Poissons Ratio (z) = 0.31871 -0.49373
#
# Static dielectric constant tensor:
#      x y z
#    x 5.469310 0.000000 0.429680 
#    y 0.000000 5.056070 0.000000 
#    z 0.429680 0.000000 5.161990 
# 
# 
# High freq. dielectric constant tensor:
#      x y z
#    x 2.118580 0.000000 0.009950 
#    y 0.000000 2.112780 0.000000 
#    z 0.009950 0.000000 2.129200 
# 
# From -- ./inp_files/202535.got.cif
#   From: 2010.06.25/outbox.cif.g09.slc.cpg/sg15_102_cif.got.tgz:202535.got - 2010.06.28 07:06:18.
