data_PCOD8139342
_publ_section_title
;
Structure prediction by ZEFSAII (Michael W. Deem and Ramdas Pophale) SiO2 
 PCOD8139342
Probable space group: C 2/C
;
_chemical_formula_sum "Si O2"
_cell_formula_units_Z 48
_cell_length_a 16.502013
_cell_length_b 14.268695
_cell_length_c 10.833347
_cell_angle_alpha 90.000000
_cell_angle_beta 90.443370
_cell_angle_gamma 90.000000
_cell_volume 2550.767241
_symmetry_space_group_name_H-M "C 2/C"
_symmetry_group_IT_number 15
_symmetry_cell_setting 'monoclinic'
loop_
_space_group_symop_operation_xyz
x,y,z
-x,y,1/2-z
-x,-y,-z
x,-y,1/2+z
1/2+x,1/2+y,z
1/2-x,1/2+y,1/2-z
1/2-x,1/2-y,-z
1/2+x,1/2-y,1/2+z
loop_
_atom_site_type_symbol
_atom_site_label
_atom_site_fract_x
_atom_site_fract_y
_atom_site_fract_z
Si Si1 0.379992 0.307391 0.467348
Si Si2 0.704105 0.774210 0.121061
Si Si3 0.267538 0.829660 0.847001
Si Si4 0.366110 0.511039 0.387348
Si Si5 0.231176 0.025808 0.861952
Si Si6 0.464837 0.695251 0.381677
O O1 0.348035 0.232651 0.366875
O O2 0.308448 0.310277 0.565479
O O3 0.399732 0.407206 0.407499
O O4 0.465705 0.274984 0.521715
O O5 0.732195 0.692201 0.212479
O O6 0.724122 0.877857 0.173487
O O7 0.608861 0.766057 0.094604
O O8 0.750000 0.750000 0.000000
O O9 0.294127 0.938342 0.865837
O O10 0.308178 0.537643 0.502633
O O11 0.328296 0.507142 0.249330
O O12 0.438769 0.586085 0.390184
O O13 0.500000 0.716794 0.250000
#
# Coordination Sequence:
#
# PCOD8139342 Si02
#       6
#     8   8   8   8   8   8
#     4  10  21  36  61  88 122 160 200 250 314 366
#     4  12  22  40  62  88 123 166 208 252 308 374
#     4  10  20  39  60  87 120 163 208 246 303 377
#     4  11  21  37  61  91 128 159 200 259 315 374
#     4  11  21  38  64  91 119 169 214 249 302 377
#     4  12  22  38  58  95 127 156 203 261 315 370
#
# _framework density 18.817868000000001
#
# number of rings (size 3 to 8) (size 9 to 14) (size 15 to 20)
#    0.000    1.000    6.667    1.500    0.000    0.000 
#    0.000    3.333    0.000    0.000    0.000    0.000 
#    0.000    0.000    0.000    0.000    0.000    0.000 
#
# Total GULP energy -297416.840268 kJ/mol
# GULP energy per Si atom -12392.368345 kJ/mol
# Density = 1.877504 g / cm^3
# Si number density = 18.817868 Si / 1000 Ang^3
#
#
#
# Elastic Constant Matrix: (Units=GPa)
#
#
# Indices 1 2 3 4 5 6 
#
# 1 107.0109 39.9729 20.9797 0.0000 17.1910 0.0000
# 2 39.9729 87.7864 -2.0727 0.0000 0.4075 0.0000
# 3 20.9797 -2.0727 71.2556 0.0000 3.5235 0.0000
# 4 0.0000 0.0000 0.0000 24.3346 0.0000 -2.0021
# 5 17.1910 0.4075 3.5235 0.0000 28.8895 0.0000
# 6 0.0000 0.0000 0.0000 -2.0021 0.0000 29.0720
#
#
#
# Elastic Compliance Matrix: (Units=1/GPa)
#
#
# Indices 1 2 3 4 5 6 
#
# 1 0.013655 -0.006273 -0.003828 0.000000 -0.007570 0.000000
# 2 -0.006273 0.014282 0.002100 0.000000 0.003275 0.000000
# 3 -0.003828 0.002100 0.015203 0.000000 0.000394 0.000000
# 4 0.000000 0.000000 0.000000 0.041328 0.000000 0.002846
# 5 -0.007570 0.003275 0.000394 0.000000 0.039025 0.000000
# 6 0.000000 0.000000 0.000000 0.002846 0.000000 0.034593
#
#
# Mechanical properties :
#
#
# Convention : Reuss Voigt Hill
#
# Bulk Modulus (GPa) = 36.84919 42.64584 39.74752
# Shear Modulus (GPa) = 27.30253 30.27076 28.78664
#
# Velocity S-wave (km/s) = 3.81318 4.01511 3.91545
# Velocity P-wave (km/s) = 6.24593 6.64879 6.45051
#
# Compressibility (1/GPa) = 0.02713764
#
# Stress axis : x y z
#
# Youngs Moduli (GPa) = 73.23515 70.01854 65.77740
#
# Poissons Ratio (x) = 0.43921 0.25183
# Poissons Ratio (y) = 0.45939 -0.13816
# Poissons Ratio (z) = 0.28038 -0.14707
#
# Static dielectric constant tensor:
#      x y z
#    x 3.242680 0.000000 0.057620 
#    y 0.000000 4.168750 0.000000 
#    z 0.057620 0.000000 3.597600 
# 
# 
# High freq. dielectric constant tensor:
#      x y z
#    x 1.701580 0.000000 0.010100 
#    y 0.000000 1.740080 0.000000 
#    z 0.010100 0.000000 1.744880 
# 
# From -- ./inp_files/96321.got.cif
#   From: 2010.06.25/outbox.cif.g09.slc.cpg/sg15_49_cif.got.tgz:96321.got - 2010.06.28 07:06:18.
