data_PCOD8139773
_publ_section_title
;
Structure prediction by ZEFSAII (Michael W. Deem and Ramdas Pophale) SiO2 
 PCOD8139773
Probable space group: C 2/C
;
_chemical_formula_sum "Si O2"
_cell_formula_units_Z 40
_cell_length_a 22.766445
_cell_length_b 16.613085
_cell_length_c 9.012965
_cell_angle_alpha 90.000000
_cell_angle_beta 141.115551
_cell_angle_gamma 90.000000
_cell_volume 2139.937865
_symmetry_space_group_name_H-M "C 2/C"
_symmetry_group_IT_number 15
_symmetry_cell_setting 'monoclinic'
loop_
_space_group_symop_operation_xyz
x,y,z
-x,y,1/2-z
-x,-y,-z
x,-y,1/2+z
1/2+x,1/2+y,z
1/2-x,1/2+y,1/2-z
1/2-x,1/2-y,-z
1/2+x,1/2-y,1/2+z
loop_
_atom_site_type_symbol
_atom_site_label
_atom_site_fract_x
_atom_site_fract_y
_atom_site_fract_z
Si Si1 0.893789 0.068026 0.053879
Si Si2 0.853989 0.908938 0.145287
Si Si3 0.660494 0.726424 0.417585
Si Si4 0.314099 0.190815 0.220354
Si Si5 0.023836 0.251677 0.631396
O O1 0.836925 0.131043 0.043460
O O2 0.000000 0.099556 0.250000
O O3 0.894027 0.980341 0.125422
O O4 0.847383 0.063383 0.801801
O O5 0.924268 0.834345 0.263547
O O6 0.747435 0.890069 0.882345
O O7 0.750000 0.750000 0.500000
O O8 0.658657 0.774501 0.567102
O O9 0.570304 0.748182 0.146147
O O10 0.409810 0.180635 0.314629
O O11 0.250000 0.250000 0.000000
O O12 0.000000 0.280111 0.750000
#
# Coordination Sequence:
#
# PCOD8139773 Si02
#       5
#     8   8   8   8   8
#     4  12  23  39  57  92 126 160 192 250 309 368
#     4  11  24  37  61  88 130 153 197 245 309 366
#     4  12  23  37  62  90 121 161 208 246 303 357
#     4  10  20  40  57  86 119 159 200 250 287 357
#     4  11  22  38  61  89 121 159 201 250 300 356
#
# _framework density 18.692132000000001
#
# number of rings (size 3 to 8) (size 9 to 14) (size 15 to 20)
#    0.000    0.800    6.000    4.200    5.600    0.000 
#    0.000    0.000    0.000    1.200    0.000    0.000 
#    0.000    0.000    0.000    0.000    0.000    0.000 
#
# Total GULP energy -247999.342240 kJ/mol
# GULP energy per Si atom -12399.967112 kJ/mol
# Density = 1.864959 g / cm^3
# Si number density = 18.692132 Si / 1000 Ang^3
#
#
#
# Elastic Constant Matrix: (Units=GPa)
#
#
# Indices 1 2 3 4 5 6 
#
# 1 150.3562 36.9552 60.7680 0.0000 6.3256 0.0000
# 2 36.9552 58.7027 31.8925 0.0000 10.4893 0.0000
# 3 60.7680 31.8925 136.7989 0.0000 -3.2937 0.0000
# 4 0.0000 0.0000 0.0000 22.2589 0.0000 -0.9401
# 5 6.3256 10.4893 -3.2937 0.0000 39.6511 0.0000
# 6 0.0000 0.0000 0.0000 -0.9401 0.0000 36.1991
#
#
#
# Elastic Compliance Matrix: (Units=1/GPa)
#
#
# Indices 1 2 3 4 5 6 
#
# 1 0.008848 -0.003787 -0.003063 0.000000 -0.000664 0.000000
# 2 -0.003787 0.022426 -0.003682 0.000000 -0.005634 0.000000
# 3 -0.003063 -0.003682 0.009584 0.000000 0.002259 0.000000
# 4 0.000000 0.000000 0.000000 0.044975 0.000000 0.001168
# 5 -0.000664 -0.005634 0.002259 0.000000 0.027004 0.000000
# 6 0.000000 0.000000 0.000000 0.001168 0.000000 0.027655
#
#
# Mechanical properties :
#
#
# Convention : Reuss Voigt Hill
#
# Bulk Modulus (GPa) = 50.52260 67.23210 58.87735
# Shear Modulus (GPa) = 29.73473 34.03795 31.88634
#
# Velocity S-wave (km/s) = 3.99276 4.27192 4.13470
# Velocity P-wave (km/s) = 6.95296 7.77037 7.37300
#
# Compressibility (1/GPa) = 0.01979312
#
# Stress axis : x y z
#
# Youngs Moduli (GPa) = 113.02397 44.59119 104.34577
#
# Poissons Ratio (x) = 0.16886 0.31965
# Poissons Ratio (y) = 0.42801 0.38417
# Poissons Ratio (z) = 0.34624 0.16417
#
# Static dielectric constant tensor:
#      x y z
#    x 3.806890 0.000000 0.140120 
#    y 0.000000 3.396710 0.000000 
#    z 0.140120 0.000000 4.127390 
# 
# 
# High freq. dielectric constant tensor:
#      x y z
#    x 1.743340 0.000000 -0.008830 
#    y 0.000000 1.687820 0.000000 
#    z -0.008830 0.000000 1.741080 
# 
# From -- ./inp_files/29068.got.cif
#   From: 2010.06.25/outbox.cif.g09.slc.cpg/sg15_15_cif.got.tgz:29068.got - 2010.06.28 07:06:18.
