data_PCOD8139095
_publ_section_title
;
Structure prediction by ZEFSAII (Michael W. Deem and Ramdas Pophale) SiO2 
 PCOD8139095
Probable space group: C 2/C
;
_chemical_formula_sum "Si O2"
_cell_formula_units_Z 48
_cell_length_a 9.252552
_cell_length_b 18.804954
_cell_length_c 21.328560
_cell_angle_alpha 90.000000
_cell_angle_beta 137.207027
_cell_angle_gamma 90.000000
_cell_volume 2521.098204
_symmetry_space_group_name_H-M "C 2/C"
_symmetry_group_IT_number 15
_symmetry_cell_setting 'monoclinic'
loop_
_space_group_symop_operation_xyz
x,y,z
-x,y,1/2-z
-x,-y,-z
x,-y,1/2+z
1/2+x,1/2+y,z
1/2-x,1/2+y,1/2-z
1/2-x,1/2-y,-z
1/2+x,1/2-y,1/2+z
loop_
_atom_site_type_symbol
_atom_site_label
_atom_site_fract_x
_atom_site_fract_y
_atom_site_fract_z
Si Si1 0.987039 0.945122 0.315997
Si Si2 0.269057 0.166423 0.503647
Si Si3 0.058626 0.581444 0.503904
Si Si4 0.645659 0.578765 0.147490
Si Si5 0.524779 0.065024 0.352187
Si Si6 0.453349 0.094958 0.808071
O O1 0.796283 0.886625 0.260606
O O2 0.000000 0.978443 0.250000
O O3 0.202412 0.902612 0.398209
O O4 0.961526 0.007063 0.359884
O O5 0.250000 0.250000 0.500000
O O6 0.406706 0.137319 0.489866
O O7 0.380281 0.145582 0.604571
O O8 0.031249 0.137798 0.419723
O O9 0.000000 0.500000 0.500000
O O10 0.044350 0.600285 0.426097
O O11 0.752303 0.566302 0.113738
O O12 0.832105 0.604573 0.254195
O O13 0.467182 0.982805 0.343042
O O14 0.500000 0.093609 0.750000
#
# Coordination Sequence:
#
# PCOD8139095 Si02
#       6
#     8   8   8   8   8   8
#     4  11  19  34  63 100 125 151 207 285 328 372
#     4  12  27  44  59  90 137 180 215 259 333 412
#     4  12  21  37  66  97 124 164 215 275 321 378
#     4  10  21  38  62  90 129 159 206 275 322 385
#     4  10  20  38  65 101 119 154 218 276 335 370
#     4  11  21  39  64  96 129 159 210 274 336 377
#
# _framework density 19.039321999999999
#
# number of rings (size 3 to 8) (size 9 to 14) (size 15 to 20)
#    0.000    1.000    8.333    1.000    2.333    1.333 
#    3.000    4.167    0.000    0.000    0.000    0.000 
#    0.000    0.000    0.000    0.000    0.000    0.000 
#
# Total GULP energy -297532.690041 kJ/mol
# GULP energy per Si atom -12397.195418 kJ/mol
# Density = 1.899599 g / cm^3
# Si number density = 19.039322 Si / 1000 Ang^3
#
#
#
# Elastic Constant Matrix: (Units=GPa)
#
#
# Indices 1 2 3 4 5 6 
#
# 1 125.8611 29.2886 47.8664 0.0004 3.7489 0.0002
# 2 29.2886 85.4687 45.9244 0.0001 10.5340 0.0001
# 3 47.8664 45.9244 119.8886 0.0006 13.6431 0.0004
# 4 0.0004 0.0001 0.0006 11.2270 0.0004 3.6370
# 5 3.7489 10.5340 13.6431 0.0004 49.1163 0.0002
# 6 0.0002 0.0001 0.0004 3.6370 0.0002 17.3213
#
#
#
# Elastic Compliance Matrix: (Units=1/GPa)
#
#
# Indices 1 2 3 4 5 6 
#
# 1 0.009538 -0.001580 -0.003262 0.000000 0.000517 0.000000
# 2 -0.001580 0.015124 -0.004964 0.000000 -0.001744 0.000000
# 3 -0.003262 -0.004964 0.011767 0.000000 -0.001955 0.000000
# 4 0.000000 0.000000 0.000000 0.095571 -0.000001 -0.020067
# 5 0.000517 -0.001744 -0.001955 -0.000001 0.021237 0.000000
# 6 0.000000 0.000000 0.000000 -0.020067 0.000000 0.061946
#
#
# Mechanical properties :
#
#
# Convention : Reuss Voigt Hill
#
# Bulk Modulus (GPa) = 59.45983 64.15304 61.80643
# Shear Modulus (GPa) = 20.79858 29.40887 25.10372
#
# Velocity S-wave (km/s) = 3.30874 3.93445 3.63508
# Velocity P-wave (km/s) = 6.77457 7.37618 7.08177
#
# Compressibility (1/GPa) = 0.01681808
#
# Stress axis : x y z
#
# Youngs Moduli (GPa) = 104.84421 66.12091 84.98008
#
# Poissons Ratio (x) = 0.10444 0.27719
# Poissons Ratio (y) = 0.16560 0.42186
# Poissons Ratio (z) = 0.34199 0.32824
#
# Static dielectric constant tensor:
#      x y z
#    x 3.816120 0.000000 0.217240 
#    y 0.000000 2.901490 0.000000 
#    z 0.217240 0.000000 4.094750 
# 
# 
# High freq. dielectric constant tensor:
#      x y z
#    x 1.767870 0.000000 0.005430 
#    y 0.000000 1.667260 0.000000 
#    z 0.005430 0.000000 1.764530 
# 
# From -- ./inp_files/233988.got.cif
#   From: 2010.06.25/outbox.cif.g09.slc.cpg/sg15_117_cif.got.tgz:233988.got - 2010.06.28 07:06:18.
