data_PCOD8139072
_publ_section_title
;
Structure prediction by ZEFSAII (Michael W. Deem and Ramdas Pophale) SiO2 
 PCOD8139072
Probable space group: C 2/C
;
_chemical_formula_sum "Si O2"
_cell_formula_units_Z 56
_cell_length_a 16.681030
_cell_length_b 17.879449
_cell_length_c 9.549628
_cell_angle_alpha 90.000000
_cell_angle_beta 67.911422
_cell_angle_gamma 90.000000
_cell_volume 2639.109669
_symmetry_space_group_name_H-M "C 2/C"
_symmetry_group_IT_number 15
_symmetry_cell_setting 'monoclinic'
loop_
_space_group_symop_operation_xyz
x,y,z
-x,y,1/2-z
-x,-y,-z
x,-y,1/2+z
1/2+x,1/2+y,z
1/2-x,1/2+y,1/2-z
1/2-x,1/2-y,-z
1/2+x,1/2-y,1/2+z
loop_
_atom_site_type_symbol
_atom_site_label
_atom_site_fract_x
_atom_site_fract_y
_atom_site_fract_z
Si Si1 0.548109 0.551851 0.359135
Si Si2 0.178402 0.333620 0.659818
Si Si3 0.000000 0.288806 0.750000
Si Si4 0.726610 0.197055 0.830511
Si Si5 0.051018 0.775719 0.933635
Si Si6 0.249452 0.954439 0.698478
Si Si7 0.317065 0.920817 0.347090
Si Si8 0.000000 0.659260 0.750000
O O1 0.500000 0.532375 0.250000
O O2 0.500000 0.500000 0.500000
O O3 0.535026 0.639434 0.399223
O O4 0.648296 0.526728 0.280513
O O5 0.076130 0.346637 0.741704
O O6 0.188952 0.244953 0.687512
O O7 0.206221 0.353538 0.481807
O O8 0.234211 0.376266 0.736864
O O9 0.026956 0.232599 0.610433
O O10 0.651006 0.255950 0.846471
O O11 0.740108 0.145941 0.684363
O O12 0.993478 0.714935 0.886779
O O13 0.275251 0.947954 0.519027
O O14 0.311702 0.012685 0.737558
O O15 0.416089 0.894475 0.300807
#
# Coordination Sequence:
#
# PCOD8139072 Si02
#       8
#     8   8   4   8   8   8   8   4
#     4  12  27  45  66  92 133 180 224 286 337 406
#     4  10  20  38  64  93 134 168 222 271 339 402
#     4  10  22  33  63 102 124 168 216 274 332 403
#     4   9  20  40  64  90 127 181 216 282 328 400
#     4  10  20  42  63  95 131 166 229 276 333 390
#     4  12  25  44  63  99 134 182 221 283 345 412
#     4  11  25  42  69  97 138 176 230 276 347 412
#     4  10  22  45  73 102 130 180 224 290 332 397
#
# _framework density 21.219277000000002
#
# number of rings (size 3 to 8) (size 9 to 14) (size 15 to 20)
#    0.000    1.429    2.143    2.571    1.000    4.000 
#    0.000    0.000    0.000    0.000    0.000    0.000 
#    0.000    0.000    0.000    0.000    0.000    0.000 
#
# Total GULP energy -347098.241663 kJ/mol
# GULP energy per Si atom -12396.365774 kJ/mol
# Density = 2.117098 g / cm^3
# Si number density = 21.219277 Si / 1000 Ang^3
#
#
#
# Elastic Constant Matrix: (Units=GPa)
#
#
# Indices 1 2 3 4 5 6 
#
# 1 117.9659 37.9512 63.5212 0.0000 4.9826 0.0000
# 2 37.9512 95.6138 71.0783 0.0000 3.0113 0.0000
# 3 63.5212 71.0783 139.8972 0.0000 13.0201 0.0000
# 4 0.0000 0.0000 0.0000 24.4484 0.0000 11.5531
# 5 4.9826 3.0113 13.0201 0.0000 35.2664 0.0000
# 6 0.0000 0.0000 0.0000 11.5531 0.0000 38.3615
#
#
#
# Elastic Compliance Matrix: (Units=1/GPa)
#
#
# Indices 1 2 3 4 5 6 
#
# 1 0.011290 -0.001065 -0.004603 0.000000 0.000195 0.000000
# 2 -0.001065 0.017016 -0.008326 0.000000 0.001772 0.000000
# 3 -0.004603 -0.008326 0.013817 0.000000 -0.003740 0.000000
# 4 0.000000 0.000000 0.000000 0.047689 0.000000 -0.014362
# 5 0.000195 0.001772 -0.003740 0.000000 0.029557 0.000000
# 6 0.000000 0.000000 0.000000 -0.014362 0.000000 0.030393
#
#
# Mechanical properties :
#
#
# Convention : Reuss Voigt Hill
#
# Bulk Modulus (GPa) = 70.75916 77.61982 74.18949
# Shear Modulus (GPa) = 27.40276 31.67700 29.53988
#
# Velocity S-wave (km/s) = 3.59752 3.86792 3.73517
# Velocity P-wave (km/s) = 7.11865 7.52376 7.32401
#
# Compressibility (1/GPa) = 0.01413245
#
# Stress axis : x y z
#
# Youngs Moduli (GPa) = 88.57182 58.76987 72.37637
#
# Poissons Ratio (x) = 0.06262 0.33317
# Poissons Ratio (y) = 0.09437 0.60262
# Poissons Ratio (z) = 0.40772 0.48933
#
# Static dielectric constant tensor:
#      x y z
#    x 3.990630 0.000000 0.209610 
#    y 0.000000 3.780670 0.000000 
#    z 0.209610 0.000000 3.835850 
# 
# 
# High freq. dielectric constant tensor:
#      x y z
#    x 1.846350 0.000000 0.019190 
#    y 0.000000 1.825360 0.000000 
#    z 0.019190 0.000000 1.833510 
# 
# From -- ./inp_files/49048.got.cif
#   From: 2010.06.25/outbox.cif.g09.slc.cpg/sg15_25_cif.got.tgz:49048.got - 2010.06.28 07:06:18.
