data_PCOD8139939
_publ_section_title
;
Structure prediction by ZEFSAII (Michael W. Deem and Ramdas Pophale) SiO2 
 PCOD8139939
Probable space group: C 2/C
;
_chemical_formula_sum "Si O2"
_cell_formula_units_Z 60
_cell_length_a 11.982161
_cell_length_b 14.223561
_cell_length_c 22.286483
_cell_angle_alpha 90.000000
_cell_angle_beta 49.505146
_cell_angle_gamma 90.000000
_cell_volume 2888.443358
_symmetry_space_group_name_H-M "C 2/C"
_symmetry_group_IT_number 15
_symmetry_cell_setting 'monoclinic'
loop_
_space_group_symop_operation_xyz
x,y,z
-x,y,1/2-z
-x,-y,-z
x,-y,1/2+z
1/2+x,1/2+y,z
1/2-x,1/2+y,1/2-z
1/2-x,1/2-y,-z
1/2+x,1/2-y,1/2+z
loop_
_atom_site_type_symbol
_atom_site_label
_atom_site_fract_x
_atom_site_fract_y
_atom_site_fract_z
Si Si1 0.801040 0.245009 0.577117
Si Si2 0.044774 0.342561 0.875004
Si Si3 0.702829 0.440372 0.365533
Si Si4 0.394383 0.636264 0.432634
Si Si5 0.689459 0.566469 0.271256
Si Si6 0.931634 0.856513 0.394863
Si Si7 0.000000 0.957220 0.250000
Si Si8 0.276928 0.034976 0.462112
O O1 0.909438 0.316853 0.573061
O O2 0.729236 0.161870 0.643138
O O3 0.659561 0.297378 0.601783
O O4 0.901433 0.195223 0.491546
O O5 0.195644 0.352940 0.784913
O O6 0.962333 0.253340 0.875791
O O7 0.951287 0.439796 0.901463
O O8 0.776534 0.488829 0.281497
O O9 0.536766 0.417111 0.402375
O O10 0.715176 0.513676 0.416874
O O11 0.557231 0.603405 0.359525
O O12 0.272361 0.553428 0.479851
O O13 0.630120 0.522312 0.230201
O O14 0.930730 0.896357 0.327673
O O15 0.780665 0.871101 0.483735
#
# Coordination Sequence:
#
# PCOD8139939 Si02
#       8
#     8   8   8   8   8   8   4   8
#     4   9  21  40  62  95 122 153 216 262 297 373
#     4  11  25  38  58  98 130 155 206 264 313 352
#     4   9  20  38  68  84 119 161 213 245 304 372
#     4  10  20  41  68  89 118 170 211 249 314 369
#     4  11  22  40  63  89 120 171 203 255 311 377
#     4  10  21  40  59  90 119 166 204 252 304 377
#     4  10  20  40  64  84 124 158 212 246 318 372
#     4  11  21  39  66  89 118 167 208 250 304 376
#
# _framework density 20.772434000000001
#
# number of rings (size 3 to 8) (size 9 to 14) (size 15 to 20)
#    0.000    1.867    2.667    1.600    3.733    2.133 
#    2.400   14.667    0.000    0.000    0.000    0.000 
#    0.000    0.000    0.000    0.000    0.000    0.000 
#
# Total GULP energy -371660.010808 kJ/mol
# GULP energy per Si atom -12388.667027 kJ/mol
# Density = 2.072516 g / cm^3
# Si number density = 20.772434 Si / 1000 Ang^3
#
#
#
# Elastic Constant Matrix: (Units=GPa)
#
#
# Indices 1 2 3 4 5 6 
#
# 1 90.5837 53.2205 49.3369 0.0000 22.5382 0.0000
# 2 53.2205 99.4378 56.5768 0.0000 4.0970 0.0000
# 3 49.3369 56.5768 88.2036 0.0000 0.9630 0.0000
# 4 0.0000 0.0000 0.0000 28.6472 0.0000 2.0674
# 5 22.5382 4.0970 0.9630 0.0000 30.5234 0.0000
# 6 0.0000 0.0000 0.0000 2.0674 0.0000 31.7886
#
#
#
# Elastic Compliance Matrix: (Units=1/GPa)
#
#
# Indices 1 2 3 4 5 6 
#
# 1 0.024194 -0.007351 -0.008636 0.000000 -0.016605 0.000000
# 2 -0.007351 0.018169 -0.007578 0.000000 0.003228 0.000000
# 3 -0.008636 -0.007578 0.020956 0.000000 0.006733 0.000000
# 4 0.000000 0.000000 0.000000 0.035072 0.000000 -0.002281
# 5 -0.016605 0.003228 0.006733 0.000000 0.044377 0.000000
# 6 0.000000 0.000000 0.000000 -0.002281 0.000000 0.031606
#
#
# Mechanical properties :
#
#
# Convention : Reuss Voigt Hill
#
# Bulk Modulus (GPa) = 61.77384 66.27707 64.02546
# Shear Modulus (GPa) = 22.03602 26.13121 24.08361
#
# Velocity S-wave (km/s) = 3.26057 3.55064 3.40869
# Velocity P-wave (km/s) = 6.63159 6.98462 6.81040
#
# Compressibility (1/GPa) = 0.01618808
#
# Stress axis : x y z
#
# Youngs Moduli (GPa) = 41.33283 55.03736 47.72004
#
# Poissons Ratio (x) = 0.40457 0.41213
# Poissons Ratio (y) = 0.30383 0.36163
# Poissons Ratio (z) = 0.35697 0.41708
#
# Static dielectric constant tensor:
#      x y z
#    x 3.796610 0.000000 0.296330 
#    y 0.000000 3.976030 0.000000 
#    z 0.296330 0.000000 3.578800 
# 
# 
# High freq. dielectric constant tensor:
#      x y z
#    x 1.807490 0.000000 0.022730 
#    y 0.000000 1.820360 0.000000 
#    z 0.022730 0.000000 1.796360 
# 
# From -- ./inp_files/269953.got.cif
#   From: 2010.06.25/outbox.cif.g09.slc.cpg/sg15_135_cif.got.tgz:269953.got - 2010.06.28 07:06:18.
