data_PCOD8139353
_publ_section_title
;
Structure prediction by ZEFSAII (Michael W. Deem and Ramdas Pophale) SiO2 
 PCOD8139353
Probable space group: C 2/C
;
_chemical_formula_sum "Si O2"
_cell_formula_units_Z 44
_cell_length_a 7.870706
_cell_length_b 16.380967
_cell_length_c 20.612071
_cell_angle_alpha 90.000000
_cell_angle_beta 51.386642
_cell_angle_gamma 90.000000
_cell_volume 2076.511625
_symmetry_space_group_name_H-M "C 2/C"
_symmetry_group_IT_number 15
_symmetry_cell_setting 'monoclinic'
loop_
_space_group_symop_operation_xyz
x,y,z
-x,y,1/2-z
-x,-y,-z
x,-y,1/2+z
1/2+x,1/2+y,z
1/2-x,1/2+y,1/2-z
1/2-x,1/2-y,-z
1/2+x,1/2-y,1/2+z
loop_
_atom_site_type_symbol
_atom_site_label
_atom_site_fract_x
_atom_site_fract_y
_atom_site_fract_z
Si Si1 0.620079 0.671903 0.896149
Si Si2 0.000000 0.567487 0.750000
Si Si3 0.739674 0.990175 0.313041
Si Si4 0.322744 0.671952 0.847514
Si Si5 0.317787 0.346485 0.847250
Si Si6 0.961338 0.804791 0.946212
O O1 0.842794 0.625120 0.829037
O O2 0.439164 0.649957 0.886885
O O3 0.658143 0.769343 0.886808
O O4 0.529143 0.644344 0.988669
O O5 0.864123 0.509557 0.733996
O O6 0.671341 0.906403 0.365742
O O7 0.000000 0.990180 0.250000
O O8 0.670870 0.073397 0.366209
O O9 0.500000 0.689811 0.750000
O O10 0.176884 0.751296 0.888037
O O11 0.500000 0.330987 0.750000
O O12 0.438140 0.361311 0.887900
O O13 0.750000 0.750000 0.000000
#
# Coordination Sequence:
#
# PCOD8139353 Si02
#       6
#     8   4   8   8   8   8
#     4  11  21  38  65  91 123 163 215 254 308 369
#     4  12  20  42  64  90 122 178 208 254 316 378
#     4  10  21  38  61  89 125 162 213 252 308 379
#     4  11  20  39  63  93 123 166 213 250 306 381
#     4  10  20  39  60  90 124 161 208 257 309 368
#     4  10  22  38  62  93 125 163 206 259 308 367
#
# _framework density 21.189384
#
# number of rings (size 3 to 8) (size 9 to 14) (size 15 to 20)
#    0.000    1.455    4.545    3.818    0.000    0.000 
#    8.182    9.091    0.000    0.000    0.000    0.000 
#    0.000    0.000    0.000    0.000    0.000    0.000 
#
# Total GULP energy -272727.976769 kJ/mol
# GULP energy per Si atom -12396.726217 kJ/mol
# Density = 2.114116 g / cm^3
# Si number density = 21.189384 Si / 1000 Ang^3
#
#
#
# Elastic Constant Matrix: (Units=GPa)
#
#
# Indices 1 2 3 4 5 6 
#
# 1 136.5245 32.8585 50.8599 -0.0003 39.5325 0.0021
# 2 32.8585 80.2003 34.9832 -0.0004 11.0313 0.0013
# 3 50.8599 34.9832 131.1717 -0.0002 39.1196 0.0013
# 4 -0.0003 -0.0004 -0.0002 2.9351 0.0005 18.8353
# 5 39.5325 11.0313 39.1196 0.0005 46.8213 -0.0019
# 6 0.0021 0.0013 0.0013 18.8353 -0.0019 3.8480
#
#
#
# Elastic Compliance Matrix: (Units=1/GPa)
#
#
# Indices 1 2 3 4 5 6 
#
# 1 0.010539 -0.002808 -0.001173 -0.000002 -0.007256 0.000001
# 2 -0.002808 0.014860 -0.003379 0.000000 0.001693 0.000000
# 3 -0.001173 -0.003379 0.011250 -0.000001 -0.007613 0.000000
# 4 -0.000002 0.000000 -0.000001 -0.011203 0.000005 0.054838
# 5 -0.007256 0.001693 -0.007613 0.000005 0.033446 -0.000002
# 6 0.000001 0.000000 0.000000 0.054838 -0.000002 -0.008545
#
#
# Mechanical properties :
#
#
# Convention : Reuss Voigt Hill
#
# Bulk Modulus (GPa) = 45.60394 65.03329 55.31862
# Shear Modulus (GPa) = 69.08225 26.00055 47.54140
#
# Velocity S-wave (km/s) = 5.71604 3.50674 4.74185
# Velocity P-wave (km/s) = 8.07049 6.86690 7.49290
#
# Compressibility (1/GPa) = 0.02192793
#
# Stress axis : x y z
#
# Youngs Moduli (GPa) = 94.88798 67.29283 88.88734
#
# Poissons Ratio (x) = 0.18895 0.10429
# Poissons Ratio (y) = 0.26644 0.30039
# Poissons Ratio (z) = 0.11134 0.22741
#
# Static dielectric constant tensor:
#      x y z
#    x 4.047540 0.000000 0.589360 
#    y 0.000000 4.169530 0.000000 
#    z 0.589360 0.000000 4.904070 
# 
# 
# High freq. dielectric constant tensor:
#      x y z
#    x 1.838820 0.000000 0.024220 
#    y 0.000000 1.810270 0.000000 
#    z 0.024220 0.000000 1.827410 
# 
# From -- ./inp_files/231010.got.cif
#   From: 2010.06.25/outbox.cif.g09.slc.cpg/sg15_116_cif.got.tgz:231010.got - 2010.06.28 07:06:18.
