data_PCOD8139800
_publ_section_title
;
Structure prediction by ZEFSAII (Michael W. Deem and Ramdas Pophale) SiO2 
 PCOD8139800
Probable space group: C 2/C
;
_chemical_formula_sum "Si O2"
_cell_formula_units_Z 48
_cell_length_a 11.991038
_cell_length_b 14.347507
_cell_length_c 14.999051
_cell_angle_alpha 90.000000
_cell_angle_beta 70.395476
_cell_angle_gamma 90.000000
_cell_volume 2430.872519
_symmetry_space_group_name_H-M "C 2/C"
_symmetry_group_IT_number 15
_symmetry_cell_setting 'monoclinic'
loop_
_space_group_symop_operation_xyz
x,y,z
-x,y,1/2-z
-x,-y,-z
x,-y,1/2+z
1/2+x,1/2+y,z
1/2-x,1/2+y,1/2-z
1/2-x,1/2-y,-z
1/2+x,1/2-y,1/2+z
loop_
_atom_site_type_symbol
_atom_site_label
_atom_site_fract_x
_atom_site_fract_y
_atom_site_fract_z
Si Si1 0.018418 0.308526 0.846290
Si Si2 0.389705 0.034016 0.473450
Si Si3 0.234618 0.176691 0.130867
Si Si4 0.845648 0.015409 0.849288
Si Si5 0.432362 0.599631 0.649741
Si Si6 0.721441 0.126466 0.583458
O O1 0.149865 0.336577 0.840105
O O2 0.002395 0.199178 0.866010
O O3 0.000000 0.337794 0.750000
O O4 0.918343 0.363589 0.928793
O O5 0.274298 0.040146 0.566745
O O6 0.500000 0.000000 0.500000
O O7 0.369119 0.960913 0.395976
O O8 0.180882 0.282549 0.153354
O O9 0.148050 0.093261 0.184308
O O10 0.266902 0.160104 0.020111
O O11 0.856623 0.082540 0.760525
O O12 0.958807 0.027252 0.884260
O O13 0.347143 0.589968 0.587605
#
# Coordination Sequence:
#
# PCOD8139800 Si02
#       6
#     8   8   8   8   8   8
#     4  11  21  39  61  89 121 162 193 254 311 353
#     4  11  22  37  64  93 124 155 202 252 301 361
#     4   9  19  36  63  82 122 154 199 244 303 357
#     4  10  20  40  60  89 122 158 199 257 294 360
#     4  10  22  40  63  85 123 161 204 247 304 351
#     4   9  19  37  62  87 113 163 195 244 298 361
#
# _framework density 19.745996999999999
#
# number of rings (size 3 to 8) (size 9 to 14) (size 15 to 20)
#    0.000    2.000    5.000    0.000    2.333    3.333 
#    0.000    0.000   22.000    0.000    0.000    0.000 
#    0.000    0.000    0.000    0.000    0.000    0.000 
#
# Total GULP energy -297324.760450 kJ/mol
# GULP energy per Si atom -12388.531685 kJ/mol
# Density = 1.970105 g / cm^3
# Si number density = 19.745997 Si / 1000 Ang^3
#
#
#
# Elastic Constant Matrix: (Units=GPa)
#
#
# Indices 1 2 3 4 5 6 
#
# 1 144.9327 72.4823 52.8245 0.0000 21.0116 0.0000
# 2 72.4823 149.4866 30.5519 0.0000 -3.4108 0.0000
# 3 52.8245 30.5519 62.7696 0.0000 9.5244 0.0000
# 4 0.0000 0.0000 0.0000 29.7346 0.0000 -1.5745
# 5 21.0116 -3.4108 9.5244 0.0000 41.6381 0.0000
# 6 0.0000 0.0000 0.0000 -1.5745 0.0000 45.9881
#
#
#
# Elastic Compliance Matrix: (Units=1/GPa)
#
#
# Indices 1 2 3 4 5 6 
#
# 1 0.012829 -0.004762 -0.007704 0.000000 -0.005102 0.000000
# 2 -0.004762 0.009286 -0.001028 0.000000 0.003399 0.000000
# 3 -0.007704 -0.001028 0.023141 0.000000 -0.001490 0.000000
# 4 0.000000 0.000000 0.000000 0.033692 0.000000 0.001154
# 5 -0.005102 0.003399 -0.001490 0.000000 0.027210 0.000000
# 6 0.000000 0.000000 0.000000 0.001154 0.000000 0.021784
#
#
# Mechanical properties :
#
#
# Convention : Reuss Voigt Hill
#
# Bulk Modulus (GPa) = 54.74189 74.32293 64.53241
# Shear Modulus (GPa) = 31.05173 36.89417 33.97295
#
# Velocity S-wave (km/s) = 3.96985 4.32723 4.15239
# Velocity P-wave (km/s) = 6.98543 7.91756 7.46606
#
# Compressibility (1/GPa) = 0.01826754
#
# Stress axis : x y z
#
# Youngs Moduli (GPa) = 77.94769 107.68535 43.21259
#
# Poissons Ratio (x) = 0.51283 0.33293
# Poissons Ratio (y) = 0.37121 0.04442
# Poissons Ratio (z) = 0.60054 0.11069
#
# Static dielectric constant tensor:
#      x y z
#    x 3.706020 0.000000 0.310740 
#    y 0.000000 4.493730 0.000000 
#    z 0.310740 0.000000 3.446860 
# 
# 
# High freq. dielectric constant tensor:
#      x y z
#    x 1.769990 0.000000 0.034660 
#    y 0.000000 1.788620 0.000000 
#    z 0.034660 0.000000 1.738470 
# 
# From -- ./inp_files/143531.got.cif
#   From: 2010.06.25/outbox.cif.g09.slc.cpg/sg15_72_cif.got.tgz:143531.got - 2010.06.28 07:06:18.
