data_PCOD8139417
_publ_section_title
;
Structure prediction by ZEFSAII (Michael W. Deem and Ramdas Pophale) SiO2 
 PCOD8139417
Probable space group: C 2/C
;
_chemical_formula_sum "Si O2"
_cell_formula_units_Z 56
_cell_length_a 33.247862
_cell_length_b 6.406079
_cell_length_c 17.704329
_cell_angle_alpha 90.000000
_cell_angle_beta 132.847806
_cell_angle_gamma 90.000000
_cell_volume 2764.622563
_symmetry_space_group_name_H-M "C 2/C"
_symmetry_group_IT_number 15
_symmetry_cell_setting 'monoclinic'
loop_
_space_group_symop_operation_xyz
x,y,z
-x,y,1/2-z
-x,-y,-z
x,-y,1/2+z
1/2+x,1/2+y,z
1/2-x,1/2+y,1/2-z
1/2-x,1/2-y,-z
1/2+x,1/2-y,1/2+z
loop_
_atom_site_type_symbol
_atom_site_label
_atom_site_fract_x
_atom_site_fract_y
_atom_site_fract_z
Si Si1 0.170604 0.887903 0.358806
Si Si2 0.631082 0.345167 0.535501
Si Si3 0.910480 0.997784 0.867793
Si Si4 0.793198 0.398743 0.464164
Si Si5 0.860886 0.779155 0.563327
Si Si6 0.547550 0.981697 0.862627
Si Si7 0.503329 0.804005 0.449643
O O1 0.172297 0.698440 0.420773
O O2 0.228595 0.888952 0.390842
O O3 0.124011 0.863016 0.235784
O O4 0.155813 0.104274 0.381270
O O5 0.629785 0.382953 0.623654
O O6 0.688206 0.230492 0.586519
O O7 0.626483 0.565597 0.488442
O O8 0.579491 0.204354 0.444546
O O9 0.945849 0.819347 0.871733
O O10 0.949017 0.153536 0.961571
O O11 0.808317 0.640050 0.473933
O O12 0.912652 0.624152 0.638430
O O13 0.500000 0.880902 0.750000
O O14 0.517589 0.127833 0.884155
O O15 0.500000 0.000000 0.500000
#
# Coordination Sequence:
#
# PCOD8139417 Si02
#       7
#     8   8   8   8   8   8   8
#     4  10  21  40  66  90 117 156 205 248 299 365
#     4  10  21  40  57  86 127 154 194 256 298 361
#     4  11  23  40  60  88 124 163 197 247 309 358
#     4   9  21  41  62  91 120 152 202 255 296 357
#     4  10  20  39  62  85 119 156 198 251 302 355
#     4  11  22  37  60  87 116 162 207 249 301 356
#     4  11  23  40  60  85 125 160 203 248 299 367
#
# _framework density 20.255929999999999
#
# number of rings (size 3 to 8) (size 9 to 14) (size 15 to 20)
#    0.000    1.714    2.857    1.286    0.000    5.143 
#    2.571    0.000    0.000    0.000    0.000    0.000 
#    0.000    0.000    0.000    0.000    0.000    0.000 
#
# Total GULP energy -347167.418149 kJ/mol
# GULP energy per Si atom -12398.836362 kJ/mol
# Density = 2.020983 g / cm^3
# Si number density = 20.255930 Si / 1000 Ang^3
#
#
#
# Elastic Constant Matrix: (Units=GPa)
#
#
# Indices 1 2 3 4 5 6 
#
# 1 122.6628 28.0550 25.3266 0.0000 -2.7189 0.0000
# 2 28.0550 83.8393 16.3821 -0.0002 -0.3325 0.0022
# 3 25.3266 16.3821 69.0868 0.0001 6.1876 -0.0001
# 4 0.0000 -0.0002 0.0001 21.9001 -0.0001 -4.6168
# 5 -2.7189 -0.3325 6.1876 -0.0001 18.8573 0.0003
# 6 0.0000 0.0022 -0.0001 -4.6168 0.0003 28.3104
#
#
#
# Elastic Compliance Matrix: (Units=1/GPa)
#
#
# Indices 1 2 3 4 5 6 
#
# 1 0.009417 -0.002545 -0.003056 0.000000 0.002316 0.000000
# 2 -0.002545 0.013223 -0.002257 0.000000 0.000607 -0.000001
# 3 -0.003056 -0.002257 0.016663 0.000000 -0.005948 0.000000
# 4 0.000000 0.000000 0.000000 0.047288 0.000000 0.007711
# 5 0.002316 0.000607 -0.005948 0.000000 0.055326 -0.000001
# 6 0.000000 -0.000001 0.000000 0.007711 -0.000001 0.036580
#
#
# Mechanical properties :
#
#
# Convention : Reuss Voigt Hill
#
# Bulk Modulus (GPa) = 42.39681 46.12403 44.26042
# Shear Modulus (GPa) = 24.74347 27.53524 26.13936
#
# Velocity S-wave (km/s) = 3.49885 3.69096 3.59619
# Velocity P-wave (km/s) = 6.10726 6.40190 6.25631
#
# Compressibility (1/GPa) = 0.02358668
#
# Stress axis : x y z
#
# Youngs Moduli (GPa) = 106.19327 75.62856 60.01424
#
# Poissons Ratio (x) = 0.19246 0.18341
# Poissons Ratio (y) = 0.27024 0.13544
# Poissons Ratio (z) = 0.32453 0.17068
#
# Static dielectric constant tensor:
#      x y z
#    x 4.078840 -0.000090 -0.110650 
#    y -0.000090 2.914480 0.000090 
#    z -0.110650 0.000090 3.342400 
# 
# 
# High freq. dielectric constant tensor:
#      x y z
#    x 1.817010 0.000000 -0.002770 
#    y 0.000000 1.798390 0.000000 
#    z -0.002770 0.000000 1.756940 
# 
# From -- ./inp_files/221219.got.cif
#   From: 2010.06.25/outbox.cif.g09.slc.cpg/sg15_111_cif.got.tgz:221219.got - 2010.06.28 07:06:18.
