data_PCOD8139963
_publ_section_title
;
Structure prediction by ZEFSAII (Michael W. Deem and Ramdas Pophale) SiO2 
 PCOD8139963
Probable space group: C 2/C
;
_chemical_formula_sum "Si O2"
_cell_formula_units_Z 64
_cell_length_a 18.109138
_cell_length_b 14.648413
_cell_length_c 13.796347
_cell_angle_alpha 90.000000
_cell_angle_beta 123.190755
_cell_angle_gamma 90.000000
_cell_volume 3062.678866
_symmetry_space_group_name_H-M "C 2/C"
_symmetry_group_IT_number 15
_symmetry_cell_setting 'monoclinic'
loop_
_space_group_symop_operation_xyz
x,y,z
-x,y,1/2-z
-x,-y,-z
x,-y,1/2+z
1/2+x,1/2+y,z
1/2-x,1/2+y,1/2-z
1/2-x,1/2-y,-z
1/2+x,1/2-y,1/2+z
loop_
_atom_site_type_symbol
_atom_site_label
_atom_site_fract_x
_atom_site_fract_y
_atom_site_fract_z
Si Si1 0.696286 0.727450 0.367586
Si Si2 0.579062 0.424988 0.876123
Si Si3 0.645453 0.615368 0.993077
Si Si4 0.365866 0.851147 0.929587
Si Si5 0.403058 0.282825 0.217837
Si Si6 0.896323 0.405292 0.165124
Si Si7 0.032354 0.180806 0.537300
Si Si8 0.168313 0.410095 0.792004
O O1 0.750000 0.750000 0.500000
O O2 0.634216 0.641984 0.346762
O O3 0.772939 0.704669 0.345236
O O4 0.638323 0.817034 0.298854
O O5 0.500000 0.456756 0.750000
O O6 0.631362 0.513218 0.946186
O O7 0.551581 0.380597 0.958283
O O8 0.664064 0.672882 0.907949
O O9 0.567030 0.659831 0.000478
O O10 0.729353 0.616061 0.123231
O O11 0.452206 0.785917 0.984448
O O12 0.361930 0.925647 0.841207
O O13 0.368202 0.901444 0.033115
O O14 0.500000 0.303352 0.250000
O O15 0.399395 0.331214 0.322198
O O16 0.388325 0.174651 0.209351
O O17 0.851457 0.497025 0.168085
O O18 0.000000 0.410901 0.250000
#
# Coordination Sequence:
#
# PCOD8139963 Si02
#       8
#     8   8   8   8   8   8   8   8
#     4  10  20  40  64  89 131 160 205 263 321 369
#     4  12  23  37  62  96 128 168 207 258 319 380
#     4  11  23  39  62  93 128 165 209 254 322 380
#     4  10  23  42  64  95 127 165 214 269 316 378
#     4   9  20  43  65  87 125 163 208 263 312 374
#     4  11  23  42  66  89 126 169 213 260 320 375
#     4  10  21  39  62  91 126 161 206 255 316 377
#     4  11  24  41  64  92 124 167 216 260 317 371
#
# _framework density 20.896739
#
# number of rings (size 3 to 8) (size 9 to 14) (size 15 to 20)
#    0.000    1.500    2.500    4.125    1.750    0.500 
#    2.250    1.250    0.000    0.000    0.000    0.000 
#    0.000    0.000    0.000    0.000    0.000    0.000 
#
# Total GULP energy -396499.749755 kJ/mol
# GULP energy per Si atom -12390.617180 kJ/mol
# Density = 2.084918 g / cm^3
# Si number density = 20.896739 Si / 1000 Ang^3
#
#
#
# Elastic Constant Matrix: (Units=GPa)
#
#
# Indices 1 2 3 4 5 6 
#
# 1 72.8187 43.6963 38.2586 0.0000 -0.2503 0.0000
# 2 43.6963 96.3194 42.0867 0.0000 -20.6677 0.0000
# 3 38.2586 42.0867 89.2054 0.0000 -11.8303 0.0000
# 4 0.0000 0.0000 0.0000 29.8201 0.0000 -3.9548
# 5 -0.2503 -20.6677 -11.8303 0.0000 32.9673 0.0000
# 6 0.0000 0.0000 0.0000 -3.9548 0.0000 23.1475
#
#
#
# Elastic Compliance Matrix: (Units=1/GPa)
#
#
# Indices 1 2 3 4 5 6 
#
# 1 0.022537 -0.009105 -0.006409 0.000000 -0.007837 0.000000
# 2 -0.009105 0.018127 -0.003306 0.000000 0.010108 0.000000
# 3 -0.006409 -0.003306 0.015999 0.000000 0.003620 0.000000
# 4 0.000000 0.000000 0.000000 0.034312 0.000000 0.005862
# 5 -0.007837 0.010108 0.003620 0.000000 0.037909 0.000000
# 6 0.000000 0.000000 0.000000 0.005862 0.000000 0.044203
#
#
# Mechanical properties :
#
#
# Convention : Reuss Voigt Hill
#
# Bulk Modulus (GPa) = 52.57463 56.26965 54.42214
# Shear Modulus (GPa) = 23.03420 26.14043 24.58732
#
# Velocity S-wave (km/s) = 3.32367 3.54069 3.43390
# Velocity P-wave (km/s) = 6.32004 6.61069 6.46700
#
# Compressibility (1/GPa) = 0.01902058
#
# Stress axis : x y z
#
# Youngs Moduli (GPa) = 44.37148 55.16780 62.50439
#
# Poissons Ratio (x) = 0.50232 0.40061
# Poissons Ratio (y) = 0.40401 0.20666
# Poissons Ratio (z) = 0.28439 0.18241
#
# Static dielectric constant tensor:
#      x y z
#    x 4.635070 0.000000 -0.141600 
#    y 0.000000 4.688590 0.000000 
#    z -0.141600 0.000000 4.001310 
# 
# 
# High freq. dielectric constant tensor:
#      x y z
#    x 1.816180 0.000000 -0.004780 
#    y 0.000000 1.814350 0.000000 
#    z -0.004780 0.000000 1.827510 
# 
# From -- ./inp_files/162561.got.cif
#   From: 2010.06.25/outbox.cif.g09.slc.cpg/sg15_82_cif.got.tgz:162561.got - 2010.06.28 07:06:18.
