data_PCOD8139064
_publ_section_title
;
Structure prediction by ZEFSAII (Michael W. Deem and Ramdas Pophale) SiO2 
 PCOD8139064
Probable space group: C 2/C
;
_chemical_formula_sum "Si O2"
_cell_formula_units_Z 60
_cell_length_a 23.473124
_cell_length_b 8.606840
_cell_length_c 17.910145
_cell_angle_alpha 90.000000
_cell_angle_beta 54.016756
_cell_angle_gamma 90.000000
_cell_volume 2927.949740
_symmetry_space_group_name_H-M "C 2/C"
_symmetry_group_IT_number 15
_symmetry_cell_setting 'monoclinic'
loop_
_space_group_symop_operation_xyz
x,y,z
-x,y,1/2-z
-x,-y,-z
x,-y,1/2+z
1/2+x,1/2+y,z
1/2-x,1/2+y,1/2-z
1/2-x,1/2-y,-z
1/2+x,1/2-y,1/2+z
loop_
_atom_site_type_symbol
_atom_site_label
_atom_site_fract_x
_atom_site_fract_y
_atom_site_fract_z
Si Si1 0.811430 0.172002 0.288784
Si Si2 0.428846 0.088981 0.258473
Si Si3 0.500000 0.643338 0.250000
Si Si4 0.028186 0.827539 0.471630
Si Si5 0.654098 0.156456 0.428514
Si Si6 0.133712 0.323767 0.112418
Si Si7 0.912328 0.091201 0.723251
Si Si8 0.088986 0.597342 0.875235
O O1 0.729418 0.179718 0.330534
O O2 0.820532 0.210508 0.369957
O O3 0.851669 0.290400 0.203863
O O4 0.841187 0.996396 0.252007
O O5 0.500000 0.080157 0.250000
O O6 0.397204 0.264451 0.289661
O O7 0.369095 0.989409 0.345114
O O8 0.440168 0.017809 0.166348
O O9 0.555237 0.752083 0.164275
O O10 0.536879 0.541117 0.284191
O O11 0.103115 0.804396 0.455538
O O12 0.045049 0.811559 0.371583
O O13 0.973908 0.699640 0.542597
O O14 0.000000 0.000000 0.500000
O O15 0.668286 0.145622 0.505869
O O16 0.619414 0.001955 0.420560
#
# Coordination Sequence:
#
# PCOD8139064 Si02
#       8
#     8   8   4   8   8   8   8   8
#     4  10  25  45  62  91 134 176 211 258 328 393
#     4  11  21  38  63  92 130 163 215 267 328 372
#     4  10  20  38  64  92 128 164 212 260 334 370
#     4  12  24  40  64  97 129 157 220 270 316 377
#     4  12  25  41  69  92 133 169 217 263 328 380
#     4  10  22  40  65  91 126 172 216 263 315 390
#     4  11  22  38  62  93 128 165 210 269 318 380
#     4  11  25  40  64  96 129 170 216 267 323 383
#
# _framework density 20.492153999999999
#
# number of rings (size 3 to 8) (size 9 to 14) (size 15 to 20)
#    0.000    1.067    4.000    2.400    5.600    0.000 
#    0.000    2.000    0.000    0.000    0.000    0.000 
#    0.000    0.000    0.000    0.000    0.000    0.000 
#
# Total GULP energy -371848.093571 kJ/mol
# GULP energy per Si atom -12394.936452 kJ/mol
# Density = 2.044551 g / cm^3
# Si number density = 20.492154 Si / 1000 Ang^3
#
#
#
# Elastic Constant Matrix: (Units=GPa)
#
#
# Indices 1 2 3 4 5 6 
#
# 1 87.4313 46.9326 45.4543 0.0004 -21.8460 -0.0004
# 2 46.9326 144.9106 39.5194 0.0006 -12.5192 -0.0012
# 3 45.4543 39.5194 102.1646 0.0005 -2.8735 -0.0002
# 4 0.0004 0.0006 0.0005 23.2387 -0.0003 7.0574
# 5 -21.8460 -12.5192 -2.8735 -0.0003 40.5719 0.0001
# 6 -0.0004 -0.0012 -0.0002 7.0574 0.0001 22.2621
#
#
#
# Elastic Compliance Matrix: (Units=1/GPa)
#
#
# Indices 1 2 3 4 5 6 
#
# 1 0.019094 -0.003558 -0.006874 0.000000 0.008697 0.000000
# 2 -0.003558 0.008574 -0.001716 0.000000 0.000608 0.000000
# 3 -0.006874 -0.001716 0.013418 0.000000 -0.003281 0.000000
# 4 0.000000 0.000000 0.000000 0.047616 0.000000 -0.015095
# 5 0.008697 0.000608 -0.003281 0.000000 0.029286 0.000000
# 6 0.000000 0.000000 0.000000 -0.015095 0.000000 0.049705
#
#
# Mechanical properties :
#
#
# Convention : Reuss Voigt Hill
#
# Bulk Modulus (GPa) = 59.56363 66.47989 63.02176
# Shear Modulus (GPa) = 25.30535 30.72122 28.01329
#
# Velocity S-wave (km/s) = 3.51790 3.87611 3.70134
# Velocity P-wave (km/s) = 6.75503 7.24875 7.00624
#
# Compressibility (1/GPa) = 0.01678877
#
# Stress axis : x y z
#
# Youngs Moduli (GPa) = 52.37148 116.63447 74.52516
#
# Poissons Ratio (x) = 0.41499 0.51231
# Poissons Ratio (y) = 0.18634 0.12791
# Poissons Ratio (z) = 0.36002 0.20019
#
# Static dielectric constant tensor:
#      x y z
#    x 3.683940 0.000000 0.125410 
#    y 0.000000 4.138340 0.000000 
#    z 0.125410 0.000000 3.833360 
# 
# 
# High freq. dielectric constant tensor:
#      x y z
#    x 1.790910 0.000000 0.008210 
#    y 0.000000 1.816130 0.000000 
#    z 0.008210 0.000000 1.796580 
# 
# From -- ./inp_files/214272.got.cif
#   From: 2010.06.25/outbox.cif.g09.slc.cpg/sg15_108_cif.got.tgz:214272.got - 2010.06.28 07:06:18.
