data_PCOD8139187
_publ_section_title
;
Structure prediction by ZEFSAII (Michael W. Deem and Ramdas Pophale) SiO2 
 PCOD8139187
Probable space group: C 2/C
;
_chemical_formula_sum "Si O2"
_cell_formula_units_Z 44
_cell_length_a 12.176208
_cell_length_b 19.344583
_cell_length_c 9.210971
_cell_angle_alpha 90.000000
_cell_angle_beta 68.272315
_cell_angle_gamma 90.000000
_cell_volume 2015.445055
_symmetry_space_group_name_H-M "C 2/C"
_symmetry_group_IT_number 15
_symmetry_cell_setting 'monoclinic'
loop_
_space_group_symop_operation_xyz
x,y,z
-x,y,1/2-z
-x,-y,-z
x,-y,1/2+z
1/2+x,1/2+y,z
1/2-x,1/2+y,1/2-z
1/2-x,1/2-y,-z
1/2+x,1/2-y,1/2+z
loop_
_atom_site_type_symbol
_atom_site_label
_atom_site_fract_x
_atom_site_fract_y
_atom_site_fract_z
Si Si1 0.000000 0.105618 0.250000
Si Si2 0.445666 0.269450 0.957304
Si Si3 0.296378 0.178979 0.836991
Si Si4 0.347171 0.805484 0.997664
Si Si5 0.749197 0.051532 0.435405
Si Si6 0.633512 0.940594 0.685364
O O1 0.004394 0.156389 0.387912
O O2 0.886324 0.056046 0.319741
O O3 0.407335 0.227887 0.828046
O O4 0.528529 0.231473 0.031515
O O5 0.323780 0.277598 0.103436
O O6 0.313190 0.154666 0.663256
O O7 0.290613 0.114593 0.945818
O O8 0.250000 0.750000 0.000000
O O9 0.363244 0.860752 0.862932
O O10 0.670955 0.053160 0.331911
O O11 0.723004 0.982159 0.537488
O O12 0.500000 0.970139 0.750000
#
# Coordination Sequence:
#
# PCOD8139187 Si02
#       6
#     4   8   8   8   8   8
#     4  10  20  42  72  98 132 174 226 280 332 404
#     4  10  20  38  66  96 130 177 216 269 334 390
#     4  10  22  40  68  93 133 172 222 268 329 398
#     4  12  25  39  65 100 137 170 221 274 334 397
#     4  11  25  46  69  98 133 182 231 273 343 397
#     4  12  27  44  68  98 138 179 227 281 333 408
#
# _framework density 21.831406000000001
#
# number of rings (size 3 to 8) (size 9 to 14) (size 15 to 20)
#    0.000    1.091    1.818    3.818    7.636    2.182 
#    0.000    1.818    0.000    0.000    0.000    0.000 
#    0.000    0.000    0.000    0.000    0.000    0.000 
#
# Total GULP energy -272819.748444 kJ/mol
# GULP energy per Si atom -12400.897657 kJ/mol
# Density = 2.178172 g / cm^3
# Si number density = 21.831406 Si / 1000 Ang^3
#
#
#
# Elastic Constant Matrix: (Units=GPa)
#
#
# Indices 1 2 3 4 5 6 
#
# 1 149.7484 57.4784 50.7139 0.0000 -9.7758 0.0000
# 2 57.4784 90.5950 31.8236 0.0000 -2.6953 0.0000
# 3 50.7139 31.8236 88.3356 0.0000 3.5212 0.0000
# 4 0.0000 0.0000 0.0000 41.6607 0.0000 -7.6848
# 5 -9.7758 -2.6953 3.5212 0.0000 47.2480 0.0000
# 6 0.0000 0.0000 0.0000 -7.6848 0.0000 23.5512
#
#
#
# Elastic Compliance Matrix: (Units=1/GPa)
#
#
# Indices 1 2 3 4 5 6 
#
# 1 0.010086 -0.004892 -0.004113 0.000000 0.002114 0.000000
# 2 -0.004892 0.015063 -0.002620 0.000000 0.000042 0.000000
# 3 -0.004113 -0.002620 0.014709 0.000000 -0.002097 0.000000
# 4 0.000000 0.000000 0.000000 0.025541 0.000000 0.008334
# 5 0.002114 0.000042 -0.002097 0.000000 0.021761 0.000000
# 6 0.000000 0.000000 0.000000 0.008334 0.000000 0.045180
#
#
# Mechanical properties :
#
#
# Convention : Reuss Voigt Hill
#
# Bulk Modulus (GPa) = 60.20494 67.63453 63.91973
# Shear Modulus (GPa) = 31.03166 35.06953 33.05059
#
# Velocity S-wave (km/s) = 3.77427 4.01231 3.89511
# Velocity P-wave (km/s) = 6.82866 7.24655 7.04071
#
# Compressibility (1/GPa) = 0.01660993
#
# Stress axis : x y z
#
# Youngs Moduli (GPa) = 99.14459 66.38639 67.98576
#
# Poissons Ratio (x) = 0.32475 0.27960
# Poissons Ratio (y) = 0.48499 0.17812
# Poissons Ratio (z) = 0.40774 0.17393
#
# Static dielectric constant tensor:
#      x y z
#    x 4.036390 0.000000 -0.178090 
#    y 0.000000 3.796870 0.000000 
#    z -0.178090 0.000000 4.031190 
# 
# 
# High freq. dielectric constant tensor:
#      x y z
#    x 1.869800 0.000000 -0.014050 
#    y 0.000000 1.842890 0.000000 
#    z -0.014050 0.000000 1.874300 
# 
# From -- ./inp_files/30698.got.cif
#   From: 2010.06.25/outbox.cif.g09.slc.cpg/sg15_16_cif.got.tgz:30698.got - 2010.06.28 07:06:18.
