data_PCOD8139686
_publ_section_title
;
Structure prediction by ZEFSAII (Michael W. Deem and Ramdas Pophale) SiO2 
 PCOD8139686
Probable space group: C 2/C
;
_chemical_formula_sum "Si O2"
_cell_formula_units_Z 48
_cell_length_a 9.896753
_cell_length_b 28.170585
_cell_length_c 16.933960
_cell_angle_alpha 90.000000
_cell_angle_beta 149.225105
_cell_angle_gamma 90.000000
_cell_volume 2415.650320
_symmetry_space_group_name_H-M "C 2/C"
_symmetry_group_IT_number 15
_symmetry_cell_setting 'monoclinic'
loop_
_space_group_symop_operation_xyz
x,y,z
-x,y,1/2-z
-x,-y,-z
x,-y,1/2+z
1/2+x,1/2+y,z
1/2-x,1/2+y,1/2-z
1/2-x,1/2-y,-z
1/2+x,1/2-y,1/2+z
loop_
_atom_site_type_symbol
_atom_site_label
_atom_site_fract_x
_atom_site_fract_y
_atom_site_fract_z
Si Si1 0.516419 0.217863 0.850103
Si Si2 0.273736 0.125811 0.476207
Si Si3 0.173233 0.635184 0.172658
Si Si4 0.104781 0.977277 0.892562
Si Si5 0.937127 0.463647 0.809497
Si Si6 0.018029 0.731340 0.166667
O O1 0.500000 0.228420 0.750000
O O2 0.249941 0.232739 0.760075
O O3 0.750000 0.250000 0.000000
O O4 0.558470 0.161175 0.884054
O O5 0.412781 0.124704 0.460356
O O6 0.248272 0.071433 0.493461
O O7 0.981827 0.147261 0.328057
O O8 0.093270 0.591764 0.188431
O O9 0.029882 0.680555 0.132698
O O10 0.000000 0.971809 0.750000
O O11 0.842831 0.989055 0.812035
O O12 0.323117 0.017805 0.014637
O O13 0.000000 0.473224 0.750000
O O14 0.000000 0.724678 0.250000
O O15 0.750000 0.750000 0.000000
#
# Coordination Sequence:
#
# PCOD8139686 Si02
#       6
#     8   8   8   8   8   8
#     4  12  24  42  70  94 123 171 219 258 309 385
#     4  10  20  39  67  92 117 167 221 253 305 381
#     4  10  20  40  66  87 125 171 208 254 322 380
#     4  11  22  42  68  92 130 173 213 262 322 385
#     4  11  23  41  65  98 126 168 215 264 323 378
#     4  12  25  41  60  94 131 161 203 264 322 367
#
# _framework density 19.870426999999999
#
# number of rings (size 3 to 8) (size 9 to 14) (size 15 to 20)
#    0.000    1.000    5.000    4.500    0.000    0.667 
#    3.000    0.833    0.000    0.000    0.000    0.000 
#    0.000    0.000    0.000    0.000    0.000    0.000 
#
# Total GULP energy -297559.282242 kJ/mol
# GULP energy per Si atom -12398.303427 kJ/mol
# Density = 1.982520 g / cm^3
# Si number density = 19.870427 Si / 1000 Ang^3
#
#
#
# Elastic Constant Matrix: (Units=GPa)
#
#
# Indices 1 2 3 4 5 6 
#
# 1 118.2312 27.7655 37.9885 -0.0001 12.7212 0.0001
# 2 27.7655 91.9797 54.2907 -0.0001 11.5389 0.0000
# 3 37.9885 54.2907 108.9081 -0.0001 14.0157 0.0000
# 4 -0.0001 -0.0001 -0.0001 41.9395 -0.0001 3.4274
# 5 12.7212 11.5389 14.0157 -0.0001 34.9316 0.0001
# 6 0.0001 0.0000 0.0000 3.4274 0.0001 29.7953
#
#
#
# Elastic Compliance Matrix: (Units=1/GPa)
#
#
# Indices 1 2 3 4 5 6 
#
# 1 0.009785 -0.001180 -0.002548 0.000000 -0.002151 0.000000
# 2 -0.001180 0.015697 -0.007172 0.000000 -0.001878 0.000000
# 3 -0.002548 -0.007172 0.013942 0.000000 -0.002297 0.000000
# 4 0.000000 0.000000 0.000000 0.024070 0.000000 -0.002769
# 5 -0.002151 -0.001878 -0.002297 0.000000 0.030953 0.000000
# 6 0.000000 0.000000 0.000000 -0.002769 0.000000 0.033881
#
#
# Mechanical properties :
#
#
# Convention : Reuss Voigt Hill
#
# Bulk Modulus (GPa) = 56.74014 62.13428 59.43721
# Shear Modulus (GPa) = 32.05100 34.60490 33.32795
#
# Velocity S-wave (km/s) = 4.02057 4.17769 4.09988
# Velocity P-wave (km/s) = 7.08311 7.38975 7.23805
#
# Compressibility (1/GPa) = 0.01762421
#
# Stress axis : x y z
#
# Youngs Moduli (GPa) = 102.19384 63.70760 71.72824
#
# Poissons Ratio (x) = 0.07517 0.18278
# Poissons Ratio (y) = 0.12058 0.51440
# Poissons Ratio (z) = 0.26041 0.45688
#
# Static dielectric constant tensor:
#      x y z
#    x 3.693490 0.000000 0.195190 
#    y 0.000000 3.599960 0.000000 
#    z 0.195190 0.000000 3.500920 
# 
# 
# High freq. dielectric constant tensor:
#      x y z
#    x 1.787830 0.000000 0.007870 
#    y 0.000000 1.780340 0.000000 
#    z 0.007870 0.000000 1.764750 
# 
# From -- ./inp_files/194302.got.cif
#   From: 2010.06.25/outbox.cif.g09.slc.cpg/sg15_98_cif.got.tgz:194302.got - 2010.06.28 07:06:18.
