data_PCOD8139868
_publ_section_title
;
Structure prediction by ZEFSAII (Michael W. Deem and Ramdas Pophale) SiO2 
 PCOD8139868
Probable space group: C 2/C
;
_chemical_formula_sum "Si O2"
_cell_formula_units_Z 60
_cell_length_a 11.766603
_cell_length_b 19.778493
_cell_length_c 22.477354
_cell_angle_alpha 90.000000
_cell_angle_beta 147.469047
_cell_angle_gamma 90.000000
_cell_volume 2813.028083
_symmetry_space_group_name_H-M "C 2/C"
_symmetry_group_IT_number 15
_symmetry_cell_setting 'monoclinic'
loop_
_space_group_symop_operation_xyz
x,y,z
-x,y,1/2-z
-x,-y,-z
x,-y,1/2+z
1/2+x,1/2+y,z
1/2-x,1/2+y,1/2-z
1/2-x,1/2-y,-z
1/2+x,1/2-y,1/2+z
loop_
_atom_site_type_symbol
_atom_site_label
_atom_site_fract_x
_atom_site_fract_y
_atom_site_fract_z
Si Si1 0.390943 0.605001 0.983897
Si Si2 0.000000 0.252509 0.750000
Si Si3 0.168609 0.357057 0.104721
Si Si4 0.078255 0.299716 0.400936
Si Si5 0.785312 0.182121 0.285282
Si Si6 0.367042 0.521276 0.744328
Si Si7 0.475927 0.916157 0.902571
Si Si8 0.609562 0.456062 0.472494
O O1 0.556716 0.639164 0.102768
O O2 0.336929 0.527217 0.973390
O O3 0.175059 0.650975 0.891880
O O4 0.483075 0.598837 0.957414
O O5 0.207494 0.210002 0.862126
O O6 0.074624 0.298617 0.728454
O O7 0.343064 0.401071 0.215376
O O8 0.982421 0.344092 0.069079
O O9 0.064466 0.397358 0.005452
O O10 0.250000 0.250000 0.500000
O O11 0.883086 0.249986 0.297282
O O12 0.706585 0.135974 0.196801
O O13 0.500000 0.484321 0.750000
O O14 0.135160 0.488958 0.645311
O O15 0.483277 0.522340 0.858266
O O16 0.670321 0.918980 0.943058
#
# Coordination Sequence:
#
# PCOD8139868 Si02
#       8
#     8   4   8   8   8   8   8   8
#     4  10  21  43  62  95 134 172 223 260 329 393
#     4  10  20  40  62  88 130 172 216 270 322 394
#     4  11  22  40  63  92 127 167 217 272 325 384
#     4   9  21  41  65  86 126 174 214 266 318 383
#     4  10  21  39  64  95 132 174 217 270 324 394
#     4  12  24  41  64  97 132 167 221 273 332 389
#     4  12  24  39  66  98 129 170 221 275 334 383
#     4  11  23  40  66  96 133 175 214 276 328 392
#
# _framework density 21.329329000000001
#
# number of rings (size 3 to 8) (size 9 to 14) (size 15 to 20)
#    0.000    1.333    3.333    2.000    1.867    0.533 
#    0.000   11.333    0.000    0.000    0.000    0.000 
#    0.000    0.000    0.000    0.000    0.000    0.000 
#
# Total GULP energy -371773.236869 kJ/mol
# GULP energy per Si atom -12392.441229 kJ/mol
# Density = 2.128078 g / cm^3
# Si number density = 21.329329 Si / 1000 Ang^3
#
#
#
# Elastic Constant Matrix: (Units=GPa)
#
#
# Indices 1 2 3 4 5 6 
#
# 1 133.5825 42.2772 29.3161 0.0009 24.5445 0.0001
# 2 42.2772 86.1916 9.8891 0.0005 11.2825 0.0004
# 3 29.3161 9.8891 53.1210 0.0037 7.7025 0.0020
# 4 0.0009 0.0005 0.0037 15.8415 -0.0009 -0.8919
# 5 24.5445 11.2825 7.7025 -0.0009 31.2432 -0.0004
# 6 0.0001 0.0004 0.0020 -0.8919 -0.0004 29.5323
#
#
#
# Elastic Compliance Matrix: (Units=1/GPa)
#
#
# Indices 1 2 3 4 5 6 
#
# 1 0.010810 -0.004022 -0.004352 0.000000 -0.005967 0.000000
# 2 -0.004022 0.013822 -0.000091 0.000000 -0.001809 0.000000
# 3 -0.004352 -0.000091 0.021512 -0.000005 -0.001852 -0.000002
# 4 0.000000 0.000000 -0.000005 0.063233 0.000003 0.001910
# 5 -0.005967 -0.001809 -0.001852 0.000003 0.037805 0.000001
# 6 0.000000 0.000000 -0.000002 0.001910 0.000001 0.033919
#
#
# Mechanical properties :
#
#
# Convention : Reuss Voigt Hill
#
# Bulk Modulus (GPa) = 34.22979 48.42888 41.32933
# Shear Modulus (GPa) = 24.06508 28.08424 26.07466
#
# Velocity S-wave (km/s) = 3.36261 3.63257 3.50019
# Velocity P-wave (km/s) = 5.58204 6.35206 5.97946
#
# Compressibility (1/GPa) = 0.02921432
#
# Stress axis : x y z
#
# Youngs Moduli (GPa) = 92.50270 72.34737 46.48533
#
# Poissons Ratio (x) = 0.29099 0.20231
# Poissons Ratio (y) = 0.37206 0.00424
# Poissons Ratio (z) = 0.40257 0.00659
#
# Static dielectric constant tensor:
#      x y z
#    x 4.249960 -0.000050 0.495470 
#    y -0.000050 4.298040 -0.000030 
#    z 0.495470 -0.000030 3.744290 
# 
# 
# High freq. dielectric constant tensor:
#      x y z
#    x 1.843770 0.000000 0.025030 
#    y 0.000000 1.847930 0.000000 
#    z 0.025030 0.000000 1.820970 
# 
# From -- ./inp_files/271028.got.cif
#   From: 2010.06.25/outbox.cif.g09.slc.cpg/sg15_136_cif.got.tgz:271028.got - 2010.06.28 07:06:18.
