data_PCOD8139937
_publ_section_title
;
Structure prediction by ZEFSAII (Michael W. Deem and Ramdas Pophale) SiO2 
 PCOD8139937
Probable space group: C 2/C
;
_chemical_formula_sum "Si O2"
_cell_formula_units_Z 64
_cell_length_a 24.059902
_cell_length_b 15.776352
_cell_length_c 17.700513
_cell_angle_alpha 90.000000
_cell_angle_beta 27.757776
_cell_angle_gamma 90.000000
_cell_volume 3129.138749
_symmetry_space_group_name_H-M "C 2/C"
_symmetry_group_IT_number 15
_symmetry_cell_setting 'monoclinic'
loop_
_space_group_symop_operation_xyz
x,y,z
-x,y,1/2-z
-x,-y,-z
x,-y,1/2+z
1/2+x,1/2+y,z
1/2-x,1/2+y,1/2-z
1/2-x,1/2-y,-z
1/2+x,1/2-y,1/2+z
loop_
_atom_site_type_symbol
_atom_site_label
_atom_site_fract_x
_atom_site_fract_y
_atom_site_fract_z
Si Si1 0.716481 0.933883 0.360606
Si Si2 0.689370 0.520791 0.911359
Si Si3 0.086644 0.997665 0.768790
Si Si4 0.690690 0.380552 0.022686
Si Si5 0.949957 0.574964 0.894276
Si Si6 0.734516 0.334423 0.603803
Si Si7 0.629701 0.806474 0.573430
Si Si8 0.320825 0.155417 0.837307
O O1 0.729366 0.948650 0.256199
O O2 0.841683 0.960467 0.248359
O O3 0.684015 0.838405 0.427493
O O4 0.597152 0.982064 0.530145
O O5 0.735244 0.433152 0.895138
O O6 0.708704 0.597414 0.947479
O O7 0.553981 0.507905 0.046962
O O8 0.105575 0.053864 0.670605
O O9 0.131534 0.901445 0.707929
O O10 0.797326 0.349040 0.946380
O O11 0.624237 0.295560 0.075949
O O12 0.000000 0.571970 0.750000
O O13 0.053488 0.606557 0.826986
O O14 0.832111 0.633484 0.046882
O O15 0.679412 0.247215 0.703787
O O16 0.811050 0.319832 0.436430
O O17 0.500000 0.840110 0.750000
#
# Coordination Sequence:
#
# PCOD8139937 Si02
#       8
#     8   8   8   8   8   8   8   8
#     4  10  23  39  60  89 124 163 191 245 323 363
#     4  12  23  37  59  93 127 151 202 250 309 364
#     4  10  20  40  64  83 119 165 201 249 300 357
#     4  10  22  40  66  97 112 156 219 259 294 349
#     4   9  19  38  59  80 115 158 203 240 289 363
#     4   9  19  36  57  85 111 156 201 240 289 346
#     4  10  21  41  68  87 119 160 211 258 299 358
#     4  10  21  33  57  87 116 152 200 244 285 352
#
# _framework density 20.452912000000001
#
# number of rings (size 3 to 8) (size 9 to 14) (size 15 to 20)
#    0.000    2.000    1.250    1.875    5.250    0.500 
#    4.500    0.000    0.000    0.000    0.000    0.000 
#    0.000    0.000    0.000    0.000    0.000    0.000 
#
# Total GULP energy -396468.100614 kJ/mol
# GULP energy per Si atom -12389.628144 kJ/mol
# Density = 2.040636 g / cm^3
# Si number density = 20.452912 Si / 1000 Ang^3
#
#
#
# Elastic Constant Matrix: (Units=GPa)
#
#
# Indices 1 2 3 4 5 6 
#
# 1 59.8223 36.9815 32.8858 -0.0001 1.7373 0.0001
# 2 36.9815 146.9925 46.8171 0.0000 -10.8158 0.0000
# 3 32.8858 46.8171 81.0974 -0.0001 -4.1042 0.0001
# 4 -0.0001 0.0000 -0.0001 13.0030 0.0001 -3.8785
# 5 1.7373 -10.8158 -4.1042 0.0001 25.4526 -0.0001
# 6 0.0001 0.0000 0.0001 -3.8785 -0.0001 20.3837
#
#
#
# Elastic Compliance Matrix: (Units=1/GPa)
#
#
# Indices 1 2 3 4 5 6 
#
# 1 0.023309 -0.003807 -0.007477 0.000000 -0.004415 0.000000
# 2 -0.003807 0.009159 -0.003562 0.000000 0.003577 0.000000
# 3 -0.007477 -0.003562 0.017512 0.000000 0.001820 0.000000
# 4 0.000000 0.000000 0.000000 0.081533 0.000000 0.015514
# 5 -0.004415 0.003577 0.001820 0.000000 0.041404 0.000000
# 6 0.000000 0.000000 0.000000 0.015514 0.000000 0.052011
#
#
# Mechanical properties :
#
#
# Convention : Reuss Voigt Hill
#
# Bulk Modulus (GPa) = 49.29779 57.92010 53.60895
# Shear Modulus (GPa) = 19.12909 23.18303 21.15606
#
# Velocity S-wave (km/s) = 3.06154 3.37038 3.21967
# Velocity P-wave (km/s) = 6.05415 6.59744 6.33162
#
# Compressibility (1/GPa) = 0.02028488
#
# Stress axis : x y z
#
# Youngs Moduli (GPa) = 42.90277 109.18451 57.10509
#
# Poissons Ratio (x) = 0.41572 0.42699
# Poissons Ratio (y) = 0.16335 0.20343
# Poissons Ratio (z) = 0.32079 0.38895
#
# Static dielectric constant tensor:
#      x y z
#    x 3.670250 0.000000 -0.225960 
#    y 0.000000 4.005660 0.000000 
#    z -0.225960 0.000000 3.451690 
# 
# 
# High freq. dielectric constant tensor:
#      x y z
#    x 1.787480 0.000000 -0.023950 
#    y 0.000000 1.808630 0.000000 
#    z -0.023950 0.000000 1.775980 
# 
# From -- ./inp_files/219700.got.cif
#   From: 2010.06.25/outbox.cif.g09.slc.cpg/sg15_110_cif.got.tgz:219700.got - 2010.06.28 07:06:18.
