data_PCOD8139156
_publ_section_title
;
Structure prediction by ZEFSAII (Michael W. Deem and Ramdas Pophale) SiO2 
 PCOD8139156
Probable space group: C 2/C
;
_chemical_formula_sum "Si O2"
_cell_formula_units_Z 60
_cell_length_a 18.235521
_cell_length_b 18.592839
_cell_length_c 8.289449
_cell_angle_alpha 90.000000
_cell_angle_beta 70.253204
_cell_angle_gamma 90.000000
_cell_volume 2645.264590
_symmetry_space_group_name_H-M "C 2/C"
_symmetry_group_IT_number 15
_symmetry_cell_setting 'monoclinic'
loop_
_space_group_symop_operation_xyz
x,y,z
-x,y,1/2-z
-x,-y,-z
x,-y,1/2+z
1/2+x,1/2+y,z
1/2-x,1/2+y,1/2-z
1/2-x,1/2-y,-z
1/2+x,1/2-y,1/2+z
loop_
_atom_site_type_symbol
_atom_site_label
_atom_site_fract_x
_atom_site_fract_y
_atom_site_fract_z
Si Si1 0.164512 0.182711 0.644939
Si Si2 0.072513 0.452339 0.584935
Si Si3 0.408093 0.574389 0.017818
Si Si4 0.257050 0.906250 0.319342
Si Si5 0.000000 0.039545 0.250000
Si Si6 0.920383 0.404532 0.259508
Si Si7 0.820377 0.660471 0.342955
Si Si8 0.750888 0.053408 0.321487
O O1 0.094418 0.143400 0.600184
O O2 0.189589 0.141550 0.790598
O O3 0.135821 0.262903 0.716235
O O4 0.236636 0.183257 0.470818
O O5 0.046987 0.448501 0.418377
O O6 0.106397 0.532424 0.595164
O O7 0.136177 0.389312 0.561319
O O8 0.000000 0.432602 0.750000
O O9 0.463339 0.588136 0.133183
O O10 0.323564 0.555030 0.146500
O O11 0.434935 0.509137 0.884316
O O12 0.339520 0.861375 0.287381
O O13 0.223081 0.934384 0.514197
O O14 0.283070 0.972808 0.182411
O O15 0.000000 0.360348 0.250000
O O16 0.810561 0.615906 0.183678
#
# Coordination Sequence:
#
# PCOD8139156 Si02
#       8
#     8   8   8   8   4   8   8   8
#     4  10  22  40  61  85 119 156 201 247 299 352
#     4  11  21  36  59  85 119 156 196 243 296 359
#     4  10  21  38  60  91 118 151 191 246 299 357
#     4  12  21  35  61  92 118 153 199 253 298 349
#     4  10  20  38  66  90 120 150 188 242 308 360
#     4  11  22  34  55  90 120 152 194 245 298 344
#     4  10  21  40  60  82 117 162 199 245 297 355
#     4  11  22  35  63  90 116 148 201 253 297 346
#
# _framework density 22.682043
#
# number of rings (size 3 to 8) (size 9 to 14) (size 15 to 20)
#    0.000    1.333    2.667    5.600    1.867    1.600 
#    1.200    0.000    1.467    0.000    0.000    0.000 
#    0.000    0.000    0.000    0.000    0.000    0.000 
#
# Total GULP energy -371735.442597 kJ/mol
# GULP energy per Si atom -12391.181420 kJ/mol
# Density = 2.263042 g / cm^3
# Si number density = 22.682043 Si / 1000 Ang^3
#
#
#
# Elastic Constant Matrix: (Units=GPa)
#
#
# Indices 1 2 3 4 5 6 
#
# 1 94.5429 41.2519 14.5171 0.0000 23.8083 0.0000
# 2 41.2519 113.4948 20.6864 0.0000 26.3930 0.0000
# 3 14.5171 20.6864 96.5805 0.0000 29.7511 0.0000
# 4 0.0000 0.0000 0.0000 18.9350 0.0000 5.0157
# 5 23.8083 26.3930 29.7511 0.0000 35.8310 0.0000
# 6 0.0000 0.0000 0.0000 5.0157 0.0000 21.0521
#
#
#
# Elastic Compliance Matrix: (Units=1/GPa)
#
#
# Indices 1 2 3 4 5 6 
#
# 1 0.013811 -0.003470 0.000950 0.000000 -0.007410 0.000000
# 2 -0.003470 0.011506 -0.000057 0.000000 -0.006123 0.000000
# 3 0.000950 -0.000057 0.013981 0.000000 -0.012198 0.000000
# 4 0.000000 0.000000 0.000000 0.056370 0.000000 -0.013430
# 5 -0.007410 -0.006123 -0.012198 0.000000 0.047470 0.000000
# 6 0.000000 0.000000 0.000000 -0.013430 0.000000 0.050701
#
#
# Mechanical properties :
#
#
# Convention : Reuss Voigt Hill
#
# Bulk Modulus (GPa) = 29.28740 50.83657 40.06198
# Shear Modulus (GPa) = 23.76700 30.37445 27.07072
#
# Velocity S-wave (km/s) = 3.24054 3.66340 3.45844
# Velocity P-wave (km/s) = 5.19053 6.35258 5.80073
#
# Compressibility (1/GPa) = 0.03414438
#
# Stress axis : x y z
#
# Youngs Moduli (GPa) = 72.40393 86.90813 71.52598
#
# Poissons Ratio (x) = 0.30157 -0.06793
# Poissons Ratio (y) = 0.25124 0.00407
# Poissons Ratio (z) = -0.06877 0.00495
#
# Static dielectric constant tensor:
#      x y z
#    x 4.186400 0.000000 0.240720 
#    y 0.000000 3.881400 0.000000 
#    z 0.240720 0.000000 4.218620 
# 
# 
# High freq. dielectric constant tensor:
#      x y z
#    x 1.902950 0.000000 0.010920 
#    y 0.000000 1.836910 0.000000 
#    z 0.010920 0.000000 1.912290 
# 
# From -- ./inp_files/50221.got.cif
#   From: 2010.06.25/outbox.cif.g09.slc.cpg/sg15_26_cif.got.tgz:50221.got - 2010.06.28 07:06:18.
