data_PCOD8139063
_publ_section_title
;
Structure prediction by ZEFSAII (Michael W. Deem and Ramdas Pophale) SiO2 
 PCOD8139063
Probable space group: C 2/C
;
_chemical_formula_sum "Si O2"
_cell_formula_units_Z 60
_cell_length_a 8.838785
_cell_length_b 29.648328
_cell_length_c 11.178802
_cell_angle_alpha 90.000000
_cell_angle_beta 108.612291
_cell_angle_gamma 90.000000
_cell_volume 2776.252134
_symmetry_space_group_name_H-M "C 2/C"
_symmetry_group_IT_number 15
_symmetry_cell_setting 'monoclinic'
loop_
_space_group_symop_operation_xyz
x,y,z
-x,y,1/2-z
-x,-y,-z
x,-y,1/2+z
1/2+x,1/2+y,z
1/2-x,1/2+y,1/2-z
1/2-x,1/2-y,-z
1/2+x,1/2-y,1/2+z
loop_
_atom_site_type_symbol
_atom_site_label
_atom_site_fract_x
_atom_site_fract_y
_atom_site_fract_z
Si Si1 0.435226 0.784818 0.976725
Si Si2 0.896438 0.464038 0.107359
Si Si3 0.761256 0.317109 0.337738
Si Si4 0.500000 0.753183 0.750000
Si Si5 0.181113 0.091870 0.705356
Si Si6 0.189084 0.446279 0.030363
Si Si7 0.584287 0.692873 0.394806
Si Si8 0.890213 0.129203 0.506453
O O1 0.523687 0.785079 0.870512
O O2 0.273977 0.814789 0.924225
O O3 0.552276 0.806808 0.102851
O O4 0.415932 0.732811 0.009302
O O5 0.767632 0.426585 0.109163
O O6 0.000000 0.478543 0.250000
O O7 0.005006 0.442578 0.028866
O O8 0.793707 0.506259 0.032413
O O9 0.660034 0.275495 0.259767
O O10 0.759377 0.359695 0.250729
O O11 0.678852 0.327087 0.444780
O O12 0.203502 0.057188 0.821687
O O13 0.997323 0.100580 0.627290
O O14 0.242614 0.406367 0.949480
O O15 0.500000 0.707051 0.250000
O O16 0.492066 0.647572 0.419287
#
# Coordination Sequence:
#
# PCOD8139063 Si02
#       8
#     8   8   8   4   8   8   8   8
#     4  11  25  38  67  91 123 176 226 269 329 386
#     4   9  19  37  63  91 125 156 209 271 329 403
#     4  11  20  38  64  94 123 165 218 266 321 389
#     4  12  20  40  66  96 124 170 222 280 316 390
#     4  10  20  38  64  92 126 163 209 272 322 392
#     4   9  19  37  60  91 116 161 205 263 324 391
#     4  11  25  45  58  90 134 173 218 280 327 390
#     4  11  22  39  60  87 127 168 211 267 328 384
#
# _framework density 21.61187
#
# number of rings (size 3 to 8) (size 9 to 14) (size 15 to 20)
#    0.000    1.600    2.667    2.400    1.867    5.867 
#    0.000    8.000    0.000    0.000    0.000    0.000 
#    0.000    0.000    0.000    0.000    0.000    0.000 
#
# Total GULP energy -371723.149511 kJ/mol
# GULP energy per Si atom -12390.771650 kJ/mol
# Density = 2.156268 g / cm^3
# Si number density = 21.611870 Si / 1000 Ang^3
#
#
#
# Elastic Constant Matrix: (Units=GPa)
#
#
# Indices 1 2 3 4 5 6 
#
# 1 106.5586 55.1256 36.8253 0.0000 9.4647 0.0000
# 2 55.1256 79.7931 19.5626 0.0000 -11.4535 0.0000
# 3 36.8253 19.5626 55.8052 0.0000 -5.3214 0.0000
# 4 0.0000 0.0000 0.0000 28.1800 0.0000 1.7884
# 5 9.4647 -11.4535 -5.3214 0.0000 32.7915 0.0000
# 6 0.0000 0.0000 0.0000 1.7884 0.0000 38.2581
#
#
#
# Elastic Compliance Matrix: (Units=1/GPa)
#
#
# Indices 1 2 3 4 5 6 
#
# 1 0.021386 -0.014058 -0.010402 0.000000 -0.012771 0.000000
# 2 -0.014058 0.023508 0.002240 0.000000 0.012632 0.000000
# 3 -0.010402 0.002240 0.024742 0.000000 0.007800 0.000000
# 4 0.000000 0.000000 0.000000 0.035592 0.000000 -0.001664
# 5 -0.012771 0.012632 0.007800 0.000000 0.039860 0.000000
# 6 0.000000 0.000000 0.000000 -0.001664 0.000000 0.026216
#
#
# Mechanical properties :
#
#
# Convention : Reuss Voigt Hill
#
# Bulk Modulus (GPa) = 39.68702 51.68709 45.68706
# Shear Modulus (GPa) = 22.30721 28.55548 25.43135
#
# Velocity S-wave (km/s) = 3.21623 3.63889 3.43407
# Velocity P-wave (km/s) = 5.67412 6.45162 6.07532
#
# Compressibility (1/GPa) = 0.02519716
#
# Stress axis : x y z
#
# Youngs Moduli (GPa) = 46.75933 42.53845 40.41639
#
# Poissons Ratio (x) = 0.59799 0.42043
# Poissons Ratio (y) = 0.65732 -0.09054
# Poissons Ratio (z) = 0.48641 -0.09529
#
# Static dielectric constant tensor:
#      x y z
#    x 4.106170 0.000000 0.006590 
#    y 0.000000 3.673750 0.000000 
#    z 0.006590 0.000000 3.703530 
# 
# 
# High freq. dielectric constant tensor:
#      x y z
#    x 1.863700 0.000000 -0.003800 
#    y 0.000000 1.822990 0.000000 
#    z -0.003800 0.000000 1.828630 
# 
# From -- ./inp_files/82662.got.cif
#   From: 2010.06.25/outbox.cif.g09.slc.cpg/sg15_42_cif.got.tgz:82662.got - 2010.06.28 07:06:18.
