data_PCOD8139990
_publ_section_title
;
Structure prediction by ZEFSAII (Michael W. Deem and Ramdas Pophale) SiO2 
 PCOD8139990
Probable space group: C 2/C
;
_chemical_formula_sum "Si O2"
_cell_formula_units_Z 56
_cell_length_a 16.755828
_cell_length_b 11.325097
_cell_length_c 17.271192
_cell_angle_alpha 90.000000
_cell_angle_beta 127.996804
_cell_angle_gamma 90.000000
_cell_volume 2582.743077
_symmetry_space_group_name_H-M "C 2/C"
_symmetry_group_IT_number 15
_symmetry_cell_setting 'monoclinic'
loop_
_space_group_symop_operation_xyz
x,y,z
-x,y,1/2-z
-x,-y,-z
x,-y,1/2+z
1/2+x,1/2+y,z
1/2-x,1/2+y,1/2-z
1/2-x,1/2-y,-z
1/2+x,1/2-y,1/2+z
loop_
_atom_site_type_symbol
_atom_site_label
_atom_site_fract_x
_atom_site_fract_y
_atom_site_fract_z
Si Si1 0.380825 0.355092 0.701057
Si Si2 0.769056 0.295984 0.390717
Si Si3 0.115911 0.986406 0.154015
Si Si4 0.681066 0.121780 0.748315
Si Si5 0.577491 0.380016 0.486429
Si Si6 0.115536 0.578994 0.305594
Si Si7 0.730441 0.501840 0.481488
O O1 0.500000 0.358734 0.750000
O O2 0.355329 0.458969 0.746573
O O3 0.352999 0.229111 0.718693
O O4 0.300802 0.377836 0.582582
O O5 0.817701 0.345445 0.341042
O O6 0.865686 0.243294 0.495102
O O7 0.685996 0.192298 0.327525
O O8 0.721872 0.396503 0.414285
O O9 0.206822 0.922325 0.164049
O O10 0.033687 0.881478 0.117266
O O11 0.071256 0.092559 0.074882
O O12 0.610883 0.009195 0.728519
O O13 0.639808 0.487403 0.487265
O O14 0.162495 0.504752 0.407756
O O15 0.000000 0.620359 0.250000
#
# Coordination Sequence:
#
# PCOD8139990 Si02
#       7
#     8   8   8   8   8   8   8
#     4  12  24  41  67  99 136 173 218 266 332 395
#     4  11  23  41  71  94 130 166 227 274 315 394
#     4  11  21  40  66  89 129 174 212 265 326 385
#     4  12  23  42  65  98 135 172 208 276 330 388
#     4  10  20  40  64  95 123 170 220 268 317 384
#     4  11  25  47  65  92 135 177 214 269 337 386
#     4  11  23  42  68  99 128 169 229 272 313 397
#
# _framework density 21.682372999999998
#
# number of rings (size 3 to 8) (size 9 to 14) (size 15 to 20)
#    0.000    0.857    7.143    2.143    0.000    3.429 
#    2.571    0.714    0.000    0.000    0.000    0.000 
#    0.000    0.000    0.000    0.000    0.000    0.000 
#
# Total GULP energy -346872.936793 kJ/mol
# GULP energy per Si atom -12388.319171 kJ/mol
# Density = 2.163302 g / cm^3
# Si number density = 21.682373 Si / 1000 Ang^3
#
#
#
# Elastic Constant Matrix: (Units=GPa)
#
#
# Indices 1 2 3 4 5 6 
#
# 1 97.5207 40.6320 16.6864 0.0000 0.9604 0.0000
# 2 40.6320 65.4374 17.8620 0.0000 2.8587 0.0000
# 3 16.6864 17.8620 48.6254 0.0000 -6.6985 0.0000
# 4 0.0000 0.0000 0.0000 23.8978 0.0000 -12.7745
# 5 0.9604 2.8587 -6.6985 0.0000 35.2060 0.0000
# 6 0.0000 0.0000 0.0000 -12.7745 0.0000 31.3928
#
#
#
# Elastic Compliance Matrix: (Units=1/GPa)
#
#
# Indices 1 2 3 4 5 6 
#
# 1 0.013971 -0.008182 -0.001797 0.000000 -0.000059 0.000000
# 2 -0.008182 0.022018 -0.005644 0.000000 -0.002638 0.000000
# 3 -0.001797 -0.005644 0.023953 0.000000 0.005065 0.000000
# 4 0.000000 0.000000 0.000000 0.053477 0.000000 0.021761
# 5 -0.000059 -0.002638 0.005065 0.000000 0.029584 0.000000
# 6 0.000000 0.000000 0.000000 0.021761 0.000000 0.040709
#
#
# Mechanical properties :
#
#
# Convention : Reuss Voigt Hill
#
# Bulk Modulus (GPa) = 34.84721 40.21603 37.53162
# Shear Modulus (GPa) = 22.26933 27.19287 24.73110
#
# Velocity S-wave (km/s) = 3.20827 3.54523 3.38095
# Velocity P-wave (km/s) = 5.46174 5.94528 5.70863
#
# Compressibility (1/GPa) = 0.02869671
#
# Stress axis : x y z
#
# Youngs Moduli (GPa) = 71.57494 45.41706 41.74858
#
# Poissons Ratio (x) = 0.37161 0.07502
# Poissons Ratio (y) = 0.58564 0.23562
# Poissons Ratio (z) = 0.12861 0.25632
#
# Static dielectric constant tensor:
#      x y z
#    x 4.082820 0.000000 -0.122420 
#    y 0.000000 3.854780 0.000000 
#    z -0.122420 0.000000 4.045690 
# 
# 
# High freq. dielectric constant tensor:
#      x y z
#    x 1.864420 0.000000 -0.011540 
#    y 0.000000 1.838210 0.000000 
#    z -0.011540 0.000000 1.843130 
# 
# From -- ./inp_files/210702.got.cif
#   From: 2010.06.25/outbox.cif.g09.slc.cpg/sg15_106_cif.got.tgz:210702.got - 2010.06.28 07:06:18.
