data_PCOD8139740
_publ_section_title
;
Structure prediction by ZEFSAII (Michael W. Deem and Ramdas Pophale) SiO2 
 PCOD8139740
Probable space group: C 2/C
;
_chemical_formula_sum "Si O2"
_cell_formula_units_Z 64
_cell_length_a 17.144787
_cell_length_b 5.650367
_cell_length_c 28.924540
_cell_angle_alpha 90.000000
_cell_angle_beta 95.832159
_cell_angle_gamma 90.000000
_cell_volume 2787.541823
_symmetry_space_group_name_H-M "C 2/C"
_symmetry_group_IT_number 15
_symmetry_cell_setting 'monoclinic'
loop_
_space_group_symop_operation_xyz
x,y,z
-x,y,1/2-z
-x,-y,-z
x,-y,1/2+z
1/2+x,1/2+y,z
1/2-x,1/2+y,1/2-z
1/2-x,1/2-y,-z
1/2+x,1/2-y,1/2+z
loop_
_atom_site_type_symbol
_atom_site_label
_atom_site_fract_x
_atom_site_fract_y
_atom_site_fract_z
Si Si1 0.864718 0.055085 0.672523
Si Si2 0.225283 0.438902 0.035285
Si Si3 0.150477 0.667661 0.951328
Si Si4 0.749845 0.375974 0.614682
Si Si5 0.529572 0.270033 0.879100
Si Si6 0.884399 0.026904 0.835991
Si Si7 0.003031 0.616819 0.199039
Si Si8 0.296128 0.673399 0.251094
O O1 0.795295 0.241987 0.658803
O O2 0.837764 0.843143 0.704269
O O3 0.939264 0.177245 0.700787
O O4 0.894384 0.930089 0.628002
O O5 0.301881 0.591467 0.050479
O O6 0.198433 0.315973 0.081815
O O7 0.250000 0.250000 0.000000
O O8 0.155589 0.586018 0.005601
O O9 0.188611 0.488364 0.916577
O O10 0.057395 0.684718 0.931964
O O11 0.691036 0.567246 0.634941
O O12 0.451363 0.425258 0.874007
O O13 0.522472 0.061120 0.842031
O O14 0.913212 0.265698 0.811671
O O15 0.860453 0.828396 0.796346
O O16 0.000000 0.495987 0.250000
O O17 0.251551 0.923083 0.247399
#
# Coordination Sequence:
#
# PCOD8139740 Si02
#       8
#     8   8   8   8   8   8   8   8
#     4  11  23  39  63  92 127 181 227 279 333 407
#     4   9  20  37  68 100 127 157 223 280 339 413
#     4  10  20  39  69  96 123 173 217 276 343 420
#     4  11  21  42  63  97 130 170 228 282 339 407
#     4  11  25  40  65  92 133 176 226 278 347 411
#     4  11  27  40  60  98 135 178 219 290 342 402
#     4  11  24  41  60  87 132 181 232 272 331 406
#     4  12  28  43  65  98 139 181 235 292 347 400
#
# _framework density 22.959295999999998
#
# number of rings (size 3 to 8) (size 9 to 14) (size 15 to 20)
#    0.000    1.250    5.000    0.000    7.000    1.000 
#    0.000    0.625    0.000    7.500    0.000    0.000 
#    0.000    0.000    0.000    0.000    0.000    0.000 
#
# Total GULP energy -396458.523495 kJ/mol
# GULP energy per Si atom -12389.328859 kJ/mol
# Density = 2.290704 g / cm^3
# Si number density = 22.959296 Si / 1000 Ang^3
#
#
#
# Elastic Constant Matrix: (Units=GPa)
#
#
# Indices 1 2 3 4 5 6 
#
# 1 77.7572 8.6010 19.2096 0.0000 16.0071 0.0000
# 2 8.6010 65.1466 -2.4817 0.0000 8.5620 0.0000
# 3 19.2096 -2.4817 71.1160 0.0000 26.4151 0.0000
# 4 0.0000 0.0000 0.0000 34.1016 0.0000 4.1824
# 5 16.0071 8.5620 26.4151 0.0000 41.6478 0.0000
# 6 0.0000 0.0000 0.0000 4.1824 0.0000 17.6351
#
#
#
# Elastic Compliance Matrix: (Units=1/GPa)
#
#
# Indices 1 2 3 4 5 6 
#
# 1 0.014411 -0.001535 -0.002624 0.000000 -0.003559 0.000000
# 2 -0.001535 0.016232 0.002618 0.000000 -0.004408 0.000000
# 3 -0.002624 0.002618 0.019213 0.000000 -0.011716 0.000000
# 4 0.000000 0.000000 0.000000 0.030203 0.000000 -0.007163
# 5 -0.003559 -0.004408 -0.011716 0.000000 0.033715 0.000000
# 6 0.000000 0.000000 0.000000 -0.007163 0.000000 0.058404
#
#
# Mechanical properties :
#
#
# Convention : Reuss Voigt Hill
#
# Bulk Modulus (GPa) = 21.37937 29.40862 25.39400
# Shear Modulus (GPa) = 26.19832 31.25629 28.72730
#
# Velocity S-wave (km/s) = 3.38165 3.69369 3.54111
# Velocity P-wave (km/s) = 4.95777 5.57027 5.27292
#
# Compressibility (1/GPa) = 0.04677405
#
# Stress axis : x y z
#
# Youngs Moduli (GPa) = 69.39004 61.60807 52.04695
#
# Poissons Ratio (x) = 0.09456 0.13659
# Poissons Ratio (y) = 0.10651 -0.13627
# Poissons Ratio (z) = 0.18211 -0.16130
#
# Static dielectric constant tensor:
#      x y z
#    x 4.051120 0.000000 0.434020 
#    y 0.000000 4.158500 0.000000 
#    z 0.434020 0.000000 4.486530 
# 
# 
# High freq. dielectric constant tensor:
#      x y z
#    x 1.885150 0.000000 0.030700 
#    y 0.000000 1.906840 0.000000 
#    z 0.030700 0.000000 1.910750 
# 
# From -- ./inp_files/315103.got.cif
#   From: 2010.06.25/outbox.cif.g09.slc.cpg/sg15_158_cif.got.tgz:315103.got - 2010.06.28 07:06:18.
