data_PCOD8139583
_publ_section_title
;
Structure prediction by ZEFSAII (Michael W. Deem and Ramdas Pophale) SiO2 
 PCOD8139583
Probable space group: C 2/C
;
_chemical_formula_sum "Si O2"
_cell_formula_units_Z 60
_cell_length_a 11.938014
_cell_length_b 16.647458
_cell_length_c 14.689308
_cell_angle_alpha 90.000000
_cell_angle_beta 94.004710
_cell_angle_gamma 90.000000
_cell_volume 2912.189561
_symmetry_space_group_name_H-M "C 2/C"
_symmetry_group_IT_number 15
_symmetry_cell_setting 'monoclinic'
loop_
_space_group_symop_operation_xyz
x,y,z
-x,y,1/2-z
-x,-y,-z
x,-y,1/2+z
1/2+x,1/2+y,z
1/2-x,1/2+y,1/2-z
1/2-x,1/2-y,-z
1/2+x,1/2-y,1/2+z
loop_
_atom_site_type_symbol
_atom_site_label
_atom_site_fract_x
_atom_site_fract_y
_atom_site_fract_z
Si Si1 0.726719 0.192616 0.584486
Si Si2 0.500000 0.990609 0.250000
Si Si3 0.631461 0.402425 0.272719
Si Si4 0.850333 0.653401 0.454789
Si Si5 0.960397 0.576797 0.941323
Si Si6 0.725422 0.939972 0.713441
Si Si7 0.770819 0.806221 0.378760
Si Si8 0.872732 0.787761 0.759831
O O1 0.750000 0.250000 0.500000
O O2 0.838512 0.163817 0.646849
O O3 0.666180 0.109095 0.550464
O O4 0.643414 0.241163 0.646378
O O5 0.515853 0.933896 0.163990
O O6 0.385140 0.042397 0.230472
O O7 0.500000 0.413608 0.250000
O O8 0.690087 0.486713 0.296235
O O9 0.678048 0.376121 0.178034
O O10 0.825331 0.576391 0.390063
O O11 0.858543 0.732569 0.392528
O O12 0.749754 0.658839 0.522083
O O13 0.965081 0.649073 0.516085
O O14 0.000000 0.500000 0.000000
O O15 0.792656 0.865759 0.759294
O O16 0.658863 0.770562 0.325496
O O17 0.000000 0.815584 0.750000
#
# Coordination Sequence:
#
# PCOD8139583 Si02
#       8
#     8   4   8   8   8   8   8   8
#     4  11  26  43  65 104 138 175 237 288 350 412
#     4  12  24  42  68  96 136 174 226 284 352 406
#     4  11  23  45  65  91 135 178 217 270 343 415
#     4  10  20  39  64  94 126 159 224 277 333 396
#     4  12  24  41  69  97 135 177 224 289 344 410
#     4  11  23  42  64  99 128 175 228 275 342 416
#     4   9  21  39  64  92 122 171 219 270 330 411
#     4  10  22  42  67  94 132 182 223 276 348 423
#
# _framework density 20.603055000000001
#
# number of rings (size 3 to 8) (size 9 to 14) (size 15 to 20)
#    0.000    1.333    2.667    2.000    6.533    0.000 
#   10.800    0.667    0.000    0.000    0.000    0.000 
#    0.000    0.000    0.000    0.000    0.000    0.000 
#
# Total GULP energy -371852.835729 kJ/mol
# GULP energy per Si atom -12395.094524 kJ/mol
# Density = 2.055616 g / cm^3
# Si number density = 20.603055 Si / 1000 Ang^3
#
#
#
# Elastic Constant Matrix: (Units=GPa)
#
#
# Indices 1 2 3 4 5 6 
#
# 1 128.3276 38.8178 23.8158 0.0000 15.6843 0.0000
# 2 38.8178 79.4278 37.5356 0.0000 2.5398 0.0000
# 3 23.8158 37.5356 97.2066 0.0000 -0.1602 0.0000
# 4 0.0000 0.0000 0.0000 38.0578 0.0000 -1.0426
# 5 15.6843 2.5398 -0.1602 0.0000 25.0570 0.0000
# 6 0.0000 0.0000 0.0000 -1.0426 0.0000 34.0621
#
#
#
# Elastic Compliance Matrix: (Units=1/GPa)
#
#
# Indices 1 2 3 4 5 6 
#
# 1 0.009949 -0.004306 -0.000784 0.000000 -0.005796 0.000000
# 2 -0.004306 0.017329 -0.005635 0.000000 0.000903 0.000000
# 3 -0.000784 -0.005635 0.012657 0.000000 0.001143 0.000000
# 4 0.000000 0.000000 0.000000 0.026298 0.000000 0.000805
# 5 -0.005796 0.000903 0.001143 0.000000 0.043453 0.000000
# 6 0.000000 0.000000 0.000000 0.000805 0.000000 0.029383
#
#
# Mechanical properties :
#
#
# Convention : Reuss Voigt Hill
#
# Bulk Modulus (GPa) = 54.10016 56.14449 55.12232
# Shear Modulus (GPa) = 29.99748 33.08823 31.54286
#
# Velocity S-wave (km/s) = 3.81986 4.01182 3.91702
# Velocity P-wave (km/s) = 6.76538 6.98351 6.87531
#
# Compressibility (1/GPa) = 0.01848423
#
# Stress axis : x y z
#
# Youngs Moduli (GPa) = 100.51120 57.70802 79.00633
#
# Poissons Ratio (x) = 0.24851 0.06196
# Poissons Ratio (y) = 0.43284 0.44518
# Poissons Ratio (z) = 0.07882 0.32517
#
# Static dielectric constant tensor:
#      x y z
#    x 3.751710 0.000000 0.268240 
#    y 0.000000 3.859640 0.000000 
#    z 0.268240 0.000000 3.870030 
# 
# 
# High freq. dielectric constant tensor:
#      x y z
#    x 1.793320 0.000000 0.017760 
#    y 0.000000 1.814220 0.000000 
#    z 0.017760 0.000000 1.814600 
# 
# From -- ./inp_files/145722.got.cif
#   From: 2010.06.25/outbox.cif.g09.slc.cpg/sg15_73_cif.got.tgz:145722.got - 2010.06.28 07:06:18.
