data_PCOD8139164
_publ_section_title
;
Structure prediction by ZEFSAII (Michael W. Deem and Ramdas Pophale) SiO2 
 PCOD8139164
Probable space group: C 2/C
;
_chemical_formula_sum "Si O2"
_cell_formula_units_Z 48
_cell_length_a 28.241614
_cell_length_b 10.205431
_cell_length_c 15.288694
_cell_angle_alpha 90.000000
_cell_angle_beta 31.798061
_cell_angle_gamma 90.000000
_cell_volume 2321.890486
_symmetry_space_group_name_H-M "C 2/C"
_symmetry_group_IT_number 15
_symmetry_cell_setting 'monoclinic'
loop_
_space_group_symop_operation_xyz
x,y,z
-x,y,1/2-z
-x,-y,-z
x,-y,1/2+z
1/2+x,1/2+y,z
1/2-x,1/2+y,1/2-z
1/2-x,1/2-y,-z
1/2+x,1/2-y,1/2+z
loop_
_atom_site_type_symbol
_atom_site_label
_atom_site_fract_x
_atom_site_fract_y
_atom_site_fract_z
Si Si1 0.409791 0.432383 0.173595
Si Si2 0.472785 0.068228 0.667753
Si Si3 0.630998 0.178921 0.522749
Si Si4 0.674037 0.598055 0.334218
Si Si5 0.976421 0.696251 0.483179
Si Si6 0.897843 0.974116 0.885768
O O1 0.336530 0.473607 0.215440
O O2 0.431248 0.277282 0.143481
O O3 0.377362 0.481422 0.319243
O O4 0.500000 0.500000 0.000000
O O5 0.556300 0.159258 0.565472
O O6 0.440010 0.122710 0.626307
O O7 0.501002 0.915914 0.622566
O O8 0.390033 0.078470 0.865160
O O9 0.727930 0.157195 0.330171
O O10 0.623643 0.322138 0.574862
O O11 0.601580 0.710969 0.430048
O O12 0.665671 0.551606 0.447246
O O13 0.000000 0.006451 0.750000
#
# Coordination Sequence:
#
# PCOD8139164 Si02
#       6
#     8   8   8   8   8   8
#     4  10  20  38  66  92 120 162 217 259 307 371
#     4  10  22  40  64  85 133 172 199 251 334 379
#     4  11  24  41  60  94 128 165 207 262 317 379
#     4  11  25  40  66  97 126 161 220 268 301 371
#     4  10  21  40  64  92 121 170 211 255 314 381
#     4  12  21  40  67  92 123 170 211 258 316 372
#
# _framework density 20.672809000000001
#
# number of rings (size 3 to 8) (size 9 to 14) (size 15 to 20)
#    0.000    1.333    5.000    3.000    2.333    5.333 
#    3.000    0.833    0.000    0.000    0.000    0.000 
#    0.000    0.000    0.000    0.000    0.000    0.000 
#
# Total GULP energy -297592.805385 kJ/mol
# GULP energy per Si atom -12399.700224 kJ/mol
# Density = 2.062576 g / cm^3
# Si number density = 20.672809 Si / 1000 Ang^3
#
#
#
# Elastic Constant Matrix: (Units=GPa)
#
#
# Indices 1 2 3 4 5 6 
#
# 1 53.5724 16.9663 38.2239 0.0000 28.9006 0.0000
# 2 16.9663 103.3313 55.2263 0.0000 10.4741 0.0000
# 3 38.2239 55.2263 108.0018 0.0000 23.6379 0.0000
# 4 0.0000 0.0000 0.0000 26.4779 0.0000 6.4928
# 5 28.9006 10.4741 23.6379 0.0000 36.6382 0.0000
# 6 0.0000 0.0000 0.0000 6.4928 0.0000 26.3440
#
#
#
# Elastic Compliance Matrix: (Units=1/GPa)
#
#
# Indices 1 2 3 4 5 6 
#
# 1 0.037578 0.000765 -0.008332 0.000000 -0.024485 0.000000
# 2 0.000765 0.013347 -0.007136 0.000000 0.000185 0.000000
# 3 -0.008332 -0.007136 0.016269 0.000000 -0.001884 0.000000
# 4 0.000000 0.000000 0.000000 0.040197 0.000000 -0.009907
# 5 -0.024485 0.000185 -0.001884 0.000000 0.047771 0.000000
# 6 0.000000 0.000000 0.000000 -0.009907 0.000000 0.040401
#
#
# Mechanical properties :
#
#
# Convention : Reuss Voigt Hill
#
# Bulk Modulus (GPa) = 26.46339 53.97094 40.21716
# Shear Modulus (GPa) = 21.04689 28.19127 24.61908
#
# Velocity S-wave (km/s) = 3.19422 3.69682 3.45467
# Velocity P-wave (km/s) = 5.14130 6.66227 5.95058
#
# Compressibility (1/GPa) = 0.03778806
#
# Stress axis : x y z
#
# Youngs Moduli (GPa) = 26.61166 74.92133 61.46527
#
# Poissons Ratio (x) = -0.05730 0.51210
# Poissons Ratio (y) = -0.02035 0.43863
# Poissons Ratio (z) = 0.22172 0.53466
#
# Static dielectric constant tensor:
#      x y z
#    x 3.824090 0.000000 0.194820 
#    y 0.000000 4.065150 0.000000 
#    z 0.194820 0.000000 3.756920 
# 
# 
# High freq. dielectric constant tensor:
#      x y z
#    x 1.796860 0.000000 0.024790 
#    y 0.000000 1.815860 0.000000 
#    z 0.024790 0.000000 1.803570 
# 
# From -- ./inp_files/181716.got.cif
#   From: 2010.06.25/outbox.cif.g09.slc.cpg/sg15_91_cif.got.tgz:181716.got - 2010.06.28 07:06:18.
