data_PCOD8139815
_publ_section_title
;
Structure prediction by ZEFSAII (Michael W. Deem and Ramdas Pophale) SiO2 
 PCOD8139815
Probable space group: C 2/C
;
_chemical_formula_sum "Si O2"
_cell_formula_units_Z 52
_cell_length_a 8.353304
_cell_length_b 14.711200
_cell_length_c 23.488398
_cell_angle_alpha 90.000000
_cell_angle_beta 121.980706
_cell_angle_gamma 90.000000
_cell_volume 2448.339379
_symmetry_space_group_name_H-M "C 2/C"
_symmetry_group_IT_number 15
_symmetry_cell_setting 'monoclinic'
loop_
_space_group_symop_operation_xyz
x,y,z
-x,y,1/2-z
-x,-y,-z
x,-y,1/2+z
1/2+x,1/2+y,z
1/2-x,1/2+y,1/2-z
1/2-x,1/2-y,-z
1/2+x,1/2-y,1/2+z
loop_
_atom_site_type_symbol
_atom_site_label
_atom_site_fract_x
_atom_site_fract_y
_atom_site_fract_z
Si Si1 0.590805 0.466024 0.328721
Si Si2 0.004594 0.513088 0.636006
Si Si3 0.595570 0.364632 0.649325
Si Si4 0.500000 0.909520 0.750000
Si Si5 0.216908 0.867095 0.550512
Si Si6 0.593472 0.196157 0.828283
Si Si7 0.034002 0.810876 0.403052
O O1 0.500000 0.454264 0.250000
O O2 0.807204 0.498729 0.365889
O O3 0.468500 0.535891 0.342688
O O4 0.590546 0.368463 0.358656
O O5 0.042815 0.472844 0.704931
O O6 0.832244 0.461731 0.572678
O O7 0.953688 0.618764 0.634529
O O8 0.573211 0.359902 0.576826
O O9 0.474686 0.290937 0.659150
O O10 0.816745 0.347413 0.704919
O O11 0.365941 0.785737 0.580761
O O12 0.092227 0.865775 0.470523
O O13 0.500000 0.175368 0.750000
O O14 0.813690 0.206766 0.860677
#
# Coordination Sequence:
#
# PCOD8139815 Si02
#       7
#     8   8   8   4   8   8   8
#     4  12  23  41  67 100 132 172 212 280 324 394
#     4  11  22  42  65  94 136 166 221 263 329 384
#     4  11  24  40  67  97 133 173 217 267 334 378
#     4  10  20  40  60  94 130 170 206 274 312 394
#     4  10  25  46  67  94 129 183 213 277 320 390
#     4  12  25  40  65 102 131 175 213 277 323 395
#     4  11  25  46  68  95 135 169 229 262 329 387
#
# _framework density 21.238886000000001
#
# number of rings (size 3 to 8) (size 9 to 14) (size 15 to 20)
#    0.000    0.923    2.308    5.077    4.308    3.692 
#    2.769    0.000    0.000    0.000    0.000    0.000 
#    0.000    0.000    0.000    0.000    0.000    0.000 
#
# Total GULP energy -322547.751213 kJ/mol
# GULP energy per Si atom -12405.682739 kJ/mol
# Density = 2.119055 g / cm^3
# Si number density = 21.238886 Si / 1000 Ang^3
#
#
#
# Elastic Constant Matrix: (Units=GPa)
#
#
# Indices 1 2 3 4 5 6 
#
# 1 130.2485 20.2139 41.4264 0.0000 3.1999 0.0000
# 2 20.2139 74.4984 29.2631 0.0000 8.3190 0.0000
# 3 41.4264 29.2631 73.9233 0.0000 -4.0346 0.0000
# 4 0.0000 0.0000 0.0000 24.0607 0.0000 -4.3820
# 5 3.1999 8.3190 -4.0346 0.0000 27.1508 0.0000
# 6 0.0000 0.0000 0.0000 -4.3820 0.0000 20.6323
#
#
#
# Elastic Compliance Matrix: (Units=1/GPa)
#
#
# Indices 1 2 3 4 5 6 
#
# 1 0.009445 -0.000288 -0.005278 0.000000 -0.001809 0.000000
# 2 -0.000288 0.016883 -0.006858 0.000000 -0.006158 0.000000
# 3 -0.005278 -0.006858 0.019507 0.000000 0.005622 0.000000
# 4 0.000000 0.000000 0.000000 0.043234 0.000000 0.009182
# 5 -0.001809 -0.006158 0.005622 0.000000 0.039767 0.000000
# 6 0.000000 0.000000 0.000000 0.009182 0.000000 0.050418
#
#
# Mechanical properties :
#
#
# Convention : Reuss Voigt Hill
#
# Bulk Modulus (GPa) = 47.64710 51.16411 49.40561
# Shear Modulus (GPa) = 23.68577 26.88655 25.28616
#
# Velocity S-wave (km/s) = 3.34310 3.56182 3.45419
# Velocity P-wave (km/s) = 6.11427 6.40762 6.26266
#
# Compressibility (1/GPa) = 0.02098763
#
# Stress axis : x y z
#
# Youngs Moduli (GPa) = 105.87101 59.23243 51.26350
#
# Poissons Ratio (x) = 0.01703 0.27058
# Poissons Ratio (y) = 0.03044 0.35157
# Poissons Ratio (z) = 0.55880 0.40622
#
# Static dielectric constant tensor:
#      x y z
#    x 3.972880 0.000000 -0.036010 
#    y 0.000000 3.831860 0.000000 
#    z -0.036010 0.000000 3.900590 
# 
# 
# High freq. dielectric constant tensor:
#      x y z
#    x 1.848970 0.000000 -0.002800 
#    y 0.000000 1.839000 0.000000 
#    z -0.002800 0.000000 1.829850 
# 
# From -- ./inp_files/264465.got.cif
#   From: 2010.06.25/outbox.cif.g09.slc.cpg/sg15_133_cif.got.tgz:264465.got - 2010.06.28 07:06:18.
