data_PCOD8139134
_publ_section_title
;
Structure prediction by ZEFSAII (Michael W. Deem and Ramdas Pophale) SiO2 
 PCOD8139134
Probable space group: C 2/C
;
_chemical_formula_sum "Si O2"
_cell_formula_units_Z 60
_cell_length_a 11.024222
_cell_length_b 14.530254
_cell_length_c 17.132785
_cell_angle_alpha 90.000000
_cell_angle_beta 103.638563
_cell_angle_gamma 90.000000
_cell_volume 2667.025335
_symmetry_space_group_name_H-M "C 2/C"
_symmetry_group_IT_number 15
_symmetry_cell_setting 'monoclinic'
loop_
_space_group_symop_operation_xyz
x,y,z
-x,y,1/2-z
-x,-y,-z
x,-y,1/2+z
1/2+x,1/2+y,z
1/2-x,1/2+y,1/2-z
1/2-x,1/2-y,-z
1/2+x,1/2-y,1/2+z
loop_
_atom_site_type_symbol
_atom_site_label
_atom_site_fract_x
_atom_site_fract_y
_atom_site_fract_z
Si Si1 0.999786 0.201240 0.952935
Si Si2 0.736157 0.102461 0.909934
Si Si3 0.407217 0.180588 0.304057
Si Si4 0.237680 0.354856 0.236278
Si Si5 0.795314 0.040845 0.179038
Si Si6 0.374902 0.521107 0.528217
Si Si7 0.999563 0.710271 0.888266
Si Si8 0.000000 0.840161 0.750000
O O1 0.861029 0.161184 0.945818
O O2 0.994016 0.277261 0.884746
O O3 0.106779 0.127302 0.943723
O O4 0.050717 0.242273 0.041442
O O5 0.705591 0.098764 0.814105
O O6 0.614990 0.146472 0.932378
O O7 0.760038 0.000675 0.950795
O O8 0.500000 0.147420 0.250000
O O9 0.312398 0.259316 0.257164
O O10 0.339014 0.090168 0.329791
O O11 0.310758 0.433643 0.201550
O O12 0.111848 0.344271 0.168727
O O13 0.883228 0.095485 0.253182
O O14 0.848567 0.045631 0.098506
O O15 0.500000 0.500000 0.500000
O O16 0.047889 0.782116 0.830930
#
# Coordination Sequence:
#
# PCOD8139134 Si02
#       8
#     8   8   8   8   8   8   8   4
#     4  10  22  38  70  98 139 187 241 292 352 420
#     4  10  20  38  65  98 142 181 231 294 356 417
#     4  11  24  48  69  99 144 194 237 296 357 428
#     4  11  25  41  66 103 141 182 238 291 357 422
#     4  12  26  42  69 104 137 183 236 294 357 421
#     4  10  22  40  66 105 134 177 238 293 351 414
#     4  12  21  43  65 105 140 184 233 294 358 431
#     4  12  22  38  72  98 134 176 238 288 348 422
#
# _framework density 22.496974000000002
#
# number of rings (size 3 to 8) (size 9 to 14) (size 15 to 20)
#    0.000    1.067    2.667    4.400    8.400    1.067 
#    0.000    6.667    0.000    0.000    0.000    0.000 
#    0.000    0.000    0.000    0.000    0.000    0.000 
#
# Total GULP energy -371772.699583 kJ/mol
# GULP energy per Si atom -12392.423319 kJ/mol
# Density = 2.244577 g / cm^3
# Si number density = 22.496974 Si / 1000 Ang^3
#
#
#
# Elastic Constant Matrix: (Units=GPa)
#
#
# Indices 1 2 3 4 5 6 
#
# 1 88.9901 50.2317 41.2703 0.0000 -8.1353 0.0000
# 2 50.2317 93.7152 50.4256 0.0000 0.5179 0.0000
# 3 41.2703 50.4256 125.7458 0.0000 2.9928 0.0000
# 4 0.0000 0.0000 0.0000 16.2268 0.0000 -10.8882
# 5 -8.1353 0.5179 2.9928 0.0000 42.2632 0.0000
# 6 0.0000 0.0000 0.0000 -10.8882 0.0000 17.8095
#
#
#
# Elastic Compliance Matrix: (Units=1/GPa)
#
#
# Indices 1 2 3 4 5 6 
#
# 1 0.017191 -0.007845 -0.002581 0.000000 0.003588 0.000000
# 2 -0.007845 0.017189 -0.004284 0.000000 -0.001417 0.000000
# 3 -0.002581 -0.004284 0.010546 0.000000 -0.001191 0.000000
# 4 0.000000 0.000000 0.000000 0.104492 0.000000 0.063883
# 5 0.003588 -0.001417 -0.001191 0.000000 0.024454 0.000000
# 6 0.000000 0.000000 0.000000 0.063883 0.000000 0.095206
#
#
# Mechanical properties :
#
#
# Convention : Reuss Voigt Hill
#
# Bulk Modulus (GPa) = 64.50029 65.81184 65.15606
# Shear Modulus (GPa) = 16.46544 26.36146 21.41345
#
# Velocity S-wave (km/s) = 2.70829 3.42684 3.08853
# Velocity P-wave (km/s) = 6.20586 6.70632 6.46094
#
# Compressibility (1/GPa) = 0.01550381
#
# Stress axis : x y z
#
# Youngs Moduli (GPa) = 58.17107 58.17756 94.82045
#
# Poissons Ratio (x) = 0.45641 0.24478
# Poissons Ratio (y) = 0.45636 0.40625
# Poissons Ratio (z) = 0.15017 0.24926
#
# Static dielectric constant tensor:
#      x y z
#    x 3.857810 0.000000 0.015800 
#    y 0.000000 4.386120 0.000000 
#    z 0.015800 0.000000 4.363520 
# 
# 
# High freq. dielectric constant tensor:
#      x y z
#    x 1.870500 0.000000 -0.001010 
#    y 0.000000 1.878330 0.000000 
#    z -0.001010 0.000000 1.896710 
# 
# From -- ./inp_files/198402.got.cif
#   From: 2010.06.25/outbox.cif.g09.slc.cpg/sg15_100_cif.got.tgz:198402.got - 2010.06.28 07:06:18.
