data_PCOD8139512
_publ_section_title
;
Structure prediction by ZEFSAII (Michael W. Deem and Ramdas Pophale) SiO2 
 PCOD8139512
Probable space group: C 2/C
;
_chemical_formula_sum "Si O2"
_cell_formula_units_Z 64
_cell_length_a 20.684408
_cell_length_b 9.159480
_cell_length_c 21.983947
_cell_angle_alpha 90.000000
_cell_angle_beta 51.196388
_cell_angle_gamma 90.000000
_cell_volume 3245.812299
_symmetry_space_group_name_H-M "C 2/C"
_symmetry_group_IT_number 15
_symmetry_cell_setting 'monoclinic'
loop_
_space_group_symop_operation_xyz
x,y,z
-x,y,1/2-z
-x,-y,-z
x,-y,1/2+z
1/2+x,1/2+y,z
1/2-x,1/2+y,1/2-z
1/2-x,1/2-y,-z
1/2+x,1/2-y,1/2+z
loop_
_atom_site_type_symbol
_atom_site_label
_atom_site_fract_x
_atom_site_fract_y
_atom_site_fract_z
Si Si1 0.827962 0.340042 0.973487
Si Si2 0.298462 0.145495 0.928794
Si Si3 0.642437 0.593503 0.798503
Si Si4 0.770150 0.756020 0.148654
Si Si5 0.696590 0.080445 0.874464
Si Si6 0.026171 0.850716 0.165029
Si Si7 0.885154 0.762462 0.679384
Si Si8 0.459115 0.673173 0.337603
O O1 0.816431 0.493048 0.948031
O O2 0.912556 0.270834 0.898018
O O3 0.750000 0.250000 0.000000
O O4 0.825944 0.348366 0.047769
O O5 0.238831 0.140524 0.904929
O O6 0.386043 0.219348 0.864640
O O7 0.250000 0.250000 0.000000
O O8 0.660919 0.682923 0.847682
O O9 0.712307 0.619831 0.705300
O O10 0.558304 0.657961 0.822600
O O11 0.634791 0.428552 0.827459
O O12 0.803301 0.593390 0.115593
O O13 0.678327 0.770627 0.229537
O O14 0.628083 0.145979 0.867630
O O15 0.000000 0.818271 0.250000
O O16 0.068966 0.009096 0.126579
O O17 0.979163 0.752243 0.649467
O O18 0.500000 0.638085 0.250000
#
# Coordination Sequence:
#
# PCOD8139512 Si02
#       8
#     8   8   8   8   8   8   8   8
#     4  12  26  41  61  92 128 164 205 260 310 369
#     4  12  24  40  62  92 121 162 208 251 316 364
#     4   9  20  39  66  91 118 163 210 249 305 373
#     4  10  20  39  63  90 122 160 206 251 304 371
#     4  10  21  40  62  89 126 161 202 255 316 359
#     4  10  22  42  65  91 125 167 205 255 314 369
#     4   9  19  38  65  92 116 161 203 253 305 365
#     4  10  20  41  68  88 123 160 209 256 303 372
#
# _framework density 19.717715999999999
#
# number of rings (size 3 to 8) (size 9 to 14) (size 15 to 20)
#    0.000    1.750    2.500    1.500    3.500    1.500 
#    6.750    2.500    0.000    0.000    0.000    0.000 
#    0.000    0.000    0.000    0.000    0.000    0.000 
#
# Total GULP energy -396527.139811 kJ/mol
# GULP energy per Si atom -12391.473119 kJ/mol
# Density = 1.967284 g / cm^3
# Si number density = 19.717716 Si / 1000 Ang^3
#
#
#
# Elastic Constant Matrix: (Units=GPa)
#
#
# Indices 1 2 3 4 5 6 
#
# 1 126.3826 56.6351 44.6808 -0.0004 15.1498 0.0008
# 2 56.6351 91.7323 37.3829 -0.0016 5.9904 0.0020
# 3 44.6808 37.3829 70.9959 -0.0007 13.4578 0.0007
# 4 -0.0004 -0.0016 -0.0007 8.7552 0.0004 12.9072
# 5 15.1498 5.9904 13.4578 0.0004 30.5194 -0.0001
# 6 0.0008 0.0020 0.0007 12.9072 -0.0001 35.0315
#
#
#
# Elastic Compliance Matrix: (Units=1/GPa)
#
#
# Indices 1 2 3 4 5 6 
#
# 1 0.012315 -0.005707 -0.004145 -0.000002 -0.003165 0.000001
# 2 -0.005707 0.016533 -0.005495 0.000007 0.002011 -0.000003
# 3 -0.004145 -0.005495 0.020725 0.000002 -0.006003 -0.000001
# 4 -0.000002 0.000007 0.000002 0.250029 -0.000005 -0.092123
# 5 -0.003165 0.002011 -0.006003 -0.000005 0.036589 0.000002
# 6 0.000001 -0.000003 -0.000001 -0.092123 0.000002 0.062488
#
#
# Mechanical properties :
#
#
# Convention : Reuss Voigt Hill
#
# Bulk Modulus (GPa) = 52.97010 62.94537 57.95774
# Shear Modulus (GPa) = 11.47667 24.88868 18.18267
#
# Velocity S-wave (km/s) = 2.41519 3.55667 3.03999
# Velocity P-wave (km/s) = 5.89067 6.98993 6.46371
#
# Compressibility (1/GPa) = 0.01887857
#
# Stress axis : x y z
#
# Youngs Moduli (GPa) = 81.20248 60.48587 48.25050
#
# Poissons Ratio (x) = 0.34521 0.20001
# Poissons Ratio (y) = 0.46344 0.26512
# Poissons Ratio (z) = 0.33660 0.33235
#
# Static dielectric constant tensor:
#      x y z
#    x 3.739740 0.000000 0.088140 
#    y 0.000000 4.060820 0.000000 
#    z 0.088140 0.000000 3.593810 
# 
# 
# High freq. dielectric constant tensor:
#      x y z
#    x 1.782380 0.000000 0.006380 
#    y 0.000000 1.770430 0.000000 
#    z 0.006380 0.000000 1.760230 
# 
# From -- ./inp_files/279551.got.cif
#   From: 2010.06.25/outbox.cif.g09.slc.cpg/sg15_140_cif.got.tgz:279551.got - 2010.06.28 07:06:18.
