data_PCOD8139655
_publ_section_title
;
Structure prediction by ZEFSAII (Michael W. Deem and Ramdas Pophale) SiO2 
 PCOD8139655
Probable space group: C 2/C
;
_chemical_formula_sum "Si O2"
_cell_formula_units_Z 52
_cell_length_a 6.472581
_cell_length_b 15.880741
_cell_length_c 27.708231
_cell_angle_alpha 90.000000
_cell_angle_beta 60.144936
_cell_angle_gamma 90.000000
_cell_volume 2470.131716
_symmetry_space_group_name_H-M "C 2/C"
_symmetry_group_IT_number 15
_symmetry_cell_setting 'monoclinic'
loop_
_space_group_symop_operation_xyz
x,y,z
-x,y,1/2-z
-x,-y,-z
x,-y,1/2+z
1/2+x,1/2+y,z
1/2-x,1/2+y,1/2-z
1/2-x,1/2-y,-z
1/2+x,1/2-y,1/2+z
loop_
_atom_site_type_symbol
_atom_site_label
_atom_site_fract_x
_atom_site_fract_y
_atom_site_fract_z
Si Si1 0.395154 0.989632 0.168014
Si Si2 0.118877 0.821884 0.184807
Si Si3 0.482481 0.708839 0.349168
Si Si4 0.861941 0.951498 0.473429
Si Si5 0.371564 0.080228 0.071612
Si Si6 0.000000 0.897897 0.750000
Si Si7 0.292174 0.373023 0.137496
O O1 0.271746 0.905890 0.163564
O O2 0.648591 0.961822 0.162711
O O3 0.438606 0.046538 0.116330
O O4 0.232894 0.041996 0.224176
O O5 0.259897 0.733043 0.157126
O O6 0.000000 0.810278 0.250000
O O7 0.914624 0.836426 0.170150
O O8 0.297889 0.662253 0.405978
O O9 0.514150 0.658267 0.295939
O O10 0.399284 0.803055 0.351091
O O11 0.628031 0.900399 0.518118
O O12 0.032617 0.883353 0.428520
O O13 0.781580 0.015771 0.441641
O O14 0.000000 0.000000 0.500000
#
# Coordination Sequence:
#
# PCOD8139655 Si02
#       7
#     8   8   8   8   8   4   8
#     4  10  20  39  66  90 125 164 218 267 312 386
#     4  11  22  41  61  93 129 174 208 261 325 394
#     4  10  24  41  62  93 137 164 208 271 329 388
#     4  11  22  40  69  94 122 169 221 267 326 383
#     4  10  22  41  63  95 127 160 215 276 315 382
#     4  10  20  44  62  96 132 170 218 268 326 392
#     4  11  23  41  66  94 126 171 217 262 327 397
#
# _framework density 21.051508999999999
#
# number of rings (size 3 to 8) (size 9 to 14) (size 15 to 20)
#    0.000    1.538    3.846    0.923    0.000    3.692 
#    2.769    3.077    0.000    0.000    0.000    0.000 
#    0.000    0.000    0.000    0.000    0.000    0.000 
#
# Total GULP energy -322180.287077 kJ/mol
# GULP energy per Si atom -12391.549503 kJ/mol
# Density = 2.100359 g / cm^3
# Si number density = 21.051509 Si / 1000 Ang^3
#
#
#
# Elastic Constant Matrix: (Units=GPa)
#
#
# Indices 1 2 3 4 5 6 
#
# 1 107.0124 33.1787 44.2965 0.0006 -2.2818 -0.0010
# 2 33.1787 86.6280 42.4878 0.0003 -12.5684 -0.0004
# 3 44.2965 42.4878 114.5561 0.0006 -14.3649 -0.0005
# 4 0.0006 0.0003 0.0006 40.6895 -0.0005 -23.2242
# 5 -2.2818 -12.5684 -14.3649 -0.0005 33.0426 0.0007
# 6 -0.0010 -0.0004 -0.0005 -23.2242 0.0007 36.7134
#
#
#
# Elastic Compliance Matrix: (Units=1/GPa)
#
#
# Indices 1 2 3 4 5 6 
#
# 1 0.011749 -0.002973 -0.003681 0.000000 -0.001920 0.000000
# 2 -0.002973 0.015205 -0.004009 0.000000 0.003835 0.000000
# 3 -0.003681 -0.004009 0.012075 0.000000 0.003470 0.000000
# 4 0.000000 0.000000 0.000000 0.038464 0.000000 0.024332
# 5 -0.001920 0.003835 0.003470 0.000000 0.033099 -0.000001
# 6 0.000000 0.000000 0.000000 0.024332 -0.000001 0.042630
#
#
# Mechanical properties :
#
#
# Convention : Reuss Voigt Hill
#
# Bulk Modulus (GPa) = 56.48820 60.90250 58.69535
# Shear Modulus (GPa) = 27.70863 34.63799 31.17331
#
# Velocity S-wave (km/s) = 3.63192 4.06074 3.85231
# Velocity P-wave (km/s) = 6.66929 7.13997 6.90864
#
# Compressibility (1/GPa) = 0.01770281
#
# Stress axis : x y z
#
# Youngs Moduli (GPa) = 85.11077 65.76821 82.81680
#
# Poissons Ratio (x) = 0.19553 0.30488
# Poissons Ratio (y) = 0.25304 0.33200
# Poissons Ratio (z) = 0.31332 0.26365
#
# Static dielectric constant tensor:
#      x y z
#    x 4.323700 0.000000 -0.280810 
#    y 0.000000 3.886260 0.000000 
#    z -0.280810 0.000000 3.872130 
# 
# 
# High freq. dielectric constant tensor:
#      x y z
#    x 1.836310 0.000000 -0.019420 
#    y 0.000000 1.819070 0.000000 
#    z -0.019420 0.000000 1.826460 
# 
# From -- ./inp_files/305345.got.cif
#   From: 2010.06.25/outbox.cif.g09.slc.cpg/sg15_153_cif.got.tgz:305345.got - 2010.06.28 07:06:18.
