data_PCOD8139017
_publ_section_title
;
Structure prediction by ZEFSAII (Michael W. Deem and Ramdas Pophale) SiO2 
 PCOD8139017
Probable space group: C 2/C
;
_chemical_formula_sum "Si O2"
_cell_formula_units_Z 44
_cell_length_a 19.198365
_cell_length_b 14.586526
_cell_length_c 8.582445
_cell_angle_alpha 90.000000
_cell_angle_beta 125.428025
_cell_angle_gamma 90.000000
_cell_volume 1958.401824
_symmetry_space_group_name_H-M "C 2/C"
_symmetry_group_IT_number 15
_symmetry_cell_setting 'monoclinic'
loop_
_space_group_symop_operation_xyz
x,y,z
-x,y,1/2-z
-x,-y,-z
x,-y,1/2+z
1/2+x,1/2+y,z
1/2-x,1/2+y,1/2-z
1/2-x,1/2-y,-z
1/2+x,1/2-y,1/2+z
loop_
_atom_site_type_symbol
_atom_site_label
_atom_site_fract_x
_atom_site_fract_y
_atom_site_fract_z
Si Si1 0.073322 0.427800 0.122133
Si Si2 0.000000 0.848268 0.250000
Si Si3 0.842190 0.580441 0.098142
Si Si4 0.407344 0.389558 0.561488
Si Si5 0.649689 0.457840 0.335447
Si Si6 0.554291 0.217583 0.051819
O O1 0.138714 0.474288 0.328420
O O2 0.118336 0.399735 0.019190
O O3 0.000000 0.500000 0.000000
O O4 0.023991 0.339371 0.128019
O O5 0.086105 0.909014 0.376944
O O6 0.006675 0.786490 0.105604
O O7 0.878958 0.652050 0.271905
O O8 0.740883 0.592731 0.958846
O O9 0.500000 0.409662 0.750000
O O10 0.391999 0.448745 0.386863
O O11 0.342196 0.433989 0.604578
O O12 0.395774 0.280102 0.512198
#
# Coordination Sequence:
#
# PCOD8139017 Si02
#       6
#     8   4   8   8   8   8
#     4  10  20  40  68  94 133 171 210 261 334 390
#     4  10  20  38  64  86 126 176 216 258 320 392
#     4  11  22  41  68 100 135 167 219 276 327 393
#     4  11  24  42  67  91 128 176 224 267 319 399
#     4  11  24  41  65  96 130 175 218 266 334 385
#     4  10  21  39  66  97 127 171 222 260 324 395
#
# _framework density 22.467298
#
# number of rings (size 3 to 8) (size 9 to 14) (size 15 to 20)
#    0.000    1.455    2.727    3.273    2.545    5.818 
#    3.273    0.000    0.000    9.818    0.000    0.000 
#    0.000    0.000    0.000    0.000    0.000    0.000 
#
# Total GULP energy -272563.217075 kJ/mol
# GULP energy per Si atom -12389.237140 kJ/mol
# Density = 2.241616 g / cm^3
# Si number density = 22.467298 Si / 1000 Ang^3
#
#
#
# Elastic Constant Matrix: (Units=GPa)
#
#
# Indices 1 2 3 4 5 6 
#
# 1 107.7062 47.6260 37.3678 0.0000 27.2843 0.0000
# 2 47.6260 131.2538 45.4352 0.0000 -1.8878 0.0000
# 3 37.3678 45.4352 105.9092 0.0000 8.6886 0.0000
# 4 0.0000 0.0000 0.0000 32.1573 0.0000 -5.4509
# 5 27.2843 -1.8878 8.6886 0.0000 26.8868 0.0000
# 6 0.0000 0.0000 0.0000 -5.4509 0.0000 23.0563
#
#
#
# Elastic Compliance Matrix: (Units=1/GPa)
#
#
# Indices 1 2 3 4 5 6 
#
# 1 0.016703 -0.005558 -0.002143 0.000000 -0.016648 0.000000
# 2 -0.005558 0.010895 -0.003326 0.000000 0.007480 0.000000
# 3 -0.002143 -0.003326 0.011778 0.000000 -0.001865 0.000000
# 4 0.000000 0.000000 0.000000 0.032395 0.000000 0.007659
# 5 -0.016648 0.007480 -0.001865 0.000000 0.055215 0.000000
# 6 0.000000 0.000000 0.000000 0.007659 0.000000 0.045183
#
#
# Mechanical properties :
#
#
# Convention : Reuss Voigt Hill
#
# Bulk Modulus (GPa) = 57.73526 67.30304 62.51915
# Shear Modulus (GPa) = 25.00022 30.71609 27.85816
#
# Velocity S-wave (km/s) = 3.33939 3.70151 3.52510
# Velocity P-wave (km/s) = 6.37354 6.94905 6.66750
#
# Compressibility (1/GPa) = 0.01732044
#
# Stress axis : x y z
#
# Youngs Moduli (GPa) = 59.86916 91.78705 84.90258
#
# Poissons Ratio (x) = 0.51019 0.18195
# Poissons Ratio (y) = 0.33278 0.28242
# Poissons Ratio (z) = 0.12830 0.30532
#
# Static dielectric constant tensor:
#      x y z
#    x 4.075390 0.000000 -0.003900 
#    y 0.000000 4.949420 0.000000 
#    z -0.003900 0.000000 3.897760 
# 
# 
# High freq. dielectric constant tensor:
#      x y z
#    x 1.865530 0.000000 -0.004710 
#    y 0.000000 1.893590 0.000000 
#    z -0.004710 0.000000 1.881920 
# 
# From -- ./inp_files/47532.got.cif
#   From: 2010.06.25/outbox.cif.g09.slc.cpg/sg15_24_cif.got.tgz:47532.got - 2010.06.28 07:06:18.
