data_PCOD8139088
_publ_section_title
;
Structure prediction by ZEFSAII (Michael W. Deem and Ramdas Pophale) SiO2 
 PCOD8139088
Probable space group: C 2/C
;
_chemical_formula_sum "Si O2"
_cell_formula_units_Z 56
_cell_length_a 8.847011
_cell_length_b 23.422857
_cell_length_c 17.151297
_cell_angle_alpha 90.000000
_cell_angle_beta 48.808927
_cell_angle_gamma 90.000000
_cell_volume 2674.545690
_symmetry_space_group_name_H-M "C 2/C"
_symmetry_group_IT_number 15
_symmetry_cell_setting 'monoclinic'
loop_
_space_group_symop_operation_xyz
x,y,z
-x,y,1/2-z
-x,-y,-z
x,-y,1/2+z
1/2+x,1/2+y,z
1/2-x,1/2+y,1/2-z
1/2-x,1/2-y,-z
1/2+x,1/2-y,1/2+z
loop_
_atom_site_type_symbol
_atom_site_label
_atom_site_fract_x
_atom_site_fract_y
_atom_site_fract_z
Si Si1 0.431948 0.317107 0.993391
Si Si2 0.129123 0.024619 0.331751
Si Si3 0.810087 0.578460 0.854946
Si Si4 0.688136 0.880986 0.629558
Si Si5 0.831143 0.533520 0.009740
Si Si6 0.350396 0.894410 0.636425
Si Si7 0.316455 0.282968 0.859499
O O1 0.337439 0.374247 0.061758
O O2 0.359443 0.262835 0.067530
O O3 0.672370 0.324642 0.922406
O O4 0.383256 0.309532 0.919209
O O5 0.172388 0.066376 0.390389
O O6 0.222017 0.056611 0.224817
O O7 0.894747 0.010672 0.401583
O O8 0.220712 0.962646 0.318454
O O9 0.000000 0.609131 0.750000
O O10 0.885133 0.538180 0.900686
O O11 0.500000 0.869020 0.750000
O O12 0.585355 0.896355 0.582002
O O13 0.838848 0.595611 0.047743
O O14 0.000000 0.500000 0.000000
O O15 0.258131 0.831298 0.676569
O O16 0.500000 0.253485 0.750000
#
# Coordination Sequence:
#
# PCOD8139088 Si02
#       7
#     8   8   8   8   8   8   8
#     4  11  24  41  67  95 131 177 213 268 331 381
#     4  11  22  40  64  93 130 173 214 263 324 397
#     4  12  24  41  60  93 134 174 214 261 327 396
#     4  10  20  38  64  97 127 170 218 261 326 388
#     4  12  23  36  61  94 125 166 213 267 321 378
#     4  11  22  39  67  95 126 165 222 269 315 378
#     4  11  22  43  68  97 127 168 227 271 314 384
#
# _framework density 20.938134999999999
#
# number of rings (size 3 to 8) (size 9 to 14) (size 15 to 20)
#    0.000    0.857    2.857    6.857    2.000    0.571 
#    0.000    0.000    0.000    0.000    0.000    0.000 
#    0.000    0.000    0.000    0.000    0.000    0.000 
#
# Total GULP energy -346968.737371 kJ/mol
# GULP energy per Si atom -12391.740620 kJ/mol
# Density = 2.089048 g / cm^3
# Si number density = 20.938135 Si / 1000 Ang^3
#
#
#
# Elastic Constant Matrix: (Units=GPa)
#
#
# Indices 1 2 3 4 5 6 
#
# 1 105.6434 26.9838 49.7360 0.0000 -18.4197 0.0000
# 2 26.9838 85.1458 54.0869 0.0000 -5.6393 0.0000
# 3 49.7360 54.0869 98.8356 0.0000 -19.2653 0.0000
# 4 0.0000 0.0000 0.0000 34.0576 0.0000 -2.6217
# 5 -18.4197 -5.6393 -19.2653 0.0000 35.6662 0.0000
# 6 0.0000 0.0000 0.0000 -2.6217 0.0000 36.6890
#
#
#
# Elastic Compliance Matrix: (Units=1/GPa)
#
#
# Indices 1 2 3 4 5 6 
#
# 1 0.012787 -0.000258 -0.005604 0.000000 0.003536 0.000000
# 2 -0.000258 0.018255 -0.010421 0.000000 -0.002876 0.000000
# 3 -0.005604 -0.010421 0.019845 0.000000 0.006177 0.000000
# 4 0.000000 0.000000 0.000000 0.029524 0.000000 0.002110
# 5 0.003536 -0.002876 0.006177 0.000000 0.032746 0.000000
# 6 0.000000 0.000000 0.000000 0.002110 0.000000 0.027407
#
#
# Mechanical properties :
#
#
# Convention : Reuss Voigt Hill
#
# Bulk Modulus (GPa) = 54.58289 61.24869 57.91579
# Shear Modulus (GPa) = 27.89612 31.87044 29.88328
#
# Velocity S-wave (km/s) = 3.65404 3.90567 3.78195
# Velocity P-wave (km/s) = 6.62782 7.04661 6.84042
#
# Compressibility (1/GPa) = 0.01832076
#
# Stress axis : x y z
#
# Youngs Moduli (GPa) = 78.20733 54.77810 50.39168
#
# Poissons Ratio (x) = 0.01415 0.28239
# Poissons Ratio (y) = 0.02020 0.52512
# Poissons Ratio (z) = 0.43826 0.57083
#
# Static dielectric constant tensor:
#      x y z
#    x 4.193050 0.000000 0.024330 
#    y 0.000000 3.716440 0.000000 
#    z 0.024330 0.000000 4.009350 
# 
# 
# High freq. dielectric constant tensor:
#      x y z
#    x 1.826720 0.000000 -0.004040 
#    y 0.000000 1.800530 0.000000 
#    z -0.004040 0.000000 1.826150 
# 
# From -- ./inp_files/193174.got.cif
#   From: 2010.06.25/outbox.cif.g09.slc.cpg/sg15_97_cif.got.tgz:193174.got - 2010.06.28 07:06:18.
