data_PCOD8139304
_publ_section_title
;
Structure prediction by ZEFSAII (Michael W. Deem and Ramdas Pophale) SiO2 
 PCOD8139304
Probable space group: C 2/C
;
_chemical_formula_sum "Si O2"
_cell_formula_units_Z 56
_cell_length_a 6.055279
_cell_length_b 21.504825
_cell_length_c 25.089707
_cell_angle_alpha 90.000000
_cell_angle_beta 57.510620
_cell_angle_gamma 90.000000
_cell_volume 2755.790032
_symmetry_space_group_name_H-M "C 2/C"
_symmetry_group_IT_number 15
_symmetry_cell_setting 'monoclinic'
loop_
_space_group_symop_operation_xyz
x,y,z
-x,y,1/2-z
-x,-y,-z
x,-y,1/2+z
1/2+x,1/2+y,z
1/2-x,1/2+y,1/2-z
1/2-x,1/2-y,-z
1/2+x,1/2-y,1/2+z
loop_
_atom_site_type_symbol
_atom_site_label
_atom_site_fract_x
_atom_site_fract_y
_atom_site_fract_z
Si Si1 0.801798 0.127560 0.699313
Si Si2 0.052350 0.798400 0.416182
Si Si3 0.500000 0.072392 0.250000
Si Si4 0.000000 0.767821 0.250000
Si Si5 0.307527 0.685321 0.058140
Si Si6 0.501045 0.297778 0.855966
Si Si7 0.001525 0.003234 0.189626
Si Si8 0.846610 0.392540 0.653724
O O1 0.500000 0.107982 0.750000
O O2 0.879694 0.141855 0.628547
O O3 0.859432 0.189378 0.724833
O O4 0.002139 0.071378 0.687064
O O5 0.321386 0.761885 0.382071
O O6 0.817229 0.754947 0.424701
O O7 0.982720 0.824538 0.483288
O O8 0.737341 0.029492 0.196816
O O9 0.582553 0.111430 0.292096
O O10 0.206959 0.722322 0.196444
O O11 0.491637 0.674219 0.085319
O O12 0.082441 0.633097 0.087167
O O13 0.404473 0.347981 0.825126
O O14 0.000000 0.026771 0.250000
O O15 0.269818 0.039311 0.137897
#
# Coordination Sequence:
#
# PCOD8139304 Si02
#       8
#     8   8   4   4   8   8   8   8
#     4  12  22  41  61  90 123 158 206 250 307 368
#     4  10  22  39  61  89 120 170 202 245 308 360
#     4  10  20  39  58  88 124 153 200 246 310 354
#     4  12  24  37  60  96 126 155 194 260 310 360
#     4  10  21  40  60  85 127 162 207 249 295 369
#     4  11  22  39  62  90 128 157 200 253 305 372
#     4  10  21  37  61  87 118 161 198 248 311 363
#     4  10  23  39  59  92 120 161 201 250 305 364
#
# _framework density 20.32085
#
# number of rings (size 3 to 8) (size 9 to 14) (size 15 to 20)
#    0.000    1.429    4.286    1.286    0.000    4.571 
#    2.571    0.714    0.000    3.429    0.000    0.000 
#    0.000    0.000    0.000    0.000    0.000    0.000 
#
# Total GULP energy -346994.711686 kJ/mol
# GULP energy per Si atom -12392.668275 kJ/mol
# Density = 2.027460 g / cm^3
# Si number density = 20.320850 Si / 1000 Ang^3
#
#
#
# Elastic Constant Matrix: (Units=GPa)
#
#
# Indices 1 2 3 4 5 6 
#
# 1 93.8963 29.3143 31.7789 0.0000 19.7140 0.0000
# 2 29.3143 78.1033 38.0191 0.0000 7.5610 0.0000
# 3 31.7789 38.0191 105.7734 0.0000 14.3173 0.0000
# 4 0.0000 0.0000 0.0000 4.0586 0.0000 -2.0557
# 5 19.7140 7.5610 14.3173 0.0000 24.0105 0.0000
# 6 0.0000 0.0000 0.0000 -2.0557 0.0000 41.3584
#
#
#
# Elastic Compliance Matrix: (Units=1/GPa)
#
#
# Indices 1 2 3 4 5 6 
#
# 1 0.014390 -0.003634 -0.001711 0.000000 -0.009650 0.000000
# 2 -0.003634 0.016500 -0.004938 0.000000 0.000732 0.000000
# 3 -0.001711 -0.004938 0.012338 0.000000 -0.004397 0.000000
# 4 0.000000 0.000000 0.000000 0.252751 0.000000 0.012563
# 5 -0.009650 0.000732 -0.004397 0.000000 0.051963 0.000000
# 6 0.000000 0.000000 0.000000 0.012563 0.000000 0.024803
#
#
# Mechanical properties :
#
#
# Convention : Reuss Voigt Hill
#
# Bulk Modulus (GPa) = 44.12551 52.88862 48.50707
# Shear Modulus (GPa) = 12.47299 25.79623 19.13461
#
# Velocity S-wave (km/s) = 2.48019 3.56679 3.07192
# Velocity P-wave (km/s) = 5.47388 6.56094 6.04191
#
# Compressibility (1/GPa) = 0.02266263
#
# Stress axis : x y z
#
# Youngs Moduli (GPa) = 69.49432 60.60473 81.04751
#
# Poissons Ratio (x) = 0.22022 0.13867
# Poissons Ratio (y) = 0.25253 0.40023
# Poissons Ratio (z) = 0.11890 0.29928
#
# Static dielectric constant tensor:
#      x y z
#    x 4.013680 0.000000 -0.010860 
#    y 0.000000 3.546250 0.000000 
#    z -0.010860 0.000000 3.613230 
# 
# 
# High freq. dielectric constant tensor:
#      x y z
#    x 1.810060 0.000000 0.000480 
#    y 0.000000 1.782340 0.000000 
#    z 0.000480 0.000000 1.770750 
# 
# From -- ./inp_files/286339.got.cif
#   From: 2010.06.25/outbox.cif.g09.slc.cpg/sg15_144_cif.got.tgz:286339.got - 2010.06.28 07:06:18.
