data_PCOD8139127
_publ_section_title
;
Structure prediction by ZEFSAII (Michael W. Deem and Ramdas Pophale) SiO2 
 PCOD8139127
Probable space group: C 2/C
;
_chemical_formula_sum "Si O2"
_cell_formula_units_Z 60
_cell_length_a 15.121004
_cell_length_b 12.417384
_cell_length_c 16.327525
_cell_angle_alpha 90.000000
_cell_angle_beta 72.371726
_cell_angle_gamma 90.000000
_cell_volume 2921.748547
_symmetry_space_group_name_H-M "C 2/C"
_symmetry_group_IT_number 15
_symmetry_cell_setting 'monoclinic'
loop_
_space_group_symop_operation_xyz
x,y,z
-x,y,1/2-z
-x,-y,-z
x,-y,1/2+z
1/2+x,1/2+y,z
1/2-x,1/2+y,1/2-z
1/2-x,1/2-y,-z
1/2+x,1/2-y,1/2+z
loop_
_atom_site_type_symbol
_atom_site_label
_atom_site_fract_x
_atom_site_fract_y
_atom_site_fract_z
Si Si1 0.000000 0.107142 0.750000
Si Si2 0.587505 0.928008 0.882939
Si Si3 0.180648 0.609987 0.782270
Si Si4 0.345088 0.761724 0.768372
Si Si5 0.092128 0.434803 0.067621
Si Si6 0.266898 0.964145 0.871687
Si Si7 0.506067 0.256456 0.838389
Si Si8 0.951376 0.027210 0.098335
O O1 0.917083 0.187806 0.797457
O O2 0.978046 0.040402 0.672724
O O3 0.607207 0.824744 0.820459
O O4 0.671082 0.016188 0.853887
O O5 0.489218 0.981208 0.884435
O O6 0.582954 0.892274 0.977824
O O7 0.275171 0.674439 0.751930
O O8 0.170568 0.542178 0.702078
O O9 0.100230 0.692660 0.820713
O O10 0.293639 0.840384 0.846612
O O11 0.192105 0.495177 0.052312
O O12 0.080715 0.323418 0.121865
O O13 0.158483 0.981019 0.887362
O O14 0.500000 0.307593 0.750000
O O15 0.511703 0.352615 0.900533
O O16 0.000000 0.000000 0.000000
#
# Coordination Sequence:
#
# PCOD8139127 Si02
#       8
#     4   8   8   8   8   8   8   8
#     4  12  26  44  68  96 136 176 220 278 330 392
#     4   9  22  39  64  99 133 164 222 276 325 390
#     4  10  20  38  65  93 126 167 218 267 320 393
#     4  11  22  40  68  93 128 176 219 265 333 389
#     4  10  21  40  68  96 129 167 223 279 325 379
#     4  11  22  43  66  96 131 167 224 274 322 398
#     4  11  21  41  69  93 126 177 214 266 328 388
#     4  12  28  46  63  98 141 174 219 271 338 406
#
# _framework density 20.535647999999998
#
# number of rings (size 3 to 8) (size 9 to 14) (size 15 to 20)
#    0.000    1.333    4.667    0.800    1.867    1.067 
#    4.800    2.667    0.000    0.000    0.000    0.000 
#    0.000    0.000    0.000    0.000    0.000    0.000 
#
# Total GULP energy -371686.785802 kJ/mol
# GULP energy per Si atom -12389.559527 kJ/mol
# Density = 2.048891 g / cm^3
# Si number density = 20.535648 Si / 1000 Ang^3
#
#
#
# Elastic Constant Matrix: (Units=GPa)
#
#
# Indices 1 2 3 4 5 6 
#
# 1 99.7630 57.4812 34.5556 0.0000 9.4719 0.0000
# 2 57.4812 111.0121 36.9652 0.0000 3.4596 0.0000
# 3 34.5556 36.9652 93.3123 0.0000 1.4938 0.0000
# 4 0.0000 0.0000 0.0000 15.6060 0.0000 -0.9917
# 5 9.4719 3.4596 1.4938 0.0000 25.6820 0.0000
# 6 0.0000 0.0000 0.0000 -0.9917 0.0000 34.2849
#
#
#
# Elastic Compliance Matrix: (Units=1/GPa)
#
#
# Indices 1 2 3 4 5 6 
#
# 1 0.015433 -0.006876 -0.002917 0.000000 -0.004596 0.000000
# 2 -0.006876 0.013475 -0.002806 0.000000 0.000884 0.000000
# 3 -0.002917 -0.002806 0.012897 0.000000 0.000704 0.000000
# 4 0.000000 0.000000 0.000000 0.064196 0.000000 0.001857
# 5 -0.004596 0.000884 0.000704 0.000000 0.040473 0.000000
# 6 0.000000 0.000000 0.000000 0.001857 0.000000 0.029221
#
#
# Mechanical properties :
#
#
# Convention : Reuss Voigt Hill
#
# Bulk Modulus (GPa) = 60.21896 62.45460 61.33678
# Shear Modulus (GPa) = 24.22135 26.78693 25.50414
#
# Velocity S-wave (km/s) = 3.43808 3.61558 3.52795
# Velocity P-wave (km/s) = 6.71925 6.92161 6.82118
#
# Compressibility (1/GPa) = 0.01660606
#
# Stress axis : x y z
#
# Youngs Moduli (GPa) = 64.79821 74.21027 77.53511
#
# Poissons Ratio (x) = 0.51028 0.22621
# Poissons Ratio (y) = 0.44556 0.21756
# Poissons Ratio (z) = 0.18905 0.20823
#
# Static dielectric constant tensor:
#      x y z
#    x 3.858250 0.000000 -0.035080 
#    y 0.000000 3.917930 0.000000 
#    z -0.035080 0.000000 3.676740 
# 
# 
# High freq. dielectric constant tensor:
#      x y z
#    x 1.800750 0.000000 0.002260 
#    y 0.000000 1.817730 0.000000 
#    z 0.002260 0.000000 1.791940 
# 
# From -- ./inp_files/160888.got.cif
#   From: 2010.06.25/outbox.cif.g09.slc.cpg/sg15_81_cif.got.tgz:160888.got - 2010.06.28 07:06:18.
