data_PCOD8139198
_publ_section_title
;
Structure prediction by ZEFSAII (Michael W. Deem and Ramdas Pophale) SiO2 
 PCOD8139198
Probable space group: C 2/C
;
_chemical_formula_sum "Si O2"
_cell_formula_units_Z 56
_cell_length_a 9.260345
_cell_length_b 16.486813
_cell_length_c 16.555558
_cell_angle_alpha 90.000000
_cell_angle_beta 115.716457
_cell_angle_gamma 90.000000
_cell_volume 2277.243968
_symmetry_space_group_name_H-M "C 2/C"
_symmetry_group_IT_number 15
_symmetry_cell_setting 'monoclinic'
loop_
_space_group_symop_operation_xyz
x,y,z
-x,y,1/2-z
-x,-y,-z
x,-y,1/2+z
1/2+x,1/2+y,z
1/2-x,1/2+y,1/2-z
1/2-x,1/2-y,-z
1/2+x,1/2-y,1/2+z
loop_
_atom_site_type_symbol
_atom_site_label
_atom_site_fract_x
_atom_site_fract_y
_atom_site_fract_z
Si Si1 0.521022 0.701089 0.913213
Si Si2 0.607177 0.142035 0.347266
Si Si3 0.054208 0.792467 0.606543
Si Si4 0.792493 0.424700 0.471079
Si Si5 0.239002 0.927772 0.172248
Si Si6 0.976858 0.957120 0.650794
Si Si7 0.516892 0.889145 0.133039
O O1 0.507016 0.787298 0.866937
O O2 0.696364 0.660977 0.940544
O O3 0.385982 0.644356 0.842349
O O4 0.488250 0.712295 0.999831
O O5 0.500000 0.102606 0.250000
O O6 0.761255 0.182648 0.344875
O O7 0.642986 0.070406 0.420882
O O8 0.026735 0.707906 0.644843
O O9 0.954814 0.861595 0.630411
O O10 0.679734 0.500064 0.423603
O O11 0.944423 0.420449 0.447726
O O12 0.337176 0.915851 0.113038
O O13 0.356030 0.930502 0.276753
O O14 0.136731 0.011382 0.142265
O O15 0.000000 0.978635 0.750000
#
# Coordination Sequence:
#
# PCOD8139198 Si02
#       7
#     8   8   8   8   8   8   8
#     4  10  20  38  66  98 133 181 230 284 347 414
#     4  11  21  39  67 107 141 178 238 297 349 410
#     4  11  23  41  69 103 135 173 241 303 333 414
#     4  10  20  40  70  95 138 194 230 281 347 434
#     4  10  24  37  67  96 138 186 224 283 351 422
#     4  11  24  44  70  99 141 190 235 280 361 429
#     4  11  20  42  66 102 136 175 240 288 344 410
#
# _framework density 24.591128999999999
#
# number of rings (size 3 to 8) (size 9 to 14) (size 15 to 20)
#    0.000    1.429    4.286    1.714    2.000    5.714 
#    2.571    0.000    0.000    5.143    0.000    0.000 
#    0.000    0.000    0.000    0.000    0.000    0.000 
#
# Total GULP energy -347369.641466 kJ/mol
# GULP energy per Si atom -12406.058624 kJ/mol
# Density = 2.453516 g / cm^3
# Si number density = 24.591129 Si / 1000 Ang^3
#
#
#
# Elastic Constant Matrix: (Units=GPa)
#
#
# Indices 1 2 3 4 5 6 
#
# 1 119.5585 29.7854 39.4770 0.0000 -22.6058 0.0000
# 2 29.7854 118.3774 28.9142 0.0000 -2.5937 0.0000
# 3 39.4770 28.9142 144.5849 0.0000 -0.0531 0.0000
# 4 0.0000 0.0000 0.0000 15.6482 0.0000 -11.2514
# 5 -22.6058 -2.5937 -0.0531 0.0000 26.9115 0.0000
# 6 0.0000 0.0000 0.0000 -11.2514 0.0000 12.3461
#
#
#
# Elastic Compliance Matrix: (Units=1/GPa)
#
#
# Indices 1 2 3 4 5 6 
#
# 1 0.011580 -0.002033 -0.002752 0.000000 0.009526 0.000000
# 2 -0.002033 0.009258 -0.001297 0.000000 -0.000818 0.000000
# 3 -0.002752 -0.001297 0.007926 0.000000 -0.002421 0.000000
# 4 0.000000 0.000000 0.000000 0.185374 0.000000 0.168937
# 5 0.009526 -0.000818 -0.002421 0.000000 0.045077 0.000000
# 6 0.000000 0.000000 0.000000 0.168937 0.000000 0.234954
#
#
# Mechanical properties :
#
#
# Convention : Reuss Voigt Hill
#
# Bulk Modulus (GPa) = 60.23517 64.31935 62.27726
# Shear Modulus (GPa) = 9.76816 29.93743 19.85280
#
# Velocity S-wave (km/s) = 1.99521 3.49292 2.84441
# Velocity P-wave (km/s) = 5.46403 6.51764 6.01395
#
# Compressibility (1/GPa) = 0.01660160
#
# Stress axis : x y z
#
# Youngs Moduli (GPa) = 86.35285 108.01640 126.16522
#
# Poissons Ratio (x) = 0.21959 0.34719
# Poissons Ratio (y) = 0.17555 0.16359
# Poissons Ratio (z) = 0.23763 0.14006
#
# Static dielectric constant tensor:
#      x y z
#    x 4.419460 0.000000 -0.066300 
#    y 0.000000 4.406110 0.000000 
#    z -0.066300 0.000000 4.307870 
# 
# 
# High freq. dielectric constant tensor:
#      x y z
#    x 1.972950 0.000000 -0.004250 
#    y 0.000000 1.985310 0.000000 
#    z -0.004250 0.000000 1.974680 
# 
# From -- ./inp_files/191050.got.cif
#   From: 2010.06.25/outbox.cif.g09.slc.cpg/sg15_96_cif.got.tgz:191050.got - 2010.06.28 07:06:18.
