data_PCOD8139419
_publ_section_title
;
Structure prediction by ZEFSAII (Michael W. Deem and Ramdas Pophale) SiO2 
 PCOD8139419
Probable space group: C 2/C
;
_chemical_formula_sum "Si O2"
_cell_formula_units_Z 56
_cell_length_a 8.403469
_cell_length_b 18.748306
_cell_length_c 26.259856
_cell_angle_alpha 90.000000
_cell_angle_beta 41.950018
_cell_angle_gamma 90.000000
_cell_volume 2765.685153
_symmetry_space_group_name_H-M "C 2/C"
_symmetry_group_IT_number 15
_symmetry_cell_setting 'monoclinic'
loop_
_space_group_symop_operation_xyz
x,y,z
-x,y,1/2-z
-x,-y,-z
x,-y,1/2+z
1/2+x,1/2+y,z
1/2-x,1/2+y,1/2-z
1/2-x,1/2-y,-z
1/2+x,1/2-y,1/2+z
loop_
_atom_site_type_symbol
_atom_site_label
_atom_site_fract_x
_atom_site_fract_y
_atom_site_fract_z
Si Si1 0.276132 0.454909 0.672186
Si Si2 0.517983 0.224737 0.942728
Si Si3 0.243053 0.791672 0.213561
Si Si4 0.781508 0.114123 0.690858
Si Si5 0.292775 0.867455 0.904235
Si Si6 0.282060 0.327605 0.469822
Si Si7 0.670348 0.650627 0.255078
O O1 0.374846 0.534182 0.658637
O O2 0.322342 0.431162 0.602436
O O3 0.402498 0.398882 0.679728
O O4 0.000000 0.455090 0.750000
O O5 0.584182 0.186977 0.873759
O O6 0.679788 0.293407 0.913432
O O7 0.580074 0.167106 0.972985
O O8 0.250000 0.250000 0.000000
O O9 0.176793 0.863095 0.260580
O O10 0.366440 0.732907 0.220195
O O11 0.000000 0.757072 0.250000
O O12 0.500000 0.125073 0.750000
O O13 0.948247 0.163678 0.615485
O O14 0.568670 0.864553 0.826947
O O15 0.256585 0.882198 0.973527
O O16 0.250000 0.250000 0.500000
O O17 0.500000 0.630634 0.250000
#
# Coordination Sequence:
#
# PCOD8139419 Si02
#       7
#     8   8   8   8   8   8   8
#     4   9  20  41  61  90 123 164 209 250 309 376
#     4  11  23  36  60  92 126 160 202 259 316 366
#     4  12  20  38  61  89 123 163 200 259 313 359
#     4  11  24  39  63  94 124 161 209 256 312 374
#     4  10  20  39  62  85 127 162 202 255 306 370
#     4  10  22  38  57  92 123 157 207 255 303 370
#     4  11  21  36  66  92 117 158 212 252 305 378
#
# _framework density 20.248148
#
# number of rings (size 3 to 8) (size 9 to 14) (size 15 to 20)
#    0.000    1.429    4.286    1.714    6.000    1.143 
#    0.000    0.000    0.000    1.714    0.000    0.000 
#    0.000    0.000    0.000    0.000    0.000    0.000 
#
# Total GULP energy -347012.366331 kJ/mol
# GULP energy per Si atom -12393.298798 kJ/mol
# Density = 2.020206 g / cm^3
# Si number density = 20.248148 Si / 1000 Ang^3
#
#
#
# Elastic Constant Matrix: (Units=GPa)
#
#
# Indices 1 2 3 4 5 6 
#
# 1 128.4149 46.0048 70.3041 0.0042 17.8619 0.0042
# 2 46.0048 97.5389 35.9270 0.0035 19.6482 0.0008
# 3 70.3041 35.9270 137.5085 -0.0006 31.2150 0.0131
# 4 0.0042 0.0035 -0.0006 16.9596 0.0114 2.6257
# 5 17.8619 19.6482 31.2150 0.0114 44.0399 -0.0007
# 6 0.0042 0.0008 0.0131 2.6257 -0.0007 26.2350
#
#
#
# Elastic Compliance Matrix: (Units=1/GPa)
#
#
# Indices 1 2 3 4 5 6 
#
# 1 0.011944 -0.003819 -0.005239 -0.000003 0.000573 0.000001
# 2 -0.003819 0.013045 -0.000579 0.000001 -0.003860 0.000000
# 3 -0.005239 -0.000579 0.011394 0.000007 -0.005693 -0.000006
# 4 -0.000003 0.000001 0.000007 0.059892 -0.000019 -0.005994
# 5 0.000573 -0.003860 -0.005693 -0.000019 0.028232 0.000006
# 6 0.000001 0.000000 -0.000006 -0.005994 0.000006 0.038717
#
#
# Mechanical properties :
#
#
# Convention : Reuss Voigt Hill
#
# Bulk Modulus (GPa) = 58.45048 74.21492 66.33270
# Shear Modulus (GPa) = 26.56741 31.52866 29.04804
#
# Velocity S-wave (km/s) = 3.62621 3.95031 3.79172
# Velocity P-wave (km/s) = 6.81632 7.58544 7.21114
#
# Compressibility (1/GPa) = 0.01710850
#
# Stress axis : x y z
#
# Youngs Moduli (GPa) = 83.72462 76.65991 87.76255
#
# Poissons Ratio (x) = 0.29278 0.45977
# Poissons Ratio (y) = 0.31976 0.05084
# Poissons Ratio (z) = 0.43861 0.04441
#
# Static dielectric constant tensor:
#      x y z
#    x 3.906160 -0.000160 0.503390 
#    y -0.000160 3.649980 0.000040 
#    z 0.503390 0.000040 3.952310 
# 
# 
# High freq. dielectric constant tensor:
#      x y z
#    x 1.797860 0.000000 0.018510 
#    y 0.000000 1.756880 0.000000 
#    z 0.018510 0.000000 1.793210 
# 
# From -- ./inp_files/289687.got.cif
#   From: 2010.06.25/outbox.cif.g09.slc.cpg/sg15_145_cif.got.tgz:289687.got - 2010.06.28 07:06:18.
