data_PCOD8139671
_publ_section_title
;
Structure prediction by ZEFSAII (Michael W. Deem and Ramdas Pophale) SiO2 
 PCOD8139671
Probable space group: C 2/C
;
_chemical_formula_sum "Si O2"
_cell_formula_units_Z 40
_cell_length_a 12.419532
_cell_length_b 7.402498
_cell_length_c 21.417864
_cell_angle_alpha 90.000000
_cell_angle_beta 68.419721
_cell_angle_gamma 90.000000
_cell_volume 1831.038177
_symmetry_space_group_name_H-M "C 2/C"
_symmetry_group_IT_number 15
_symmetry_cell_setting 'monoclinic'
loop_
_space_group_symop_operation_xyz
x,y,z
-x,y,1/2-z
-x,-y,-z
x,-y,1/2+z
1/2+x,1/2+y,z
1/2-x,1/2+y,1/2-z
1/2-x,1/2-y,-z
1/2+x,1/2-y,1/2+z
loop_
_atom_site_type_symbol
_atom_site_label
_atom_site_fract_x
_atom_site_fract_y
_atom_site_fract_z
Si Si1 0.128880 0.579066 0.977445
Si Si2 0.320226 0.138603 0.672579
Si Si3 0.441244 0.511687 0.112635
Si Si4 0.840404 0.011415 0.006671
Si Si5 0.907270 0.717183 0.217909
O O1 0.191313 0.581417 0.897107
O O2 0.125112 0.777864 0.007051
O O3 0.213138 0.463665 0.005872
O O4 0.000000 0.500000 0.000000
O O5 0.395995 0.320160 0.662872
O O6 0.196721 0.174477 0.728854
O O7 0.376913 0.978004 0.698549
O O8 0.348599 0.454787 0.077830
O O9 0.461331 0.339090 0.151622
O O10 0.559740 0.584577 0.055554
O O11 0.000000 0.677500 0.250000
#
# Coordination Sequence:
#
# PCOD8139671 Si02
#       5
#     8   8   8   8   8
#     4  10  20  39  66  98 132 172 220 273 335 399
#     4  11  24  43  65  98 131 173 229 266 331 404
#     4  10  21  43  70  98 134 174 222 275 341 392
#     4   9  20  40  66  97 134 170 211 280 337 394
#     4  12  25  45  66  93 136 180 222 282 325 395
#
# _framework density 21.845528999999999
#
# number of rings (size 3 to 8) (size 9 to 14) (size 15 to 20)
#    0.000    1.600    2.000    2.400    0.000    4.000 
#    3.600   16.000    0.000    0.000    0.000    0.000 
#    0.000    0.000    0.000    0.000    0.000    0.000 
#
# Total GULP energy -247987.136802 kJ/mol
# GULP energy per Si atom -12399.356840 kJ/mol
# Density = 2.179581 g / cm^3
# Si number density = 21.845529 Si / 1000 Ang^3
#
#
#
# Elastic Constant Matrix: (Units=GPa)
#
#
# Indices 1 2 3 4 5 6 
#
# 1 136.6913 41.7075 31.4440 0.0000 23.7698 0.0000
# 2 41.7075 75.5955 37.4668 0.0000 8.1541 0.0000
# 3 31.4440 37.4668 102.5216 0.0000 9.1212 0.0000
# 4 0.0000 0.0000 0.0000 34.2385 0.0000 8.2352
# 5 23.7698 8.1541 9.1212 0.0000 32.3361 0.0000
# 6 0.0000 0.0000 0.0000 8.2352 0.0000 15.3435
#
#
#
# Elastic Compliance Matrix: (Units=1/GPa)
#
#
# Indices 1 2 3 4 5 6 
#
# 1 0.009884 -0.004365 -0.000911 0.000000 -0.005908 0.000000
# 2 -0.004365 0.018276 -0.005350 0.000000 0.000109 0.000000
# 3 -0.000911 -0.005350 0.012113 0.000000 -0.001398 0.000000
# 4 0.000000 0.000000 0.000000 0.033536 0.000000 -0.018000
# 5 -0.005908 0.000109 -0.001398 0.000000 0.035635 0.000000
# 6 0.000000 0.000000 0.000000 -0.018000 0.000000 0.074835
#
#
# Mechanical properties :
#
#
# Convention : Reuss Voigt Hill
#
# Bulk Modulus (GPa) = 52.56966 59.56056 56.06511
# Shear Modulus (GPa) = 23.59910 29.99628 26.79769
#
# Velocity S-wave (km/s) = 3.29031 3.70957 3.50621
# Velocity P-wave (km/s) = 6.20898 6.75807 6.48933
#
# Compressibility (1/GPa) = 0.01902238
#
# Stress axis : x y z
#
# Youngs Moduli (GPa) = 101.16866 54.71568 82.55573
#
# Poissons Ratio (x) = 0.23882 0.07520
# Poissons Ratio (y) = 0.44157 0.44168
# Poissons Ratio (z) = 0.09215 0.29274
#
# Static dielectric constant tensor:
#      x y z
#    x 4.125960 0.000000 0.077340 
#    y 0.000000 3.883250 0.000000 
#    z 0.077340 0.000000 4.074560 
# 
# 
# High freq. dielectric constant tensor:
#      x y z
#    x 1.856040 0.000000 0.001240 
#    y 0.000000 1.856600 0.000000 
#    z 0.001240 0.000000 1.867150 
# 
# From -- ./inp_files/235726.got.cif
#   From: 2010.06.25/outbox.cif.g09.slc.cpg/sg15_118_cif.got.tgz:235726.got - 2010.06.28 07:06:18.
