data_PCOD8139703
_publ_section_title
;
Structure prediction by ZEFSAII (Michael W. Deem and Ramdas Pophale) SiO2 
 PCOD8139703
Probable space group: C 2/C
;
_chemical_formula_sum "Si O2"
_cell_formula_units_Z 32
_cell_length_a 13.446211
_cell_length_b 4.991945
_cell_length_c 21.323972
_cell_angle_alpha 90.000000
_cell_angle_beta 83.676129
_cell_angle_gamma 90.000000
_cell_volume 1422.614163
_symmetry_space_group_name_H-M "C 2/C"
_symmetry_group_IT_number 15
_symmetry_cell_setting 'monoclinic'
loop_
_space_group_symop_operation_xyz
x,y,z
-x,y,1/2-z
-x,-y,-z
x,-y,1/2+z
1/2+x,1/2+y,z
1/2-x,1/2+y,1/2-z
1/2-x,1/2-y,-z
1/2+x,1/2-y,1/2+z
loop_
_atom_site_type_symbol
_atom_site_label
_atom_site_fract_x
_atom_site_fract_y
_atom_site_fract_z
Si Si1 0.017510 0.051541 0.677816
Si Si2 0.853517 0.147770 0.593340
Si Si3 0.621115 0.966551 0.119128
Si Si4 0.859859 0.671585 0.513267
O O1 0.911777 0.135067 0.654832
O O2 0.000000 0.959993 0.750000
O O3 0.090172 0.309482 0.671793
O O4 0.068178 0.812760 0.636046
O O5 0.739614 0.065204 0.614070
O O6 0.857002 0.444359 0.566040
O O7 0.905722 0.940320 0.540741
O O8 0.581679 0.069123 0.052957
O O9 0.750000 0.750000 0.500000
#
# Coordination Sequence:
#
# PCOD8139703 Si02
#       4
#     8   8   8   8
#     4  12  27  42  61  92 124 169 222 247 292 376
#     4  11  23  41  66  94 127 161 200 260 318 368
#     4  11  23  42  65  90 127 162 200 264 314 359
#     4  10  20  39  67  98 124 155 203 255 322 384
#
# _framework density 22.493801999999999
#
# number of rings (size 3 to 8) (size 9 to 14) (size 15 to 20)
#    0.000    1.000    0.000    9.750    0.000    8.000 
#    0.000    0.000    0.000    0.000    0.000    0.000 
#    0.000    0.000    0.000    0.000    0.000    0.000 
#
# Total GULP energy -198444.562961 kJ/mol
# GULP energy per Si atom -12402.785185 kJ/mol
# Density = 2.244260 g / cm^3
# Si number density = 22.493802 Si / 1000 Ang^3
#
#
#
# Elastic Constant Matrix: (Units=GPa)
#
#
# Indices 1 2 3 4 5 6 
#
# 1 68.8538 25.6899 45.0490 0.0000 4.7247 0.0000
# 2 25.6899 122.4424 9.7959 0.0000 6.7674 0.0000
# 3 45.0490 9.7959 99.9674 0.0000 19.4945 0.0000
# 4 0.0000 0.0000 0.0000 38.3568 0.0000 -3.0152
# 5 4.7247 6.7674 19.4945 0.0000 33.0167 0.0000
# 6 0.0000 0.0000 0.0000 -3.0152 0.0000 14.1860
#
#
#
# Elastic Compliance Matrix: (Units=1/GPa)
#
#
# Indices 1 2 3 4 5 6 
#
# 1 0.022729 -0.004134 -0.010588 0.000000 0.003846 0.000000
# 2 -0.004134 0.009039 0.001382 0.000000 -0.002077 0.000000
# 3 -0.010588 0.001382 0.016272 0.000000 -0.008376 0.000000
# 4 0.000000 0.000000 0.000000 0.026514 0.000000 0.005635
# 5 0.003846 -0.002077 -0.008376 0.000000 0.035109 0.000000
# 6 0.000000 0.000000 0.000000 0.005635 0.000000 0.071690
#
#
# Mechanical properties :
#
#
# Convention : Reuss Voigt Hill
#
# Bulk Modulus (GPa) = 46.81328 50.25923 48.53626
# Shear Modulus (GPa) = 23.23935 31.16051 27.19993
#
# Velocity S-wave (km/s) = 3.21774 3.72599 3.48116
# Velocity P-wave (km/s) = 5.88744 6.39553 6.14674
#
# Compressibility (1/GPa) = 0.02136146
#
# Stress axis : x y z
#
# Youngs Moduli (GPa) = 43.99606 110.63462 61.45394
#
# Poissons Ratio (x) = 0.45741 0.65065
# Poissons Ratio (y) = 0.18190 -0.08496
# Poissons Ratio (z) = 0.46581 -0.15295
#
# Static dielectric constant tensor:
#      x y z
#    x 4.119410 0.000000 -0.077480 
#    y 0.000000 4.515120 0.000000 
#    z -0.077480 0.000000 4.249310 
# 
# 
# High freq. dielectric constant tensor:
#      x y z
#    x 1.891720 0.000000 0.000040 
#    y 0.000000 1.911350 0.000000 
#    z 0.000040 0.000000 1.869880 
# 
# From -- ./inp_files/201829.got.cif
#   From: 2010.06.25/outbox.cif.g09.slc.cpg/sg15_101_cif.got.tgz:201829.got - 2010.06.28 07:06:18.
