data_PCOD8139726
_publ_section_title
;
Structure prediction by ZEFSAII (Michael W. Deem and Ramdas Pophale) SiO2 
 PCOD8139726
Probable space group: C 2/C
;
_chemical_formula_sum "Si O2"
_cell_formula_units_Z 56
_cell_length_a 16.052532
_cell_length_b 11.362747
_cell_length_c 14.554882
_cell_angle_alpha 90.000000
_cell_angle_beta 87.162468
_cell_angle_gamma 90.000000
_cell_volume 2651.567976
_symmetry_space_group_name_H-M "C 2/C"
_symmetry_group_IT_number 15
_symmetry_cell_setting 'monoclinic'
loop_
_space_group_symop_operation_xyz
x,y,z
-x,y,1/2-z
-x,-y,-z
x,-y,1/2+z
1/2+x,1/2+y,z
1/2-x,1/2+y,1/2-z
1/2-x,1/2-y,-z
1/2+x,1/2-y,1/2+z
loop_
_atom_site_type_symbol
_atom_site_label
_atom_site_fract_x
_atom_site_fract_y
_atom_site_fract_z
Si Si1 0.343317 0.080721 0.617931
Si Si2 0.217105 0.924114 0.853264
Si Si3 0.020516 0.498059 0.646851
Si Si4 0.363291 0.197560 0.433226
Si Si5 0.299998 0.402450 0.854480
Si Si6 0.326493 0.143605 0.824346
Si Si7 0.909881 0.950437 0.478579
O O1 0.323671 0.170521 0.536265
O O2 0.326585 0.150695 0.713088
O O3 0.437264 0.036435 0.599813
O O4 0.286415 0.964631 0.614114
O O5 0.286084 0.820171 0.866232
O O6 0.178892 0.919193 0.753873
O O7 0.264785 0.046049 0.866311
O O8 0.140133 0.925352 0.925965
O O9 0.061811 0.391523 0.590382
O O10 0.080159 0.612347 0.648186
O O11 0.000000 0.451913 0.750000
O O12 0.404727 0.326614 0.423592
O O13 0.295072 0.263312 0.872421
O O14 0.373154 0.452067 0.913202
O O15 0.000000 0.000000 0.500000
#
# Coordination Sequence:
#
# PCOD8139726 Si02
#       7
#     8   8   8   8   8   8   8
#     4  10  20  39  68  96 121 172 218 271 325 389
#     4  10  23  44  68  94 126 177 220 264 337 390
#     4   9  20  40  63  97 123 167 219 266 328 385
#     4  11  22  42  68  90 134 168 220 267 324 402
#     4  11  24  42  68  95 129 172 222 269 330 391
#     4   9  21  39  65  95 131 162 215 274 325 388
#     4  12  28  44  61  98 134 175 220 271 337 395
#
# _framework density 21.119579999999999
#
# number of rings (size 3 to 8) (size 9 to 14) (size 15 to 20)
#    0.000    1.714    1.429    2.571    6.000    2.286 
#    5.143    0.000    0.000    0.000    0.000    0.000 
#    0.000    0.000    0.000    0.000    0.000    0.000 
#
# Total GULP energy -347218.374368 kJ/mol
# GULP energy per Si atom -12400.656227 kJ/mol
# Density = 2.107151 g / cm^3
# Si number density = 21.119580 Si / 1000 Ang^3
#
#
#
# Elastic Constant Matrix: (Units=GPa)
#
#
# Indices 1 2 3 4 5 6 
#
# 1 98.5315 29.0485 10.1433 0.0000 8.9289 0.0000
# 2 29.0485 125.5828 6.3924 0.0000 1.0655 0.0000
# 3 10.1433 6.3924 47.8648 0.0000 6.6561 0.0000
# 4 0.0000 0.0000 0.0000 24.0102 0.0000 3.1163
# 5 8.9289 1.0655 6.6561 0.0000 29.2385 0.0000
# 6 0.0000 0.0000 0.0000 3.1163 0.0000 26.2130
#
#
#
# Elastic Compliance Matrix: (Units=1/GPa)
#
#
# Indices 1 2 3 4 5 6 
#
# 1 0.011331 -0.002511 -0.001649 0.000000 -0.002993 0.000000
# 2 -0.002511 0.008574 -0.000698 0.000000 0.000613 0.000000
# 3 -0.001649 -0.000698 0.021956 0.000000 -0.004469 0.000000
# 4 0.000000 0.000000 0.000000 0.042302 0.000000 -0.005029
# 5 -0.002993 0.000613 -0.004469 0.000000 0.036111 0.000000
# 6 0.000000 0.000000 0.000000 -0.005029 0.000000 0.038747
#
#
# Mechanical properties :
#
#
# Convention : Reuss Voigt Hill
#
# Bulk Modulus (GPa) = 31.11113 40.34972 35.73043
# Shear Modulus (GPa) = 27.86247 30.98532 29.42389
#
# Velocity S-wave (km/s) = 3.63612 3.83448 3.73661
# Velocity P-wave (km/s) = 5.69134 6.22504 5.96417
#
# Compressibility (1/GPa) = 0.03214284
#
# Stress axis : x y z
#
# Youngs Moduli (GPa) = 88.25728 116.62981 45.54466
#
# Poissons Ratio (x) = 0.29292 0.07512
# Poissons Ratio (y) = 0.22166 0.03180
# Poissons Ratio (z) = 0.14558 0.08143
#
# Static dielectric constant tensor:
#      x y z
#    x 3.790720 0.000000 0.071480 
#    y 0.000000 3.792110 0.000000 
#    z 0.071480 0.000000 3.881120 
# 
# 
# High freq. dielectric constant tensor:
#      x y z
#    x 1.825650 0.000000 0.006930 
#    y 0.000000 1.828310 0.000000 
#    z 0.006930 0.000000 1.834540 
# 
# From -- ./inp_files/152590.got.cif
#   From: 2010.06.25/outbox.cif.g09.slc.cpg/sg15_77_cif.got.tgz:152590.got - 2010.06.28 07:06:18.
