data_PCOD8139995
_publ_section_title
;
Structure prediction by ZEFSAII (Michael W. Deem and Ramdas Pophale) SiO2 
 PCOD8139995
Probable space group: C 2/C
;
_chemical_formula_sum "Si O2"
_cell_formula_units_Z 44
_cell_length_a 29.916393
_cell_length_b 10.728387
_cell_length_c 17.676398
_cell_angle_alpha 90.000000
_cell_angle_beta 22.298032
_cell_angle_gamma 90.000000
_cell_volume 2152.596678
_symmetry_space_group_name_H-M "C 2/C"
_symmetry_group_IT_number 15
_symmetry_cell_setting 'monoclinic'
loop_
_space_group_symop_operation_xyz
x,y,z
-x,y,1/2-z
-x,-y,-z
x,-y,1/2+z
1/2+x,1/2+y,z
1/2-x,1/2+y,1/2-z
1/2-x,1/2-y,-z
1/2+x,1/2-y,1/2+z
loop_
_atom_site_type_symbol
_atom_site_label
_atom_site_fract_x
_atom_site_fract_y
_atom_site_fract_z
Si Si1 0.360339 0.502386 0.723486
Si Si2 0.445124 0.864823 0.083368
Si Si3 0.364895 0.685520 0.087314
Si Si4 0.278596 0.482736 0.016817
Si Si5 0.500000 0.544559 0.750000
Si Si6 0.317544 0.773867 0.753638
O O1 0.500000 0.500000 0.500000
O O2 0.317214 0.409390 0.725619
O O3 0.319886 0.456381 0.868027
O O4 0.295987 0.635158 0.816920
O O5 0.425151 0.807475 0.030731
O O6 0.316652 0.873808 0.321600
O O7 0.540007 0.782005 0.980886
O O8 0.500000 0.000000 0.000000
O O9 0.247942 0.716158 0.223486
O O10 0.466905 0.629741 0.874005
O O11 0.388955 0.459597 0.900473
O O12 0.228127 0.622307 0.114498
#
# Coordination Sequence:
#
# PCOD8139995 Si02
#       6
#     8   8   8   8   4   8
#     4  12  22  41  67  92 128 164 220 265 311 381
#     4  10  22  41  63  91 132 163 206 263 322 374
#     4  11  24  39  65  97 125 172 216 261 317 378
#     4  10  22  39  68  92 128 167 211 259 327 371
#     4  10  20  40  64  96 122 168 222 252 308 380
#     4  10  23  41  65  90 131 167 216 257 317 382
#
# _framework density 20.440429999999999
#
# number of rings (size 3 to 8) (size 9 to 14) (size 15 to 20)
#    0.000    1.455    3.636    0.545    7.636    5.091 
#    0.000    0.909    0.000    0.000    0.000    0.000 
#    0.000    0.000    0.000    0.000    0.000    0.000 
#
# Total GULP energy -272610.453038 kJ/mol
# GULP energy per Si atom -12391.384229 kJ/mol
# Density = 2.039391 g / cm^3
# Si number density = 20.440430 Si / 1000 Ang^3
#
#
#
# Elastic Constant Matrix: (Units=GPa)
#
#
# Indices 1 2 3 4 5 6 
#
# 1 131.4155 24.9024 69.7876 0.0000 -9.2681 0.0000
# 2 24.9024 50.3375 14.4818 0.0000 2.2391 0.0000
# 3 69.7876 14.4818 129.2622 0.0000 -10.7100 0.0000
# 4 0.0000 0.0000 0.0000 20.7468 0.0000 -4.3972
# 5 -9.2681 2.2391 -10.7100 0.0000 45.3103 0.0000
# 6 0.0000 0.0000 0.0000 -4.3972 0.0000 38.8235
#
#
#
# Elastic Compliance Matrix: (Units=1/GPa)
#
#
# Indices 1 2 3 4 5 6 
#
# 1 0.011462 -0.004105 -0.005627 0.000000 0.001217 0.000000
# 2 -0.004105 0.022111 -0.000429 0.000000 -0.002034 0.000000
# 3 -0.005627 -0.000429 0.010943 0.000000 0.001457 0.000000
# 4 0.000000 0.000000 0.000000 0.049386 0.000000 0.005593
# 5 0.001217 -0.002034 0.001457 0.000000 0.022764 0.000000
# 6 0.000000 0.000000 0.000000 0.005593 0.000000 0.026391
#
#
# Mechanical properties :
#
#
# Convention : Reuss Voigt Hill
#
# Bulk Modulus (GPa) = 41.33618 58.81763 50.07691
# Shear Modulus (GPa) = 29.16410 34.43235 31.79822
#
# Velocity S-wave (km/s) = 3.78138 4.10875 3.94846
# Velocity P-wave (km/s) = 6.27150 7.16566 6.73344
#
# Compressibility (1/GPa) = 0.02419188
#
# Stress axis : x y z
#
# Youngs Moduli (GPa) = 87.24839 45.22668 91.38197
#
# Poissons Ratio (x) = 0.18567 0.51422
# Poissons Ratio (y) = 0.35819 0.03922
# Poissons Ratio (z) = 0.49096 0.01941
#
# Static dielectric constant tensor:
#      x y z
#    x 3.950020 0.000000 -0.222990 
#    y 0.000000 4.119820 0.000000 
#    z -0.222990 0.000000 4.066890 
# 
# 
# High freq. dielectric constant tensor:
#      x y z
#    x 1.803150 0.000000 -0.016230 
#    y 0.000000 1.791080 0.000000 
#    z -0.016230 0.000000 1.801380 
# 
# From -- ./inp_files/151775.got.cif
#   From: 2010.06.25/outbox.cif.g09.slc.cpg/sg15_76_cif.got.tgz:151775.got - 2010.06.28 07:06:18.
