data_PCOD8139768
_publ_section_title
;
Structure prediction by ZEFSAII (Michael W. Deem and Ramdas Pophale) SiO2 
 PCOD8139768
Probable space group: C 2/C
;
_chemical_formula_sum "Si O2"
_cell_formula_units_Z 64
_cell_length_a 24.106641
_cell_length_b 14.723994
_cell_length_c 9.052299
_cell_angle_alpha 90.000000
_cell_angle_beta 77.709916
_cell_angle_gamma 90.000000
_cell_volume 3139.441722
_symmetry_space_group_name_H-M "C 2/C"
_symmetry_group_IT_number 15
_symmetry_cell_setting 'monoclinic'
loop_
_space_group_symop_operation_xyz
x,y,z
-x,y,1/2-z
-x,-y,-z
x,-y,1/2+z
1/2+x,1/2+y,z
1/2-x,1/2+y,1/2-z
1/2-x,1/2-y,-z
1/2+x,1/2-y,1/2+z
loop_
_atom_site_type_symbol
_atom_site_label
_atom_site_fract_x
_atom_site_fract_y
_atom_site_fract_z
Si Si1 0.206045 0.214144 0.815548
Si Si2 0.604679 0.383136 0.255006
Si Si3 0.051253 0.784654 0.821884
Si Si4 0.255649 0.406474 0.729041
Si Si5 0.025267 0.278590 0.882874
Si Si6 0.719061 0.933251 0.068315
Si Si7 0.619460 0.818940 0.047889
Si Si8 0.382115 0.559003 0.075132
O O1 0.165678 0.167888 0.716134
O O2 0.234779 0.302868 0.727018
O O3 0.254355 0.145235 0.842892
O O4 0.165501 0.242458 0.975362
O O5 0.552567 0.316720 0.317803
O O6 0.605476 0.456168 0.385865
O O7 0.595090 0.430371 0.103523
O O8 0.089106 0.711333 0.714619
O O9 0.086713 0.873828 0.832260
O O10 0.000000 0.818146 0.750000
O O11 0.029038 0.737640 0.983017
O O12 0.214748 0.471651 0.656289
O O13 0.316264 0.418236 0.621318
O O14 0.256775 0.440044 0.898306
O O15 0.000000 0.328156 0.750000
O O16 0.073396 0.336634 0.942573
O O17 0.654061 0.910738 0.060537
#
# Coordination Sequence:
#
# PCOD8139768 Si02
#       8
#     8   8   8   8   8   8   8   8
#     4  10  21  40  61  86 126 164 214 253 315 360
#     4  11  25  36  57  84 125 170 206 263 297 382
#     4  10  21  36  60  87 118 161 207 255 305 369
#     4  11  23  38  64  88 127 170 204 261 306 369
#     4  10  20  40  55  87 123 157 205 256 311 367
#     4  11  21  41  60  93 125 164 212 258 308 376
#     4   9  20  37  63  85 116 162 203 249 315 366
#     4  12  23  37  55  86 126 167 215 240 313 360
#
# _framework density 20.385791000000001
#
# number of rings (size 3 to 8) (size 9 to 14) (size 15 to 20)
#    0.000    1.500    2.500    3.750    5.250    1.500 
#    2.250    0.000    0.000    0.000    0.000   74.375 
#    0.000    0.000    0.000    0.000    0.000    0.000 
#
# Total GULP energy -396822.542803 kJ/mol
# GULP energy per Si atom -12400.704463 kJ/mol
# Density = 2.033939 g / cm^3
# Si number density = 20.385791 Si / 1000 Ang^3
#
#
#
# Elastic Constant Matrix: (Units=GPa)
#
#
# Indices 1 2 3 4 5 6 
#
# 1 91.0696 21.7122 28.3275 0.0000 3.6485 0.0000
# 2 21.7122 54.2761 26.4430 0.0000 9.9587 0.0000
# 3 28.3275 26.4430 98.2692 0.0000 3.7979 0.0000
# 4 0.0000 0.0000 0.0000 -15.9718 0.0000 -30.2147
# 5 3.6485 9.9587 3.7979 0.0000 32.0003 0.0000
# 6 0.0000 0.0000 0.0000 -30.2147 0.0000 -1.5678
#
#
#
# Elastic Compliance Matrix: (Units=1/GPa)
#
#
# Indices 1 2 3 4 5 6 
#
# 1 0.012707 -0.003806 -0.002641 0.000000 0.000049 0.000000
# 2 -0.003806 0.023535 -0.004992 0.000000 -0.006298 0.000000
# 3 -0.002641 -0.004992 0.012265 0.000000 0.000399 0.000000
# 4 0.000000 0.000000 0.000000 0.001766 0.000000 -0.034030
# 5 0.000049 -0.006298 0.000399 0.000000 0.033157 0.000000
# 6 0.000000 0.000000 0.000000 -0.034030 0.000000 0.017989
#
#
# Mechanical properties :
#
#
# Convention : Reuss Voigt Hill
#
# Bulk Modulus (GPa) = 39.01792 44.06448 41.54120
# Shear Modulus (GPa) = 37.63942 14.03430 25.83686
#
# Velocity S-wave (km/s) = 4.30159 2.62665 3.56391
# Velocity P-wave (km/s) = 6.62215 5.55529 6.11204
#
# Compressibility (1/GPa) = 0.02562925
#
# Stress axis : x y z
#
# Youngs Moduli (GPa) = 78.69398 42.49079 81.53034
#
# Poissons Ratio (x) = 0.16171 0.21532
# Poissons Ratio (y) = 0.29949 0.40703
# Poissons Ratio (z) = 0.20783 0.21213
#
# Static dielectric constant tensor:
#      x y z
#    x 3.896690 0.000000 0.091850 
#    y 0.000000 3.490390 0.000000 
#    z 0.091850 0.000000 3.819650 
# 
# 
# High freq. dielectric constant tensor:
#      x y z
#    x 1.806330 0.000000 0.004990 
#    y 0.000000 1.765230 0.000000 
#    z 0.004990 0.000000 1.802810 
# 
# From -- ./inp_files/66210.got.cif
#   From: 2010.06.25/outbox.cif.g09.slc.cpg/sg15_34_cif.got.tgz:66210.got - 2010.06.28 07:06:18.
