data_PCOD8139148
_publ_section_title
;
Structure prediction by ZEFSAII (Michael W. Deem and Ramdas Pophale) SiO2 
 PCOD8139148
Probable space group: C 2/C
;
_chemical_formula_sum "Si O2"
_cell_formula_units_Z 48
_cell_length_a 20.660273
_cell_length_b 27.442971
_cell_length_c 12.498535
_cell_angle_alpha 90.000000
_cell_angle_beta 159.584203
_cell_angle_gamma 90.000000
_cell_volume 2471.955701
_symmetry_space_group_name_H-M "C 2/C"
_symmetry_group_IT_number 15
_symmetry_cell_setting 'monoclinic'
loop_
_space_group_symop_operation_xyz
x,y,z
-x,y,1/2-z
-x,-y,-z
x,-y,1/2+z
1/2+x,1/2+y,z
1/2-x,1/2+y,1/2-z
1/2-x,1/2-y,-z
1/2+x,1/2-y,1/2+z
loop_
_atom_site_type_symbol
_atom_site_label
_atom_site_fract_x
_atom_site_fract_y
_atom_site_fract_z
Si Si1 0.397217 0.451401 0.979992
Si Si2 0.640499 0.140771 0.054512
Si Si3 0.212271 0.259217 0.564844
Si Si4 0.851236 0.051597 0.833353
Si Si5 0.607022 0.834301 0.124758
Si Si6 0.000000 0.888691 0.750000
Si Si7 0.000000 0.615889 0.250000
O O1 0.279347 0.402045 0.800840
O O2 0.278410 0.500608 0.773061
O O3 0.500000 0.456399 0.250000
O O4 0.550156 0.453706 0.126158
O O5 0.749618 0.186307 0.168242
O O6 0.500000 0.118550 0.750000
O O7 0.525515 0.159862 0.978063
O O8 0.250000 0.250000 0.500000
O O9 0.350552 0.222023 0.838734
O O10 0.000000 0.244573 0.250000
O O11 0.676716 0.083128 0.535252
O O12 0.993311 0.077990 0.134159
O O13 0.807843 0.858678 0.458454
O O14 0.489889 0.852575 0.842119
#
# Coordination Sequence:
#
# PCOD8139148 Si02
#       7
#     8   8   8   8   8   4   4
#     4  11  23  41  62  89 127 161 202 256 307 372
#     4  11  23  39  64  94 121 160 214 256 314 359
#     4  11  21  38  63  93 122 159 210 258 307 370
#     4  10  22  41  61  90 122 163 207 246 313 367
#     4  11  21  40  63  93 125 164 207 258 307 375
#     4  10  20  38  66  88 122 170 202 254 306 364
#     4  10  24  40  60  90 128 162 206 252 312 364
#
# _framework density 19.417825000000001
#
# number of rings (size 3 to 8) (size 9 to 14) (size 15 to 20)
#    0.000    1.333    5.000    2.000    1.167    0.000 
#    1.500    3.333    0.000    0.000    0.000    0.000 
#    0.000    0.000    0.000    0.000    0.000    0.000 
#
# Total GULP energy -297399.042537 kJ/mol
# GULP energy per Si atom -12391.626772 kJ/mol
# Density = 1.937363 g / cm^3
# Si number density = 19.417825 Si / 1000 Ang^3
#
#
#
# Elastic Constant Matrix: (Units=GPa)
#
#
# Indices 1 2 3 4 5 6 
#
# 1 113.6610 49.7239 49.2648 0.0000 -12.4712 0.0000
# 2 49.7239 128.7703 46.4601 0.0000 -4.2479 0.0000
# 3 49.2648 46.4601 84.5800 -0.0001 -22.4542 0.0001
# 4 0.0000 0.0000 -0.0001 2.2479 0.0000 8.0005
# 5 -12.4712 -4.2479 -22.4542 0.0000 30.5082 0.0001
# 6 0.0000 0.0000 0.0001 8.0005 0.0001 33.6376
#
#
#
# Elastic Compliance Matrix: (Units=1/GPa)
#
#
# Indices 1 2 3 4 5 6 
#
# 1 0.012510 -0.002794 -0.005590 -0.000001 0.000611 0.000000
# 2 -0.002794 0.010566 -0.005082 -0.000003 -0.003411 0.000001
# 3 -0.005590 -0.005082 0.021223 0.000010 0.012628 -0.000002
# 4 -0.000001 -0.000003 0.000010 2.898450 0.000009 -0.689380
# 5 0.000611 -0.003411 0.012628 0.000009 0.041847 -0.000002
# 6 0.000000 0.000001 -0.000002 -0.689380 -0.000002 0.193694
#
#
# Mechanical properties :
#
#
# Convention : Reuss Voigt Hill
#
# Bulk Modulus (GPa) = 57.57995 68.65656 63.11826
# Shear Modulus (GPa) = 1.55714 25.38290 13.47002
#
# Velocity S-wave (km/s) = 0.89647 3.61944 2.63666
# Velocity P-wave (km/s) = 5.54879 7.27333 6.46879
#
# Compressibility (1/GPa) = 0.01736716
#
# Stress axis : x y z
#
# Youngs Moduli (GPa) = 79.93476 94.64640 47.11849
#
# Poissons Ratio (x) = 0.26442 0.26339
# Poissons Ratio (y) = 0.22332 0.23946
# Poissons Ratio (z) = 0.44684 0.48101
#
# Static dielectric constant tensor:
#      x y z
#    x 3.659480 0.000000 -0.185510 
#    y 0.000000 4.288520 0.000000 
#    z -0.185510 0.000000 3.416350 
# 
# 
# High freq. dielectric constant tensor:
#      x y z
#    x 1.770840 0.000000 -0.009770 
#    y 0.000000 1.772430 0.000000 
#    z -0.009770 0.000000 1.741560 
# 
# From -- ./inp_files/115071.got.cif
#   From: 2010.06.25/outbox.cif.g09.slc.cpg/sg15_58_cif.got.tgz:115071.got - 2010.06.28 07:06:18.
