data_PCOD8139759
_publ_section_title
;
Structure prediction by ZEFSAII (Michael W. Deem and Ramdas Pophale) SiO2 
 PCOD8139759
Probable space group: C 2/C
;
_chemical_formula_sum "Si O2"
_cell_formula_units_Z 56
_cell_length_a 10.856443
_cell_length_b 25.371676
_cell_length_c 10.930984
_cell_angle_alpha 90.000000
_cell_angle_beta 58.195525
_cell_angle_gamma 90.000000
_cell_volume 2558.815862
_symmetry_space_group_name_H-M "C 2/C"
_symmetry_group_IT_number 15
_symmetry_cell_setting 'monoclinic'
loop_
_space_group_symop_operation_xyz
x,y,z
-x,y,1/2-z
-x,-y,-z
x,-y,1/2+z
1/2+x,1/2+y,z
1/2-x,1/2+y,1/2-z
1/2-x,1/2-y,-z
1/2+x,1/2-y,1/2+z
loop_
_atom_site_type_symbol
_atom_site_label
_atom_site_fract_x
_atom_site_fract_y
_atom_site_fract_z
Si Si1 0.818636 0.328916 0.722311
Si Si2 0.865679 0.208354 0.396782
Si Si3 0.284350 0.978417 0.169116
Si Si4 0.492476 0.930476 0.615464
Si Si5 0.950938 0.158741 0.984074
Si Si6 0.000000 0.238619 0.750000
Si Si7 0.582645 0.444540 0.455685
Si Si8 0.500000 0.465376 0.750000
O O1 0.728269 0.328121 0.644233
O O2 0.950835 0.369134 0.633144
O O3 0.882018 0.273462 0.738151
O O4 0.709620 0.351269 0.880622
O O5 0.750000 0.250000 0.500000
O O6 0.000000 0.233920 0.250000
O O7 0.930618 0.179260 0.480228
O O8 0.251049 0.952447 0.321803
O O9 0.372623 0.032501 0.117575
O O10 0.123817 0.992336 0.213017
O O11 0.357885 0.936552 0.038370
O O12 0.500000 0.950671 0.750000
O O13 0.927334 0.200162 0.887181
O O14 0.009440 0.101393 0.911256
O O15 0.500000 0.500000 0.500000
O O16 0.560730 0.427119 0.610045
#
# Coordination Sequence:
#
# PCOD8139759 Si02
#       8
#     8   8   8   8   8   4   8   4
#     4  11  23  44  68  96 130 185 223 277 346 414
#     4  10  22  44  69  94 128 170 227 279 332 402
#     4  10  23  41  63 101 136 177 224 288 334 413
#     4  11  23  42  66  94 138 183 228 274 348 414
#     4  11  25  41  71 100 131 176 231 284 341 411
#     4  12  24  45  66 102 142 172 231 288 344 414
#     4  10  22  40  63 101 131 172 219 283 338 403
#     4  10  20  39  72  90 136 176 229 270 340 416
#
# _framework density 21.885121999999999
#
# number of rings (size 3 to 8) (size 9 to 14) (size 15 to 20)
#    0.000    1.429    2.143    3.000    5.000    4.571 
#    5.143    0.000    0.000    0.000    0.000    0.000 
#    0.000    0.000    0.000    0.000    0.000    0.000 
#
# Total GULP energy -346888.080654 kJ/mol
# GULP energy per Si atom -12388.860023 kJ/mol
# Density = 2.183531 g / cm^3
# Si number density = 21.885122 Si / 1000 Ang^3
#
#
#
# Elastic Constant Matrix: (Units=GPa)
#
#
# Indices 1 2 3 4 5 6 
#
# 1 80.0376 23.2674 35.6032 0.0000 -6.6727 0.0000
# 2 23.2674 117.7587 50.8347 0.0000 -9.6447 0.0000
# 3 35.6032 50.8347 176.9165 0.0000 -19.7694 0.0000
# 4 0.0000 0.0000 0.0000 31.4005 0.0000 -4.7572
# 5 -6.6727 -9.6447 -19.7694 0.0000 39.8619 0.0000
# 6 0.0000 0.0000 0.0000 -4.7572 0.0000 26.5883
#
#
#
# Elastic Compliance Matrix: (Units=1/GPa)
#
#
# Indices 1 2 3 4 5 6 
#
# 1 0.014065 -0.001746 -0.002237 0.000000 0.000823 0.000000
# 2 -0.001746 0.009951 -0.002405 0.000000 0.000923 0.000000
# 3 -0.002237 -0.002405 0.007079 0.000000 0.002555 0.000000
# 4 0.000000 0.000000 0.000000 0.032734 0.000000 0.005857
# 5 0.000823 0.000923 0.002555 0.000000 0.026714 0.000000
# 6 0.000000 0.000000 0.000000 0.005857 0.000000 0.038658
#
#
# Mechanical properties :
#
#
# Convention : Reuss Voigt Hill
#
# Bulk Modulus (GPa) = 54.58656 66.01368 60.30012
# Shear Modulus (GPa) = 33.76472 37.23732 35.50102
#
# Velocity S-wave (km/s) = 3.93213 4.12939 4.03197
# Velocity P-wave (km/s) = 6.75367 7.27771 7.02058
#
# Compressibility (1/GPa) = 0.01831953
#
# Stress axis : x y z
#
# Youngs Moduli (GPa) = 71.09664 100.49668 141.26386
#
# Poissons Ratio (x) = 0.17548 0.31599
# Poissons Ratio (y) = 0.12414 0.33969
# Poissons Ratio (z) = 0.15904 0.24166
#
# Static dielectric constant tensor:
#      x y z
#    x 3.786220 0.000000 0.124640 
#    y 0.000000 3.895280 0.000000 
#    z 0.124640 0.000000 5.124890 
# 
# 
# High freq. dielectric constant tensor:
#      x y z
#    x 1.852900 0.000000 -0.000620 
#    y 0.000000 1.853300 0.000000 
#    z -0.000620 0.000000 1.878780 
# 
# From -- ./inp_files/90749.got.cif
#   From: 2010.06.25/outbox.cif.g09.slc.cpg/sg15_46_cif.got.tgz:90749.got - 2010.06.28 07:06:18.
