data_PCOD8139124
_publ_section_title
;
Structure prediction by ZEFSAII (Michael W. Deem and Ramdas Pophale) SiO2 
 PCOD8139124
Probable space group: C 2/C
;
_chemical_formula_sum "Si O2"
_cell_formula_units_Z 60
_cell_length_a 25.379718
_cell_length_b 27.571818
_cell_length_c 10.087680
_cell_angle_alpha 90.000000
_cell_angle_beta 154.007092
_cell_angle_gamma 90.000000
_cell_volume 3093.678789
_symmetry_space_group_name_H-M "C 2/C"
_symmetry_group_IT_number 15
_symmetry_cell_setting 'monoclinic'
loop_
_space_group_symop_operation_xyz
x,y,z
-x,y,1/2-z
-x,-y,-z
x,-y,1/2+z
1/2+x,1/2+y,z
1/2-x,1/2+y,1/2-z
1/2-x,1/2-y,-z
1/2+x,1/2-y,1/2+z
loop_
_atom_site_type_symbol
_atom_site_label
_atom_site_fract_x
_atom_site_fract_y
_atom_site_fract_z
Si Si1 0.917286 0.486461 0.688948
Si Si2 0.892686 0.233640 0.718482
Si Si3 0.789643 0.948472 0.877617
Si Si4 0.340184 0.710698 0.153049
Si Si5 0.138837 0.847520 0.559339
Si Si6 0.500000 0.486756 0.750000
Si Si7 0.787059 0.811552 0.231832
Si Si8 0.217821 0.075676 0.843289
O O1 0.821594 0.528971 0.451918
O O2 0.833467 0.439012 0.517751
O O3 0.000000 0.476380 0.750000
O O4 0.000000 0.500000 0.000000
O O5 0.831128 0.195602 0.477034
O O6 0.868246 0.219768 0.815749
O O7 0.845951 0.288027 0.579695
O O8 0.034014 0.234232 0.019924
O O9 0.793659 0.895495 0.826938
O O10 0.750083 0.941994 0.938291
O O11 0.915321 0.978759 0.150248
O O12 0.316977 0.663821 0.191765
O O13 0.250000 0.750000 0.000000
O O14 0.335457 0.694544 0.990246
O O15 0.000000 0.859857 0.250000
O O16 0.409126 0.450757 0.470131
O O17 0.795569 0.866929 0.204982
#
# Coordination Sequence:
#
# PCOD8139124 Si02
#       8
#     8   8   8   8   8   4   8   8
#     4  11  24  46  66  90 128 175 216 263 320 384
#     4  10  22  41  64  89 129 165 211 258 315 388
#     4  11  21  42  67  95 132 165 216 267 326 392
#     4  11  23  40  61  93 129 167 208 262 318 373
#     4  10  20  38  65  92 126 166 203 260 325 377
#     4  10  24  38  66 104 132 160 218 276 336 392
#     4  11  23  41  65  93 127 168 211 263 320 382
#     4  11  24  41  67  97 129 170 213 275 327 386
#
# _framework density 19.394386999999998
#
# number of rings (size 3 to 8) (size 9 to 14) (size 15 to 20)
#    0.000    1.333    4.667    0.800    1.867    1.067 
#    7.200    0.000    2.933    0.000    0.000    0.000 
#    0.000    0.000    0.000    0.000    0.000    0.000 
#
# Total GULP energy -371813.394621 kJ/mol
# GULP energy per Si atom -12393.779821 kJ/mol
# Density = 1.935024 g / cm^3
# Si number density = 19.394387 Si / 1000 Ang^3
#
#
#
# Elastic Constant Matrix: (Units=GPa)
#
#
# Indices 1 2 3 4 5 6 
#
# 1 111.8317 37.2337 47.7338 0.0000 -7.7597 0.0000
# 2 37.2337 110.7081 54.0993 0.0000 3.5592 0.0000
# 3 47.7338 54.0993 113.1480 0.0000 -4.4242 0.0000
# 4 0.0000 0.0000 0.0000 12.3737 0.0000 -5.0722
# 5 -7.7597 3.5592 -4.4242 0.0000 41.2675 0.0000
# 6 0.0000 0.0000 0.0000 -5.0722 0.0000 31.7622
#
#
#
# Elastic Compliance Matrix: (Units=1/GPa)
#
#
# Indices 1 2 3 4 5 6 
#
# 1 0.011352 -0.002056 -0.003731 0.000000 0.001912 0.000000
# 2 -0.002056 0.012269 -0.005077 0.000000 -0.001989 0.000000
# 3 -0.003731 -0.005077 0.012883 0.000000 0.001117 0.000000
# 4 0.000000 0.000000 0.000000 0.086477 0.000000 0.013810
# 5 0.001912 -0.001989 0.001117 0.000000 0.024883 0.000000
# 6 0.000000 0.000000 0.000000 0.013810 0.000000 0.033689
#
#
# Mechanical properties :
#
#
# Convention : Reuss Voigt Hill
#
# Bulk Modulus (GPa) = 67.67622 68.20236 67.93929
# Shear Modulus (GPa) = 24.01464 30.18876 27.10170
#
# Velocity S-wave (km/s) = 3.52266 3.94962 3.74224
# Velocity P-wave (km/s) = 7.17747 7.48610 7.33341
#
# Compressibility (1/GPa) = 0.01477624
#
# Stress axis : x y z
#
# Youngs Moduli (GPa) = 88.09163 81.50683 77.62177
#
# Poissons Ratio (x) = 0.16758 0.28962
# Poissons Ratio (y) = 0.18112 0.39405
# Poissons Ratio (z) = 0.32869 0.41377
#
# Static dielectric constant tensor:
#      x y z
#    x 4.045600 0.000000 -0.188430 
#    y 0.000000 3.412210 0.000000 
#    z -0.188430 0.000000 3.661270 
# 
# 
# High freq. dielectric constant tensor:
#      x y z
#    x 1.772600 0.000000 -0.003340 
#    y 0.000000 1.753750 0.000000 
#    z -0.003340 0.000000 1.753870 
# 
# From -- ./inp_files/64123.got.cif
#   From: 2010.06.25/outbox.cif.g09.slc.cpg/sg15_33_cif.got.tgz:64123.got - 2010.06.28 07:06:18.
