data_PCOD8139464
_publ_section_title
;
Structure prediction by ZEFSAII (Michael W. Deem and Ramdas Pophale) SiO2 
 PCOD8139464
Probable space group: C 2/C
;
_chemical_formula_sum "Si O2"
_cell_formula_units_Z 60
_cell_length_a 12.757495
_cell_length_b 11.620587
_cell_length_c 21.267061
_cell_angle_alpha 90.000000
_cell_angle_beta 66.871886
_cell_angle_gamma 90.000000
_cell_volume 2899.436144
_symmetry_space_group_name_H-M "C 2/C"
_symmetry_group_IT_number 15
_symmetry_cell_setting 'monoclinic'
loop_
_space_group_symop_operation_xyz
x,y,z
-x,y,1/2-z
-x,-y,-z
x,-y,1/2+z
1/2+x,1/2+y,z
1/2-x,1/2+y,1/2-z
1/2-x,1/2-y,-z
1/2+x,1/2-y,1/2+z
loop_
_atom_site_type_symbol
_atom_site_label
_atom_site_fract_x
_atom_site_fract_y
_atom_site_fract_z
Si Si1 0.500000 0.664596 0.750000
Si Si2 0.252344 0.249489 0.326029
Si Si3 0.713691 0.508274 0.872328
Si Si4 0.024431 0.024075 0.619541
Si Si5 0.866884 0.321112 0.272191
Si Si6 0.812304 0.416485 0.477524
Si Si7 0.868397 0.793233 0.897848
Si Si8 0.255784 0.137741 0.541869
O O1 0.614725 0.742242 0.726630
O O2 0.507643 0.579768 0.690522
O O3 0.165894 0.272684 0.288757
O O4 0.224887 0.338134 0.389118
O O5 0.229109 0.126724 0.361443
O O6 0.585585 0.552672 0.894779
O O7 0.796070 0.562802 0.800197
O O8 0.735232 0.550761 0.936789
O O9 0.134995 0.074507 0.559064
O O10 0.029987 0.885108 0.624212
O O11 0.834494 0.228864 0.333370
O O12 0.000000 0.349475 0.250000
O O13 0.905536 0.325573 0.426674
O O14 0.745723 0.346299 0.546198
O O15 0.851573 0.541647 0.497067
O O16 0.250000 0.250000 0.500000
#
# Coordination Sequence:
#
# PCOD8139464 Si02
#       8
#     4   8   8   8   8   8   8   8
#     4  10  22  40  58  96 128 170 210 258 322 392
#     4  11  23  39  67  90 131 167 210 263 321 382
#     4  11  22  38  64  91 123 170 214 263 312 389
#     4  10  21  37  64  93 125 166 218 261 315 378
#     4  11  24  41  60  95 127 162 214 266 325 372
#     4   9  19  39  61  91 126 161 213 256 320 369
#     4   9  20  36  63  89 123 161 204 272 305 368
#     4  10  20  39  62  94 129 167 208 266 314 383
#
# _framework density 20.693678999999999
#
# number of rings (size 3 to 8) (size 9 to 14) (size 15 to 20)
#    0.000    1.867    2.667    0.800    3.733    3.200 
#    2.400    0.000    0.000    7.200    0.000    0.000 
#    0.000    0.000    0.000    0.000    0.000    0.000 
#
# Total GULP energy -371684.845583 kJ/mol
# GULP energy per Si atom -12389.494853 kJ/mol
# Density = 2.064658 g / cm^3
# Si number density = 20.693679 Si / 1000 Ang^3
#
#
#
# Elastic Constant Matrix: (Units=GPa)
#
#
# Indices 1 2 3 4 5 6 
#
# 1 93.2109 27.7320 25.4867 0.0000 1.6033 0.0000
# 2 27.7320 121.3414 36.7220 0.0000 2.4506 0.0000
# 3 25.4867 36.7220 91.4618 0.0000 16.4210 0.0000
# 4 0.0000 0.0000 0.0000 49.9153 0.0000 -5.8874
# 5 1.6033 2.4506 16.4210 0.0000 20.7565 0.0000
# 6 0.0000 0.0000 0.0000 -5.8874 0.0000 26.5912
#
#
#
# Elastic Compliance Matrix: (Units=1/GPa)
#
#
# Indices 1 2 3 4 5 6 
#
# 1 0.012057 -0.001918 -0.002871 0.000000 0.001566 0.000000
# 2 -0.001918 0.009772 -0.003739 0.000000 0.001953 0.000000
# 3 -0.002871 -0.003739 0.015287 0.000000 -0.011431 0.000000
# 4 0.000000 0.000000 0.000000 0.020571 0.000000 0.004555
# 5 0.001566 0.001953 -0.011431 0.000000 0.056869 0.000000
# 6 0.000000 0.000000 0.000000 0.004555 0.000000 0.038615
#
#
# Mechanical properties :
#
#
# Convention : Reuss Voigt Hill
#
# Bulk Modulus (GPa) = 49.85328 53.98839 51.92084
# Shear Modulus (GPa) = 28.26210 33.85748 31.05979
#
# Velocity S-wave (km/s) = 3.69960 4.04929 3.87839
# Velocity P-wave (km/s) = 6.51097 6.92880 6.72313
#
# Compressibility (1/GPa) = 0.02005886
#
# Stress axis : x y z
#
# Youngs Moduli (GPa) = 82.93838 102.33419 65.41426
#
# Poissons Ratio (x) = 0.19632 0.18779
# Poissons Ratio (y) = 0.15911 0.24461
# Poissons Ratio (z) = 0.23810 0.38267
#
# Static dielectric constant tensor:
#      x y z
#    x 3.503510 0.000000 -0.126930 
#    y 0.000000 4.232140 0.000000 
#    z -0.126930 0.000000 3.921840 
# 
# 
# High freq. dielectric constant tensor:
#      x y z
#    x 1.775150 0.000000 0.006280 
#    y 0.000000 1.823700 0.000000 
#    z 0.006280 0.000000 1.830160 
# 
# From -- ./inp_files/268774.got.cif
#   From: 2010.06.25/outbox.cif.g09.slc.cpg/sg15_135_cif.got.tgz:268774.got - 2010.06.28 07:06:18.
