data_PCOD8139175
_publ_section_title
;
Structure prediction by ZEFSAII (Michael W. Deem and Ramdas Pophale) SiO2 
 PCOD8139175
Probable space group: C 2/C
;
_chemical_formula_sum "Si O2"
_cell_formula_units_Z 44
_cell_length_a 9.344207
_cell_length_b 27.494907
_cell_length_c 12.746850
_cell_angle_alpha 90.000000
_cell_angle_beta 138.520142
_cell_angle_gamma 90.000000
_cell_volume 2169.149701
_symmetry_space_group_name_H-M "C 2/C"
_symmetry_group_IT_number 15
_symmetry_cell_setting 'monoclinic'
loop_
_space_group_symop_operation_xyz
x,y,z
-x,y,1/2-z
-x,-y,-z
x,-y,1/2+z
1/2+x,1/2+y,z
1/2-x,1/2+y,1/2-z
1/2-x,1/2-y,-z
1/2+x,1/2-y,1/2+z
loop_
_atom_site_type_symbol
_atom_site_label
_atom_site_fract_x
_atom_site_fract_y
_atom_site_fract_z
Si Si1 0.000000 0.248305 0.250000
Si Si2 0.303524 0.475793 0.566429
Si Si3 0.607100 0.414039 0.079309
Si Si4 0.345351 0.075949 0.066522
Si Si5 0.191483 0.178982 0.506988
Si Si6 0.004274 0.390011 0.445230
O O1 0.795237 0.284181 0.148574
O O2 0.010605 0.211975 0.353605
O O3 0.500000 0.491474 0.750000
O O4 0.382522 0.460168 0.493053
O O5 0.134340 0.520507 0.463711
O O6 0.187204 0.430789 0.557273
O O7 0.567516 0.365248 0.991410
O O8 0.830065 0.408336 0.264730
O O9 0.407098 0.418991 0.046443
O O10 0.500000 0.085822 0.250000
O O11 0.402309 0.114631 0.005630
O O12 0.380817 0.159661 0.531021
#
# Coordination Sequence:
#
# PCOD8139175 Si02
#       6
#     4   8   8   8   8   8
#     4  10  20  38  66  94 112 142 192 244 288 358
#     4  11  22  38  60  86 117 160 204 241 275 335
#     4  11  22  39  59  87 123 155 195 241 289 341
#     4  12  25  38  57  84 120 164 197 238 288 344
#     4  10  21  38  66  93 115 144 191 241 295 342
#     4  11  22  39  59  87 123 155 195 241 289 341
#
# _framework density 20.284447
#
# number of rings (size 3 to 8) (size 9 to 14) (size 15 to 20)
#    0.000    1.091    1.818    6.545    7.636    0.000 
#    0.000    0.000    0.000    6.545    0.000    0.000 
#    0.000    0.000    0.000    0.000    0.000    0.000 
#
# Total GULP energy -272717.727695 kJ/mol
# GULP energy per Si atom -12396.260350 kJ/mol
# Density = 2.023828 g / cm^3
# Si number density = 20.284447 Si / 1000 Ang^3
#
#
#
# Elastic Constant Matrix: (Units=GPa)
#
#
# Indices 1 2 3 4 5 6 
#
# 1 94.3218 12.8220 13.3632 0.0000 -11.0441 0.0000
# 2 12.8220 82.7548 26.4077 0.0000 -7.3550 0.0000
# 3 13.3632 26.4077 105.1636 0.0000 -9.8588 0.0000
# 4 0.0000 0.0000 0.0000 115.1883 0.0000 -2.9250
# 5 -11.0441 -7.3550 -9.8588 0.0000 27.9100 0.0000
# 6 0.0000 0.0000 0.0000 -2.9250 0.0000 9.0091
#
#
#
# Elastic Compliance Matrix: (Units=1/GPa)
#
#
# Indices 1 2 3 4 5 6 
#
# 1 0.011327 -0.001159 -0.000783 0.000000 0.003900 0.000000
# 2 -0.001159 0.013409 -0.003032 0.000000 0.002004 0.000000
# 3 -0.000783 -0.003032 0.010617 0.000000 0.002642 0.000000
# 4 0.000000 0.000000 0.000000 0.008754 0.000000 0.002842
# 5 0.003900 0.002004 0.002642 0.000000 0.038834 0.000000
# 6 0.000000 0.000000 0.000000 0.002842 0.000000 0.111921
#
#
# Mechanical properties :
#
#
# Convention : Reuss Voigt Hill
#
# Bulk Modulus (GPa) = 39.35942 43.04731 41.20336
# Shear Modulus (GPa) = 23.44354 45.73129 34.58742
#
# Velocity S-wave (km/s) = 3.40331 4.75331 4.13379
# Velocity P-wave (km/s) = 5.90671 7.16890 6.56819
#
# Compressibility (1/GPa) = 0.02540688
#
# Stress axis : x y z
#
# Youngs Moduli (GPa) = 88.28389 74.57632 94.18415
#
# Poissons Ratio (x) = 0.08640 0.07372
# Poissons Ratio (y) = 0.10228 0.28557
# Poissons Ratio (z) = 0.06910 0.22612
#
# Static dielectric constant tensor:
#      x y z
#    x 3.593520 0.000000 -0.063200 
#    y 0.000000 3.779980 0.000000 
#    z -0.063200 0.000000 3.853630 
# 
# 
# High freq. dielectric constant tensor:
#      x y z
#    x 1.766180 0.000000 -0.000460 
#    y 0.000000 1.785560 0.000000 
#    z -0.000460 0.000000 1.813080 
# 
# From -- ./inp_files/25616.got.cif
#   From: 2010.06.25/outbox.cif.g09.slc.cpg/sg15_13_cif.got.tgz:25616.got - 2010.06.28 07:06:18.
