data_PCOD8139006
_publ_section_title
;
Structure prediction by ZEFSAII (Michael W. Deem and Ramdas Pophale) SiO2 
 PCOD8139006
Probable space group: C 2/C
;
_chemical_formula_sum "Si O2"
_cell_formula_units_Z 60
_cell_length_a 8.726473
_cell_length_b 26.665981
_cell_length_c 13.637355
_cell_angle_alpha 90.000000
_cell_angle_beta 105.786897
_cell_angle_gamma 90.000000
_cell_volume 3053.711656
_symmetry_space_group_name_H-M "C 2/C"
_symmetry_group_IT_number 15
_symmetry_cell_setting 'monoclinic'
loop_
_space_group_symop_operation_xyz
x,y,z
-x,y,1/2-z
-x,-y,-z
x,-y,1/2+z
1/2+x,1/2+y,z
1/2-x,1/2+y,1/2-z
1/2-x,1/2-y,-z
1/2+x,1/2-y,1/2+z
loop_
_atom_site_type_symbol
_atom_site_label
_atom_site_fract_x
_atom_site_fract_y
_atom_site_fract_z
Si Si1 0.135265 0.592964 0.877778
Si Si2 0.236516 0.220167 0.215815
Si Si3 0.106218 0.321641 0.125895
Si Si4 0.999489 0.309883 0.894229
Si Si5 0.000000 0.144346 0.250000
Si Si6 0.684882 0.592743 0.789177
Si Si7 0.590974 0.011015 0.615764
Si Si8 0.694820 0.094307 0.114508
O O1 0.265742 0.594535 0.816645
O O2 0.030087 0.643732 0.849370
O O3 0.028543 0.543322 0.836935
O O4 0.205636 0.588774 0.998938
O O5 0.154757 0.274262 0.199186
O O6 0.350917 0.204545 0.146518
O O7 0.342432 0.221204 0.334077
O O8 0.095525 0.179476 0.190782
O O9 0.262618 0.356850 0.143744
O O10 0.048939 0.298028 0.013343
O O11 0.945953 0.368053 0.876916
O O12 0.872876 0.109854 0.173071
O O13 0.500000 0.587927 0.750000
O O14 0.752194 0.546069 0.864442
O O15 0.500000 0.000000 0.500000
O O16 0.649399 0.956904 0.664334
#
# Coordination Sequence:
#
# PCOD8139006 Si02
#       8
#     8   8   8   8   4   8   8   8
#     4   9  20  41  61  88 113 154 202 232 292 373
#     4  10  21  37  56  84 119 151 200 245 287 350
#     4  10  20  38  64  80 117 163 190 244 301 345
#     4   9  20  39  56  85 117 152 208 232 283 366
#     4  10  22  36  52  88 120 148 196 242 286 348
#     4  11  24  38  60  96 119 144 201 252 288 349
#     4   9  18  38  64  81 114 156 188 228 292 361
#     4   9  19  39  62  83 118 154 190 240 292 342
#
# _framework density 19.648219000000001
#
# number of rings (size 3 to 8) (size 9 to 14) (size 15 to 20)
#    0.000    2.400    0.000    2.800    4.667    1.067 
#   12.000    4.667    0.000    0.000    0.000    0.000 
#    0.000    0.000    0.000    0.000    0.000    0.000 
#
# Total GULP energy -371673.091490 kJ/mol
# GULP energy per Si atom -12389.103050 kJ/mol
# Density = 1.960350 g / cm^3
# Si number density = 19.648219 Si / 1000 Ang^3
#
#
#
# Elastic Constant Matrix: (Units=GPa)
#
#
# Indices 1 2 3 4 5 6 
#
# 1 127.5852 57.6953 44.5668 0.0000 14.6842 0.0000
# 2 57.6953 156.6490 57.8833 0.0000 16.1478 0.0000
# 3 44.5668 57.8833 102.3422 0.0000 13.6748 0.0000
# 4 0.0000 0.0000 0.0000 30.4352 0.0000 14.7266
# 5 14.6842 16.1478 13.6748 0.0000 30.9313 0.0000
# 6 0.0000 0.0000 0.0000 14.7266 0.0000 9.7254
#
#
#
# Elastic Compliance Matrix: (Units=1/GPa)
#
#
# Indices 1 2 3 4 5 6 
#
# 1 0.010187 -0.002513 -0.002704 0.000000 -0.002329 0.000000
# 2 -0.002513 0.008852 -0.003671 0.000000 -0.001805 0.000000
# 3 -0.002704 -0.003671 0.013388 0.000000 -0.002719 0.000000
# 4 0.000000 0.000000 0.000000 0.122915 0.000000 -0.186122
# 5 -0.002329 -0.001805 -0.002719 0.000000 0.035580 0.000000
# 6 0.000000 0.000000 0.000000 -0.186122 0.000000 0.384654
#
#
# Mechanical properties :
#
#
# Convention : Reuss Voigt Hill
#
# Bulk Modulus (GPa) = 68.25134 78.54080 73.39607
# Shear Modulus (GPa) = 8.35794 29.31378 18.83586
#
# Velocity S-wave (km/s) = 2.06471 3.86674 3.09957
# Velocity P-wave (km/s) = 6.36365 7.74570 7.08844
#
# Compressibility (1/GPa) = 0.01465173
#
# Stress axis : x y z
#
# Youngs Moduli (GPa) = 98.16796 112.97255 74.69367
#
# Poissons Ratio (x) = 0.28387 0.20194
# Poissons Ratio (y) = 0.24667 0.27420
# Poissons Ratio (z) = 0.26541 0.41472
#
# Static dielectric constant tensor:
#      x y z
#    x 3.446180 0.000000 0.224970 
#    y 0.000000 4.095850 0.000000 
#    z 0.224970 0.000000 3.700990 
# 
# 
# High freq. dielectric constant tensor:
#      x y z
#    x 1.751400 0.000000 0.018180 
#    y 0.000000 1.773100 0.000000 
#    z 0.018180 0.000000 1.770710 
# 
# From -- ./inp_files/137884.got.cif
#   From: 2010.06.25/outbox.cif.g09.slc.cpg/sg15_69_cif.got.tgz:137884.got - 2010.06.28 07:06:18.
