data_PCOD8139659
_publ_section_title
;
Structure prediction by ZEFSAII (Michael W. Deem and Ramdas Pophale) SiO2 
 PCOD8139659
Probable space group: C 2/C
;
_chemical_formula_sum "Si O2"
_cell_formula_units_Z 60
_cell_length_a 6.778350
_cell_length_b 23.391161
_cell_length_c 22.139238
_cell_angle_alpha 90.000000
_cell_angle_beta 53.129693
_cell_angle_gamma 90.000000
_cell_volume 2808.187468
_symmetry_space_group_name_H-M "C 2/C"
_symmetry_group_IT_number 15
_symmetry_cell_setting 'monoclinic'
loop_
_space_group_symop_operation_xyz
x,y,z
-x,y,1/2-z
-x,-y,-z
x,-y,1/2+z
1/2+x,1/2+y,z
1/2-x,1/2+y,1/2-z
1/2-x,1/2-y,-z
1/2+x,1/2-y,1/2+z
loop_
_atom_site_type_symbol
_atom_site_label
_atom_site_fract_x
_atom_site_fract_y
_atom_site_fract_z
Si Si1 0.755387 0.273593 0.186794
Si Si2 0.000000 0.439689 0.750000
Si Si3 0.893580 0.843246 0.702815
Si Si4 0.229662 0.355080 0.969273
Si Si5 0.772062 0.343875 0.393752
Si Si6 0.259510 0.485643 0.978332
Si Si7 0.236214 0.524608 0.618680
Si Si8 0.729726 0.296589 0.055375
O O1 0.500000 0.306649 0.250000
O O2 0.729427 0.213506 0.227499
O O3 0.772297 0.265704 0.111492
O O4 0.988631 0.308144 0.170119
O O5 0.237968 0.400187 0.717413
O O6 0.043057 0.483306 0.687055
O O7 0.000000 0.850481 0.750000
O O8 0.107639 0.828919 0.614420
O O9 0.308228 0.420053 0.956988
O O10 0.291610 0.329887 0.024345
O O11 0.941486 0.344627 0.006979
O O12 0.848215 0.409612 0.367313
O O13 0.536523 0.326883 0.397195
O O14 0.484951 0.520178 0.905212
O O15 0.249206 0.502214 0.050052
O O16 0.000000 0.500000 0.000000
O O17 0.750000 0.250000 0.000000
#
# Coordination Sequence:
#
# PCOD8139659 Si02
#       8
#     8   4   8   8   8   8   8   8
#     4  11  26  43  63 100 133 171 228 272 333 408
#     4  12  26  44  62 102 138 174 230 270 336 402
#     4  12  27  43  66  96 137 180 217 274 337 399
#     4  10  22  41  63  99 127 165 227 274 319 405
#     4  10  23  44  70  97 132 173 222 281 338 391
#     4  10  20  39  66  91 126 172 222 266 321 390
#     4  10  23  41  64  97 130 175 218 275 330 394
#     4  11  23  40  69  98 130 178 222 276 337 391
#
# _framework density 21.366092999999999
#
# number of rings (size 3 to 8) (size 9 to 14) (size 15 to 20)
#    0.000    1.333    2.000    2.400    5.600    4.267 
#    0.000    0.667    0.000    0.000    0.000    0.000 
#    0.000    0.000    0.000    0.000    0.000    0.000 
#
# Total GULP energy -371917.824759 kJ/mol
# GULP energy per Si atom -12397.260825 kJ/mol
# Density = 2.131746 g / cm^3
# Si number density = 21.366093 Si / 1000 Ang^3
#
#
#
# Elastic Constant Matrix: (Units=GPa)
#
#
# Indices 1 2 3 4 5 6 
#
# 1 125.9733 34.8822 39.7587 0.0000 -13.3005 0.0000
# 2 34.8822 93.8351 46.5744 0.0000 -1.4220 0.0000
# 3 39.7587 46.5744 85.1192 0.0000 -12.8248 0.0000
# 4 0.0000 0.0000 0.0000 34.3473 0.0000 -2.6566
# 5 -13.3005 -1.4220 -12.8248 0.0000 36.6749 0.0000
# 6 0.0000 0.0000 0.0000 -2.6566 0.0000 34.0259
#
#
#
# Elastic Compliance Matrix: (Units=1/GPa)
#
#
# Indices 1 2 3 4 5 6 
#
# 1 0.009725 -0.002062 -0.003056 0.000000 0.002378 0.000000
# 2 -0.002062 0.015263 -0.007824 0.000000 -0.002892 0.000000
# 3 -0.003056 -0.007824 0.018203 0.000000 0.004954 0.000000
# 4 0.000000 0.000000 0.000000 0.029291 0.000000 0.002287
# 5 0.002378 -0.002892 0.004954 0.000000 0.029749 0.000000
# 6 0.000000 0.000000 0.000000 0.002287 0.000000 0.029568
#
#
# Mechanical properties :
#
#
# Convention : Reuss Voigt Hill
#
# Bulk Modulus (GPa) = 57.78007 60.81757 59.29882
# Shear Modulus (GPa) = 30.59004 33.25713 31.92358
#
# Velocity S-wave (km/s) = 3.78790 3.94958 3.86958
# Velocity P-wave (km/s) = 6.79945 7.02319 6.91222
#
# Compressibility (1/GPa) = 0.01730701
#
# Stress axis : x y z
#
# Youngs Moduli (GPa) = 102.83039 65.51709 54.93654
#
# Poissons Ratio (x) = 0.13512 0.16786
# Poissons Ratio (y) = 0.21208 0.42982
# Poissons Ratio (z) = 0.31420 0.51260
#
# Static dielectric constant tensor:
#      x y z
#    x 4.077650 0.000000 -0.077480 
#    y 0.000000 3.662500 0.000000 
#    z -0.077480 0.000000 3.919850 
# 
# 
# High freq. dielectric constant tensor:
#      x y z
#    x 1.847020 0.000000 -0.009450 
#    y 0.000000 1.836500 0.000000 
#    z -0.009450 0.000000 1.837280 
# 
# From -- ./inp_files/228605.got.cif
#   From: 2010.06.25/outbox.cif.g09.slc.cpg/sg15_115_cif.got.tgz:228605.got - 2010.06.28 07:06:18.
