data_PCOD8139794
_publ_section_title
;
Structure prediction by ZEFSAII (Michael W. Deem and Ramdas Pophale) SiO2 
 PCOD8139794
Probable space group: C 2/C
;
_chemical_formula_sum "Si O2"
_cell_formula_units_Z 44
_cell_length_a 6.902638
_cell_length_b 12.022917
_cell_length_c 25.454331
_cell_angle_alpha 90.000000
_cell_angle_beta 81.146660
_cell_angle_gamma 90.000000
_cell_volume 2087.282219
_symmetry_space_group_name_H-M "C 2/C"
_symmetry_group_IT_number 15
_symmetry_cell_setting 'monoclinic'
loop_
_space_group_symop_operation_xyz
x,y,z
-x,y,1/2-z
-x,-y,-z
x,-y,1/2+z
1/2+x,1/2+y,z
1/2-x,1/2+y,1/2-z
1/2-x,1/2-y,-z
1/2+x,1/2-y,1/2+z
loop_
_atom_site_type_symbol
_atom_site_label
_atom_site_fract_x
_atom_site_fract_y
_atom_site_fract_z
Si Si1 0.907843 0.476983 0.201097
Si Si2 0.938461 0.361791 0.605499
Si Si3 0.827559 0.040033 0.075986
Si Si4 0.288776 0.355349 0.156462
Si Si5 0.773838 0.878452 0.986588
Si Si6 0.500000 0.379367 0.250000
O O1 0.877496 0.564266 0.156826
O O2 0.684759 0.446967 0.221476
O O3 0.000000 0.531912 0.250000
O O4 0.055590 0.374449 0.178485
O O5 0.830074 0.242745 0.613410
O O6 0.871684 0.416604 0.553493
O O7 0.175015 0.359808 0.594209
O O8 0.009041 0.101243 0.043643
O O9 0.871540 0.970938 0.127958
O O10 0.731495 0.951566 0.039714
O O11 0.411792 0.315059 0.203008
O O12 0.750000 0.750000 0.000000
#
# Coordination Sequence:
#
# PCOD8139794 Si02
#       6
#     8   8   8   8   8   4
#     4   9  21  40  60  86 122 152 201 247 288 356
#     4  11  22  39  63  89 118 162 195 244 302 346
#     4  10  23  42  61  88 123 153 203 247 289 355
#     4  10  21  39  60  90 121 155 201 243 292 357
#     4  11  22  41  62  89 121 158 198 247 295 350
#     4  10  20  40  60  86 120 160 190 248 300 342
#
# _framework density 21.080043
#
# number of rings (size 3 to 8) (size 9 to 14) (size 15 to 20)
#    0.000    1.818    1.818    1.636    1.273    2.182 
#    8.182    0.000    0.000    0.000    0.000    0.000 
#    0.000    0.000    0.000    0.000    0.000    0.000 
#
# Total GULP energy -272545.889809 kJ/mol
# GULP energy per Si atom -12388.449537 kJ/mol
# Density = 2.103206 g / cm^3
# Si number density = 21.080043 Si / 1000 Ang^3
#
#
#
# Elastic Constant Matrix: (Units=GPa)
#
#
# Indices 1 2 3 4 5 6 
#
# 1 103.5435 40.4298 26.9401 0.0000 -14.1111 0.0000
# 2 40.4298 68.6014 14.1158 0.0000 -6.1895 0.0000
# 3 26.9401 14.1158 81.7628 0.0000 2.0540 0.0000
# 4 0.0000 0.0000 0.0000 51.1016 0.0000 17.0156
# 5 -14.1111 -6.1895 2.0540 0.0000 45.8029 0.0000
# 6 0.0000 0.0000 0.0000 17.0156 0.0000 44.3993
#
#
#
# Elastic Compliance Matrix: (Units=1/GPa)
#
#
# Indices 1 2 3 4 5 6 
#
# 1 0.013790 -0.007117 -0.003402 0.000000 0.003439 0.000000
# 2 -0.007117 0.019004 -0.000946 0.000000 0.000418 0.000000
# 3 -0.003402 -0.000946 0.013559 0.000000 -0.001784 0.000000
# 4 0.000000 0.000000 0.000000 0.022431 0.000000 -0.008597
# 5 0.003439 0.000418 -0.001784 0.000000 0.023029 0.000000
# 6 0.000000 0.000000 0.000000 -0.008597 0.000000 0.025817
#
#
# Mechanical properties :
#
#
# Convention : Reuss Voigt Hill
#
# Bulk Modulus (GPa) = 42.69164 46.31992 44.50578
# Shear Modulus (GPa) = 33.69971 39.75555 36.72763
#
# Velocity S-wave (km/s) = 4.00266 4.34744 4.17861
# Velocity P-wave (km/s) = 6.45429 6.87178 6.66630
#
# Compressibility (1/GPa) = 0.02342379
#
# Stress axis : x y z
#
# Youngs Moduli (GPa) = 72.51384 52.62098 73.74920
#
# Poissons Ratio (x) = 0.37451 0.25086
# Poissons Ratio (y) = 0.51609 0.06979
# Poissons Ratio (z) = 0.24666 0.04980
#
# Static dielectric constant tensor:
#      x y z
#    x 3.804270 0.000000 0.062800 
#    y 0.000000 3.424270 0.000000 
#    z 0.062800 0.000000 4.312030 
# 
# 
# High freq. dielectric constant tensor:
#      x y z
#    x 1.830040 0.000000 -0.000140 
#    y 0.000000 1.788410 0.000000 
#    z -0.000140 0.000000 1.861240 
# 
# From -- ./inp_files/285441.got.cif
#   From: 2010.06.25/outbox.cif.g09.slc.cpg/sg15_143_cif.got.tgz:285441.got - 2010.06.28 07:06:18.
