data_PCOD8139482
_publ_section_title
;
Structure prediction by ZEFSAII (Michael W. Deem and Ramdas Pophale) SiO2 
 PCOD8139482
Probable space group: C 2/C
;
_chemical_formula_sum "Si O2"
_cell_formula_units_Z 44
_cell_length_a 7.248701
_cell_length_b 11.356998
_cell_length_c 25.636852
_cell_angle_alpha 90.000000
_cell_angle_beta 98.982731
_cell_angle_gamma 90.000000
_cell_volume 2084.630417
_symmetry_space_group_name_H-M "C 2/C"
_symmetry_group_IT_number 15
_symmetry_cell_setting 'monoclinic'
loop_
_space_group_symop_operation_xyz
x,y,z
-x,y,1/2-z
-x,-y,-z
x,-y,1/2+z
1/2+x,1/2+y,z
1/2-x,1/2+y,1/2-z
1/2-x,1/2-y,-z
1/2+x,1/2-y,1/2+z
loop_
_atom_site_type_symbol
_atom_site_label
_atom_site_fract_x
_atom_site_fract_y
_atom_site_fract_z
Si Si1 0.508468 0.320419 0.655255
Si Si2 0.614929 0.075032 0.702278
Si Si3 0.782573 0.171030 0.435979
Si Si4 0.879391 0.603779 0.384629
Si Si5 0.500000 0.515000 0.250000
Si Si6 0.823358 0.567218 0.969882
O O1 0.589823 0.192141 0.668019
O O2 0.605302 0.377413 0.608489
O O3 0.283897 0.306073 0.639161
O O4 0.565390 0.403307 0.705413
O O5 0.500000 0.075802 0.750000
O O6 0.550387 0.966353 0.663344
O O7 0.832882 0.068910 0.725349
O O8 0.556712 0.172703 0.416250
O O9 0.863339 0.300738 0.451360
O O10 0.820669 0.084465 0.487565
O O11 0.766126 0.514487 0.418703
O O12 0.000000 0.500000 0.000000
#
# Coordination Sequence:
#
# PCOD8139482 Si02
#       6
#     8   8   8   8   4   8
#     4  11  22  40  62  90 116 155 204 237 294 360
#     4  11  22  41  62  86 123 157 193 248 294 347
#     4  10  20  39  63  86 121 157 192 248 296 340
#     4  10  22  40  61  88 119 152 199 245 291 354
#     4  10  24  42  60  90 120 154 202 242 294 354
#     4   9  19  39  62  87 121 155 197 244 292 352
#
# _framework density 21.106860000000001
#
# number of rings (size 3 to 8) (size 9 to 14) (size 15 to 20)
#    0.000    1.818    2.727    1.091    0.000    2.182 
#    4.909    8.182    0.000    0.000    0.000    0.000 
#    0.000    0.000    0.000    0.000    0.000    0.000 
#
# Total GULP energy -272640.875822 kJ/mol
# GULP energy per Si atom -12392.767083 kJ/mol
# Density = 2.105882 g / cm^3
# Si number density = 21.106860 Si / 1000 Ang^3
#
#
#
# Elastic Constant Matrix: (Units=GPa)
#
#
# Indices 1 2 3 4 5 6 
#
# 1 71.6663 36.6085 25.2532 0.0000 -6.8638 0.0000
# 2 36.6085 74.2905 13.1024 0.0000 0.6487 0.0000
# 3 25.2532 13.1024 98.1586 0.0000 -34.0157 0.0000
# 4 0.0000 0.0000 0.0000 0.8531 0.0000 14.9323
# 5 -6.8638 0.6487 -34.0157 0.0000 48.2585 0.0000
# 6 0.0000 0.0000 0.0000 14.9323 0.0000 28.6247
#
#
#
# Elastic Compliance Matrix: (Units=1/GPa)
#
#
# Indices 1 2 3 4 5 6 
#
# 1 0.020027 -0.009195 -0.003831 0.000000 0.000272 0.000000
# 2 -0.009195 0.018149 -0.000787 0.000000 -0.002106 0.000000
# 3 -0.003831 -0.000787 0.014678 0.000000 0.009812 0.000000
# 4 0.000000 0.000000 0.000000 -0.144165 0.000000 0.075205
# 5 0.000272 -0.002106 0.009812 0.000000 0.027705 0.000000
# 6 0.000000 0.000000 0.000000 0.075205 0.000000 -0.004296
#
#
# Mechanical properties :
#
#
# Convention : Reuss Voigt Hill
#
# Bulk Modulus (GPa) = 39.63785 43.78262 41.71023
# Shear Modulus (GPa) = -156.89901 26.82401 -65.03750
#
# Velocity S-wave (km/s) = -8.63116 3.56879 -5.55701
# Velocity P-wave (km/s) = 8.97267 6.14573 4.62271
#
# Compressibility (1/GPa) = 0.02522841
#
# Stress axis : x y z
#
# Youngs Moduli (GPa) = 49.93369 55.09915 68.12756
#
# Poissons Ratio (x) = 0.50666 0.26097
# Poissons Ratio (y) = 0.45916 0.05361
# Poissons Ratio (z) = 0.19127 0.04335
#
# Static dielectric constant tensor:
#      x y z
#    x 3.731430 0.000000 -0.360640 
#    y 0.000000 3.695920 0.000000 
#    z -0.360640 0.000000 4.654490 
# 
# 
# High freq. dielectric constant tensor:
#      x y z
#    x 1.808940 0.000000 -0.009840 
#    y 0.000000 1.810120 0.000000 
#    z -0.009840 0.000000 1.861550 
# 
# From -- ./inp_files/304969.got.cif
#   From: 2010.06.25/outbox.cif.g09.slc.cpg/sg15_153_cif.got.tgz:304969.got - 2010.06.28 07:06:18.
