data_PCOD8139745
_publ_section_title
;
Structure prediction by ZEFSAII (Michael W. Deem and Ramdas Pophale) SiO2 
 PCOD8139745
Probable space group: C 2/C
;
_chemical_formula_sum "Si O2"
_cell_formula_units_Z 32
_cell_length_a 12.490880
_cell_length_b 14.102765
_cell_length_c 9.007226
_cell_angle_alpha 90.000000
_cell_angle_beta 130.743032
_cell_angle_gamma 90.000000
_cell_volume 1202.136440
_symmetry_space_group_name_H-M "C 2/C"
_symmetry_group_IT_number 15
_symmetry_cell_setting 'monoclinic'
loop_
_space_group_symop_operation_xyz
x,y,z
-x,y,1/2-z
-x,-y,-z
x,-y,1/2+z
1/2+x,1/2+y,z
1/2-x,1/2+y,1/2-z
1/2-x,1/2-y,-z
1/2+x,1/2-y,1/2+z
loop_
_atom_site_type_symbol
_atom_site_label
_atom_site_fract_x
_atom_site_fract_y
_atom_site_fract_z
Si Si1 0.312073 0.432631 0.832209
Si Si2 0.091210 0.268505 0.569778
Si Si3 0.000000 0.870605 0.750000
Si Si4 0.081684 0.426537 0.170119
Si Si5 0.000000 0.848832 0.250000
O O1 0.208052 0.350292 0.679785
O O2 0.420986 0.441448 0.793553
O O3 0.243057 0.535157 0.810654
O O4 0.389588 0.408693 0.054560
O O5 0.106411 0.196982 0.443063
O O6 0.935196 0.320120 0.411331
O O7 0.095551 0.214809 0.728568
O O8 0.000000 0.428187 0.250000
O O9 0.000000 0.500000 0.000000
#
# Coordination Sequence:
#
# PCOD8139745 Si02
#       5
#     8   8   4   8   4
#     4  10  22  39  67 103 146 177 239 290 354 429
#     4  10  20  39  70 105 131 183 247 291 340 420
#     4  10  20  40  67 107 136 190 226 302 362 404
#     4  10  22  41  68 106 132 184 241 293 343 415
#     4  10  22  40  69 107 138 186 224 304 360 404
#
# _framework density 26.619275999999999
#
# number of rings (size 3 to 8) (size 9 to 14) (size 15 to 20)
#    0.000    2.000    1.250    1.500    7.000    0.000 
#    0.000    5.000    0.000   18.000   13.000    0.000 
#    0.000    0.000    0.000    0.000    0.000    0.000 
#
# Total GULP energy -198251.609946 kJ/mol
# GULP energy per Si atom -12390.725622 kJ/mol
# Density = 2.655869 g / cm^3
# Si number density = 26.619276 Si / 1000 Ang^3
#
#
#
# Elastic Constant Matrix: (Units=GPa)
#
#
# Indices 1 2 3 4 5 6 
#
# 1 136.1130 56.5568 61.9726 0.0000 -15.2511 0.0000
# 2 56.5568 92.3978 51.0281 0.0000 -2.8721 0.0000
# 3 61.9726 51.0281 149.6933 0.0000 -31.5390 0.0000
# 4 0.0000 0.0000 0.0000 -13.8308 0.0000 -39.9038
# 5 -15.2511 -2.8721 -31.5390 0.0000 42.9756 0.0000
# 6 0.0000 0.0000 0.0000 -39.9038 0.0000 -33.5260
#
#
#
# Elastic Compliance Matrix: (Units=1/GPa)
#
#
# Indices 1 2 3 4 5 6 
#
# 1 0.010784 -0.005283 -0.002285 0.000000 0.001797 0.000000
# 2 -0.005283 0.016232 -0.004155 0.000000 -0.003839 0.000000
# 3 -0.002285 -0.004155 0.010425 0.000000 0.006562 0.000000
# 4 0.000000 0.000000 0.000000 0.029705 0.000000 -0.035356
# 5 0.001797 -0.003839 0.006562 0.000000 0.028466 0.000000
# 6 0.000000 0.000000 0.000000 -0.035356 0.000000 0.012255
#
#
# Mechanical properties :
#
#
# Convention : Reuss Voigt Hill
#
# Bulk Modulus (GPa) = 71.45369 79.70211 75.57790
# Shear Modulus (GPa) = 36.77085 13.03353 24.90219
#
# Velocity S-wave (km/s) = 3.72070 2.21515 3.06190
# Velocity P-wave (km/s) = 6.73493 6.04558 6.39954
#
# Compressibility (1/GPa) = 0.01399508
#
# Stress axis : x y z
#
# Youngs Moduli (GPa) = 92.73300 61.60772 95.92095
#
# Poissons Ratio (x) = 0.32547 0.21917
# Poissons Ratio (y) = 0.48990 0.39854
# Poissons Ratio (z) = 0.21189 0.25597
#
# Static dielectric constant tensor:
#      x y z
#    x 5.390030 0.000000 0.501110 
#    y 0.000000 5.775670 0.000000 
#    z 0.501110 0.000000 5.564000 
# 
# 
# High freq. dielectric constant tensor:
#      x y z
#    x 2.053500 0.000000 -0.006510 
#    y 0.000000 2.084840 0.000000 
#    z -0.006510 0.000000 2.095820 
# 
# From -- ./inp_files/28921.got.cif
#   From: 2010.06.25/outbox.cif.g09.slc.cpg/sg15_15_cif.got.tgz:28921.got - 2010.06.28 07:06:18.
