data_PCOD8139420
_publ_section_title
;
Structure prediction by ZEFSAII (Michael W. Deem and Ramdas Pophale) SiO2 
 PCOD8139420
Probable space group: C 2/C
;
_chemical_formula_sum "Si O2"
_cell_formula_units_Z 40
_cell_length_a 17.184120
_cell_length_b 11.287234
_cell_length_c 11.198225
_cell_angle_alpha 90.000000
_cell_angle_beta 117.600589
_cell_angle_gamma 90.000000
_cell_volume 1924.842417
_symmetry_space_group_name_H-M "C 2/C"
_symmetry_group_IT_number 15
_symmetry_cell_setting 'monoclinic'
loop_
_space_group_symop_operation_xyz
x,y,z
-x,y,1/2-z
-x,-y,-z
x,-y,1/2+z
1/2+x,1/2+y,z
1/2-x,1/2+y,1/2-z
1/2-x,1/2-y,-z
1/2+x,1/2-y,1/2+z
loop_
_atom_site_type_symbol
_atom_site_label
_atom_site_fract_x
_atom_site_fract_y
_atom_site_fract_z
Si Si1 0.960711 0.042167 0.598811
Si Si2 0.000000 0.267062 0.750000
Si Si3 0.613984 0.047971 0.219782
Si Si4 0.778937 0.068367 0.939768
Si Si5 0.149396 0.310593 0.520575
Si Si6 0.000000 0.642394 0.750000
O O1 0.000000 0.982704 0.750000
O O2 0.979156 0.183813 0.620019
O O3 0.856994 0.019574 0.529523
O O4 0.000000 0.000000 0.500000
O O5 0.085814 0.348882 0.792213
O O6 0.605426 0.102267 0.083258
O O7 0.713645 0.006096 0.310688
O O8 0.548277 0.937883 0.184902
O O9 0.817502 0.185964 0.900276
O O10 0.730286 0.116260 0.022810
O O11 0.074036 0.279184 0.368735
#
# Coordination Sequence:
#
# PCOD8139420 Si02
#       6
#     8   4   8   8   8   4
#     4  10  23  41  64  91 127 165 214 262 319 376
#     4   9  22  39  62  96 120 167 210 255 318 376
#     4  10  20  39  62  85 129 157 212 257 318 378
#     4  10  23  38  60  92 120 165 209 261 317 374
#     4  10  21  38  60  90 126 159 212 257 315 381
#     4   9  20  37  60  92 118 171 200 261 316 378
#
# _framework density 20.780923000000001
#
# number of rings (size 3 to 8) (size 9 to 14) (size 15 to 20)
#    0.600    1.600    0.000    1.800    4.200    0.800 
#    0.000    6.000    0.000    0.000    0.000    0.000 
#    0.000    0.000    0.000    0.000    0.000    0.000 
#
# Total GULP energy -247821.484230 kJ/mol
# GULP energy per Si atom -12391.074211 kJ/mol
# Density = 2.073362 g / cm^3
# Si number density = 20.780923 Si / 1000 Ang^3
#
#
#
# Elastic Constant Matrix: (Units=GPa)
#
#
# Indices 1 2 3 4 5 6 
#
# 1 100.8390 31.5682 55.4123 0.0000 21.9220 0.0000
# 2 31.5682 88.7006 42.7167 0.0000 13.6979 0.0000
# 3 55.4123 42.7167 97.6466 0.0000 12.5079 0.0000
# 4 0.0000 0.0000 0.0000 23.3695 0.0000 8.2615
# 5 21.9220 13.6979 12.5079 0.0000 43.7686 0.0000
# 6 0.0000 0.0000 0.0000 8.2615 0.0000 25.6588
#
#
#
# Elastic Compliance Matrix: (Units=1/GPa)
#
#
# Indices 1 2 3 4 5 6 
#
# 1 0.015651 -0.001015 -0.007758 0.000000 -0.005304 0.000000
# 2 -0.001015 0.014684 -0.005527 0.000000 -0.002508 0.000000
# 3 -0.007758 -0.005527 0.016963 0.000000 0.000768 0.000000
# 4 0.000000 0.000000 0.000000 0.048287 0.000000 -0.015547
# 5 -0.005304 -0.002508 0.000768 0.000000 0.026070 0.000000
# 6 0.000000 0.000000 0.000000 -0.015547 0.000000 0.043979
#
#
# Mechanical properties :
#
#
# Convention : Reuss Voigt Hill
#
# Bulk Modulus (GPa) = 53.47973 60.73116 57.10545
# Shear Modulus (GPa) = 24.94208 29.05864 27.00036
#
# Velocity S-wave (km/s) = 3.46821 3.74349 3.60847
# Velocity P-wave (km/s) = 6.46752 6.92624 6.70081
#
# Compressibility (1/GPa) = 0.01869867
#
# Stress axis : x y z
#
# Youngs Moduli (GPa) = 63.89466 68.10234 58.95233
#
# Poissons Ratio (x) = 0.06911 0.45736
# Poissons Ratio (y) = 0.06484 0.32580
# Poissons Ratio (z) = 0.49570 0.37637
#
# Static dielectric constant tensor:
#      x y z
#    x 3.913460 0.000000 0.080410 
#    y 0.000000 3.782420 0.000000 
#    z 0.080410 0.000000 3.468440 
# 
# 
# High freq. dielectric constant tensor:
#      x y z
#    x 1.827320 0.000000 0.009420 
#    y 0.000000 1.813580 0.000000 
#    z 0.009420 0.000000 1.786900 
# 
# From -- ./inp_files/103975.got.cif
#   From: 2010.06.25/outbox.cif.g09.slc.cpg/sg15_52_cif.got.tgz:103975.got - 2010.06.28 07:06:18.
