data_PCOD8139852
_publ_section_title
;
Structure prediction by ZEFSAII (Michael W. Deem and Ramdas Pophale) SiO2 
 PCOD8139852
Probable space group: C 2/C
;
_chemical_formula_sum "Si O2"
_cell_formula_units_Z 60
_cell_length_a 23.030170
_cell_length_b 23.777125
_cell_length_c 8.973892
_cell_angle_alpha 90.000000
_cell_angle_beta 142.420461
_cell_angle_gamma 90.000000
_cell_volume 2996.877779
_symmetry_space_group_name_H-M "C 2/C"
_symmetry_group_IT_number 15
_symmetry_cell_setting 'monoclinic'
loop_
_space_group_symop_operation_xyz
x,y,z
-x,y,1/2-z
-x,-y,-z
x,-y,1/2+z
1/2+x,1/2+y,z
1/2-x,1/2+y,1/2-z
1/2-x,1/2-y,-z
1/2+x,1/2-y,1/2+z
loop_
_atom_site_type_symbol
_atom_site_label
_atom_site_fract_x
_atom_site_fract_y
_atom_site_fract_z
Si Si1 0.000000 0.538922 0.750000
Si Si2 0.211970 0.352423 0.614749
Si Si3 0.914410 0.626029 0.365275
Si Si4 0.454860 0.450521 0.999443
Si Si5 0.047560 0.725837 0.692306
Si Si6 0.070630 0.828044 0.522587
Si Si7 0.662258 0.953646 0.012672
Si Si8 0.258501 0.955997 0.013457
O O1 0.986871 0.579475 0.580502
O O2 0.912056 0.497200 0.572895
O O3 0.177162 0.364402 0.713302
O O4 0.150686 0.301383 0.425745
O O5 0.323924 0.337418 0.833104
O O6 0.185852 0.407043 0.462062
O O7 0.974275 0.683044 0.462618
O O8 0.880162 0.605702 0.131572
O O9 0.500000 0.459139 0.250000
O O10 0.500000 0.500000 0.000000
O O11 0.470956 0.385229 0.984950
O O12 0.343818 0.459183 0.767672
O O13 0.069655 0.780887 0.644412
O O14 0.000000 0.744583 0.750000
O O15 0.000000 0.808078 0.250000
O O16 0.737665 0.943477 0.300882
O O17 0.702821 0.982010 0.945137
#
# Coordination Sequence:
#
# PCOD8139852 Si02
#       8
#     4   8   8   8   8   8   8   8
#     4  12  20  36  56  86 134 168 202 238 308 362
#     4  10  20  40  62  84 121 163 205 258 312 364
#     4  11  21  38  60  88 127 172 206 252 305 371
#     4  10  22  41  64  87 114 153 197 253 308 357
#     4  10  21  40  64  87 120 161 209 256 309 366
#     4  10  23  41  63  90 118 158 204 258 317 365
#     4  12  23  32  55  91 130 167 200 245 301 379
#     4  11  21  36  56  88 123 159 205 248 306 372
#
# _framework density 20.020837
#
# number of rings (size 3 to 8) (size 9 to 14) (size 15 to 20)
#    0.000    1.333    4.667    1.600    1.867    3.733 
#    0.000    5.333    0.000    0.000    0.000    0.000 
#    0.000    0.000    0.000    0.000    0.000    0.000 
#
# Total GULP energy -371731.450904 kJ/mol
# GULP energy per Si atom -12391.048363 kJ/mol
# Density = 1.997527 g / cm^3
# Si number density = 20.020837 Si / 1000 Ang^3
#
#
#
# Elastic Constant Matrix: (Units=GPa)
#
#
# Indices 1 2 3 4 5 6 
#
# 1 61.9765 43.3191 40.8280 0.0000 4.6056 0.0000
# 2 43.3191 105.4583 39.2059 0.0000 0.2331 0.0000
# 3 40.8280 39.2059 126.4751 0.0000 -2.4098 0.0000
# 4 0.0000 0.0000 0.0000 25.1832 0.0000 -4.4370
# 5 4.6056 0.2331 -2.4098 0.0000 20.2649 0.0000
# 6 0.0000 0.0000 0.0000 -4.4370 0.0000 24.8080
#
#
#
# Elastic Compliance Matrix: (Units=1/GPa)
#
#
# Indices 1 2 3 4 5 6 
#
# 1 0.026701 -0.008704 -0.006049 0.000000 -0.006687 0.000000
# 2 -0.008704 0.013561 -0.001362 0.000000 0.001660 0.000000
# 3 -0.006049 -0.001362 0.010331 0.000000 0.002619 0.000000
# 4 0.000000 0.000000 0.000000 0.041001 0.000000 0.007333
# 5 -0.006687 0.001660 0.002619 0.000000 0.051159 0.000000
# 6 0.000000 0.000000 0.000000 0.007333 0.000000 0.041621
#
#
# Mechanical properties :
#
#
# Convention : Reuss Voigt Hill
#
# Bulk Modulus (GPa) = 54.45837 60.06843 57.26340
# Shear Modulus (GPa) = 22.44925 25.42167 23.93546
#
# Velocity S-wave (km/s) = 3.35221 3.56724 3.46139
# Velocity P-wave (km/s) = 6.49946 6.85821 6.68124
#
# Compressibility (1/GPa) = 0.01836265
#
# Stress axis : x y z
#
# Youngs Moduli (GPa) = 37.45219 73.74278 96.79251
#
# Poissons Ratio (x) = 0.64189 0.58545
# Poissons Ratio (y) = 0.32600 0.13184
# Poissons Ratio (z) = 0.22653 0.10045
#
# Static dielectric constant tensor:
#      x y z
#    x 4.644630 0.000000 0.416770 
#    y 0.000000 4.428950 0.000000 
#    z 0.416770 0.000000 3.837800 
# 
# 
# High freq. dielectric constant tensor:
#      x y z
#    x 1.763630 0.000000 0.006640 
#    y 0.000000 1.784320 0.000000 
#    z 0.006640 0.000000 1.789250 
# 
# From -- ./inp_files/58794.got.cif
#   From: 2010.06.25/outbox.cif.g09.slc.cpg/sg15_30_cif.got.tgz:58794.got - 2010.06.28 07:06:18.
