data_PCOD8139743
_publ_section_title
;
Structure prediction by ZEFSAII (Michael W. Deem and Ramdas Pophale) SiO2 
 PCOD8139743
Probable space group: C 2/C
;
_chemical_formula_sum "Si O2"
_cell_formula_units_Z 40
_cell_length_a 9.076132
_cell_length_b 14.016575
_cell_length_c 14.149101
_cell_angle_alpha 90.000000
_cell_angle_beta 84.108600
_cell_angle_gamma 90.000000
_cell_volume 1790.488907
_symmetry_space_group_name_H-M "C 2/C"
_symmetry_group_IT_number 15
_symmetry_cell_setting 'monoclinic'
loop_
_space_group_symop_operation_xyz
x,y,z
-x,y,1/2-z
-x,-y,-z
x,-y,1/2+z
1/2+x,1/2+y,z
1/2-x,1/2+y,1/2-z
1/2-x,1/2-y,-z
1/2+x,1/2-y,1/2+z
loop_
_atom_site_type_symbol
_atom_site_label
_atom_site_fract_x
_atom_site_fract_y
_atom_site_fract_z
Si Si1 0.000000 0.429599 0.250000
Si Si2 0.700766 0.353863 0.231449
Si Si3 0.422021 0.589334 0.053431
Si Si4 0.078696 0.441088 0.575556
Si Si5 0.003197 0.232969 0.898968
Si Si6 0.000000 0.971921 0.750000
O O1 0.122709 0.359089 0.285523
O O2 0.079916 0.496288 0.169354
O O3 0.646312 0.285081 0.151655
O O4 0.644262 0.312781 0.335838
O O5 0.638870 0.460246 0.216669
O O6 0.247858 0.584361 0.041456
O O7 0.459032 0.593651 0.162711
O O8 0.500000 0.500000 0.000000
O O9 0.488536 0.685329 0.002908
O O10 0.979203 0.346144 0.593391
O O11 0.000000 0.500000 0.500000
#
# Coordination Sequence:
#
# PCOD8139743 Si02
#       6
#     4   8   8   8   8   4
#     4  12  22  43  67 102 132 176 232 279 345 406
#     4  10  20  41  75  94 130 179 220 285 343 393
#     4  12  21  42  71  98 134 177 229 277 338 411
#     4  12  27  43  68  99 139 185 219 283 341 397
#     4  10  22  45  67  97 138 180 225 276 343 406
#     4  10  20  39  69  98 126 184 214 277 345 392
#
# _framework density 22.340266
#
# number of rings (size 3 to 8) (size 9 to 14) (size 15 to 20)
#    0.000    1.200    6.000    3.000    0.000    0.000 
#    0.000   10.000    0.000    0.000    0.000    0.000 
#    0.000    0.000    0.000    0.000    0.000    0.000 
#
# Total GULP energy -248062.845699 kJ/mol
# GULP energy per Si atom -12403.142285 kJ/mol
# Density = 2.228942 g / cm^3
# Si number density = 22.340266 Si / 1000 Ang^3
#
#
#
# Elastic Constant Matrix: (Units=GPa)
#
#
# Indices 1 2 3 4 5 6 
#
# 1 100.7428 24.1174 6.8579 0.0000 4.2885 0.0000
# 2 24.1174 102.7128 37.4377 0.0000 6.1477 0.0000
# 3 6.8579 37.4377 116.7524 0.0000 17.3514 0.0000
# 4 0.0000 0.0000 0.0000 29.0966 0.0000 6.0682
# 5 4.2885 6.1477 17.3514 0.0000 30.4066 0.0000
# 6 0.0000 0.0000 0.0000 6.0682 0.0000 14.9741
#
#
#
# Elastic Compliance Matrix: (Units=1/GPa)
#
#
# Indices 1 2 3 4 5 6 
#
# 1 0.010561 -0.002544 0.000372 0.000000 -0.001187 0.000000
# 2 -0.002544 0.011639 -0.003591 0.000000 0.000055 0.000000
# 3 0.000372 -0.003591 0.010484 0.000000 -0.005309 0.000000
# 4 0.000000 0.000000 0.000000 0.037541 0.000000 -0.015214
# 5 -0.001187 0.000055 -0.005309 0.000000 0.036074 0.000000
# 6 0.000000 0.000000 0.000000 -0.015214 0.000000 0.072947
#
#
# Mechanical properties :
#
#
# Convention : Reuss Voigt Hill
#
# Bulk Modulus (GPa) = 47.26555 50.78157 49.02356
# Shear Modulus (GPa) = 25.27505 31.68177 28.47841
#
# Velocity S-wave (km/s) = 3.36723 3.76991 3.57425
# Velocity P-wave (km/s) = 6.02667 6.45987 6.24703
#
# Compressibility (1/GPa) = 0.02115706
#
# Stress axis : x y z
#
# Youngs Moduli (GPa) = 94.69196 85.91950 95.38607
#
# Poissons Ratio (x) = 0.21859 -0.03548
# Poissons Ratio (y) = 0.24091 0.34251
# Poissons Ratio (z) = -0.03522 0.30852
#
# Static dielectric constant tensor:
#      x y z
#    x 3.813940 0.000000 0.197270 
#    y 0.000000 3.900960 0.000000 
#    z 0.197270 0.000000 4.035010 
# 
# 
# High freq. dielectric constant tensor:
#      x y z
#    x 1.871540 0.000000 -0.002510 
#    y 0.000000 1.871290 0.000000 
#    z -0.002510 0.000000 1.887550 
# 
# From -- ./inp_files/133119.got.cif
#   From: 2010.06.25/outbox.cif.g09.slc.cpg/sg15_67_cif.got.tgz:133119.got - 2010.06.28 07:06:18.
