data_PCOD8139917
_publ_section_title
;
Structure prediction by ZEFSAII (Michael W. Deem and Ramdas Pophale) SiO2 
 PCOD8139917
Probable space group: C 2/C
;
_chemical_formula_sum "Si O2"
_cell_formula_units_Z 52
_cell_length_a 31.130452
_cell_length_b 15.999413
_cell_length_c 15.262038
_cell_angle_alpha 90.000000
_cell_angle_beta 18.125112
_cell_angle_gamma 90.000000
_cell_volume 2364.788165
_symmetry_space_group_name_H-M "C 2/C"
_symmetry_group_IT_number 15
_symmetry_cell_setting 'monoclinic'
loop_
_space_group_symop_operation_xyz
x,y,z
-x,y,1/2-z
-x,-y,-z
x,-y,1/2+z
1/2+x,1/2+y,z
1/2-x,1/2+y,1/2-z
1/2-x,1/2-y,-z
1/2+x,1/2-y,1/2+z
loop_
_atom_site_type_symbol
_atom_site_label
_atom_site_fract_x
_atom_site_fract_y
_atom_site_fract_z
Si Si1 0.041333 0.269718 0.851019
Si Si2 0.665630 0.306417 0.274253
Si Si3 0.525580 0.609962 0.602498
Si Si4 0.978793 0.563044 0.391361
Si Si5 0.767462 0.995843 0.385245
Si Si6 0.500000 0.637168 0.250000
Si Si7 0.687824 0.478725 0.509193
O O1 0.179833 0.270275 0.522843
O O2 0.075710 0.254346 0.886410
O O3 0.943326 0.194104 0.011243
O O4 0.963288 0.356890 0.985788
O O5 0.671457 0.402005 0.228016
O O6 0.601726 0.304419 0.495808
O O7 0.500000 0.636824 0.750000
O O8 0.652878 0.545386 0.345959
O O9 0.382802 0.568846 0.847162
O O10 0.836718 0.511963 0.674664
O O11 0.000000 0.591741 0.250000
O O12 0.105003 0.505067 0.178189
O O13 0.793198 0.046939 0.425560
O O14 0.409805 0.582958 0.356873
#
# Coordination Sequence:
#
# PCOD8139917 Si02
#       7
#     8   8   8   8   8   4   8
#     4  10  22  39  64  89 126 167 216 259 319 386
#     4  10  20  40  63  91 124 172 213 257 326 382
#     4  12  21  37  65  93 119 161 219 266 309 376
#     4  11  24  43  64  93 133 173 213 261 332 390
#     4  11  22  41  66  95 125 170 213 268 317 393
#     4  12  22  38  68  96 130 174 220 266 318 390
#     4  12  22  38  66  96 125 166 220 265 317 384
#
# _framework density 21.989284000000001
#
# number of rings (size 3 to 8) (size 9 to 14) (size 15 to 20)
#    0.000    0.923    3.846    5.077    0.000    0.000 
#    0.000    4.615    1.692    0.000    0.000    0.000 
#    0.000    0.000    0.000    0.000    0.000    0.000 
#
# Total GULP energy -322357.646335 kJ/mol
# GULP energy per Si atom -12398.371013 kJ/mol
# Density = 2.193924 g / cm^3
# Si number density = 21.989284 Si / 1000 Ang^3
#
#
#
# Elastic Constant Matrix: (Units=GPa)
#
#
# Indices 1 2 3 4 5 6 
#
# 1 97.4027 13.2089 20.4845 0.0001 -2.3455 -0.0002
# 2 13.2089 70.9132 28.2990 0.0001 -8.5137 -0.0001
# 3 20.4845 28.2990 105.8703 0.0001 -3.9244 -0.0002
# 4 0.0001 0.0001 0.0001 20.0439 0.0000 6.0429
# 5 -2.3455 -8.5137 -3.9244 0.0000 39.3675 0.0001
# 6 -0.0002 -0.0001 -0.0002 6.0429 0.0001 26.7211
#
#
#
# Elastic Compliance Matrix: (Units=1/GPa)
#
#
# Indices 1 2 3 4 5 6 
#
# 1 0.010813 -0.001298 -0.001738 0.000000 0.000190 0.000000
# 2 -0.001298 0.016303 -0.003994 0.000000 0.003050 0.000000
# 3 -0.001738 -0.003994 0.010854 0.000000 0.000115 0.000000
# 4 0.000000 0.000000 0.000000 0.053541 0.000000 -0.012108
# 5 0.000190 0.003050 0.000115 0.000000 0.026084 0.000000
# 6 0.000000 0.000000 0.000000 -0.012108 0.000000 0.040162
#
#
# Mechanical properties :
#
#
# Convention : Reuss Voigt Hill
#
# Bulk Modulus (GPa) = 41.82224 44.24122 43.03173
# Shear Modulus (GPa) = 27.81085 31.37276 29.59181
#
# Velocity S-wave (km/s) = 3.56018 3.78131 3.67241
# Velocity P-wave (km/s) = 5.99671 6.26318 6.13140
#
# Compressibility (1/GPa) = 0.02391073
#
# Stress axis : x y z
#
# Youngs Moduli (GPa) = 92.48334 61.33679 92.13515
#
# Poissons Ratio (x) = 0.07959 0.16015
# Poissons Ratio (y) = 0.12000 0.36797
# Poissons Ratio (z) = 0.16076 0.24496
#
# Static dielectric constant tensor:
#      x y z
#    x 4.156050 0.000000 -0.021850 
#    y 0.000000 3.704070 0.000000 
#    z -0.021850 0.000000 4.021080 
# 
# 
# High freq. dielectric constant tensor:
#      x y z
#    x 1.875970 0.000000 -0.000210 
#    y 0.000000 1.836630 0.000000 
#    z -0.000210 0.000000 1.859680 
# 
# From -- ./inp_files/182840.got.cif
#   From: 2010.06.25/outbox.cif.g09.slc.cpg/sg15_92_cif.got.tgz:182840.got - 2010.06.28 07:06:18.
