data_PCOD8139758
_publ_section_title
;
Structure prediction by ZEFSAII (Michael W. Deem and Ramdas Pophale) SiO2 
 PCOD8139758
Probable space group: C 2/C
;
_chemical_formula_sum "Si O2"
_cell_formula_units_Z 40
_cell_length_a 12.339255
_cell_length_b 8.499002
_cell_length_c 17.316001
_cell_angle_alpha 90.000000
_cell_angle_beta 74.354345
_cell_angle_gamma 90.000000
_cell_volume 1748.667741
_symmetry_space_group_name_H-M "C 2/C"
_symmetry_group_IT_number 15
_symmetry_cell_setting 'monoclinic'
loop_
_space_group_symop_operation_xyz
x,y,z
-x,y,1/2-z
-x,-y,-z
x,-y,1/2+z
1/2+x,1/2+y,z
1/2-x,1/2+y,1/2-z
1/2-x,1/2-y,-z
1/2+x,1/2-y,1/2+z
loop_
_atom_site_type_symbol
_atom_site_label
_atom_site_fract_x
_atom_site_fract_y
_atom_site_fract_z
Si Si1 0.514413 0.968568 0.836104
Si Si2 0.713420 0.923001 0.383828
Si Si3 0.815615 0.405290 0.457878
Si Si4 0.448036 0.380584 0.395977
Si Si5 0.635326 0.412759 0.914532
O O1 0.500000 0.007608 0.750000
O O2 0.474977 0.792971 0.862112
O O3 0.646864 0.974202 0.833318
O O4 0.442471 0.103256 0.897866
O O5 0.848421 0.947455 0.359841
O O6 0.683074 0.744771 0.368310
O O7 0.669389 0.969755 0.476770
O O8 0.750000 0.250000 0.500000
O O9 0.740128 0.470584 0.403219
O O10 0.416931 0.373564 0.492020
O O11 0.550189 0.504384 0.370600
#
# Coordination Sequence:
#
# PCOD8139758 Si02
#       5
#     8   8   8   8   8
#     4  12  26  45  63  97 145 180 223 286 352 404
#     4  11  22  42  69  97 134 169 232 279 320 415
#     4  11  22  41  72 102 129 181 232 282 337 403
#     4  10  21  42  65 100 131 171 215 284 336 399
#     4  10  20  39  72 102 127 162 232 281 329 393
#
# _framework density 22.874558
#
# number of rings (size 3 to 8) (size 9 to 14) (size 15 to 20)
#    0.000    1.200    4.000    3.000    8.400    0.000 
#    7.200    1.000    0.000    0.000    0.000    0.000 
#    0.000    0.000    0.000    0.000    0.000    0.000 
#
# Total GULP energy -247827.118494 kJ/mol
# GULP energy per Si atom -12391.355925 kJ/mol
# Density = 2.282249 g / cm^3
# Si number density = 22.874558 Si / 1000 Ang^3
#
#
#
# Elastic Constant Matrix: (Units=GPa)
#
#
# Indices 1 2 3 4 5 6 
#
# 1 171.6122 50.1244 51.2093 0.0000 55.5946 0.0000
# 2 50.1244 86.4607 26.4881 0.0000 2.9402 0.0000
# 3 51.2093 26.4881 54.3895 0.0000 22.4571 0.0000
# 4 0.0000 0.0000 0.0000 18.8989 0.0000 5.5376
# 5 55.5946 2.9402 22.4571 0.0000 27.0990 0.0000
# 6 0.0000 0.0000 0.0000 5.5376 0.0000 47.8515
#
#
#
# Elastic Compliance Matrix: (Units=1/GPa)
#
#
# Indices 1 2 3 4 5 6 
#
# 1 0.030104 -0.017483 0.007430 0.000000 -0.066019 0.000000
# 2 -0.017483 0.024445 -0.013922 0.000000 0.044753 0.000000
# 3 0.007430 -0.013922 0.036241 0.000000 -0.043765 0.000000
# 4 0.000000 0.000000 0.000000 0.054770 0.000000 -0.006338
# 5 -0.066019 0.044753 -0.043765 0.000000 0.203755 0.000000
# 6 0.000000 0.000000 0.000000 -0.006338 0.000000 0.021631
#
#
# Mechanical properties :
#
#
# Convention : Reuss Voigt Hill
#
# Bulk Modulus (GPa) = 23.34329 63.12289 43.23309
# Shear Modulus (GPa) = 11.54265 31.07927 21.31096
#
# Velocity S-wave (km/s) = 2.24878 3.69003 3.05560
# Velocity P-wave (km/s) = 4.11944 6.76833 5.60268
#
# Compressibility (1/GPa) = 0.04283886
#
# Stress axis : x y z
#
# Youngs Moduli (GPa) = 33.21847 40.90835 27.59321
#
# Poissons Ratio (x) = 0.71522 -0.20501
# Poissons Ratio (y) = 0.58077 0.38415
# Poissons Ratio (z) = -0.24681 0.56952
#
# Static dielectric constant tensor:
#      x y z
#    x 4.706730 0.000000 0.201360 
#    y 0.000000 4.119190 0.000000 
#    z 0.201360 0.000000 3.592480 
# 
# 
# High freq. dielectric constant tensor:
#      x y z
#    x 1.926450 0.000000 0.021320 
#    y 0.000000 1.901960 0.000000 
#    z 0.021320 0.000000 1.851400 
# 
# From -- ./inp_files/195188.got.cif
#   From: 2010.06.25/outbox.cif.g09.slc.cpg/sg15_98_cif.got.tgz:195188.got - 2010.06.28 07:06:18.
