data_PCOD8139108
_publ_section_title
;
Structure prediction by ZEFSAII (Michael W. Deem and Ramdas Pophale) SiO2 
 PCOD8139108
Probable space group: C 2/C
;
_chemical_formula_sum "Si O2"
_cell_formula_units_Z 56
_cell_length_a 15.551988
_cell_length_b 14.064604
_cell_length_c 11.357573
_cell_angle_alpha 90.000000
_cell_angle_beta 85.175800
_cell_angle_gamma 90.000000
_cell_volume 2475.470224
_symmetry_space_group_name_H-M "C 2/C"
_symmetry_group_IT_number 15
_symmetry_cell_setting 'monoclinic'
loop_
_space_group_symop_operation_xyz
x,y,z
-x,y,1/2-z
-x,-y,-z
x,-y,1/2+z
1/2+x,1/2+y,z
1/2-x,1/2+y,1/2-z
1/2-x,1/2-y,-z
1/2+x,1/2-y,1/2+z
loop_
_atom_site_type_symbol
_atom_site_label
_atom_site_fract_x
_atom_site_fract_y
_atom_site_fract_z
Si Si1 0.717496 0.619183 0.609221
Si Si2 0.155840 0.335887 0.953868
Si Si3 0.087876 0.042281 0.032702
Si Si4 0.216119 0.140004 0.870689
Si Si5 0.012512 0.556765 0.376458
Si Si6 0.623176 0.796440 0.534721
Si Si7 0.984380 0.229815 0.381095
O O1 0.655453 0.532113 0.580013
O O2 0.748068 0.604742 0.740340
O O3 0.665094 0.717975 0.614334
O O4 0.803708 0.630133 0.521206
O O5 0.207720 0.254689 0.877468
O O6 0.111982 0.407107 0.865558
O O7 0.219681 0.393842 0.032444
O O8 0.080139 0.298964 0.045706
O O9 0.125531 0.090381 0.910185
O O10 0.060207 0.125797 0.126204
O O11 0.000000 0.000000 0.000000
O O12 0.945526 0.644300 0.381951
O O13 0.000000 0.503290 0.250000
O O14 0.000000 0.500000 0.500000
O O15 0.576714 0.735488 0.436561
O O16 0.000000 0.270245 0.250000
#
# Coordination Sequence:
#
# PCOD8139108 Si02
#       7
#     8   8   8   8   8   8   8
#     4  11  23  40  67  93 134 172 218 271 330 396
#     4   9  21  43  64  94 125 169 225 262 330 400
#     4  11  24  39  57  98 131 167 221 268 336 399
#     4  10  22  41  66  91 130 173 213 271 328 400
#     4  11  25  44  69  98 132 172 219 276 332 395
#     4  10  23  43  63  98 127 171 226 267 324 402
#     4  10  20  38  65  90 131 172 221 276 332 397
#
# _framework density 22.621964999999999
#
# number of rings (size 3 to 8) (size 9 to 14) (size 15 to 20)
#    0.000    1.714    1.429    1.714    4.000    3.429 
#    0.000    1.429    0.000    0.000    0.000    0.000 
#    0.000    0.000    0.000    0.000    0.000    0.000 
#
# Total GULP energy -347007.471039 kJ/mol
# GULP energy per Si atom -12393.123966 kJ/mol
# Density = 2.257048 g / cm^3
# Si number density = 22.621965 Si / 1000 Ang^3
#
#
#
# Elastic Constant Matrix: (Units=GPa)
#
#
# Indices 1 2 3 4 5 6 
#
# 1 105.6583 25.2041 14.6616 0.0000 17.2142 0.0000
# 2 25.2041 69.5150 19.7082 0.0000 9.7271 0.0000
# 3 14.6616 19.7082 117.4572 0.0000 18.9124 0.0000
# 4 0.0000 0.0000 0.0000 18.4089 0.0000 6.6116
# 5 17.2142 9.7271 18.9124 0.0000 24.4607 0.0000
# 6 0.0000 0.0000 0.0000 6.6116 0.0000 47.0113
#
#
#
# Elastic Compliance Matrix: (Units=1/GPa)
#
#
# Indices 1 2 3 4 5 6 
#
# 1 0.011316 -0.003208 0.000231 0.000000 -0.006867 0.000000
# 2 -0.003208 0.016485 -0.001912 0.000000 -0.002820 0.000000
# 3 0.000231 -0.001912 0.009948 0.000000 -0.007094 0.000000
# 4 0.000000 0.000000 0.000000 0.057211 0.000000 -0.008046
# 5 -0.006867 -0.002820 -0.007094 0.000000 0.052321 0.000000
# 6 0.000000 0.000000 0.000000 -0.008046 0.000000 0.022403
#
#
# Mechanical properties :
#
#
# Convention : Reuss Voigt Hill
#
# Bulk Modulus (GPa) = 35.74807 45.75312 40.75059
# Shear Modulus (GPa) = 26.48513 33.51327 29.99920
#
# Velocity S-wave (km/s) = 3.42536 3.85313 3.64553
# Velocity P-wave (km/s) = 5.61078 6.32965 5.98103
#
# Compressibility (1/GPa) = 0.02797354
#
# Stress axis : x y z
#
# Youngs Moduli (GPa) = 88.36758 60.66141 100.52409
#
# Poissons Ratio (x) = 0.19458 -0.02326
# Poissons Ratio (y) = 0.28345 0.19216
# Poissons Ratio (z) = -0.02045 0.11596
#
# Static dielectric constant tensor:
#      x y z
#    x 6.771370 0.000000 0.063190 
#    y 0.000000 4.458300 0.000000 
#    z 0.063190 0.000000 3.868090 
# 
# 
# High freq. dielectric constant tensor:
#      x y z
#    x 1.908750 0.000000 0.006620 
#    y 0.000000 1.883460 0.000000 
#    z 0.006620 0.000000 1.878240 
# 
# From -- ./inp_files/97037.got.cif
#   From: 2010.06.25/outbox.cif.g09.slc.cpg/sg15_49_cif.got.tgz:97037.got - 2010.06.28 07:06:18.
