data_PCOD8139838
_publ_section_title
;
Structure prediction by ZEFSAII (Michael W. Deem and Ramdas Pophale) SiO2 
 PCOD8139838
Probable space group: C 2/C
;
_chemical_formula_sum "Si O2"
_cell_formula_units_Z 36
_cell_length_a 22.355936
_cell_length_b 10.514491
_cell_length_c 10.962901
_cell_angle_alpha 90.000000
_cell_angle_beta 39.171383
_cell_angle_gamma 90.000000
_cell_volume 1627.712580
_symmetry_space_group_name_H-M "C 2/C"
_symmetry_group_IT_number 15
_symmetry_cell_setting 'monoclinic'
loop_
_space_group_symop_operation_xyz
x,y,z
-x,y,1/2-z
-x,-y,-z
x,-y,1/2+z
1/2+x,1/2+y,z
1/2-x,1/2+y,1/2-z
1/2-x,1/2-y,-z
1/2+x,1/2-y,1/2+z
loop_
_atom_site_type_symbol
_atom_site_label
_atom_site_fract_x
_atom_site_fract_y
_atom_site_fract_z
Si Si1 0.000000 0.230938 0.250000
Si Si2 0.520192 0.852869 0.977723
Si Si3 0.327151 0.418408 0.916865
Si Si4 0.181058 0.262463 0.277082
Si Si5 0.603045 0.690543 0.645838
O O1 0.075373 0.143136 0.195798
O O2 0.948226 0.319089 0.433903
O O3 0.596528 0.801287 0.758610
O O4 0.423757 0.782877 0.103428
O O5 0.500000 0.000000 0.000000
O O6 0.287284 0.362779 0.850865
O O7 0.348471 0.567476 0.869601
O O8 0.247686 0.384200 0.144300
O O9 0.178242 0.237281 0.425721
O O10 0.500000 0.659726 0.750000
#
# Coordination Sequence:
#
# PCOD8139838 Si02
#       5
#     4   8   8   8   8
#     4  10  22  36  64  88 116 164 200 254 302 368
#     4  10  23  40  61  88 122 163 204 246 313 370
#     4  10  20  40  61  91 123 156 207 252 309 358
#     4   9  22  39  59  91 126 156 196 267 299 354
#     4  10  21  38  67  89 118 164 205 251 301 370
#
# _framework density 22.116928000000001
#
# number of rings (size 3 to 8) (size 9 to 14) (size 15 to 20)
#    0.000    2.222    1.111    0.000    7.778    4.444 
#    8.000    2.222    0.000    0.000    0.000    0.000 
#    0.000    0.000    0.000    0.000    0.000    0.000 
#
# Total GULP energy -223094.796728 kJ/mol
# GULP energy per Si atom -12394.155374 kJ/mol
# Density = 2.206659 g / cm^3
# Si number density = 22.116928 Si / 1000 Ang^3
#
#
#
# Elastic Constant Matrix: (Units=GPa)
#
#
# Indices 1 2 3 4 5 6 
#
# 1 39.7880 21.8468 27.8309 0.0000 25.0309 0.0000
# 2 21.8468 154.1464 69.2484 0.0000 36.1724 0.0000
# 3 27.8309 69.2484 161.9171 0.0000 41.1220 0.0000
# 4 0.0000 0.0000 0.0000 32.7520 0.0000 -5.1744
# 5 25.0309 36.1724 41.1220 0.0000 36.1996 0.0000
# 6 0.0000 0.0000 0.0000 -5.1744 0.0000 20.8618
#
#
#
# Elastic Compliance Matrix: (Units=1/GPa)
#
#
# Indices 1 2 3 4 5 6 
#
# 1 0.044653 0.001213 -0.000062 0.000000 -0.032017 0.000000
# 2 0.001213 0.009032 -0.002201 0.000000 -0.007363 0.000000
# 3 -0.000062 -0.002201 0.009218 0.000000 -0.008229 0.000000
# 4 0.000000 0.000000 0.000000 0.031778 0.000000 0.007882
# 5 -0.032017 -0.007363 -0.008229 0.000000 0.066469 0.000000
# 6 0.000000 0.000000 0.000000 0.007882 0.000000 0.049890
#
#
# Mechanical properties :
#
#
# Convention : Reuss Voigt Hill
#
# Bulk Modulus (GPa) = 16.44694 65.96708 41.20701
# Shear Modulus (GPa) = 21.42162 33.75771 27.58967
#
# Velocity S-wave (km/s) = 3.11555 3.91106 3.53575
# Velocity P-wave (km/s) = 4.51605 7.09130 5.94480
#
# Compressibility (1/GPa) = 0.06080159
#
# Stress axis : x y z
#
# Youngs Moduli (GPa) = 22.39478 110.71388 108.48351
#
# Poissons Ratio (x) = -0.13426 0.00677
# Poissons Ratio (y) = -0.02716 0.23880
# Poissons Ratio (z) = 0.00140 0.24371
#
# Static dielectric constant tensor:
#      x y z
#    x 3.461830 0.000000 0.540160 
#    y 0.000000 4.690510 0.000000 
#    z 0.540160 0.000000 4.551640 
# 
# 
# High freq. dielectric constant tensor:
#      x y z
#    x 1.851490 0.000000 0.010720 
#    y 0.000000 1.857510 0.000000 
#    z 0.010720 0.000000 1.883560 
# 
# From -- ./inp_files/65294.got.cif
#   From: 2010.06.25/outbox.cif.g09.slc.cpg/sg15_33_cif.got.tgz:65294.got - 2010.06.28 07:06:18.
