data_PCOD8139763
_publ_section_title
;
Structure prediction by ZEFSAII (Michael W. Deem and Ramdas Pophale) SiO2 
 PCOD8139763
Probable space group: C 2/C
;
_chemical_formula_sum "Si O2"
_cell_formula_units_Z 40
_cell_length_a 7.919653
_cell_length_b 25.952763
_cell_length_c 10.479388
_cell_angle_alpha 90.000000
_cell_angle_beta 122.777506
_cell_angle_gamma 90.000000
_cell_volume 1810.954918
_symmetry_space_group_name_H-M "C 2/C"
_symmetry_group_IT_number 15
_symmetry_cell_setting 'monoclinic'
loop_
_space_group_symop_operation_xyz
x,y,z
-x,y,1/2-z
-x,-y,-z
x,-y,1/2+z
1/2+x,1/2+y,z
1/2-x,1/2+y,1/2-z
1/2-x,1/2-y,-z
1/2+x,1/2-y,1/2+z
loop_
_atom_site_type_symbol
_atom_site_label
_atom_site_fract_x
_atom_site_fract_y
_atom_site_fract_z
Si Si1 0.274334 0.483251 0.937265
Si Si2 0.000000 0.429662 0.250000
Si Si3 0.668166 0.317456 0.536242
Si Si4 0.000000 0.240270 0.750000
Si Si5 0.309788 0.597157 0.251713
Si Si6 0.608549 0.896219 0.038926
O O1 0.209107 0.449114 0.789706
O O2 0.145667 0.535044 0.895985
O O3 0.500000 0.500000 0.000000
O O4 0.227396 0.448051 0.042107
O O5 0.125290 0.395639 0.200126
O O6 0.799115 0.274300 0.661088
O O7 0.487072 0.292555 0.378345
O O8 0.604033 0.357851 0.619591
O O9 0.793052 0.345603 0.476967
O O10 0.500000 0.576965 0.250000
O O11 0.126135 0.612842 0.088151
#
# Coordination Sequence:
#
# PCOD8139763 Si02
#       6
#     8   4   8   4   8   8
#     4  11  23  38  61  88 122 172 218 259 309 367
#     4  12  24  37  62  88 130 170 222 261 294 386
#     4  10  21  42  68  93 126 163 209 260 329 384
#     4  10  20  39  76  92 114 166 214 257 320 412
#     4  11  22  40  63  88 132 170 204 263 327 370
#     4  11  23  42  59  90 133 165 212 271 318 374
#
# _framework density 22.087796000000001
#
# number of rings (size 3 to 8) (size 9 to 14) (size 15 to 20)
#    0.000    1.200    4.000    3.000    2.800    4.800 
#    0.000    1.000    8.800    0.000    0.000    0.000 
#    0.000    0.000    0.000    0.000    0.000    0.000 
#
# Total GULP energy -247829.327563 kJ/mol
# GULP energy per Si atom -12391.466378 kJ/mol
# Density = 2.203752 g / cm^3
# Si number density = 22.087796 Si / 1000 Ang^3
#
#
#
# Elastic Constant Matrix: (Units=GPa)
#
#
# Indices 1 2 3 4 5 6 
#
# 1 110.3569 19.7388 22.1555 0.0000 -18.6702 0.0000
# 2 19.7388 70.7134 29.5557 0.0000 -9.4280 0.0000
# 3 22.1555 29.5557 89.5358 0.0000 -11.2898 0.0000
# 4 0.0000 0.0000 0.0000 24.7882 0.0000 5.0503
# 5 -18.6702 -9.4280 -11.2898 0.0000 41.1602 0.0000
# 6 0.0000 0.0000 0.0000 5.0503 0.0000 13.9585
#
#
#
# Elastic Compliance Matrix: (Units=1/GPa)
#
#
# Indices 1 2 3 4 5 6 
#
# 1 0.010329 -0.001743 -0.001492 0.000000 0.003877 0.000000
# 2 -0.001743 0.016922 -0.004936 0.000000 0.001732 0.000000
# 3 -0.001492 -0.004936 0.013403 0.000000 0.001869 0.000000
# 4 0.000000 0.000000 0.000000 0.043552 0.000000 -0.015758
# 5 0.003877 0.001732 0.001869 0.000000 0.026963 0.000000
# 6 0.000000 0.000000 0.000000 -0.015758 0.000000 0.077342
#
#
# Mechanical properties :
#
#
# Convention : Reuss Voigt Hill
#
# Bulk Modulus (GPa) = 41.13190 45.94513 43.53851
# Shear Modulus (GPa) = 23.47895 29.25846 26.36870
#
# Velocity S-wave (km/s) = 3.26388 3.64351 3.45891
# Velocity P-wave (km/s) = 5.73291 6.20859 5.97549
#
# Compressibility (1/GPa) = 0.02431203
#
# Stress axis : x y z
#
# Youngs Moduli (GPa) = 96.81902 59.09405 74.61019
#
# Poissons Ratio (x) = 0.10299 0.11129
# Poissons Ratio (y) = 0.16873 0.36831
# Poissons Ratio (z) = 0.14442 0.29171
#
# Static dielectric constant tensor:
#      x y z
#    x 3.836440 0.000000 -0.166440 
#    y 0.000000 4.094980 0.000000 
#    z -0.166440 0.000000 4.116770 
# 
# 
# High freq. dielectric constant tensor:
#      x y z
#    x 1.852180 0.000000 -0.006650 
#    y 0.000000 1.864290 0.000000 
#    z -0.006650 0.000000 1.873770 
# 
# From -- ./inp_files/25839.got.cif
#   From: 2010.06.25/outbox.cif.g09.slc.cpg/sg15_13_cif.got.tgz:25839.got - 2010.06.28 07:06:18.
