data_PCOD8139155
_publ_section_title
;
Structure prediction by ZEFSAII (Michael W. Deem and Ramdas Pophale) SiO2 
 PCOD8139155
Probable space group: C 2/C
;
_chemical_formula_sum "Si O2"
_cell_formula_units_Z 64
_cell_length_a 18.257232
_cell_length_b 11.700505
_cell_length_c 20.123670
_cell_angle_alpha 90.000000
_cell_angle_beta 132.608914
_cell_angle_gamma 90.000000
_cell_volume 3163.877691
_symmetry_space_group_name_H-M "C 2/C"
_symmetry_group_IT_number 15
_symmetry_cell_setting 'monoclinic'
loop_
_space_group_symop_operation_xyz
x,y,z
-x,y,1/2-z
-x,-y,-z
x,-y,1/2+z
1/2+x,1/2+y,z
1/2-x,1/2+y,1/2-z
1/2-x,1/2-y,-z
1/2+x,1/2-y,1/2+z
loop_
_atom_site_type_symbol
_atom_site_label
_atom_site_fract_x
_atom_site_fract_y
_atom_site_fract_z
Si Si1 0.349828 0.187404 0.258177
Si Si2 0.241101 0.608042 0.618775
Si Si3 0.429353 0.827678 0.576505
Si Si4 0.326292 0.237677 0.606151
Si Si5 0.490183 0.589246 0.171379
Si Si6 0.156843 0.472648 0.863840
Si Si7 0.287524 0.619831 0.208965
Si Si8 0.654975 0.411604 0.450699
O O1 0.313904 0.293602 0.191320
O O2 0.454511 0.204109 0.362101
O O3 0.371358 0.077207 0.225411
O O4 0.263945 0.174368 0.259235
O O5 0.128005 0.646355 0.528863
O O6 0.236661 0.504363 0.668201
O O7 0.291043 0.552853 0.584239
O O8 0.415741 0.928253 0.622134
O O9 0.376318 0.718432 0.575619
O O10 0.250000 0.250000 0.500000
O O11 0.429672 0.293432 0.645436
O O12 0.275203 0.300627 0.637044
O O13 0.350033 0.108787 0.641487
O O14 0.500000 0.529935 0.250000
O O15 0.595563 0.612273 0.201923
O O16 0.435164 0.498368 0.090556
O O17 0.269193 0.428623 0.942603
#
# Coordination Sequence:
#
# PCOD8139155 Si02
#       8
#     8   8   8   8   8   8   8   8
#     4  12  26  41  60  96 134 164 208 259 319 380
#     4  11  21  44  65  89 126 162 213 260 310 378
#     4  11  23  39  68  94 122 171 210 258 317 367
#     4  11  21  42  67  93 121 163 218 266 313 374
#     4  10  20  38  66  90 117 165 211 257 315 368
#     4  11  22  39  65  96 128 158 208 269 310 373
#     4  11  26  42  61  91 129 171 207 256 317 379
#     4  11  18  40  69  94 114 156 219 264 305 358
#
# _framework density 20.228342999999999
#
# number of rings (size 3 to 8) (size 9 to 14) (size 15 to 20)
#    0.000    1.000    6.250    2.625    1.750    3.500 
#    2.250    0.625    0.000    0.000    0.000    0.000 
#    0.000    0.000    0.000    0.000    0.000    0.000 
#
# Total GULP energy -396740.955229 kJ/mol
# GULP energy per Si atom -12398.154851 kJ/mol
# Density = 2.018230 g / cm^3
# Si number density = 20.228343 Si / 1000 Ang^3
#
#
#
# Elastic Constant Matrix: (Units=GPa)
#
#
# Indices 1 2 3 4 5 6 
#
# 1 81.7003 15.7667 43.2790 0.0000 17.5461 0.0000
# 2 15.7667 121.2682 31.6958 0.0000 -0.9950 0.0000
# 3 43.2790 31.6958 114.3713 0.0000 28.0818 0.0000
# 4 0.0000 0.0000 0.0000 31.6003 0.0000 5.4747
# 5 17.5461 -0.9950 28.0818 0.0000 28.1102 0.0000
# 6 0.0000 0.0000 0.0000 5.4747 0.0000 11.5560
#
#
#
# Elastic Compliance Matrix: (Units=1/GPa)
#
#
# Indices 1 2 3 4 5 6 
#
# 1 0.015959 -0.000973 -0.004392 0.000000 -0.005608 0.000000
# 2 -0.000973 0.009246 -0.003211 0.000000 0.004143 0.000000
# 3 -0.004392 -0.003211 0.014112 0.000000 -0.011469 0.000000
# 4 0.000000 0.000000 0.000000 0.034475 0.000000 -0.016332
# 5 -0.005608 0.004143 -0.011469 0.000000 0.050679 0.000000
# 6 0.000000 0.000000 0.000000 -0.016332 0.000000 0.094272
#
#
# Mechanical properties :
#
#
# Convention : Reuss Voigt Hill
#
# Bulk Modulus (GPa) = 45.12004 55.42476 50.27240
# Shear Modulus (GPa) = 20.55215 29.35987 24.95601
#
# Velocity S-wave (km/s) = 3.19095 3.81389 3.51624
# Velocity P-wave (km/s) = 5.99416 6.84495 6.43363
#
# Compressibility (1/GPa) = 0.02216310
#
# Stress axis : x y z
#
# Youngs Moduli (GPa) = 62.66166 108.15466 70.86343
#
# Poissons Ratio (x) = 0.10522 0.31126
# Poissons Ratio (y) = 0.06096 0.22757
# Poissons Ratio (z) = 0.27524 0.34733
#
# Static dielectric constant tensor:
#      x y z
#    x 3.294420 0.000000 0.316640 
#    y 0.000000 3.714740 0.000000 
#    z 0.316640 0.000000 4.333460 
# 
# 
# High freq. dielectric constant tensor:
#      x y z
#    x 1.753950 0.000000 0.020320 
#    y 0.000000 1.799020 0.000000 
#    z 0.020320 0.000000 1.803530 
# 
# From -- ./inp_files/248650.got.cif
#   From: 2010.06.25/outbox.cif.g09.slc.cpg/sg15_125_cif.got.tgz:248650.got - 2010.06.28 07:06:18.
