data_PCOD8139378
_publ_section_title
;
Structure prediction by ZEFSAII (Michael W. Deem and Ramdas Pophale) SiO2 
 PCOD8139378
Probable space group: C 2/C
;
_chemical_formula_sum "Si O2"
_cell_formula_units_Z 52
_cell_length_a 17.858992
_cell_length_b 14.070339
_cell_length_c 10.693077
_cell_angle_alpha 90.000000
_cell_angle_beta 80.947018
_cell_angle_gamma 90.000000
_cell_volume 2653.507552
_symmetry_space_group_name_H-M "C 2/C"
_symmetry_group_IT_number 15
_symmetry_cell_setting 'monoclinic'
loop_
_space_group_symop_operation_xyz
x,y,z
-x,y,1/2-z
-x,-y,-z
x,-y,1/2+z
1/2+x,1/2+y,z
1/2-x,1/2+y,1/2-z
1/2-x,1/2-y,-z
1/2+x,1/2-y,1/2+z
loop_
_atom_site_type_symbol
_atom_site_label
_atom_site_fract_x
_atom_site_fract_y
_atom_site_fract_z
Si Si1 0.519921 0.799081 0.011872
Si Si2 0.151934 0.767068 0.626134
Si Si3 0.771651 0.613772 0.440081
Si Si4 0.886045 0.590625 0.200404
Si Si5 0.500000 0.062169 0.750000
Si Si6 0.770560 0.592432 0.018909
Si Si7 0.356862 0.753882 0.086678
O O1 0.580507 0.723682 0.050857
O O2 0.510514 0.880340 0.119509
O O3 0.439670 0.750730 0.000233
O O4 0.549039 0.839944 0.871459
O O5 0.203771 0.677058 0.578001
O O6 0.196704 0.867068 0.610369
O O7 0.124055 0.744723 0.772094
O O8 0.830815 0.641892 0.314551
O O9 0.752265 0.502055 0.445601
O O10 0.690425 0.661716 0.439521
O O11 0.809197 0.652625 0.558474
O O12 0.835284 0.559263 0.096882
O O13 0.924210 0.500517 0.256528
#
# Coordination Sequence:
#
# PCOD8139378 Si02
#       7
#     8   8   8   8   4   8   8
#     4  11  22  36  60  84 122 157 196 246 297 357
#     4  10  20  39  61  85 117 157 202 244 300 344
#     4  11  24  37  61  87 123 157 198 249 299 350
#     4  11  21  36  55  89 121 150 196 242 302 367
#     4  12  20  32  56  90 118 156 184 248 310 350
#     4  10  22  37  60  88 115 157 202 249 289 358
#     4  11  22  40  57  89 121 159 197 248 300 354
#
# _framework density 19.596703999999999
#
# number of rings (size 3 to 8) (size 9 to 14) (size 15 to 20)
#    0.000    1.231    3.077    4.154    2.154    0.000 
#    0.000    0.769    0.000    0.000    0.000    0.000 
#    0.000    0.000    0.000    0.000    0.000    0.000 
#
# Total GULP energy -322386.920217 kJ/mol
# GULP energy per Si atom -12399.496931 kJ/mol
# Density = 1.955210 g / cm^3
# Si number density = 19.596704 Si / 1000 Ang^3
#
#
#
# Elastic Constant Matrix: (Units=GPa)
#
#
# Indices 1 2 3 4 5 6 
#
# 1 123.6725 56.0301 26.7530 0.0000 -19.9261 0.0000
# 2 56.0301 95.4491 30.3682 0.0000 -11.1747 0.0000
# 3 26.7530 30.3682 80.4245 0.0000 -16.7255 0.0000
# 4 0.0000 0.0000 0.0000 16.0579 0.0000 -0.5698
# 5 -19.9261 -11.1747 -16.7255 0.0000 27.1697 0.0000
# 6 0.0000 0.0000 0.0000 -0.5698 0.0000 21.0883
#
#
#
# Elastic Compliance Matrix: (Units=1/GPa)
#
#
# Indices 1 2 3 4 5 6 
#
# 1 0.011933 -0.006181 -0.000395 0.000000 0.005966 0.000000
# 2 -0.006181 0.015252 -0.003832 0.000000 -0.000619 0.000000
# 3 -0.000395 -0.003832 0.015625 0.000000 0.007753 0.000000
# 4 0.000000 0.000000 0.000000 0.062334 0.000000 0.001684
# 5 0.005966 -0.000619 0.007753 0.000000 0.045700 0.000000
# 6 0.000000 0.000000 0.000000 0.001684 0.000000 0.047465
#
#
# Mechanical properties :
#
#
# Convention : Reuss Voigt Hill
#
# Bulk Modulus (GPa) = 45.46567 58.42766 51.94666
# Shear Modulus (GPa) = 22.07956 25.28948 23.68452
#
# Velocity S-wave (km/s) = 3.36027 3.59625 3.48026
# Velocity P-wave (km/s) = 6.18921 6.86467 6.53567
#
# Compressibility (1/GPa) = 0.02199462
#
# Stress axis : x y z
#
# Youngs Moduli (GPa) = 83.80349 65.56717 64.00185
#
# Poissons Ratio (x) = 0.40524 0.02527
# Poissons Ratio (y) = 0.51795 0.24524
# Poissons Ratio (z) = 0.03309 0.25123
#
# Static dielectric constant tensor:
#      x y z
#    x 3.845990 0.000000 -0.118580 
#    y 0.000000 3.308990 0.000000 
#    z -0.118580 0.000000 3.620430 
# 
# 
# High freq. dielectric constant tensor:
#      x y z
#    x 1.773990 0.000000 -0.000430 
#    y 0.000000 1.729520 0.000000 
#    z -0.000430 0.000000 1.768820 
# 
# From -- ./inp_files/104885.got.cif
#   From: 2010.06.25/outbox.cif.g09.slc.cpg/sg15_53_cif.got.tgz:104885.got - 2010.06.28 07:06:18.
