data_PCOD8139524
_publ_section_title
;
Structure prediction by ZEFSAII (Michael W. Deem and Ramdas Pophale) SiO2 
 PCOD8139524
Probable space group: C 2/C
;
_chemical_formula_sum "Si O2"
_cell_formula_units_Z 64
_cell_length_a 12.508151
_cell_length_b 16.583901
_cell_length_c 14.410954
_cell_angle_alpha 90.000000
_cell_angle_beta 95.019715
_cell_angle_gamma 90.000000
_cell_volume 2977.855843
_symmetry_space_group_name_H-M "C 2/C"
_symmetry_group_IT_number 15
_symmetry_cell_setting 'monoclinic'
loop_
_space_group_symop_operation_xyz
x,y,z
-x,y,1/2-z
-x,-y,-z
x,-y,1/2+z
1/2+x,1/2+y,z
1/2-x,1/2+y,1/2-z
1/2-x,1/2-y,-z
1/2+x,1/2-y,1/2+z
loop_
_atom_site_type_symbol
_atom_site_label
_atom_site_fract_x
_atom_site_fract_y
_atom_site_fract_z
Si Si1 0.734323 0.960920 0.093514
Si Si2 0.387408 0.354742 0.191205
Si Si3 0.012354 0.819658 0.490232
Si Si4 0.408349 0.150653 0.033283
Si Si5 0.407024 0.598384 0.318405
Si Si6 0.694694 0.810907 0.785527
Si Si7 0.612870 0.533063 0.545241
Si Si8 0.938703 0.566447 0.329170
O O1 0.818364 0.936125 0.180658
O O2 0.664059 0.021226 0.145540
O O3 0.662966 0.884602 0.055569
O O4 0.788781 0.008753 0.012884
O O5 0.500000 0.368923 0.250000
O O6 0.400956 0.337668 0.082494
O O7 0.316752 0.284753 0.235126
O O8 0.901547 0.868426 0.452480
O O9 0.010226 0.721947 0.494844
O O10 0.050104 0.850054 0.592428
O O11 0.325320 0.176783 0.106652
O O12 0.483362 0.079547 0.077817
O O13 0.500000 0.587584 0.250000
O O14 0.308770 0.649513 0.266642
O O15 0.369474 0.509350 0.352684
O O16 0.599309 0.848556 0.717423
O O17 0.500000 0.500000 0.500000
O O18 0.000000 0.519160 0.250000
#
# Coordination Sequence:
#
# PCOD8139524 Si02
#       8
#     8   8   8   8   8   8   8   8
#     4  12  22  41  70  92 130 174 229 267 340 403
#     4  11  22  39  67  98 127 168 220 275 326 403
#     4  10  21  40  63  92 134 162 220 271 323 392
#     4  10  20  43  69  87 120 181 225 274 319 404
#     4  11  22  36  63  98 138 173 212 275 338 401
#     4  10  20  39  63  93 124 169 224 265 333 394
#     4  10  21  39  56 100 132 162 215 275 328 401
#     4  10  24  42  63  94 126 171 228 283 322 391
#
# _framework density 21.491973999999999
#
# number of rings (size 3 to 8) (size 9 to 14) (size 15 to 20)
#    0.000    1.500    3.750    3.000    3.500    3.500 
#    0.000    3.125    2.750    0.000    0.000    0.000 
#    0.000    0.000    0.000    0.000    0.000    0.000 
#
# Total GULP energy -396488.706265 kJ/mol
# GULP energy per Si atom -12390.272071 kJ/mol
# Density = 2.144306 g / cm^3
# Si number density = 21.491974 Si / 1000 Ang^3
#
#
#
# Elastic Constant Matrix: (Units=GPa)
#
#
# Indices 1 2 3 4 5 6 
#
# 1 126.6693 59.6649 45.7405 0.0000 -10.8908 0.0000
# 2 59.6649 98.1682 27.3282 0.0000 -10.9514 0.0000
# 3 45.7405 27.3282 83.9376 0.0000 -5.4437 0.0000
# 4 0.0000 0.0000 0.0000 12.9683 0.0000 -1.0885
# 5 -10.8908 -10.9514 -5.4437 0.0000 40.7083 0.0000
# 6 0.0000 0.0000 0.0000 -1.0885 0.0000 38.1885
#
#
#
# Elastic Compliance Matrix: (Units=1/GPa)
#
#
# Indices 1 2 3 4 5 6 
#
# 1 0.012657 -0.006238 -0.004797 0.000000 0.001066 0.000000
# 2 -0.006238 0.014545 -0.001201 0.000000 0.002083 0.000000
# 3 -0.004797 -0.001201 0.014944 0.000000 0.000392 0.000000
# 4 0.000000 0.000000 0.000000 0.077296 0.000000 0.002203
# 5 0.001066 0.002083 0.000392 0.000000 0.025463 0.000000
# 6 0.000000 0.000000 0.000000 0.002203 0.000000 0.026249
#
#
# Mechanical properties :
#
#
# Convention : Reuss Voigt Hill
#
# Bulk Modulus (GPa) = 56.58198 63.80470 60.19334
# Shear Modulus (GPa) = 24.81178 30.10910 27.46044
#
# Velocity S-wave (km/s) = 3.40143 3.74698 3.57838
# Velocity P-wave (km/s) = 6.46610 6.96218 6.71872
#
# Compressibility (1/GPa) = 0.01767347
#
# Stress axis : x y z
#
# Youngs Moduli (GPa) = 79.00857 68.75302 66.91624
#
# Poissons Ratio (x) = 0.42890 0.32099
# Poissons Ratio (y) = 0.49288 0.08036
# Poissons Ratio (z) = 0.37900 0.08257
#
# Static dielectric constant tensor:
#      x y z
#    x 3.829800 0.000000 0.051720 
#    y 0.000000 4.300140 0.000000 
#    z 0.051720 0.000000 3.899420 
# 
# 
# High freq. dielectric constant tensor:
#      x y z
#    x 1.828700 0.000000 0.012670 
#    y 0.000000 1.837150 0.000000 
#    z 0.012670 0.000000 1.838980 
# 
# From -- ./inp_files/146084.got.cif
#   From: 2010.06.25/outbox.cif.g09.slc.cpg/sg15_74_cif.got.tgz:146084.got - 2010.06.28 07:06:18.
