data_PCOD8139193
_publ_section_title
;
Structure prediction by ZEFSAII (Michael W. Deem and Ramdas Pophale) SiO2 
 PCOD8139193
Probable space group: C 2/C
;
_chemical_formula_sum "Si O2"
_cell_formula_units_Z 64
_cell_length_a 19.569896
_cell_length_b 13.596896
_cell_length_c 18.227167
_cell_angle_alpha 90.000000
_cell_angle_beta 142.194412
_cell_angle_gamma 90.000000
_cell_volume 2973.012160
_symmetry_space_group_name_H-M "C 2/C"
_symmetry_group_IT_number 15
_symmetry_cell_setting 'monoclinic'
loop_
_space_group_symop_operation_xyz
x,y,z
-x,y,1/2-z
-x,-y,-z
x,-y,1/2+z
1/2+x,1/2+y,z
1/2-x,1/2+y,1/2-z
1/2-x,1/2-y,-z
1/2+x,1/2-y,1/2+z
loop_
_atom_site_type_symbol
_atom_site_label
_atom_site_fract_x
_atom_site_fract_y
_atom_site_fract_z
Si Si1 0.586174 0.600960 0.928766
Si Si2 0.347632 0.603246 0.677256
Si Si3 0.676184 0.214205 0.753495
Si Si4 0.017468 0.433756 0.442433
Si Si5 0.748358 0.278448 0.661156
Si Si6 0.239493 0.113486 0.399977
Si Si7 0.580089 0.077717 0.255766
Si Si8 0.268126 0.428946 0.445795
O O1 0.454736 0.618291 0.820292
O O2 0.631592 0.635702 0.888399
O O3 0.641577 0.662777 0.041166
O O4 0.612914 0.484178 0.960260
O O5 0.248919 0.671940 0.623153
O O6 0.315663 0.491080 0.658535
O O7 0.564148 0.161055 0.630355
O O8 0.741193 0.262578 0.741370
O O9 0.658518 0.304135 0.795444
O O10 0.753458 0.134519 0.860121
O O11 0.995349 0.506041 0.356435
O O12 0.000000 0.500000 0.500000
O O13 0.140197 0.387631 0.537812
O O14 0.864675 0.334914 0.744287
O O15 0.244196 0.136829 0.491256
O O16 0.500000 0.124345 0.250000
O O17 0.677135 0.015449 0.376507
#
# Coordination Sequence:
#
# PCOD8139193 Si02
#       8
#     8   8   8   8   8   8   8   8
#     4   9  21  40  62  90 123 164 208 263 324 378
#     4  10  22  39  62  92 126 161 213 261 320 387
#     4  11  25  40  60  95 128 166 215 262 324 396
#     4  11  23  41  65  93 133 170 215 269 332 384
#     4  11  23  38  60  94 132 169 211 264 325 385
#     4  11  22  41  65  92 123 169 217 264 318 383
#     4  10  20  38  66  97 124 169 224 271 316 384
#     4   9  20  42  65  90 126 166 216 268 321 381
#
# _framework density 21.526989
#
# number of rings (size 3 to 8) (size 9 to 14) (size 15 to 20)
#    0.000    1.750    1.250    2.250    1.750    6.000 
#    0.000    3.750    0.000    0.000    0.000    0.000 
#    0.000    0.000    0.000    0.000    0.000    0.000 
#
# Total GULP energy -396770.054444 kJ/mol
# GULP energy per Si atom -12399.064201 kJ/mol
# Density = 2.147799 g / cm^3
# Si number density = 21.526989 Si / 1000 Ang^3
#
#
#
# Elastic Constant Matrix: (Units=GPa)
#
#
# Indices 1 2 3 4 5 6 
#
# 1 104.9945 38.3016 48.0859 0.0000 -13.6485 0.0000
# 2 38.3016 100.3129 41.2020 0.0000 -7.7011 0.0000
# 3 48.0859 41.2020 82.0321 0.0000 -7.5267 0.0000
# 4 0.0000 0.0000 0.0000 30.2908 0.0000 -17.6482
# 5 -13.6485 -7.7011 -7.5267 0.0000 24.1794 0.0000
# 6 0.0000 0.0000 0.0000 -17.6482 0.0000 26.6295
#
#
#
# Elastic Compliance Matrix: (Units=1/GPa)
#
#
# Indices 1 2 3 4 5 6 
#
# 1 0.014052 -0.002244 -0.006638 0.000000 0.005151 0.000000
# 2 -0.002244 0.013022 -0.005107 0.000000 0.001291 0.000000
# 3 -0.006638 -0.005107 0.018687 0.000000 0.000444 0.000000
# 4 0.000000 0.000000 0.000000 0.053778 0.000000 0.035641
# 5 0.005151 0.001291 0.000444 0.000000 0.044815 0.000000
# 6 0.000000 0.000000 0.000000 0.035641 0.000000 0.061173
#
#
# Mechanical properties :
#
#
# Convention : Reuss Voigt Hill
#
# Bulk Modulus (GPa) = 56.22723 60.27985 58.25354
# Shear Modulus (GPa) = 20.88274 26.86995 23.87635
#
# Velocity S-wave (km/s) = 3.11798 3.53682 3.33398
# Velocity P-wave (km/s) = 6.25608 6.68891 6.47611
#
# Compressibility (1/GPa) = 0.01778498
#
# Stress axis : x y z
#
# Youngs Moduli (GPa) = 71.16212 76.79179 53.51310
#
# Poissons Ratio (x) = 0.17230 0.35520
# Poissons Ratio (y) = 0.15967 0.27329
# Poissons Ratio (z) = 0.47235 0.39217
#
# Static dielectric constant tensor:
#      x y z
#    x 3.728650 0.000000 -0.058090 
#    y 0.000000 3.929560 0.000000 
#    z -0.058090 0.000000 4.039530 
# 
# 
# High freq. dielectric constant tensor:
#      x y z
#    x 1.829020 0.000000 -0.010560 
#    y 0.000000 1.851850 0.000000 
#    z -0.010560 0.000000 1.849920 
# 
# From -- ./inp_files/211424.got.cif
#   From: 2010.06.25/outbox.cif.g09.slc.cpg/sg15_106_cif.got.tgz:211424.got - 2010.06.28 07:06:18.
