data_PCOD8139113
_publ_section_title
;
Structure prediction by ZEFSAII (Michael W. Deem and Ramdas Pophale) SiO2 
 PCOD8139113
Probable space group: C 2/C
;
_chemical_formula_sum "Si O2"
_cell_formula_units_Z 56
_cell_length_a 25.941440
_cell_length_b 12.442058
_cell_length_c 13.345483
_cell_angle_alpha 90.000000
_cell_angle_beta 143.267063
_cell_angle_gamma 90.000000
_cell_volume 2576.227446
_symmetry_space_group_name_H-M "C 2/C"
_symmetry_group_IT_number 15
_symmetry_cell_setting 'monoclinic'
loop_
_space_group_symop_operation_xyz
x,y,z
-x,y,1/2-z
-x,-y,-z
x,-y,1/2+z
1/2+x,1/2+y,z
1/2-x,1/2+y,1/2-z
1/2-x,1/2-y,-z
1/2+x,1/2-y,1/2+z
loop_
_atom_site_type_symbol
_atom_site_label
_atom_site_fract_x
_atom_site_fract_y
_atom_site_fract_z
Si Si1 0.639883 0.425488 0.834775
Si Si2 0.317528 0.940808 0.024258
Si Si3 0.068932 0.405112 0.114404
Si Si4 0.099952 0.762291 0.933269
Si Si5 0.981663 0.188790 0.006189
Si Si6 0.920790 0.142224 0.691686
Si Si7 0.097933 0.639650 0.434661
O O1 0.654536 0.338792 0.945010
O O2 0.548722 0.407896 0.635304
O O3 0.643760 0.544057 0.890204
O O4 0.715694 0.416932 0.871259
O O5 0.353037 0.938453 0.192579
O O6 0.361154 0.857039 0.015107
O O7 0.334397 0.059273 0.009136
O O8 0.027342 0.301801 0.101972
O O9 0.107808 0.370651 0.068726
O O10 0.000000 0.500000 0.000000
O O11 0.000000 0.764784 0.750000
O O12 0.102380 0.810273 0.050960
O O13 0.953717 0.188190 0.848367
O O14 0.876576 0.240231 0.562119
O O15 0.000000 0.096853 0.750000
O O16 0.000000 0.611944 0.250000
#
# Coordination Sequence:
#
# PCOD8139113 Si02
#       7
#     8   8   8   8   8   8   8
#     4  11  25  40  63  96 129 170 206 269 325 377
#     4  12  23  42  64  94 138 159 209 276 327 375
#     4  12  21  38  69  96 124 166 218 264 318 382
#     4  10  20  38  65  91 118 161 216 261 305 375
#     4  11  21  40  69  94 118 169 220 258 315 383
#     4  11  22  44  67  87 129 167 222 259 307 402
#     4  11  22  40  65  96 120 171 216 261 320 376
#
# _framework density 21.737210000000001
#
# number of rings (size 3 to 8) (size 9 to 14) (size 15 to 20)
#    0.000    0.857    7.143    3.429    0.000    0.571 
#    5.143    0.000    0.000    0.000    0.000    0.000 
#    0.000    0.000    0.000    0.000    0.000    0.000 
#
# Total GULP energy -347235.377721 kJ/mol
# GULP energy per Si atom -12401.263490 kJ/mol
# Density = 2.168774 g / cm^3
# Si number density = 21.737210 Si / 1000 Ang^3
#
#
#
# Elastic Constant Matrix: (Units=GPa)
#
#
# Indices 1 2 3 4 5 6 
#
# 1 122.8532 32.3346 28.7592 0.0000 -4.3238 0.0000
# 2 32.3346 122.8960 15.3258 0.0000 10.5859 0.0000
# 3 28.7592 15.3258 38.0507 0.0000 -11.1949 0.0000
# 4 0.0000 0.0000 0.0000 10.2858 0.0000 -0.7321
# 5 -4.3238 10.5859 -11.1949 0.0000 40.0140 0.0000
# 6 0.0000 0.0000 0.0000 -0.7321 0.0000 45.7243
#
#
#
# Elastic Compliance Matrix: (Units=1/GPa)
#
#
# Indices 1 2 3 4 5 6 
#
# 1 0.010270 -0.001770 -0.007176 0.000000 -0.000429 0.000000
# 2 -0.001770 0.009353 -0.003502 0.000000 -0.003646 0.000000
# 3 -0.007176 -0.003502 0.036133 0.000000 0.010260 0.000000
# 4 0.000000 0.000000 0.000000 0.097333 0.000000 0.001558
# 5 -0.000429 -0.003646 0.010260 0.000000 0.028780 0.000000
# 6 0.000000 0.000000 0.000000 0.001558 0.000000 0.021895
#
#
# Mechanical properties :
#
#
# Convention : Reuss Voigt Hill
#
# Bulk Modulus (GPa) = 32.40304 48.51544 40.45924
# Shear Modulus (GPa) = 20.92506 33.03017 26.97762
#
# Velocity S-wave (km/s) = 3.10601 3.90233 3.52672
# Velocity P-wave (km/s) = 5.27277 6.53237 5.93607
#
# Compressibility (1/GPa) = 0.03086130
#
# Stress axis : x y z
#
# Youngs Moduli (GPa) = 97.36673 106.91227 27.67525
#
# Poissons Ratio (x) = 0.18927 0.19859
# Poissons Ratio (y) = 0.17237 0.09691
# Poissons Ratio (z) = 0.69869 0.37439
#
# Static dielectric constant tensor:
#      x y z
#    x 4.347530 0.000000 -0.283000 
#    y 0.000000 4.054780 0.000000 
#    z -0.283000 0.000000 3.499930 
# 
# 
# High freq. dielectric constant tensor:
#      x y z
#    x 1.871040 0.000000 -0.020110 
#    y 0.000000 1.866990 0.000000 
#    z -0.020110 0.000000 1.810360 
# 
# From -- ./inp_files/161418.got.cif
#   From: 2010.06.25/outbox.cif.g09.slc.cpg/sg15_81_cif.got.tgz:161418.got - 2010.06.28 07:06:18.
