data_PCOD8139807
_publ_section_title
;
Structure prediction by ZEFSAII (Michael W. Deem and Ramdas Pophale) SiO2 
 PCOD8139807
Probable space group: C 2/C
;
_chemical_formula_sum "Si O2"
_cell_formula_units_Z 60
_cell_length_a 30.391738
_cell_length_b 14.303126
_cell_length_c 21.445395
_cell_angle_alpha 90.000000
_cell_angle_beta 162.434292
_cell_angle_gamma 90.000000
_cell_volume 2813.447675
_symmetry_space_group_name_H-M "C 2/C"
_symmetry_group_IT_number 15
_symmetry_cell_setting 'monoclinic'
loop_
_space_group_symop_operation_xyz
x,y,z
-x,y,1/2-z
-x,-y,-z
x,-y,1/2+z
1/2+x,1/2+y,z
1/2-x,1/2+y,1/2-z
1/2-x,1/2-y,-z
1/2+x,1/2-y,1/2+z
loop_
_atom_site_type_symbol
_atom_site_label
_atom_site_fract_x
_atom_site_fract_y
_atom_site_fract_z
Si Si1 0.500000 0.302824 0.750000
Si Si2 0.748930 0.712791 0.898979
Si Si3 0.712813 0.893494 0.924325
Si Si4 0.620038 0.121557 0.537810
Si Si5 0.881526 0.025205 0.391855
Si Si6 0.579898 0.271928 0.583831
Si Si7 0.273535 0.705136 0.099266
Si Si8 0.586664 0.546361 0.269260
O O1 0.371429 0.231030 0.558849
O O2 0.479819 0.367287 0.782918
O O3 0.775818 0.815693 0.962625
O O4 0.865110 0.690263 0.001851
O O5 0.588613 0.706615 0.654454
O O6 0.766170 0.636034 0.975825
O O7 0.544403 0.919035 0.683683
O O8 0.815943 0.983047 0.053021
O O9 0.641213 0.184049 0.628131
O O10 0.736632 0.038341 0.692058
O O11 0.833480 0.133422 0.319677
O O12 0.000000 0.000000 0.500000
O O13 0.956881 0.010618 0.561188
O O14 0.599150 0.252307 0.684073
O O15 0.304403 0.594051 0.134694
O O16 0.250000 0.750000 0.000000
#
# Coordination Sequence:
#
# PCOD8139807 Si02
#       8
#     4   8   8   8   8   8   8   8
#     4  10  24  40  62  88 122 174 210 258 334 368
#     4  10  20  40  60  90 133 166 203 258 321 384
#     4  10  22  38  61  97 130 166 209 258 320 382
#     4  11  23  38  64  98 134 168 213 269 320 381
#     4  12  21  39  67  94 123 171 217 261 316 385
#     4  11  22  39  64  93 126 169 216 260 325 382
#     4  10  22  40  61  87 122 164 215 269 309 370
#     4  11  21  41  64  91 129 163 218 265 310 394
#
# _framework density 21.326148
#
# number of rings (size 3 to 8) (size 9 to 14) (size 15 to 20)
#    0.000    1.333    4.000    1.200    0.000    3.200 
#    0.000    2.667    0.000    8.800    0.000    0.000 
#    0.000    0.000    0.000    0.000    0.000    0.000 
#
# Total GULP energy -371858.494122 kJ/mol
# GULP energy per Si atom -12395.283137 kJ/mol
# Density = 2.127761 g / cm^3
# Si number density = 21.326148 Si / 1000 Ang^3
#
#
#
# Elastic Constant Matrix: (Units=GPa)
#
#
# Indices 1 2 3 4 5 6 
#
# 1 63.8394 22.0751 29.7724 0.0002 -19.5467 0.0001
# 2 22.0751 68.4410 43.2952 0.0002 -3.1400 0.0002
# 3 29.7724 43.2952 110.8863 0.0005 -16.7972 0.0005
# 4 0.0002 0.0002 0.0005 40.0778 0.0006 1.9344
# 5 -19.5467 -3.1400 -16.7972 0.0006 38.3882 0.0004
# 6 0.0001 0.0002 0.0005 1.9344 0.0004 29.7752
#
#
#
# Elastic Compliance Matrix: (Units=1/GPa)
#
#
# Indices 1 2 3 4 5 6 
#
# 1 0.021377 -0.004961 -0.002372 0.000000 0.009441 0.000000
# 2 -0.004961 0.020679 -0.007356 0.000000 -0.004053 0.000000
# 3 -0.002372 -0.007356 0.013123 0.000000 0.003932 0.000000
# 4 0.000000 0.000000 0.000000 0.025030 -0.000001 -0.001626
# 5 0.009441 -0.004053 0.003932 -0.000001 0.032246 -0.000001
# 6 0.000000 0.000000 0.000000 -0.001626 -0.000001 0.033691
#
#
# Mechanical properties :
#
#
# Convention : Reuss Voigt Hill
#
# Bulk Modulus (GPa) = 38.76001 48.16133 43.46067
# Shear Modulus (GPa) = 27.15568 31.51650 29.33609
#
# Velocity S-wave (km/s) = 3.57228 3.84843 3.71292
# Velocity P-wave (km/s) = 5.93542 6.50995 6.22931
#
# Compressibility (1/GPa) = 0.02579979
#
# Stress axis : x y z
#
# Youngs Moduli (GPa) = 46.77952 48.35935 76.20210
#
# Poissons Ratio (x) = 0.23991 0.18079
# Poissons Ratio (y) = 0.23207 0.56053
# Poissons Ratio (z) = 0.11098 0.35572
#
# Static dielectric constant tensor:
#      x y z
#    x 4.380570 0.000000 0.011680 
#    y 0.000000 3.981180 0.000000 
#    z 0.011680 0.000000 4.067910 
# 
# 
# High freq. dielectric constant tensor:
#      x y z
#    x 1.827760 0.000000 -0.015820 
#    y 0.000000 1.832260 0.000000 
#    z -0.015820 0.000000 1.845070 
# 
# From -- ./inp_files/259401.got.cif
#   From: 2010.06.25/outbox.cif.g09.slc.cpg/sg15_130_cif.got.tgz:259401.got - 2010.06.28 07:06:18.
