data_PCOD8139382
_publ_section_title
;
Structure prediction by ZEFSAII (Michael W. Deem and Ramdas Pophale) SiO2 
 PCOD8139382
Probable space group: C 2/C
;
_chemical_formula_sum "Si O2"
_cell_formula_units_Z 60
_cell_length_a 26.348314
_cell_length_b 12.115433
_cell_length_c 17.095709
_cell_angle_alpha 90.000000
_cell_angle_beta 147.820998
_cell_angle_gamma 90.000000
_cell_volume 2906.380193
_symmetry_space_group_name_H-M "C 2/C"
_symmetry_group_IT_number 15
_symmetry_cell_setting 'monoclinic'
loop_
_space_group_symop_operation_xyz
x,y,z
-x,y,1/2-z
-x,-y,-z
x,-y,1/2+z
1/2+x,1/2+y,z
1/2-x,1/2+y,1/2-z
1/2-x,1/2-y,-z
1/2+x,1/2-y,1/2+z
loop_
_atom_site_type_symbol
_atom_site_label
_atom_site_fract_x
_atom_site_fract_y
_atom_site_fract_z
Si Si1 0.410162 0.417131 0.386515
Si Si2 0.500000 0.614278 0.750000
Si Si3 0.148986 0.214176 0.833162
Si Si4 0.619464 0.840249 0.290241
Si Si5 0.079961 0.689988 0.022720
Si Si6 0.154368 0.012379 0.537253
Si Si7 0.352856 0.068215 0.254738
Si Si8 0.206177 0.247194 0.555696
O O1 0.500000 0.500000 0.500000
O O2 0.353430 0.393215 0.229908
O O3 0.443905 0.296562 0.456528
O O4 0.339339 0.464325 0.361254
O O5 0.577923 0.690624 0.811057
O O6 0.447573 0.539987 0.616454
O O7 0.112111 0.322749 0.742698
O O8 0.250000 0.250000 0.000000
O O9 0.679175 0.763930 0.306357
O O10 0.665131 0.826132 0.434697
O O11 0.620186 0.965199 0.262066
O O12 0.508718 0.811640 0.152045
O O13 0.090627 0.578450 0.088551
O O14 0.178830 0.699677 0.103065
O O15 0.162580 0.123852 0.496140
O O16 0.239600 0.930514 0.624368
#
# Coordination Sequence:
#
# PCOD8139382 Si02
#       8
#     8   4   8   8   8   8   8   8
#     4  10  21  38  62  96 124 162 219 265 321 389
#     4  12  22  38  70  90 128 174 220 268 336 388
#     4  11  23  43  62  94 132 172 212 278 330 398
#     4  10  20  39  61  86 122 163 199 254 319 376
#     4  10  21  37  61  85 124 160 202 254 315 380
#     4  10  21  38  64  95 122 164 216 274 327 380
#     4  10  22  42  58  86 132 161 210 259 319 394
#     4   9  21  37  59  94 120 150 211 265 305 373
#
# _framework density 20.644237
#
# number of rings (size 3 to 8) (size 9 to 14) (size 15 to 20)
#    0.000    1.867    2.667    0.800    3.733    1.067 
#    7.200    2.667    0.000    0.000    0.000    0.000 
#    0.000    0.000    0.000    0.000    0.000    0.000 
#
# Total GULP energy -371646.895455 kJ/mol
# GULP energy per Si atom -12388.229849 kJ/mol
# Density = 2.059725 g / cm^3
# Si number density = 20.644237 Si / 1000 Ang^3
#
#
#
# Elastic Constant Matrix: (Units=GPa)
#
#
# Indices 1 2 3 4 5 6 
#
# 1 115.6390 46.0975 32.8934 0.0000 -3.6395 0.0000
# 2 46.0975 81.4131 26.4304 0.0000 -10.5091 0.0000
# 3 32.8934 26.4304 89.8160 0.0000 -3.7793 0.0000
# 4 0.0000 0.0000 0.0000 33.2907 0.0000 -4.8162
# 5 -3.6395 -10.5091 -3.7793 0.0000 27.8478 0.0000
# 6 0.0000 0.0000 0.0000 -4.8162 0.0000 33.0109
#
#
#
# Elastic Compliance Matrix: (Units=1/GPa)
#
#
# Indices 1 2 3 4 5 6 
#
# 1 0.011714 -0.005929 -0.002590 0.000000 -0.001058 0.000000
# 2 -0.005929 0.017196 -0.002664 0.000000 0.005353 0.000000
# 3 -0.002590 -0.002664 0.012883 0.000000 0.000405 0.000000
# 4 0.000000 0.000000 0.000000 0.030686 0.000000 0.004477
# 5 -0.001058 0.005353 0.000405 0.000000 0.037846 0.000000
# 6 0.000000 0.000000 0.000000 0.004477 0.000000 0.030946
#
#
# Mechanical properties :
#
#
# Convention : Reuss Voigt Hill
#
# Bulk Modulus (GPa) = 51.47052 55.30120 53.38586
# Shear Modulus (GPa) = 29.39224 30.92632 30.15928
#
# Velocity S-wave (km/s) = 3.77736 3.87468 3.82633
# Velocity P-wave (km/s) = 6.63407 6.84568 6.74070
#
# Compressibility (1/GPa) = 0.01942860
#
# Stress axis : x y z
#
# Youngs Moduli (GPa) = 85.36523 58.15429 77.61967
#
# Poissons Ratio (x) = 0.34477 0.20104
# Poissons Ratio (y) = 0.50609 0.20676
# Poissons Ratio (z) = 0.22110 0.15491
#
# Static dielectric constant tensor:
#      x y z
#    x 3.957410 0.000000 -0.054050 
#    y 0.000000 3.707570 0.000000 
#    z -0.054050 0.000000 3.764750 
# 
# 
# High freq. dielectric constant tensor:
#      x y z
#    x 1.818030 0.000000 -0.001180 
#    y 0.000000 1.800370 0.000000 
#    z -0.001180 0.000000 1.794880 
# 
# From -- ./inp_files/222568.got.cif
#   From: 2010.06.25/outbox.cif.g09.slc.cpg/sg15_112_cif.got.tgz:222568.got - 2010.06.28 07:06:18.
