data_PCOD8139519
_publ_section_title
;
Structure prediction by ZEFSAII (Michael W. Deem and Ramdas Pophale) SiO2 
 PCOD8139519
Probable space group: C 2/C
;
_chemical_formula_sum "Si O2"
_cell_formula_units_Z 40
_cell_length_a 7.315058
_cell_length_b 27.650495
_cell_length_c 8.567334
_cell_angle_alpha 90.000000
_cell_angle_beta 74.122686
_cell_angle_gamma 90.000000
_cell_volume 1666.762035
_symmetry_space_group_name_H-M "C 2/C"
_symmetry_group_IT_number 15
_symmetry_cell_setting 'monoclinic'
loop_
_space_group_symop_operation_xyz
x,y,z
-x,y,1/2-z
-x,-y,-z
x,-y,1/2+z
1/2+x,1/2+y,z
1/2-x,1/2+y,1/2-z
1/2-x,1/2-y,-z
1/2+x,1/2-y,1/2+z
loop_
_atom_site_type_symbol
_atom_site_label
_atom_site_fract_x
_atom_site_fract_y
_atom_site_fract_z
Si Si1 0.596503 0.702775 0.558393
Si Si2 0.830660 0.864659 0.925436
Si Si3 0.929624 0.714260 0.940760
Si Si4 0.699983 0.122193 0.125230
Si Si5 0.016279 0.053096 0.562600
O O1 0.500000 0.699961 0.750000
O O2 0.458118 0.676976 0.469541
O O3 0.605463 0.759209 0.495975
O O4 0.788890 0.669564 0.492812
O O5 0.618177 0.839955 0.985150
O O6 0.851037 0.913801 0.022033
O O7 0.855451 0.873186 0.732378
O O8 0.000000 0.709594 0.750000
O O9 0.750000 0.750000 0.000000
O O10 0.500000 0.111967 0.250000
O O11 0.773071 0.074717 0.018662
O O12 0.000000 0.052076 0.750000
O O13 0.000000 0.000000 0.500000
#
# Coordination Sequence:
#
# PCOD8139519 Si02
#       5
#     8   8   8   8   8
#     4  10  20  39  63  91 128 182 233 270 320 389
#     4  10  21  39  63  92 129 171 216 270 325 385
#     4  10  21  38  59  86 123 174 224 266 314 374
#     4  11  23  40  65 101 136 171 219 281 331 382
#     4  11  23  46  75 100 126 170 215 263 335 412
#
# _framework density 23.998628
#
# number of rings (size 3 to 8) (size 9 to 14) (size 15 to 20)
#    0.000    1.600    0.000    8.400    0.000    5.600 
#    0.000   11.000    0.000    1.200    0.000    0.000 
#    0.000    0.000    0.000    0.000    0.000    0.000 
#
# Total GULP energy -247812.193145 kJ/mol
# GULP energy per Si atom -12390.609657 kJ/mol
# Density = 2.394401 g / cm^3
# Si number density = 23.998628 Si / 1000 Ang^3
#
#
#
# Elastic Constant Matrix: (Units=GPa)
#
#
# Indices 1 2 3 4 5 6 
#
# 1 60.8952 49.4874 28.2952 0.0000 -10.4336 0.0000
# 2 49.4874 229.8115 90.5111 0.0000 -11.6141 0.0000
# 3 28.2952 90.5111 224.5825 0.0000 1.4859 0.0000
# 4 0.0000 0.0000 0.0000 29.9506 0.0000 1.9843
# 5 -10.4336 -11.6141 1.4859 0.0000 39.0200 0.0000
# 6 0.0000 0.0000 0.0000 1.9843 0.0000 34.4254
#
#
#
# Elastic Compliance Matrix: (Units=1/GPa)
#
#
# Indices 1 2 3 4 5 6 
#
# 1 0.020806 -0.003816 -0.001113 0.000000 0.004470 0.000000
# 2 -0.003816 0.005977 -0.001933 0.000000 0.000832 0.000000
# 3 -0.001113 -0.001933 0.005379 0.000000 -0.001078 0.000000
# 4 0.000000 0.000000 0.000000 0.033516 0.000000 -0.001932
# 5 0.004470 0.000832 -0.001078 0.000000 0.027112 0.000000
# 6 0.000000 0.000000 0.000000 -0.001932 0.000000 0.029160
#
#
# Mechanical properties :
#
#
# Convention : Reuss Voigt Hill
#
# Bulk Modulus (GPa) = 54.23918 94.65297 74.44607
# Shear Modulus (GPa) = 35.25591 43.81222 39.53407
#
# Velocity S-wave (km/s) = 3.83702 4.27736 4.06316
# Velocity P-wave (km/s) = 6.50233 7.99506 7.28702
#
# Compressibility (1/GPa) = 0.01843686
#
# Stress axis : x y z
#
# Youngs Moduli (GPa) = 48.06340 167.31687 185.89878
#
# Poissons Ratio (x) = 0.63850 0.20690
# Poissons Ratio (y) = 0.18341 0.35942
# Poissons Ratio (z) = 0.05349 0.32350
#
# Static dielectric constant tensor:
#      x y z
#    x 6.067090 0.000000 -0.530950 
#    y 0.000000 4.583590 0.000000 
#    z -0.530950 0.000000 4.700960 
# 
# 
# High freq. dielectric constant tensor:
#      x y z
#    x 1.990460 0.000000 -0.001950 
#    y 0.000000 1.948600 0.000000 
#    z -0.001950 0.000000 1.970120 
# 
# From -- ./inp_files/25349.got.cif
#   From: 2010.06.25/outbox.cif.g09.slc.cpg/sg15_13_cif.got.tgz:25349.got - 2010.06.28 07:06:18.
