data_PCOD8139238
_publ_section_title
;
Structure prediction by ZEFSAII (Michael W. Deem and Ramdas Pophale) SiO2 
 PCOD8139238
Probable space group: C 2/C
;
_chemical_formula_sum "Si O2"
_cell_formula_units_Z 64
_cell_length_a 30.405517
_cell_length_b 8.710253
_cell_length_c 17.880065
_cell_angle_alpha 90.000000
_cell_angle_beta 40.582884
_cell_angle_gamma 90.000000
_cell_volume 3080.570706
_symmetry_space_group_name_H-M "C 2/C"
_symmetry_group_IT_number 15
_symmetry_cell_setting 'monoclinic'
loop_
_space_group_symop_operation_xyz
x,y,z
-x,y,1/2-z
-x,-y,-z
x,-y,1/2+z
1/2+x,1/2+y,z
1/2-x,1/2+y,1/2-z
1/2-x,1/2-y,-z
1/2+x,1/2-y,1/2+z
loop_
_atom_site_type_symbol
_atom_site_label
_atom_site_fract_x
_atom_site_fract_y
_atom_site_fract_z
Si Si1 0.448796 0.576963 0.674899
Si Si2 0.684024 0.422461 0.624885
Si Si3 0.675189 0.073126 0.806560
Si Si4 0.297185 0.573709 0.226819
Si Si5 0.958454 0.560183 0.984424
Si Si6 0.572395 0.586109 0.969327
Si Si7 0.045347 0.404243 0.762581
Si Si8 0.678288 0.062787 0.628574
O O1 0.386295 0.509309 0.804162
O O2 0.437686 0.533132 0.602921
O O3 0.520543 0.490979 0.596373
O O4 0.453939 0.757181 0.683872
O O5 0.704723 0.462195 0.682766
O O6 0.669690 0.244202 0.626646
O O7 0.745840 0.485303 0.494329
O O8 0.693292 0.247238 0.795937
O O9 0.668611 0.023546 0.728267
O O10 0.726605 0.961568 0.780553
O O11 0.605138 0.051187 0.939888
O O12 0.352626 0.475206 0.108805
O O13 0.932357 0.732286 0.022263
O O14 0.005664 0.545125 0.851383
O O15 0.000000 0.500000 0.000000
O O16 0.122340 0.467256 0.652027
O O17 0.000000 0.357643 0.750000
#
# Coordination Sequence:
#
# PCOD8139238 Si02
#       8
#     8   8   8   8   8   8   8   8
#     4  10  20  39  63  93 123 161 200 258 312 373
#     4   9  21  40  66  88 122 166 209 248 313 376
#     4  11  22  39  64  92 129 160 210 258 315 369
#     4  10  22  38  63  98 125 162 204 266 309 367
#     4  12  22  40  67  92 118 166 211 260 312 370
#     4  10  20  38  68  92 121 156 214 254 309 368
#     4  12  26  41  60  94 130 163 207 263 318 372
#     4  10  21  43  63  88 123 169 209 251 307 380
#
# _framework density 20.775371
#
# number of rings (size 3 to 8) (size 9 to 14) (size 15 to 20)
#    0.000    1.500    2.500    2.250    5.250    1.500 
#    6.750    1.250    0.000    0.000    0.000    0.000 
#    0.000    0.000    0.000    0.000    0.000    0.000 
#
# Total GULP energy -396674.340245 kJ/mol
# GULP energy per Si atom -12396.073133 kJ/mol
# Density = 2.072809 g / cm^3
# Si number density = 20.775371 Si / 1000 Ang^3
#
#
#
# Elastic Constant Matrix: (Units=GPa)
#
#
# Indices 1 2 3 4 5 6 
#
# 1 73.5775 28.8223 25.4021 -0.0065 -28.4039 -0.0010
# 2 28.8223 86.7920 35.8873 -0.0230 -10.9410 0.0044
# 3 25.4021 35.8873 127.3982 -0.0158 -29.2342 0.0029
# 4 -0.0065 -0.0230 -0.0158 36.4411 0.0024 -8.5631
# 5 -28.4039 -10.9410 -29.2342 0.0024 27.7801 0.0038
# 6 -0.0010 0.0044 0.0029 -8.5631 0.0038 28.4018
#
#
#
# Elastic Compliance Matrix: (Units=1/GPa)
#
#
# Indices 1 2 3 4 5 6 
#
# 1 0.025181 -0.006191 0.002731 0.000000 0.026182 -0.000002
# 2 -0.006191 0.014622 -0.003976 0.000007 -0.004755 0.000001
# 3 0.002731 -0.003976 0.011478 0.000002 0.013305 -0.000002
# 4 0.000000 0.000007 0.000002 0.029534 0.000000 0.008904
# 5 0.026182 -0.004755 0.013305 0.000000 0.074896 -0.000010
# 6 -0.000002 0.000001 -0.000002 0.008904 -0.000010 0.037894
#
#
# Mechanical properties :
#
#
# Convention : Reuss Voigt Hill
#
# Bulk Modulus (GPa) = 27.46506 51.99902 39.73204
# Shear Modulus (GPa) = 22.66423 31.70166 27.18294
#
# Velocity S-wave (km/s) = 3.30649 3.91055 3.62114
# Velocity P-wave (km/s) = 5.27502 6.74339 6.05389
#
# Compressibility (1/GPa) = 0.03640990
#
# Stress axis : x y z
#
# Youngs Moduli (GPa) = 39.71309 68.38922 87.12338
#
# Poissons Ratio (x) = 0.42339 -0.23794
# Poissons Ratio (y) = 0.24586 0.34637
# Poissons Ratio (z) = -0.10846 0.27189
#
# Static dielectric constant tensor:
#      x y z
#    x 3.556440 -0.000050 -0.376610 
#    y -0.000050 3.844900 0.000070 
#    z -0.376610 0.000070 3.691430 
# 
# 
# High freq. dielectric constant tensor:
#      x y z
#    x 1.792650 0.000000 -0.025780 
#    y 0.000000 1.815600 0.000000 
#    z -0.025780 0.000000 1.823980 
# 
# From -- ./inp_files/224600.got.cif
#   From: 2010.06.25/outbox.cif.g09.slc.cpg/sg15_113_cif.got.tgz:224600.got - 2010.06.28 07:06:18.
