data_PCOD8139945
_publ_section_title
;
Structure prediction by ZEFSAII (Michael W. Deem and Ramdas Pophale) SiO2 
 PCOD8139945
Probable space group: C 2/C
;
_chemical_formula_sum "Si O2"
_cell_formula_units_Z 48
_cell_length_a 9.976199
_cell_length_b 22.499504
_cell_length_c 11.935635
_cell_angle_alpha 90.000000
_cell_angle_beta 117.635790
_cell_angle_gamma 90.000000
_cell_volume 2373.422993
_symmetry_space_group_name_H-M "C 2/C"
_symmetry_group_IT_number 15
_symmetry_cell_setting 'monoclinic'
loop_
_space_group_symop_operation_xyz
x,y,z
-x,y,1/2-z
-x,-y,-z
x,-y,1/2+z
1/2+x,1/2+y,z
1/2-x,1/2+y,1/2-z
1/2-x,1/2-y,-z
1/2+x,1/2-y,1/2+z
loop_
_atom_site_type_symbol
_atom_site_label
_atom_site_fract_x
_atom_site_fract_y
_atom_site_fract_z
Si Si1 0.926704 0.635774 0.504983
Si Si2 0.147605 0.837485 0.525396
Si Si3 0.202025 0.852394 0.123417
Si Si4 0.374490 0.047276 0.795184
Si Si5 0.157950 0.584232 0.249775
Si Si6 0.294104 0.789446 0.370793
O O1 0.804579 0.647686 0.553237
O O2 0.839009 0.628534 0.354475
O O3 0.038794 0.578505 0.566818
O O4 0.031449 0.693875 0.538909
O O5 0.218972 0.896125 0.610287
O O6 0.185319 0.830123 0.408070
O O7 0.222838 0.780321 0.613682
O O8 0.970439 0.844404 0.477702
O O9 0.230475 0.913684 0.201576
O O10 0.250654 0.798996 0.224498
O O11 0.500000 0.044838 0.750000
O O12 0.309904 0.981247 0.790107
O O13 0.000000 0.586640 0.250000
#
# Coordination Sequence:
#
# PCOD8139945 Si02
#       6
#     8   8   8   8   8   8
#     4  10  20  40  64  86 117 157 197 243 290 360
#     4  11  24  37  63  90 119 155 194 254 291 345
#     4  10  22  41  60  89 120 152 196 246 305 346
#     4   8  18  37  63  87 116 158 196 240 291 358
#     4  11  21  37  61  91 118 158 204 239 291 355
#     4  10  22  41  61  85 118 160 201 236 293 361
#
# _framework density 20.223955
#
# number of rings (size 3 to 8) (size 9 to 14) (size 15 to 20)
#    0.000    2.000    1.667    2.500    2.333    2.000 
#    3.000    0.000    7.333    0.000    0.000    0.000 
#    0.000    0.000    0.000    0.000    0.000    0.000 
#
# Total GULP energy -297523.029836 kJ/mol
# GULP energy per Si atom -12396.792910 kJ/mol
# Density = 2.017792 g / cm^3
# Si number density = 20.223955 Si / 1000 Ang^3
#
#
#
# Elastic Constant Matrix: (Units=GPa)
#
#
# Indices 1 2 3 4 5 6 
#
# 1 97.2258 26.8193 16.9195 0.0000 -4.0957 0.0000
# 2 26.8193 61.7062 20.3393 0.0000 2.3426 0.0000
# 3 16.9195 20.3393 66.1368 0.0000 -10.9072 0.0000
# 4 0.0000 0.0000 0.0000 16.3662 0.0000 -6.7998
# 5 -4.0957 2.3426 -10.9072 0.0000 31.9232 0.0000
# 6 0.0000 0.0000 0.0000 -6.7998 0.0000 22.0530
#
#
#
# Elastic Compliance Matrix: (Units=1/GPa)
#
#
# Indices 1 2 3 4 5 6 
#
# 1 0.011898 -0.004784 -0.001338 0.000000 0.001420 0.000000
# 2 -0.004784 0.020315 -0.005691 0.000000 -0.004049 0.000000
# 3 -0.001338 -0.005691 0.018284 0.000000 0.006493 0.000000
# 4 0.000000 0.000000 0.000000 0.070079 0.000000 0.021608
# 5 0.001420 -0.004049 0.006493 0.000000 0.034023 0.000000
# 6 0.000000 0.000000 0.000000 0.021608 0.000000 0.052008
#
#
# Mechanical properties :
#
#
# Convention : Reuss Voigt Hill
#
# Bulk Modulus (GPa) = 37.21775 39.24723 38.23249
# Shear Modulus (GPa) = 20.90395 24.80121 22.85258
#
# Velocity S-wave (km/s) = 3.21849 3.50570 3.36516
# Velocity P-wave (km/s) = 5.67929 5.98623 5.83478
#
# Compressibility (1/GPa) = 0.02686890
#
# Stress axis : x y z
#
# Youngs Moduli (GPa) = 84.05011 49.22542 54.69372
#
# Poissons Ratio (x) = 0.23549 0.07320
# Poissons Ratio (y) = 0.40208 0.31128
# Poissons Ratio (z) = 0.11248 0.28016
#
# Static dielectric constant tensor:
#      x y z
#    x 3.506620 0.000000 -0.107390 
#    y 0.000000 3.959730 0.000000 
#    z -0.107390 0.000000 3.633170 
# 
# 
# High freq. dielectric constant tensor:
#      x y z
#    x 1.776530 0.000000 -0.007640 
#    y 0.000000 1.785500 0.000000 
#    z -0.007640 0.000000 1.791000 
# 
# From -- ./inp_files/79866.got.cif
#   From: 2010.06.25/outbox.cif.g09.slc.cpg/sg15_40_cif.got.tgz:79866.got - 2010.06.28 07:06:18.
