data_PCOD8139503
_publ_section_title
;
Structure prediction by ZEFSAII (Michael W. Deem and Ramdas Pophale) SiO2 
 PCOD8139503
Probable space group: C 2/C
;
_chemical_formula_sum "Si O2"
_cell_formula_units_Z 64
_cell_length_a 11.807551
_cell_length_b 24.864789
_cell_length_c 11.085071
_cell_angle_alpha 90.000000
_cell_angle_beta 69.555435
_cell_angle_gamma 90.000000
_cell_volume 3049.492602
_symmetry_space_group_name_H-M "C 2/C"
_symmetry_group_IT_number 15
_symmetry_cell_setting 'monoclinic'
loop_
_space_group_symop_operation_xyz
x,y,z
-x,y,1/2-z
-x,-y,-z
x,-y,1/2+z
1/2+x,1/2+y,z
1/2-x,1/2+y,1/2-z
1/2-x,1/2-y,-z
1/2+x,1/2-y,1/2+z
loop_
_atom_site_type_symbol
_atom_site_label
_atom_site_fract_x
_atom_site_fract_y
_atom_site_fract_z
Si Si1 0.191295 0.662574 0.209064
Si Si2 0.046949 0.212580 0.366047
Si Si3 0.935890 0.897733 0.950520
Si Si4 0.904614 0.511494 0.385239
Si Si5 0.934172 0.581970 0.585335
Si Si6 0.278994 0.456389 0.190824
Si Si7 0.531570 0.187127 0.045792
Si Si8 0.175833 0.066377 0.246517
O O1 0.316164 0.691958 0.193891
O O2 0.148110 0.674094 0.087567
O O3 0.211347 0.598308 0.230796
O O4 0.090324 0.688250 0.332239
O O5 0.044850 0.258133 0.467830
O O6 0.000000 0.230500 0.250000
O O7 0.959963 0.165823 0.450019
O O8 0.840078 0.907210 0.879023
O O9 0.059168 0.928104 0.874758
O O10 0.886799 0.919992 0.097524
O O11 0.880138 0.561631 0.479786
O O12 0.771281 0.496493 0.392290
O O13 0.000000 0.531067 0.250000
O O14 0.954928 0.457102 0.427328
O O15 0.828641 0.582178 0.724502
O O16 0.980183 0.642279 0.554006
O O17 0.310957 0.501682 0.279912
#
# Coordination Sequence:
#
# PCOD8139503 Si02
#       8
#     8   8   8   8   8   8   8   8
#     4  10  23  43  66  92 124 168 216 268 323 388
#     4  11  23  46  66  91 125 173 216 275 322 380
#     4  10  21  40  62  88 124 165 224 261 319 380
#     4   9  20  34  54  80 127 167 199 251 323 383
#     4  10  22  35  51  91 126 159 206 258 314 389
#     4  11  21  33  60  91 125 164 201 272 318 373
#     4  11  25  39  67  95 124 169 222 267 323 382
#     4  10  20  39  63  89 124 168 216 257 322 400
#
# _framework density 20.987099000000001
#
# number of rings (size 3 to 8) (size 9 to 14) (size 15 to 20)
#    0.000    1.750    2.500    2.250    8.750    3.000 
#    0.000    1.250    0.000    0.000    0.000    0.000 
#    0.000    0.000    0.000    0.000    0.000    0.000 
#
# Total GULP energy -396602.099899 kJ/mol
# GULP energy per Si atom -12393.815622 kJ/mol
# Density = 2.093933 g / cm^3
# Si number density = 20.987099 Si / 1000 Ang^3
#
#
#
# Elastic Constant Matrix: (Units=GPa)
#
#
# Indices 1 2 3 4 5 6 
#
# 1 77.8523 18.3752 16.1427 0.0000 5.5352 0.0000
# 2 18.3752 115.0194 43.2943 0.0000 -0.2281 0.0000
# 3 16.1427 43.2943 58.1538 0.0000 5.7738 0.0000
# 4 0.0000 0.0000 0.0000 29.1218 0.0000 -5.2249
# 5 5.5352 -0.2281 5.7738 0.0000 23.8425 0.0000
# 6 0.0000 0.0000 0.0000 -5.2249 0.0000 19.5685
#
#
#
# Elastic Compliance Matrix: (Units=1/GPa)
#
#
# Indices 1 2 3 4 5 6 
#
# 1 0.013872 -0.001206 -0.002697 0.000000 -0.002579 0.000000
# 2 -0.001206 0.012314 -0.009091 0.000000 0.002599 0.000000
# 3 -0.002697 -0.009091 0.025266 0.000000 -0.005580 0.000000
# 4 0.000000 0.000000 0.000000 0.036066 0.000000 0.009630
# 5 -0.002579 0.002599 -0.005580 0.000000 0.043917 0.000000
# 6 0.000000 0.000000 0.000000 0.009630 0.000000 0.053674
#
#
# Mechanical properties :
#
#
# Convention : Reuss Voigt Hill
#
# Bulk Modulus (GPa) = 39.26961 45.18332 42.22647
# Shear Modulus (GPa) = 22.77032 26.05411 24.41222
#
# Velocity S-wave (km/s) = 3.29746 3.52722 3.41427
# Velocity P-wave (km/s) = 5.76624 6.17772 5.97552
#
# Compressibility (1/GPa) = 0.02546499
#
# Stress axis : x y z
#
# Youngs Moduli (GPa) = 72.08744 81.20947 39.57876
#
# Poissons Ratio (x) = 0.09796 0.10673
# Poissons Ratio (y) = 0.08696 0.35980
# Poissons Ratio (z) = 0.19439 0.73825
#
# Static dielectric constant tensor:
#      x y z
#    x 3.887630 0.000000 0.162770 
#    y 0.000000 3.826330 0.000000 
#    z 0.162770 0.000000 3.751780 
# 
# 
# High freq. dielectric constant tensor:
#      x y z
#    x 1.823530 0.000000 0.001980 
#    y 0.000000 1.814640 0.000000 
#    z 0.001980 0.000000 1.816150 
# 
# From -- ./inp_files/91237.got.cif
#   From: 2010.06.25/outbox.cif.g09.slc.cpg/sg15_46_cif.got.tgz:91237.got - 2010.06.28 07:06:18.
