data_PCOD8139916
_publ_section_title
;
Structure prediction by ZEFSAII (Michael W. Deem and Ramdas Pophale) SiO2 
 PCOD8139916
Probable space group: C 2/C
;
_chemical_formula_sum "Si O2"
_cell_formula_units_Z 60
_cell_length_a 18.556792
_cell_length_b 8.809428
_cell_length_c 24.678798
_cell_angle_alpha 90.000000
_cell_angle_beta 45.213123
_cell_angle_gamma 90.000000
_cell_volume 2863.314588
_symmetry_space_group_name_H-M "C 2/C"
_symmetry_group_IT_number 15
_symmetry_cell_setting 'monoclinic'
loop_
_space_group_symop_operation_xyz
x,y,z
-x,y,1/2-z
-x,-y,-z
x,-y,1/2+z
1/2+x,1/2+y,z
1/2-x,1/2+y,1/2-z
1/2-x,1/2-y,-z
1/2+x,1/2-y,1/2+z
loop_
_atom_site_type_symbol
_atom_site_label
_atom_site_fract_x
_atom_site_fract_y
_atom_site_fract_z
Si Si1 0.209822 0.108415 0.311068
Si Si2 0.596473 0.059830 0.772702
Si Si3 0.855945 0.050816 0.859652
Si Si4 0.351865 0.377750 0.237413
Si Si5 0.957923 0.297622 0.875608
Si Si6 0.872446 0.491496 0.017560
Si Si7 0.000000 0.805305 0.750000
Si Si8 0.938501 0.667681 0.588938
O O1 0.262169 0.266195 0.268621
O O2 0.104481 0.159701 0.397725
O O3 0.290331 0.005769 0.302375
O O4 0.175868 0.039864 0.272050
O O5 0.575155 0.202083 0.745487
O O6 0.599398 0.106053 0.833478
O O7 0.508388 0.931264 0.811739
O O8 0.868288 0.110887 0.792443
O O9 0.874952 0.198361 0.886926
O O10 0.935686 0.912473 0.825277
O O11 0.745868 0.979222 0.930746
O O12 0.453168 0.317510 0.154383
O O13 0.909805 0.364500 0.955521
O O14 0.938493 0.647944 0.977455
O O15 0.885908 0.435858 0.071547
#
# Coordination Sequence:
#
# PCOD8139916 Si02
#       8
#     8   8   8   8   8   8   4   8
#     4  11  20  37  65  95 123 159 206 268 310 373
#     4  10  23  39  62  97 127 163 206 271 320 365
#     4  12  22  41  65  93 124 171 214 256 317 384
#     4  11  22  37  67  95 126 157 213 269 316 366
#     4  10  23  40  64  91 128 169 212 256 310 390
#     4  10  22  41  65  88 128 179 206 255 323 377
#     4  12  26  38  66  96 130 158 214 274 316 366
#     4  10  20  40  63  90 128 164 213 257 313 374
#
# _framework density 20.954733999999998
#
# number of rings (size 3 to 8) (size 9 to 14) (size 15 to 20)
#    0.000    1.333    4.000    1.200    3.733    0.000 
#    0.000    3.333    2.933    0.000    0.000    0.000 
#    0.000    0.000    0.000    0.000    0.000    0.000 
#
# Total GULP energy -371703.557650 kJ/mol
# GULP energy per Si atom -12390.118588 kJ/mol
# Density = 2.090704 g / cm^3
# Si number density = 20.954734 Si / 1000 Ang^3
#
#
#
# Elastic Constant Matrix: (Units=GPa)
#
#
# Indices 1 2 3 4 5 6 
#
# 1 96.0335 51.3891 44.7871 0.0000 -11.0755 -0.0002
# 2 51.3891 92.9468 40.9184 -0.0002 -4.0377 -0.0005
# 3 44.7871 40.9184 82.3382 0.0000 -11.6004 -0.0001
# 4 0.0000 -0.0002 0.0000 25.5554 0.0000 -13.2300
# 5 -11.0755 -4.0377 -11.6004 0.0000 35.0209 0.0000
# 6 -0.0002 -0.0005 -0.0001 -13.2300 0.0000 53.9667
#
#
#
# Elastic Compliance Matrix: (Units=1/GPa)
#
#
# Indices 1 2 3 4 5 6 
#
# 1 0.016923 -0.006855 -0.005408 0.000000 0.002770 0.000000
# 2 -0.006855 0.016566 -0.004762 0.000000 -0.001835 0.000000
# 3 -0.005408 -0.004762 0.017974 0.000000 0.003694 0.000000
# 4 0.000000 0.000000 0.000000 0.044819 0.000000 0.010987
# 5 0.002770 -0.001835 0.003694 0.000000 0.030443 0.000000
# 6 0.000000 0.000000 0.000000 0.010987 0.000000 0.021224
#
#
# Mechanical properties :
#
#
# Convention : Reuss Voigt Hill
#
# Bulk Modulus (GPa) = 57.43341 60.61199 59.02270
# Shear Modulus (GPa) = 26.62368 31.85685 29.24026
#
# Velocity S-wave (km/s) = 3.56832 3.90329 3.73956
# Velocity P-wave (km/s) = 6.66671 7.02156 6.84643
#
# Compressibility (1/GPa) = 0.01741147
#
# Stress axis : x y z
#
# Youngs Moduli (GPa) = 59.09075 60.36519 55.63674
#
# Poissons Ratio (x) = 0.41383 0.30089
# Poissons Ratio (y) = 0.40509 0.26495
# Poissons Ratio (z) = 0.31957 0.28747
#
# Static dielectric constant tensor:
#      x y z
#    x 3.887070 0.000000 -0.384100 
#    y 0.000000 3.988830 0.000000 
#    z -0.384100 0.000000 3.829700 
# 
# 
# High freq. dielectric constant tensor:
#      x y z
#    x 1.831540 0.000000 -0.021440 
#    y 0.000000 1.814970 0.000000 
#    z -0.021440 0.000000 1.800120 
# 
# From -- ./inp_files/300513.got.cif
#   From: 2010.06.25/outbox.cif.g09.slc.cpg/sg15_151_cif.got.tgz:300513.got - 2010.06.28 07:06:18.
