data_PCOD8139823
_publ_section_title
;
Structure prediction by ZEFSAII (Michael W. Deem and Ramdas Pophale) SiO2 
 PCOD8139823
Probable space group: C 2/C
;
_chemical_formula_sum "Si O2"
_cell_formula_units_Z 60
_cell_length_a 27.229292
_cell_length_b 15.145456
_cell_length_c 21.493876
_cell_angle_alpha 90.000000
_cell_angle_beta 160.314707
_cell_angle_gamma 90.000000
_cell_volume 2985.895582
_symmetry_space_group_name_H-M "C 2/C"
_symmetry_group_IT_number 15
_symmetry_cell_setting 'monoclinic'
loop_
_space_group_symop_operation_xyz
x,y,z
-x,y,1/2-z
-x,-y,-z
x,-y,1/2+z
1/2+x,1/2+y,z
1/2-x,1/2+y,1/2-z
1/2-x,1/2-y,-z
1/2+x,1/2-y,1/2+z
loop_
_atom_site_type_symbol
_atom_site_label
_atom_site_fract_x
_atom_site_fract_y
_atom_site_fract_z
Si Si1 0.549397 0.440948 0.184625
Si Si2 0.276564 0.843603 0.062159
Si Si3 0.500000 0.466840 0.750000
Si Si4 0.551642 0.683293 0.034390
Si Si5 0.857595 0.519234 0.558659
Si Si6 0.394525 0.142973 0.834483
Si Si7 0.854939 0.074144 0.884763
Si Si8 0.170957 0.431255 0.610470
O O1 0.480716 0.465111 0.169269
O O2 0.504082 0.344400 0.102193
O O3 0.722696 0.452099 0.397040
O O4 0.488745 0.510259 0.061833
O O5 0.359428 0.903318 0.111675
O O6 0.368245 0.819664 0.233737
O O7 0.250000 0.750000 0.000000
O O8 0.133585 0.900271 0.906631
O O9 0.429253 0.655475 0.938638
O O10 0.566699 0.787425 0.064394
O O11 0.712147 0.645085 0.237245
O O12 0.881316 0.570817 0.522515
O O13 0.000000 0.462432 0.750000
O O14 0.240496 0.098765 0.668837
O O15 0.533942 0.078142 0.994380
O O16 0.743125 0.026768 0.705179
#
# Coordination Sequence:
#
# PCOD8139823 Si02
#       8
#     8   8   4   8   8   8   8   8
#     4  10  20  40  61  86 113 168 214 242 301 364
#     4  11  24  32  52  83 127 159 184 241 309 378
#     4  10  22  38  58  86 118 162 210 244 288 386
#     4  11  22  38  62  82 125 168 210 254 297 376
#     4  11  20  36  58  85 118 159 206 242 298 377
#     4  12  24  36  55  96 127 156 201 260 318 348
#     4  11  21  40  60  84 123 165 210 252 300 374
#     4  11  21  39  58  86 119 166 209 252 301 368
#
# _framework density 20.094474000000002
#
# number of rings (size 3 to 8) (size 9 to 14) (size 15 to 20)
#    0.000    1.067    5.333    2.800    2.800    1.067 
#    0.000    0.000    0.000    0.000    1.733    5.600 
#    0.000    0.000    0.000    0.000    0.000    0.000 
#
# Total GULP energy -371710.875684 kJ/mol
# GULP energy per Si atom -12390.362523 kJ/mol
# Density = 2.004874 g / cm^3
# Si number density = 20.094474 Si / 1000 Ang^3
#
#
#
# Elastic Constant Matrix: (Units=GPa)
#
#
# Indices 1 2 3 4 5 6 
#
# 1 98.4471 17.5088 36.2046 -0.0021 -5.5772 -0.0013
# 2 17.5088 42.0248 24.6337 -0.0029 -11.4763 -0.0022
# 3 36.2046 24.6337 124.5617 -0.0024 -3.6723 -0.0020
# 4 -0.0021 -0.0029 -0.0024 20.1320 -0.0018 -6.6302
# 5 -5.5772 -11.4763 -3.6723 -0.0018 41.5208 -0.0012
# 6 -0.0013 -0.0022 -0.0020 -6.6302 -0.0012 29.9452
#
#
#
# Elastic Compliance Matrix: (Units=1/GPa)
#
#
# Indices 1 2 3 4 5 6 
#
# 1 0.011767 -0.003143 -0.002785 0.000001 0.000466 0.000000
# 2 -0.003143 0.029941 -0.004789 0.000005 0.007430 0.000003
# 3 -0.002785 -0.004789 0.009760 0.000000 -0.000834 0.000000
# 4 0.000001 0.000005 0.000000 0.053579 0.000004 0.011863
# 5 0.000466 0.007430 -0.000834 0.000004 0.026127 0.000002
# 6 0.000000 0.000003 0.000000 0.011863 0.000002 0.036021
#
#
# Mechanical properties :
#
#
# Convention : Reuss Voigt Hill
#
# Bulk Modulus (GPa) = 33.29441 46.85864 40.07652
# Shear Modulus (GPa) = 25.17123 30.76539 27.96831
#
# Velocity S-wave (km/s) = 3.54311 3.91709 3.73479
# Velocity P-wave (km/s) = 5.77435 6.62027 6.21172
#
# Compressibility (1/GPa) = 0.03003507
#
# Stress axis : x y z
#
# Youngs Moduli (GPa) = 84.98146 33.39916 102.45889
#
# Poissons Ratio (x) = 0.10497 0.28534
# Poissons Ratio (y) = 0.26710 0.49063
# Poissons Ratio (z) = 0.23667 0.15994
#
# Static dielectric constant tensor:
#      x y z
#    x 3.872980 0.000010 0.091040 
#    y 0.000010 3.043970 -0.000010 
#    z 0.091040 -0.000010 3.921890 
# 
# 
# High freq. dielectric constant tensor:
#      x y z
#    x 1.797240 0.000000 0.009540 
#    y 0.000000 1.736020 0.000000 
#    z 0.009540 0.000000 1.801650 
# 
# From -- ./inp_files/257886.got.cif
#   From: 2010.06.25/outbox.cif.g09.slc.cpg/sg15_129_cif.got.tgz:257886.got - 2010.06.28 07:06:18.
