data_PCOD8139478
_publ_section_title
;
Structure prediction by ZEFSAII (Michael W. Deem and Ramdas Pophale) SiO2 
 PCOD8139478
Probable space group: C 2/C
;
_chemical_formula_sum "Si O2"
_cell_formula_units_Z 60
_cell_length_a 16.263547
_cell_length_b 16.253600
_cell_length_c 24.651521
_cell_angle_alpha 90.000000
_cell_angle_beta 151.236779
_cell_angle_gamma 90.000000
_cell_volume 3135.639364
_symmetry_space_group_name_H-M "C 2/C"
_symmetry_group_IT_number 15
_symmetry_cell_setting 'monoclinic'
loop_
_space_group_symop_operation_xyz
x,y,z
-x,y,1/2-z
-x,-y,-z
x,-y,1/2+z
1/2+x,1/2+y,z
1/2-x,1/2+y,1/2-z
1/2-x,1/2-y,-z
1/2+x,1/2-y,1/2+z
loop_
_atom_site_type_symbol
_atom_site_label
_atom_site_fract_x
_atom_site_fract_y
_atom_site_fract_z
Si Si1 0.190714 0.531803 0.845220
Si Si2 0.000000 0.761238 0.250000
Si Si3 0.233591 0.356554 0.818696
Si Si4 0.137570 0.961574 0.786601
Si Si5 0.428901 0.654331 0.922125
Si Si6 0.595503 0.535328 0.936000
Si Si7 0.353770 0.164199 0.352303
Si Si8 0.264285 0.894477 0.433441
O O1 0.179607 0.446306 0.807210
O O2 0.276753 0.597917 0.855980
O O3 0.000000 0.561285 0.750000
O O4 0.311760 0.524120 0.967700
O O5 0.909795 0.706342 0.243402
O O6 0.862329 0.817478 0.140589
O O7 0.241706 0.354648 0.758793
O O8 0.421791 0.331880 0.947696
O O9 0.269037 0.888087 0.851802
O O10 0.000000 0.927805 0.750000
O O11 0.228314 0.042492 0.863572
O O12 0.051802 0.985768 0.680076
O O13 0.511587 0.614126 0.916453
O O14 0.338861 0.739802 0.856207
O O15 0.741187 0.562999 0.978233
O O16 0.547899 0.138249 0.461948
#
# Coordination Sequence:
#
# PCOD8139478 Si02
#       8
#     8   4   8   8   8   8   8   8
#     4  11  22  40  60  86 120 159 203 241 291 355
#     4  12  20  38  62  92 124 142 186 254 300 346
#     4  11  23  40  60  92 122 150 196 247 303 365
#     4  10  22  42  61  84 120 161 201 245 292 354
#     4  11  24  38  59  87 124 157 194 251 290 352
#     4  10  20  39  63  85 117 159 189 245 316 345
#     4  12  24  37  62  90 117 162 203 238 298 351
#     4  11  22  38  62  92 122 150 192 253 300 354
#
# _framework density 19.134853
#
# number of rings (size 3 to 8) (size 9 to 14) (size 15 to 20)
#    0.000    1.067    4.000    5.200    1.867    1.600 
#    0.000    2.667    0.000    5.600    0.000    0.000 
#    0.000    0.000    0.000    0.000    0.000    0.000 
#
# Total GULP energy -372137.718053 kJ/mol
# GULP energy per Si atom -12404.590602 kJ/mol
# Density = 1.909130 g / cm^3
# Si number density = 19.134853 Si / 1000 Ang^3
#
#
#
# Elastic Constant Matrix: (Units=GPa)
#
#
# Indices 1 2 3 4 5 6 
#
# 1 53.9822 38.2377 27.9432 -0.0022 -11.7914 -0.0006
# 2 38.2377 73.0933 28.6171 -0.0023 -1.6364 -0.0009
# 3 27.9432 28.6171 89.0239 -0.0032 -10.5663 -0.0009
# 4 -0.0022 -0.0023 -0.0032 17.2011 -0.0009 10.4393
# 5 -11.7914 -1.6364 -10.5663 -0.0009 24.3821 -0.0001
# 6 -0.0006 -0.0009 -0.0009 10.4393 -0.0001 38.2243
#
#
#
# Elastic Compliance Matrix: (Units=1/GPa)
#
#
# Indices 1 2 3 4 5 6 
#
# 1 0.035607 -0.016698 -0.004109 0.000003 0.014318 -0.000001
# 2 -0.016698 0.023514 -0.003256 0.000000 -0.007908 0.000000
# 3 -0.004109 -0.003256 0.014029 0.000002 0.003874 0.000000
# 4 0.000003 0.000000 0.000002 0.069686 0.000005 -0.019032
# 5 0.014318 -0.007908 0.003874 0.000005 0.049086 -0.000001
# 6 -0.000001 0.000000 0.000000 -0.019032 -0.000001 0.031359
#
#
# Mechanical properties :
#
#
# Convention : Reuss Voigt Hill
#
# Bulk Modulus (GPa) = 39.96217 45.07726 42.51971
# Shear Modulus (GPa) = 17.87310 24.04826 20.96068
#
# Velocity S-wave (km/s) = 3.05956 3.54895 3.31330
# Velocity P-wave (km/s) = 5.78023 6.35628 6.07508
#
# Compressibility (1/GPa) = 0.02502367
#
# Stress axis : x y z
#
# Youngs Moduli (GPa) = 28.08429 42.52759 71.27919
#
# Poissons Ratio (x) = 0.71012 0.29292
# Poissons Ratio (y) = 0.46895 0.23210
# Poissons Ratio (z) = 0.11541 0.13848
#
# Static dielectric constant tensor:
#      x y z
#    x 3.475530 0.000000 -0.202320 
#    y 0.000000 3.503330 0.000000 
#    z -0.202320 0.000000 3.207560 
# 
# 
# High freq. dielectric constant tensor:
#      x y z
#    x 1.749370 0.000000 -0.001090 
#    y 0.000000 1.740400 0.000000 
#    z -0.001090 0.000000 1.751550 
# 
# From -- ./inp_files/244707.got.cif
#   From: 2010.06.25/outbox.cif.g09.slc.cpg/sg15_123_cif.got.tgz:244707.got - 2010.06.28 07:06:18.
