data_PCOD8139316
_publ_section_title
;
Structure prediction by ZEFSAII (Michael W. Deem and Ramdas Pophale) SiO2 
 PCOD8139316
Probable space group: C 2/C
;
_chemical_formula_sum "Si O2"
_cell_formula_units_Z 48
_cell_length_a 23.268120
_cell_length_b 9.944530
_cell_length_c 18.706310
_cell_angle_alpha 90.000000
_cell_angle_beta 147.407188
_cell_angle_gamma 90.000000
_cell_volume 2331.591783
_symmetry_space_group_name_H-M "C 2/C"
_symmetry_group_IT_number 15
_symmetry_cell_setting 'monoclinic'
loop_
_space_group_symop_operation_xyz
x,y,z
-x,y,1/2-z
-x,-y,-z
x,-y,1/2+z
1/2+x,1/2+y,z
1/2-x,1/2+y,1/2-z
1/2-x,1/2-y,-z
1/2+x,1/2-y,1/2+z
loop_
_atom_site_type_symbol
_atom_site_label
_atom_site_fract_x
_atom_site_fract_y
_atom_site_fract_z
Si Si1 0.665784 0.195720 0.114597
Si Si2 0.100249 0.642623 0.302441
Si Si3 0.780049 0.095600 0.602890
Si Si4 0.730701 0.922589 0.207561
Si Si5 0.198256 0.796827 0.874073
Si Si6 0.435078 0.095017 0.842868
O O1 0.666084 0.332791 0.161563
O O2 0.703740 0.233556 0.075972
O O3 0.748906 0.083767 0.234561
O O4 0.554263 0.117691 0.995170
O O5 0.127195 0.792748 0.303811
O O6 0.203012 0.592490 0.453767
O O7 0.079845 0.549605 0.211275
O O8 0.000000 0.643485 0.250000
O O9 0.709480 0.112265 0.601529
O O10 0.839257 0.951714 0.665546
O O11 0.634069 0.882043 0.158280
O O12 0.094540 0.708953 0.745992
O O13 0.250000 0.750000 0.000000
#
# Coordination Sequence:
#
# PCOD8139316 Si02
#       6
#     8   8   8   8   8   8
#     4  10  22  38  60  90 120 164 205 255 310 370
#     4  11  22  39  62  92 122 165 210 256 313 374
#     4  10  22  40  59  88 128 163 203 256 314 373
#     4  10  21  40  61  89 126 160 206 256 314 372
#     4  10  20  39  59  88 123 159 204 259 313 360
#     4  11  22  38  66  93 119 165 215 255 310 379
#
# _framework density 20.586793
#
# number of rings (size 3 to 8) (size 9 to 14) (size 15 to 20)
#    0.000    1.667    1.667    3.500    0.000    1.333 
#    3.000    9.167    0.000    0.000    0.000    0.000 
#    0.000    0.000    0.000    0.000    0.000    0.000 
#
# Total GULP energy -297408.856035 kJ/mol
# GULP energy per Si atom -12392.035668 kJ/mol
# Density = 2.053994 g / cm^3
# Si number density = 20.586793 Si / 1000 Ang^3
#
#
#
# Elastic Constant Matrix: (Units=GPa)
#
#
# Indices 1 2 3 4 5 6 
#
# 1 66.2817 34.4896 15.8722 0.0000 -12.5279 0.0000
# 2 34.4896 149.7347 56.0852 0.0000 -9.9980 0.0000
# 3 15.8722 56.0852 75.7067 0.0000 -10.4582 0.0000
# 4 0.0000 0.0000 0.0000 32.5943 0.0000 -6.6236
# 5 -12.5279 -9.9980 -10.4582 0.0000 31.3021 0.0000
# 6 0.0000 0.0000 0.0000 -6.6236 0.0000 32.3355
#
#
#
# Elastic Compliance Matrix: (Units=1/GPa)
#
#
# Indices 1 2 3 4 5 6 
#
# 1 0.018210 -0.003701 -0.000244 0.000000 0.006025 0.000000
# 2 -0.003701 0.010010 -0.006712 0.000000 -0.000527 0.000000
# 3 -0.000244 -0.006712 0.018790 0.000000 0.004036 0.000000
# 4 0.000000 0.000000 0.000000 0.032013 0.000000 0.006558
# 5 0.006025 -0.000527 0.004036 0.000000 0.035538 0.000000
# 6 0.000000 0.000000 0.000000 0.006558 0.000000 0.032269
#
#
# Mechanical properties :
#
#
# Convention : Reuss Voigt Hill
#
# Bulk Modulus (GPa) = 38.91671 56.06856 47.49263
# Shear Modulus (GPa) = 28.29494 31.59813 29.94653
#
# Velocity S-wave (km/s) = 3.71134 3.92200 3.81812
# Velocity P-wave (km/s) = 6.10821 6.91403 6.52357
#
# Compressibility (1/GPa) = 0.02569590
#
# Stress axis : x y z
#
# Youngs Moduli (GPa) = 54.91505 99.89998 53.21881
#
# Poissons Ratio (x) = 0.36971 0.01298
# Poissons Ratio (y) = 0.20323 0.35723
# Poissons Ratio (z) = 0.01339 0.67058
#
# Static dielectric constant tensor:
#      x y z
#    x 3.870190 0.000000 -0.197780 
#    y 0.000000 4.326260 0.000000 
#    z -0.197780 0.000000 3.621530 
# 
# 
# High freq. dielectric constant tensor:
#      x y z
#    x 1.812530 0.000000 -0.024230 
#    y 0.000000 1.821070 0.000000 
#    z -0.024230 0.000000 1.778680 
# 
# From -- ./inp_files/111230.got.cif
#   From: 2010.06.25/outbox.cif.g09.slc.cpg/sg15_56_cif.got.tgz:111230.got - 2010.06.28 07:06:18.
