data_PCOD8139725
_publ_section_title
;
Structure prediction by ZEFSAII (Michael W. Deem and Ramdas Pophale) SiO2 
 PCOD8139725
Probable space group: C 2/C
;
_chemical_formula_sum "Si O2"
_cell_formula_units_Z 40
_cell_length_a 11.324085
_cell_length_b 24.082506
_cell_length_c 13.952371
_cell_angle_alpha 90.000000
_cell_angle_beta 152.857363
_cell_angle_gamma 90.000000
_cell_volume 1735.861157
_symmetry_space_group_name_H-M "C 2/C"
_symmetry_group_IT_number 15
_symmetry_cell_setting 'monoclinic'
loop_
_space_group_symop_operation_xyz
x,y,z
-x,y,1/2-z
-x,-y,-z
x,-y,1/2+z
1/2+x,1/2+y,z
1/2-x,1/2+y,1/2-z
1/2-x,1/2-y,-z
1/2+x,1/2-y,1/2+z
loop_
_atom_site_type_symbol
_atom_site_label
_atom_site_fract_x
_atom_site_fract_y
_atom_site_fract_z
Si Si1 0.605758 0.030276 0.168336
Si Si2 0.268013 0.380154 0.147762
Si Si3 0.869737 0.700706 0.455874
Si Si4 0.655911 0.428465 0.096515
Si Si5 0.674639 0.682557 0.516207
O O1 0.885291 0.057397 0.350841
O O2 0.647050 0.980931 0.276785
O O3 0.407198 0.080315 0.048709
O O4 0.500000 0.000000 0.000000
O O5 0.500000 0.356574 0.250000
O O6 0.381560 0.416844 0.316769
O O7 0.108227 0.327597 0.073391
O O8 0.886537 0.696068 0.585410
O O9 0.853115 0.767291 0.425221
O O10 0.608267 0.671221 0.232476
O O11 0.775960 0.373493 0.138007
#
# Coordination Sequence:
#
# PCOD8139725 Si02
#       5
#     8   8   8   8   8
#     4   9  20  41  64  93 127 170 228 268 328 389
#     4  11  23  41  63  93 141 176 217 269 328 414
#     4  10  21  39  64  99 132 169 215 276 341 392
#     4  10  20  40  68  92 123 173 223 279 332 376
#     4  10  20  39  68  95 131 163 219 288 331 390
#
# _framework density 23.043317999999999
#
# number of rings (size 3 to 8) (size 9 to 14) (size 15 to 20)
#    0.000    2.000    2.000    1.200    0.000    3.200 
#    0.000   30.000    0.000    0.000    0.000    0.000 
#    0.000    0.000    0.000    0.000    0.000    0.000 
#
# Total GULP energy -247828.032196 kJ/mol
# GULP energy per Si atom -12391.401610 kJ/mol
# Density = 2.299087 g / cm^3
# Si number density = 23.043318 Si / 1000 Ang^3
#
#
#
# Elastic Constant Matrix: (Units=GPa)
#
#
# Indices 1 2 3 4 5 6 
#
# 1 110.3468 65.6572 43.5364 -0.0014 28.6987 -0.0012
# 2 65.6572 197.5112 54.5173 -0.0004 17.2078 -0.0001
# 3 43.5364 54.5173 106.1575 -0.0005 19.6433 -0.0016
# 4 -0.0014 -0.0004 -0.0005 42.1018 -0.0009 -1.0128
# 5 28.6987 17.2078 19.6433 -0.0009 30.0431 -0.0011
# 6 -0.0012 -0.0001 -0.0016 -1.0128 -0.0011 21.7887
#
#
#
# Elastic Compliance Matrix: (Units=1/GPa)
#
#
# Indices 1 2 3 4 5 6 
#
# 1 0.014736 -0.003318 -0.002374 0.000000 -0.010624 0.000000
# 2 -0.003318 0.006714 -0.002232 0.000000 0.000783 0.000000
# 3 -0.002374 -0.002232 0.012382 0.000000 -0.004550 0.000001
# 4 0.000000 0.000000 0.000000 0.023779 0.000001 0.001105
# 5 -0.010624 0.000783 -0.004550 0.000001 0.045960 0.000002
# 6 0.000000 0.000000 0.000001 0.001105 0.000002 0.045947
#
#
# Mechanical properties :
#
#
# Convention : Reuss Voigt Hill
#
# Bulk Modulus (GPa) = 55.60418 82.38191 68.99305
# Shear Modulus (GPa) = 29.17847 35.47370 32.32609
#
# Velocity S-wave (km/s) = 3.56229 3.92782 3.74951
# Velocity P-wave (km/s) = 6.41113 7.50992 6.98217
#
# Compressibility (1/GPa) = 0.01798426
#
# Stress axis : x y z
#
# Youngs Moduli (GPa) = 67.86047 148.94701 80.76496
#
# Poissons Ratio (x) = 0.49418 0.19171
# Poissons Ratio (y) = 0.22515 0.18028
# Poissons Ratio (z) = 0.16108 0.33247
#
# Static dielectric constant tensor:
#      x y z
#    x 3.507220 0.000000 -0.160430 
#    y 0.000000 4.416770 -0.000010 
#    z -0.160430 -0.000010 4.651680 
# 
# 
# High freq. dielectric constant tensor:
#      x y z
#    x 1.846490 0.000000 -0.002500 
#    y 0.000000 1.926100 0.000000 
#    z -0.002500 0.000000 1.948190 
# 
# From -- ./inp_files/148173.got.cif
#   From: 2010.06.25/outbox.cif.g09.slc.cpg/sg15_75_cif.got.tgz:148173.got - 2010.06.28 07:06:18.
