data_PCOD8139898
_publ_section_title
;
Structure prediction by ZEFSAII (Michael W. Deem and Ramdas Pophale) SiO2 
 PCOD8139898
Probable space group: C 2/C
;
_chemical_formula_sum "Si O2"
_cell_formula_units_Z 48
_cell_length_a 11.844868
_cell_length_b 16.573787
_cell_length_c 11.605892
_cell_angle_alpha 90.000000
_cell_angle_beta 89.810193
_cell_angle_gamma 90.000000
_cell_volume 2278.390286
_symmetry_space_group_name_H-M "C 2/C"
_symmetry_group_IT_number 15
_symmetry_cell_setting 'monoclinic'
loop_
_space_group_symop_operation_xyz
x,y,z
-x,y,1/2-z
-x,-y,-z
x,-y,1/2+z
1/2+x,1/2+y,z
1/2-x,1/2+y,1/2-z
1/2-x,1/2-y,-z
1/2+x,1/2-y,1/2+z
loop_
_atom_site_type_symbol
_atom_site_label
_atom_site_fract_x
_atom_site_fract_y
_atom_site_fract_z
Si Si1 0.411754 0.866769 0.107876
Si Si2 0.150882 0.567997 0.656222
Si Si3 0.182914 0.176663 0.947249
Si Si4 0.559180 0.687983 0.470315
Si Si5 0.119543 0.748666 0.214394
Si Si6 0.233583 0.603512 0.115731
O O1 0.340655 0.882065 0.224373
O O2 0.523136 0.923562 0.109534
O O3 0.441160 0.771564 0.101977
O O4 0.338812 0.892231 0.999751
O O5 0.233122 0.600928 0.555138
O O6 0.197162 0.478167 0.679762
O O7 0.154250 0.191020 0.814273
O O8 0.250000 0.250000 0.000000
O O9 0.069856 0.157417 0.019952
O O10 0.614572 0.702921 0.594757
O O11 0.632750 0.616514 0.410905
O O12 0.206054 0.675345 0.203849
O O13 0.000000 0.709596 0.250000
#
# Coordination Sequence:
#
# PCOD8139898 Si02
#       6
#     8   8   8   8   8   8
#     4  10  21  40  59  84 119 158 196 246 300 355
#     4  11  23  35  59  89 122 150 192 259 308 338
#     4  11  21  38  58  88 120 155 198 244 297 359
#     4  10  20  40  63  82 114 161 205 238 290 366
#     4   9  20  36  62  84 109 155 202 236 278 361
#     4  11  22  37  60  87 118 154 200 244 299 359
#
# _framework density 21.067505000000001
#
# number of rings (size 3 to 8) (size 9 to 14) (size 15 to 20)
#    0.000    1.667    1.667    4.500    2.333    2.000 
#    0.000    0.000    0.000    4.000    0.000    0.000 
#    0.000    0.000    0.000    0.000    0.000    0.000 
#
# Total GULP energy -297496.206730 kJ/mol
# GULP energy per Si atom -12395.675280 kJ/mol
# Density = 2.101955 g / cm^3
# Si number density = 21.067505 Si / 1000 Ang^3
#
#
#
# Elastic Constant Matrix: (Units=GPa)
#
#
# Indices 1 2 3 4 5 6 
#
# 1 114.9224 33.0430 23.9869 0.0000 -39.6271 0.0000
# 2 33.0430 55.6900 5.9497 0.0000 -23.5665 0.0000
# 3 23.9869 5.9497 56.8499 0.0000 -18.7718 0.0000
# 4 0.0000 0.0000 0.0000 17.8193 0.0000 -10.2632
# 5 -39.6271 -23.5665 -18.7718 0.0000 36.5008 0.0000
# 6 0.0000 0.0000 0.0000 -10.2632 0.0000 35.9162
#
#
#
# Elastic Compliance Matrix: (Units=1/GPa)
#
#
# Indices 1 2 3 4 5 6 
#
# 1 0.014277 -0.002854 -0.001464 0.000000 0.012904 0.000000
# 2 -0.002854 0.025780 0.003588 0.000000 0.015392 0.000000
# 3 -0.001464 0.003588 0.021769 0.000000 0.011923 0.000000
# 4 0.000000 0.000000 0.000000 0.067175 0.000000 0.019195
# 5 0.012904 0.015392 0.011923 0.000000 0.057475 0.000000
# 6 0.000000 0.000000 0.000000 0.019195 0.000000 0.033328
#
#
# Mechanical properties :
#
#
# Convention : Reuss Voigt Hill
#
# Bulk Modulus (GPa) = 16.56544 39.26905 27.91724
# Shear Modulus (GPa) = 20.71365 29.01278 24.86322
#
# Velocity S-wave (km/s) = 3.13901 3.71500 3.43909
# Velocity P-wave (km/s) = 4.58453 6.08948 5.38979
#
# Compressibility (1/GPa) = 0.06036665
#
# Stress axis : x y z
#
# Youngs Moduli (GPa) = 70.04039 38.78997 45.93616
#
# Poissons Ratio (x) = 0.11071 0.06727
# Poissons Ratio (y) = 0.19990 -0.16484
# Poissons Ratio (z) = 0.10257 -0.13920
#
# Static dielectric constant tensor:
#      x y z
#    x 4.913490 0.000000 0.304170 
#    y 0.000000 3.723130 0.000000 
#    z 0.304170 0.000000 4.246470 
# 
# 
# High freq. dielectric constant tensor:
#      x y z
#    x 1.838750 0.000000 -0.017540 
#    y 0.000000 1.794800 0.000000 
#    z -0.017540 0.000000 1.825610 
# 
# From -- ./inp_files/87262.got.cif
#   From: 2010.06.25/outbox.cif.g09.slc.cpg/sg15_44_cif.got.tgz:87262.got - 2010.06.28 07:06:18.
