data_PCOD8139786
_publ_section_title
;
Structure prediction by ZEFSAII (Michael W. Deem and Ramdas Pophale) SiO2 
 PCOD8139786
Probable space group: C 2/C
;
_chemical_formula_sum "Si O2"
_cell_formula_units_Z 36
_cell_length_a 18.114016
_cell_length_b 5.087256
_cell_length_c 17.547763
_cell_angle_alpha 90.000000
_cell_angle_beta 77.829048
_cell_angle_gamma 90.000000
_cell_volume 1580.691228
_symmetry_space_group_name_H-M "C 2/C"
_symmetry_group_IT_number 15
_symmetry_cell_setting 'monoclinic'
loop_
_space_group_symop_operation_xyz
x,y,z
-x,y,1/2-z
-x,-y,-z
x,-y,1/2+z
1/2+x,1/2+y,z
1/2-x,1/2+y,1/2-z
1/2-x,1/2-y,-z
1/2+x,1/2-y,1/2+z
loop_
_atom_site_type_symbol
_atom_site_label
_atom_site_fract_x
_atom_site_fract_y
_atom_site_fract_z
Si Si1 0.848439 0.274212 0.233000
Si Si2 0.000000 0.483571 0.750000
Si Si3 0.959492 0.248154 0.915565
Si Si4 0.698741 0.726819 0.845657
Si Si5 0.098255 0.749371 0.499277
O O1 0.788928 0.302151 0.315788
O O2 0.827958 0.484683 0.172987
O O3 0.932266 0.320280 0.244346
O O4 0.845003 0.986612 0.196457
O O5 0.977340 0.291656 0.823493
O O6 0.902655 0.471343 0.958360
O O7 0.917224 0.970699 0.933971
O O8 0.036690 0.246460 0.945527
O O9 0.678204 0.697387 0.939606
#
# Coordination Sequence:
#
# PCOD8139786 Si02
#       5
#     8   4   8   8   8
#     4  10  23  36  64  89 124 159 201 252 308 350
#     4  12  24  42  58 102 124 154 198 274 302 358
#     4  10  23  34  62  87 123 155 202 248 308 345
#     4  10  20  42  61  88 118 168 207 240 292 387
#     4  10  20  40  59  87 114 170 202 240 288 385
#
# _framework density 22.774844999999999
#
# number of rings (size 3 to 8) (size 9 to 14) (size 15 to 20)
#    0.000    1.778    2.222    1.333    6.222    3.556 
#    0.000    2.222    0.000    0.000    0.000    0.000 
#    0.000    0.000    0.000    0.000    0.000    0.000 
#
# Total GULP energy -223263.414912 kJ/mol
# GULP energy per Si atom -12403.523051 kJ/mol
# Density = 2.272301 g / cm^3
# Si number density = 22.774845 Si / 1000 Ang^3
#
#
#
# Elastic Constant Matrix: (Units=GPa)
#
#
# Indices 1 2 3 4 5 6 
#
# 1 81.5163 2.9277 33.0257 0.0000 -23.2973 0.0000
# 2 2.9277 86.7305 29.0043 0.0000 -10.8548 0.0000
# 3 33.0257 29.0043 164.9627 0.0000 -33.1378 0.0000
# 4 0.0000 0.0000 0.0000 19.6034 0.0000 -6.8480
# 5 -23.2973 -10.8548 -33.1378 0.0000 33.0644 0.0000
# 6 0.0000 0.0000 0.0000 -6.8480 0.0000 16.2121
#
#
#
# Elastic Compliance Matrix: (Units=1/GPa)
#
#
# Indices 1 2 3 4 5 6 
#
# 1 0.015641 0.001173 -0.001310 0.000000 0.010093 0.000000
# 2 0.001173 0.012484 -0.001804 0.000000 0.003117 0.000000
# 3 -0.001310 -0.001804 0.007934 0.000000 0.006437 0.000000
# 4 0.000000 0.000000 0.000000 0.059841 0.000000 0.025277
# 5 0.010093 0.003117 0.006437 0.000000 0.044830 0.000000
# 6 0.000000 0.000000 0.000000 0.025277 0.000000 0.072359
#
#
# Mechanical properties :
#
#
# Convention : Reuss Voigt Hill
#
# Bulk Modulus (GPa) = 31.07731 51.45832 41.26782
# Shear Modulus (GPa) = 21.95912 31.65942 26.80927
#
# Velocity S-wave (km/s) = 3.10850 3.73246 3.43468
# Velocity P-wave (km/s) = 5.15352 6.42015 5.82139
#
# Compressibility (1/GPa) = 0.03217782
#
# Stress axis : x y z
#
# Youngs Moduli (GPa) = 63.93617 80.10457 126.03323
#
# Poissons Ratio (x) = -0.09399 0.16512
# Poissons Ratio (y) = -0.07502 0.22731
# Poissons Ratio (z) = 0.08377 0.14448
#
# Static dielectric constant tensor:
#      x y z
#    x 3.895550 0.000000 -0.433800 
#    y 0.000000 4.174560 0.000000 
#    z -0.433800 0.000000 4.195300 
# 
# 
# High freq. dielectric constant tensor:
#      x y z
#    x 1.865940 0.000000 -0.031060 
#    y 0.000000 1.911740 0.000000 
#    z -0.031060 0.000000 1.905860 
# 
# From -- ./inp_files/165080.got.cif
#   From: 2010.06.25/outbox.cif.g09.slc.cpg/sg15_83_cif.got.tgz:165080.got - 2010.06.28 07:06:18.
