data_PCOD8139020
_publ_section_title
;
Structure prediction by ZEFSAII (Michael W. Deem and Ramdas Pophale) SiO2 
 PCOD8139020
Probable space group: C 2/C
;
_chemical_formula_sum "Si O2"
_cell_formula_units_Z 40
_cell_length_a 14.231213
_cell_length_b 11.932591
_cell_length_c 14.120905
_cell_angle_alpha 90.000000
_cell_angle_beta 63.720880
_cell_angle_gamma 90.000000
_cell_volume 2150.112135
_symmetry_space_group_name_H-M "C 2/C"
_symmetry_group_IT_number 15
_symmetry_cell_setting 'monoclinic'
loop_
_space_group_symop_operation_xyz
x,y,z
-x,y,1/2-z
-x,-y,-z
x,-y,1/2+z
1/2+x,1/2+y,z
1/2-x,1/2+y,1/2-z
1/2-x,1/2-y,-z
1/2+x,1/2-y,1/2+z
loop_
_atom_site_type_symbol
_atom_site_label
_atom_site_fract_x
_atom_site_fract_y
_atom_site_fract_z
Si Si1 0.175285 0.540197 0.666374
Si Si2 0.763746 0.380008 0.008327
Si Si3 0.890749 0.037207 0.503904
Si Si4 0.079768 0.574546 0.904550
Si Si5 0.555454 0.753955 0.131955
O O1 0.157026 0.432396 0.606252
O O2 0.301681 0.553142 0.625770
O O3 0.111748 0.516427 0.790741
O O4 0.136894 0.650766 0.628024
O O5 0.650185 0.440561 0.050135
O O6 0.750000 0.250000 0.000000
O O7 0.812536 0.403252 0.088981
O O8 0.891593 0.151981 0.445438
O O9 0.000000 0.000000 0.500000
O O10 0.027595 0.693674 0.904597
O O11 0.000000 0.500000 0.000000
O O12 0.500000 0.704681 0.250000
#
# Coordination Sequence:
#
# PCOD8139020 Si02
#       5
#     8   8   8   8   8
#     4   9  22  38  61  91 123 155 207 245 298 361
#     4  10  22  40  59  87 130 153 198 254 301 353
#     4  10  21  39  60  86 126 155 201 246 306 354
#     4  11  20  39  66  89 117 162 203 247 304 357
#     4  10  20  38  64  87 120 159 205 249 298 369
#
# _framework density 18.603681000000002
#
# number of rings (size 3 to 8) (size 9 to 14) (size 15 to 20)
#    1.200    0.800    2.000    1.800    0.000    1.600 
#    7.200    0.000    8.800    0.000    0.000    0.000 
#    0.000    0.000    0.000    0.000    0.000    0.000 
#
# Total GULP energy -247782.946862 kJ/mol
# GULP energy per Si atom -12389.147343 kJ/mol
# Density = 1.856134 g / cm^3
# Si number density = 18.603681 Si / 1000 Ang^3
#
#
#
# Elastic Constant Matrix: (Units=GPa)
#
#
# Indices 1 2 3 4 5 6 
#
# 1 140.2210 39.9028 31.3652 0.0000 8.4106 0.0000
# 2 39.9028 127.0328 58.6701 0.0000 4.6520 0.0000
# 3 31.3652 58.6701 110.8801 0.0000 -2.4082 0.0000
# 4 0.0000 0.0000 0.0000 25.5390 0.0000 -3.4068
# 5 8.4106 4.6520 -2.4082 0.0000 32.1481 0.0000
# 6 0.0000 0.0000 0.0000 -3.4068 0.0000 28.1297
#
#
#
# Elastic Compliance Matrix: (Units=1/GPa)
#
#
# Indices 1 2 3 4 5 6 
#
# 1 0.008075 -0.001840 -0.001353 0.000000 -0.001948 0.000000
# 2 -0.001840 0.010957 -0.005310 0.000000 -0.001502 0.000000
# 3 -0.001353 -0.005310 0.012255 0.000000 0.002040 0.000000
# 4 0.000000 0.000000 0.000000 0.039799 0.000000 0.004820
# 5 -0.001948 -0.001502 0.002040 0.000000 0.031986 0.000000
# 6 0.000000 0.000000 0.000000 0.004820 0.000000 0.036133
#
#
# Mechanical properties :
#
#
# Convention : Reuss Voigt Hill
#
# Bulk Modulus (GPa) = 70.02012 70.89003 70.45508
# Shear Modulus (GPa) = 31.06133 33.70974 32.38554
#
# Velocity S-wave (km/s) = 4.09055 4.26137 4.17683
# Velocity P-wave (km/s) = 7.74788 7.89940 7.82400
#
# Compressibility (1/GPa) = 0.01428161
#
# Stress axis : x y z
#
# Youngs Moduli (GPa) = 123.84384 91.26198 81.59695
#
# Poissons Ratio (x) = 0.16795 0.11037
# Poissons Ratio (y) = 0.22791 0.43328
# Poissons Ratio (z) = 0.16752 0.48460
#
# Static dielectric constant tensor:
#      x y z
#    x 3.555710 0.000000 0.031970 
#    y 0.000000 3.162900 0.000000 
#    z 0.031970 0.000000 3.315720 
# 
# 
# High freq. dielectric constant tensor:
#      x y z
#    x 1.730450 0.000000 0.001260 
#    y 0.000000 1.715650 0.000000 
#    z 0.001260 0.000000 1.710830 
# 
# From -- ./inp_files/142106.got.cif
#   From: 2010.06.25/outbox.cif.g09.slc.cpg/sg15_72_cif.got.tgz:142106.got - 2010.06.28 07:06:18.
