data_PCOD8139294
_publ_section_title
;
Structure prediction by ZEFSAII (Michael W. Deem and Ramdas Pophale) SiO2 
 PCOD8139294
Probable space group: C 2/C
;
_chemical_formula_sum "Si O2"
_cell_formula_units_Z 48
_cell_length_a 13.018083
_cell_length_b 21.672931
_cell_length_c 13.596515
_cell_angle_alpha 90.000000
_cell_angle_beta 139.408391
_cell_angle_gamma 90.000000
_cell_volume 2496.022016
_symmetry_space_group_name_H-M "C 2/C"
_symmetry_group_IT_number 15
_symmetry_cell_setting 'monoclinic'
loop_
_space_group_symop_operation_xyz
x,y,z
-x,y,1/2-z
-x,-y,-z
x,-y,1/2+z
1/2+x,1/2+y,z
1/2-x,1/2+y,1/2-z
1/2-x,1/2-y,-z
1/2+x,1/2-y,1/2+z
loop_
_atom_site_type_symbol
_atom_site_label
_atom_site_fract_x
_atom_site_fract_y
_atom_site_fract_z
Si Si1 0.632867 0.815264 0.987739
Si Si2 0.930885 0.913454 0.908771
Si Si3 0.500000 0.472100 0.750000
Si Si4 0.301709 0.048303 0.945585
Si Si5 0.222897 0.697650 0.329511
Si Si6 0.000000 0.490206 0.250000
Si Si7 0.237347 0.965949 0.185828
O O1 0.443532 0.806365 0.848127
O O2 0.704461 0.815533 0.930914
O O3 0.697428 0.879304 0.075207
O O4 0.703343 0.766189 0.116990
O O5 0.844289 0.848647 0.863467
O O6 0.958599 0.928537 0.812993
O O7 0.833408 0.966946 0.893277
O O8 0.101854 0.913499 0.087378
O O9 0.645015 0.518188 0.879719
O O10 0.323474 0.022380 0.851891
O O11 0.448771 0.033771 0.122634
O O12 0.861325 0.446965 0.190851
#
# Coordination Sequence:
#
# PCOD8139294 Si02
#       7
#     8   8   4   8   8   4   8
#     4  10  22  37  57  90 113 163 192 254 291 354
#     4  10  20  39  57  89 119 158 200 246 303 364
#     4  10  22  38  62  90 120 166 192 250 306 360
#     4  11  22  35  59  87 122 155 201 244 303 358
#     4  10  22  38  60  83 124 153 206 239 302 354
#     4  12  20  38  54  90 126 150 194 252 298 370
#     4  10  22  34  59  87 118 159 193 245 309 358
#
# _framework density 19.230601
#
# number of rings (size 3 to 8) (size 9 to 14) (size 15 to 20)
#    0.000    1.667    1.667    3.500    7.000    2.667 
#    0.000    0.000    0.000    2.000    0.000    0.000 
#    0.000    0.000    0.000    0.000    0.000    0.000 
#
# Total GULP energy -297389.103096 kJ/mol
# GULP energy per Si atom -12391.212629 kJ/mol
# Density = 1.918683 g / cm^3
# Si number density = 19.230601 Si / 1000 Ang^3
#
#
#
# Elastic Constant Matrix: (Units=GPa)
#
#
# Indices 1 2 3 4 5 6 
#
# 1 124.7934 47.7163 48.2868 0.0000 12.1813 0.0000
# 2 47.7163 110.1396 41.9581 0.0000 14.3573 0.0000
# 3 48.2868 41.9581 108.8142 0.0000 3.3367 0.0000
# 4 0.0000 0.0000 0.0000 23.1285 0.0000 6.3241
# 5 12.1813 14.3573 3.3367 0.0000 22.4495 0.0000
# 6 0.0000 0.0000 0.0000 6.3241 0.0000 30.8953
#
#
#
# Elastic Compliance Matrix: (Units=1/GPa)
#
#
# Indices 1 2 3 4 5 6 
#
# 1 0.010846 -0.002870 -0.003599 0.000000 -0.003515 0.000000
# 2 -0.002870 0.012345 -0.003307 0.000000 -0.005846 0.000000
# 3 -0.003599 -0.003307 0.011992 0.000000 0.002285 0.000000
# 4 0.000000 0.000000 0.000000 0.045800 0.000000 -0.009375
# 5 -0.003515 -0.005846 0.002285 0.000000 0.049851 0.000000
# 6 0.000000 0.000000 0.000000 -0.009375 0.000000 0.034286
#
#
# Mechanical properties :
#
#
# Convention : Reuss Voigt Hill
#
# Bulk Modulus (GPa) = 63.97373 68.85218 66.41295
# Shear Modulus (GPa) = 26.33212 29.01373 27.67293
#
# Velocity S-wave (km/s) = 3.70440 3.88845 3.79754
# Velocity P-wave (km/s) = 7.18579 7.48607 7.33747
#
# Compressibility (1/GPa) = 0.01563142
#
# Stress axis : x y z
#
# Youngs Moduli (GPa) = 92.19919 81.00661 83.38830
#
# Poissons Ratio (x) = 0.23247 0.30009
# Poissons Ratio (y) = 0.26459 0.27579
# Poissons Ratio (z) = 0.33179 0.26791
#
# Static dielectric constant tensor:
#      x y z
#    x 3.485050 0.000000 0.131020 
#    y 0.000000 3.312400 0.000000 
#    z 0.131020 0.000000 3.666670 
# 
# 
# High freq. dielectric constant tensor:
#      x y z
#    x 1.744560 0.000000 0.009700 
#    y 0.000000 1.713700 0.000000 
#    z 0.009700 0.000000 1.764430 
# 
# From -- ./inp_files/57740.got.cif
#   From: 2010.06.25/outbox.cif.g09.slc.cpg/sg15_29_cif.got.tgz:57740.got - 2010.06.28 07:06:18.
