data_PCOD8139295
_publ_section_title
;
Structure prediction by ZEFSAII (Michael W. Deem and Ramdas Pophale) SiO2 
 PCOD8139295
Probable space group: C 2/C
;
_chemical_formula_sum "Si O2"
_cell_formula_units_Z 56
_cell_length_a 33.279696
_cell_length_b 17.905368
_cell_length_c 5.435824
_cell_angle_alpha 90.000000
_cell_angle_beta 72.582217
_cell_angle_gamma 90.000000
_cell_volume 3090.604916
_symmetry_space_group_name_H-M "C 2/C"
_symmetry_group_IT_number 15
_symmetry_cell_setting 'monoclinic'
loop_
_space_group_symop_operation_xyz
x,y,z
-x,y,1/2-z
-x,-y,-z
x,-y,1/2+z
1/2+x,1/2+y,z
1/2-x,1/2+y,1/2-z
1/2-x,1/2-y,-z
1/2+x,1/2-y,1/2+z
loop_
_atom_site_type_symbol
_atom_site_label
_atom_site_fract_x
_atom_site_fract_y
_atom_site_fract_z
Si Si1 0.675415 0.462036 0.131511
Si Si2 0.417749 0.088513 0.900469
Si Si3 0.774567 0.700827 0.765292
Si Si4 0.224698 0.462637 0.574452
Si Si5 0.174530 0.348984 0.921516
Si Si6 0.451010 0.923637 0.839585
Si Si7 0.189796 0.801941 0.183351
O O1 0.657586 0.507198 0.402512
O O2 0.661159 0.375534 0.197177
O O3 0.725359 0.466666 0.013358
O O4 0.439055 0.121850 0.611143
O O5 0.424027 0.999531 0.888732
O O6 0.369039 0.108368 0.990362
O O7 0.439100 0.121829 0.111666
O O8 0.806860 0.756572 0.574685
O O9 0.736558 0.666292 0.670610
O O10 0.750000 0.750000 0.000000
O O11 0.799934 0.636408 0.869121
O O12 0.206812 0.498756 0.357309
O O13 0.203299 0.379108 0.637175
O O14 0.169207 0.258435 0.909527
O O15 0.500000 0.944020 0.750000
#
# Coordination Sequence:
#
# PCOD8139295 Si02
#       7
#     8   8   8   8   8   8   8
#     4  10  22  36  52  71  86 121 177 226 261 316
#     4  10  21  32  54  79 100 131 177 222 252 298
#     4   9  19  33  51  65  91 136 177 205 269 341
#     4  10  23  33  47  67 100 128 165 220 276 306
#     4  11  24  32  51  73 106 134 171 222 286 320
#     4  10  20  39  58  75 105 146 184 211 252 324
#     4  10  21  36  52  66  95 135 178 216 276 340
#
# _framework density 18.119429
#
# number of rings (size 3 to 8) (size 9 to 14) (size 15 to 20)
#    0.000    2.000    0.000    4.714   18.000    0.000 
#    0.000    0.000    0.000    0.000    0.000    0.000 
#    0.000    0.000    0.000    0.000    0.000   24.286 
#
# Total GULP energy -346866.347782 kJ/mol
# GULP energy per Si atom -12388.083849 kJ/mol
# Density = 1.807819 g / cm^3
# Si number density = 18.119429 Si / 1000 Ang^3
#
#
#
# Elastic Constant Matrix: (Units=GPa)
#
#
# Indices 1 2 3 4 5 6 
#
# 1 77.8877 9.6120 29.8877 0.0000 2.2049 0.0000
# 2 9.6120 56.9852 16.0863 0.0000 10.1001 0.0000
# 3 29.8877 16.0863 117.4594 0.0000 28.0041 0.0000
# 4 0.0000 0.0000 0.0000 23.1447 0.0000 5.3720
# 5 2.2049 10.1001 28.0041 0.0000 29.1498 0.0000
# 6 0.0000 0.0000 0.0000 5.3720 0.0000 17.9622
#
#
#
# Elastic Compliance Matrix: (Units=1/GPa)
#
#
# Indices 1 2 3 4 5 6 
#
# 1 0.014639 -0.001902 -0.004355 0.000000 0.003736 0.000000
# 2 -0.001902 0.019102 -0.000763 0.000000 -0.005742 0.000000
# 3 -0.004355 -0.000763 0.012432 0.000000 -0.011350 0.000000
# 4 0.000000 0.000000 0.000000 0.046429 0.000000 -0.013886
# 5 0.003736 -0.005742 -0.011350 0.000000 0.046916 0.000000
# 6 0.000000 0.000000 0.000000 -0.013886 0.000000 0.059825
#
#
# Mechanical properties :
#
#
# Convention : Reuss Voigt Hill
#
# Bulk Modulus (GPa) = 31.12064 40.38938 35.75501
# Shear Modulus (GPa) = 22.31188 27.16777 24.73982
#
# Velocity S-wave (km/s) = 3.51291 3.87637 3.69911
# Velocity P-wave (km/s) = 5.80229 6.50954 6.16606
#
# Compressibility (1/GPa) = 0.03213302
#
# Stress axis : x y z
#
# Youngs Moduli (GPa) = 68.31005 52.34962 80.43622
#
# Poissons Ratio (x) = 0.09957 0.35031
# Poissons Ratio (y) = 0.12992 0.06139
# Poissons Ratio (z) = 0.29750 0.03996
#
# Static dielectric constant tensor:
#      x y z
#    x 3.012820 0.000000 0.442240 
#    y 0.000000 3.223490 0.000000 
#    z 0.442240 0.000000 3.896010 
# 
# 
# High freq. dielectric constant tensor:
#      x y z
#    x 1.634990 0.000000 0.037190 
#    y 0.000000 1.676650 0.000000 
#    z 0.037190 0.000000 1.733410 
# 
# From -- ./inp_files/18342.got.cif
#   From: 2010.06.25/outbox.cif.g09.slc.cpg/sg15_10_cif.got.tgz:18342.got - 2010.06.28 07:06:18.
