data_PCOD8139120
_publ_section_title
;
Structure prediction by ZEFSAII (Michael W. Deem and Ramdas Pophale) SiO2 
 PCOD8139120
Probable space group: C 2/C
;
_chemical_formula_sum "Si O2"
_cell_formula_units_Z 60
_cell_length_a 8.831142
_cell_length_b 29.230884
_cell_length_c 11.167651
_cell_angle_alpha 90.000000
_cell_angle_beta 88.572273
_cell_angle_gamma 90.000000
_cell_volume 2881.945761
_symmetry_space_group_name_H-M "C 2/C"
_symmetry_group_IT_number 15
_symmetry_cell_setting 'monoclinic'
loop_
_space_group_symop_operation_xyz
x,y,z
-x,y,1/2-z
-x,-y,-z
x,-y,1/2+z
1/2+x,1/2+y,z
1/2-x,1/2+y,1/2-z
1/2-x,1/2-y,-z
1/2+x,1/2-y,1/2+z
loop_
_atom_site_type_symbol
_atom_site_label
_atom_site_fract_x
_atom_site_fract_y
_atom_site_fract_z
Si Si1 0.386705 0.959657 0.041797
Si Si2 0.783850 0.182914 0.005852
Si Si3 0.000000 0.397120 0.250000
Si Si4 0.056058 0.379722 0.616952
Si Si5 0.461906 0.237213 0.614995
Si Si6 0.983569 0.872847 0.117557
Si Si7 0.831922 0.658064 0.934652
Si Si8 0.551734 0.523873 0.619673
O O1 0.454736 0.928878 0.143362
O O2 0.232465 0.977785 0.103765
O O3 0.361384 0.926463 0.927919
O O4 0.500000 0.000000 0.000000
O O5 0.669931 0.164124 0.110629
O O6 0.917896 0.215917 0.049115
O O7 0.686119 0.205261 0.900139
O O8 0.861132 0.137739 0.953132
O O9 0.129212 0.363089 0.197242
O O10 0.000000 0.387903 0.750000
O O11 0.908959 0.370711 0.538722
O O12 0.500000 0.249351 0.750000
O O13 0.609476 0.210896 0.558350
O O14 0.848082 0.847078 0.049802
O O15 0.000000 0.852520 0.250000
O O16 0.967198 0.927286 0.119933
O O17 0.500000 0.501314 0.750000
O O18 0.500000 0.500000 0.500000
#
# Coordination Sequence:
#
# PCOD8139120 Si02
#       8
#     8   8   4   8   8   8   8   8
#     4  11  25  40  69  96 126 174 227 274 325 394
#     4  10  22  41  61  92 127 169 210 267 335 388
#     4  10  20  40  66  90 122 160 216 266 310 380
#     4  10  23  43  63  89 131 176 220 266 333 396
#     4  10  20  38  65  91 127 163 213 272 318 389
#     4  11  22  40  66  93 127 168 216 265 337 395
#     4  10  21  37  68  94 120 169 219 262 323 393
#     4  11  26  44  65  97 140 174 219 281 339 399
#
# _framework density 20.819267
#
# number of rings (size 3 to 8) (size 9 to 14) (size 15 to 20)
#    0.000    1.600    2.000    2.400    8.400    1.600 
#    0.000    9.333    0.000    0.000    0.000    0.000 
#    0.000    0.000    0.000    0.000    0.000    0.000 
#
# Total GULP energy -371724.508635 kJ/mol
# GULP energy per Si atom -12390.816955 kJ/mol
# Density = 2.077188 g / cm^3
# Si number density = 20.819267 Si / 1000 Ang^3
#
#
#
# Elastic Constant Matrix: (Units=GPa)
#
#
# Indices 1 2 3 4 5 6 
#
# 1 108.0793 34.2378 43.5091 0.0000 -7.0497 0.0000
# 2 34.2378 84.1695 40.0101 0.0000 -0.5858 0.0000
# 3 43.5091 40.0101 137.6586 0.0000 -9.3270 0.0000
# 4 0.0000 0.0000 0.0000 13.0199 0.0000 -0.6312
# 5 -7.0497 -0.5858 -9.3270 0.0000 32.3905 0.0000
# 6 0.0000 0.0000 0.0000 -0.6312 0.0000 31.4773
#
#
#
# Elastic Compliance Matrix: (Units=1/GPa)
#
#
# Indices 1 2 3 4 5 6 
#
# 1 0.011469 -0.003464 -0.002502 0.000000 0.001713 0.000000
# 2 -0.003464 0.014859 -0.003321 0.000000 -0.001442 0.000000
# 3 -0.002502 -0.003321 0.009158 0.000000 0.002033 0.000000
# 4 0.000000 0.000000 0.000000 0.076880 0.000000 0.001542
# 5 0.001713 -0.001442 0.002033 0.000000 0.031805 0.000000
# 6 0.000000 0.000000 0.000000 0.001542 0.000000 0.031800
#
#
# Mechanical properties :
#
#
# Convention : Reuss Voigt Hill
#
# Bulk Modulus (GPa) = 59.13379 62.82461 60.97920
# Shear Modulus (GPa) = 24.97720 29.52091 27.24905
#
# Velocity S-wave (km/s) = 3.46745 3.76967 3.62171
# Velocity P-wave (km/s) = 6.67053 7.01348 6.84415
#
# Compressibility (1/GPa) = 0.01691080
#
# Stress axis : x y z
#
# Youngs Moduli (GPa) = 87.19347 67.30091 109.19120
#
# Poissons Ratio (x) = 0.23312 0.27320
# Poissons Ratio (y) = 0.30203 0.36268
# Poissons Ratio (z) = 0.21816 0.22354
#
# Static dielectric constant tensor:
#      x y z
#    x 4.072720 0.000000 -0.424080 
#    y 0.000000 4.188070 0.000000 
#    z -0.424080 0.000000 4.082770 
# 
# 
# High freq. dielectric constant tensor:
#      x y z
#    x 1.817100 0.000000 0.002830 
#    y 0.000000 1.811020 0.000000 
#    z 0.002830 0.000000 1.808560 
# 
# From -- ./inp_files/81368.got.cif
#   From: 2010.06.25/outbox.cif.g09.slc.cpg/sg15_41_cif.got.tgz:81368.got - 2010.06.28 07:06:18.
