data_PCOD8139680
_publ_section_title
;
Structure prediction by ZEFSAII (Michael W. Deem and Ramdas Pophale) SiO2 
 PCOD8139680
Probable space group: C 2/C
;
_chemical_formula_sum "Si O2"
_cell_formula_units_Z 48
_cell_length_a 11.304924
_cell_length_b 11.476241
_cell_length_c 21.004600
_cell_angle_alpha 90.000000
_cell_angle_beta 53.478859
_cell_angle_gamma 90.000000
_cell_volume 2189.988445
_symmetry_space_group_name_H-M "C 2/C"
_symmetry_group_IT_number 15
_symmetry_cell_setting 'monoclinic'
loop_
_space_group_symop_operation_xyz
x,y,z
-x,y,1/2-z
-x,-y,-z
x,-y,1/2+z
1/2+x,1/2+y,z
1/2-x,1/2+y,1/2-z
1/2-x,1/2-y,-z
1/2+x,1/2-y,1/2+z
loop_
_atom_site_type_symbol
_atom_site_label
_atom_site_fract_x
_atom_site_fract_y
_atom_site_fract_z
Si Si1 0.567080 0.358152 0.081189
Si Si2 0.943517 0.411875 0.337356
Si Si3 0.090005 0.076366 0.157197
Si Si4 0.283595 0.856095 0.906757
Si Si5 0.672631 0.743961 0.919861
Si Si6 0.554213 0.251783 0.895032
O O1 0.591229 0.443225 0.133054
O O2 0.631052 0.233571 0.077422
O O3 0.397423 0.327640 0.117491
O O4 0.652131 0.410862 0.992054
O O5 0.904242 0.547449 0.349122
O O6 0.800685 0.339056 0.405096
O O7 0.000000 0.372633 0.250000
O O8 0.064639 0.370081 0.351240
O O9 0.252375 0.130288 0.119864
O O10 0.000000 0.083936 0.250000
O O11 0.008606 0.145873 0.127939
O O12 0.216030 0.793547 0.865805
O O13 0.546739 0.768966 0.011235
#
# Coordination Sequence:
#
# PCOD8139680 Si02
#       6
#     8   8   8   8   8   8
#     4  10  22  41  62  88 120 160 207 249 299 361
#     4  11  22  39  58  92 125 156 200 251 310 365
#     4  11  22  39  58  92 125 156 200 251 310 365
#     4  10  22  41  62  88 120 160 207 249 299 361
#     4  10  20  39  67  88 114 160 209 253 294 357
#     4  10  20  39  67  88 114 160 209 253 294 357
#
# _framework density 21.917922999999998
#
# number of rings (size 3 to 8) (size 9 to 14) (size 15 to 20)
#    0.000    1.667    0.000    7.000    0.000    4.667 
#   18.000    5.000    0.000    0.000    0.000    0.000 
#    0.000    0.000    0.000    0.000    0.000    0.000 
#
# Total GULP energy -297475.791529 kJ/mol
# GULP energy per Si atom -12394.824647 kJ/mol
# Density = 2.186804 g / cm^3
# Si number density = 21.917923 Si / 1000 Ang^3
#
#
#
# Elastic Constant Matrix: (Units=GPa)
#
#
# Indices 1 2 3 4 5 6 
#
# 1 53.9834 42.6239 7.8098 0.0000 -3.4417 0.0000
# 2 42.6239 106.8524 36.2574 0.0000 8.2477 0.0000
# 3 7.8098 36.2574 78.1459 0.0000 11.9122 0.0000
# 4 0.0000 0.0000 0.0000 -46.1504 0.0000 -9.3248
# 5 -3.4417 8.2477 11.9122 0.0000 3.7444 0.0000
# 6 0.0000 0.0000 0.0000 -9.3248 0.0000 39.4413
#
#
#
# Elastic Compliance Matrix: (Units=1/GPa)
#
#
# Indices 1 2 3 4 5 6 
#
# 1 0.055492 -0.029316 -0.018565 0.000000 0.174639 0.000000
# 2 -0.029316 0.027090 0.006920 0.000000 -0.108630 0.000000
# 3 -0.018565 0.006920 0.031775 0.000000 -0.133391 0.000000
# 4 0.000000 0.000000 0.000000 -0.020680 0.000000 -0.004889
# 5 0.174639 -0.108630 -0.133391 0.000000 1.091211 0.000000
# 6 0.000000 0.000000 0.000000 -0.004889 0.000000 0.024198
#
#
# Mechanical properties :
#
#
# Convention : Reuss Voigt Hill
#
# Bulk Modulus (GPa) = 30.83241 45.81822 38.32531
# Shear Modulus (GPa) = 3.84078 9.55977 6.70028
#
# Velocity S-wave (km/s) = 1.32520 2.09072 1.75032
# Velocity P-wave (km/s) = 4.05454 5.17474 4.64851
#
# Compressibility (1/GPa) = 0.03243341
#
# Stress axis : x y z
#
# Youngs Moduli (GPa) = 18.02077 36.91410 31.47159
#
# Poissons Ratio (x) = 1.08218 0.58427
# Poissons Ratio (y) = 0.52830 -0.21778
# Poissons Ratio (z) = 0.33455 -0.25544
#
# Static dielectric constant tensor:
#      x y z
#    x 4.241810 0.000000 0.083150 
#    y 0.000000 4.004130 0.000000 
#    z 0.083150 0.000000 3.989690 
# 
# 
# High freq. dielectric constant tensor:
#      x y z
#    x 1.863080 0.000000 0.008000 
#    y 0.000000 1.859820 0.000000 
#    z 0.008000 0.000000 1.848420 
# 
# From -- ./inp_files/196510.got.cif
#   From: 2010.06.25/outbox.cif.g09.slc.cpg/sg15_99_cif.got.tgz:196510.got - 2010.06.28 07:06:18.
