data_PCOD8139496
_publ_section_title
;
Structure prediction by ZEFSAII (Michael W. Deem and Ramdas Pophale) SiO2 
 PCOD8139496
Probable space group: C 2/C
;
_chemical_formula_sum "Si O2"
_cell_formula_units_Z 48
_cell_length_a 17.634869
_cell_length_b 8.788164
_cell_length_c 16.137170
_cell_angle_alpha 90.000000
_cell_angle_beta 83.981228
_cell_angle_gamma 90.000000
_cell_volume 2487.122264
_symmetry_space_group_name_H-M "C 2/C"
_symmetry_group_IT_number 15
_symmetry_cell_setting 'monoclinic'
loop_
_space_group_symop_operation_xyz
x,y,z
-x,y,1/2-z
-x,-y,-z
x,-y,1/2+z
1/2+x,1/2+y,z
1/2-x,1/2+y,1/2-z
1/2-x,1/2-y,-z
1/2+x,1/2-y,1/2+z
loop_
_atom_site_type_symbol
_atom_site_label
_atom_site_fract_x
_atom_site_fract_y
_atom_site_fract_z
Si Si1 0.077276 0.620749 0.144935
Si Si2 0.920346 0.918539 0.027320
Si Si3 0.319479 0.655703 0.958572
Si Si4 0.411196 0.810221 0.670461
Si Si5 0.266436 0.090689 0.102087
Si Si6 0.346140 0.169162 0.928062
O O1 0.112235 0.733253 0.073514
O O2 0.090250 0.706486 0.230633
O O3 0.113561 0.453183 0.136170
O O4 0.987741 0.599517 0.135595
O O5 0.912881 0.852245 0.121920
O O6 0.908631 0.780830 0.963054
O O7 0.852345 0.040210 0.024101
O O8 0.000000 0.000000 0.000000
O O9 0.286647 0.559207 0.883531
O O10 0.250000 0.750000 0.000000
O O11 0.336834 0.909764 0.656959
O O12 0.213619 0.238880 0.122362
O O13 0.298817 0.084633 0.004792
#
# Coordination Sequence:
#
# PCOD8139496 Si02
#       6
#     8   8   8   8   8   8
#     4  11  22  38  60  86 123 155 197 251 302 359
#     4  10  20  39  63  89 116 162 201 244 296 361
#     4  11  21  36  61  91 114 155 206 245 291 362
#     4  10  23  38  59  84 124 157 197 247 312 347
#     4   9  19  37  57  85 116 152 195 243 294 354
#     4   9  19  35  62  84 116 154 196 246 296 352
#
# _framework density 19.299412
#
# number of rings (size 3 to 8) (size 9 to 14) (size 15 to 20)
#    0.000    2.000    3.333    1.000    0.000    5.333 
#    0.000    0.000   14.667    0.000    0.000    0.000 
#    0.000    0.000    0.000    0.000    0.000    0.000 
#
# Total GULP energy -297455.086234 kJ/mol
# GULP energy per Si atom -12393.961926 kJ/mol
# Density = 1.925549 g / cm^3
# Si number density = 19.299412 Si / 1000 Ang^3
#
#
#
# Elastic Constant Matrix: (Units=GPa)
#
#
# Indices 1 2 3 4 5 6 
#
# 1 118.9344 51.4869 29.7172 0.0000 16.6657 0.0000
# 2 51.4869 108.3511 40.3339 0.0000 1.1510 0.0000
# 3 29.7172 40.3339 67.0308 0.0000 5.8709 0.0000
# 4 0.0000 0.0000 0.0000 22.5768 0.0000 -5.0474
# 5 16.6657 1.1510 5.8709 0.0000 28.1101 0.0000
# 6 0.0000 0.0000 0.0000 -5.0474 0.0000 41.3427
#
#
#
# Elastic Compliance Matrix: (Units=1/GPa)
#
#
# Indices 1 2 3 4 5 6 
#
# 1 0.011885 -0.004934 -0.001733 0.000000 -0.006482 0.000000
# 2 -0.004934 0.013971 -0.006545 0.000000 0.003720 0.000000
# 3 -0.001733 -0.006545 0.019875 0.000000 -0.002856 0.000000
# 4 0.000000 0.000000 0.000000 0.045536 0.000000 0.005559
# 5 -0.006482 0.003720 -0.002856 0.000000 0.039862 0.000000
# 6 0.000000 0.000000 0.000000 0.005559 0.000000 0.024867
#
#
# Mechanical properties :
#
#
# Convention : Reuss Voigt Hill
#
# Bulk Modulus (GPa) = 51.79164 59.71026 55.75095
# Shear Modulus (GPa) = 26.47550 29.92447 28.19998
#
# Velocity S-wave (km/s) = 3.70784 3.94196 3.82669
# Velocity P-wave (km/s) = 6.72495 7.19199 6.96239
#
# Compressibility (1/GPa) = 0.01930814
#
# Stress axis : x y z
#
# Youngs Moduli (GPa) = 84.13883 71.57912 50.31466
#
# Poissons Ratio (x) = 0.35316 0.08717
# Poissons Ratio (y) = 0.41513 0.32930
# Poissons Ratio (z) = 0.14577 0.46847
#
# Static dielectric constant tensor:
#      x y z
#    x 3.879330 0.000000 0.093760 
#    y 0.000000 3.623030 0.000000 
#    z 0.093760 0.000000 3.210900 
# 
# 
# High freq. dielectric constant tensor:
#      x y z
#    x 1.777900 0.000000 0.009630 
#    y 0.000000 1.749730 0.000000 
#    z 0.009630 0.000000 1.706270 
# 
# From -- ./inp_files/208615.got.cif
#   From: 2010.06.25/outbox.cif.g09.slc.cpg/sg15_105_cif.got.tgz:208615.got - 2010.06.28 07:06:18.
