data_PCOD8139894
_publ_section_title
;
Structure prediction by ZEFSAII (Michael W. Deem and Ramdas Pophale) SiO2 
 PCOD8139894
Probable space group: C 2/C
;
_chemical_formula_sum "Si O2"
_cell_formula_units_Z 48
_cell_length_a 10.939326
_cell_length_b 11.087735
_cell_length_c 19.338183
_cell_angle_alpha 90.000000
_cell_angle_beta 123.778473
_cell_angle_gamma 90.000000
_cell_volume 1949.625358
_symmetry_space_group_name_H-M "C 2/C"
_symmetry_group_IT_number 15
_symmetry_cell_setting 'monoclinic'
loop_
_space_group_symop_operation_xyz
x,y,z
-x,y,1/2-z
-x,-y,-z
x,-y,1/2+z
1/2+x,1/2+y,z
1/2-x,1/2+y,1/2-z
1/2-x,1/2-y,-z
1/2+x,1/2-y,1/2+z
loop_
_atom_site_type_symbol
_atom_site_label
_atom_site_fract_x
_atom_site_fract_y
_atom_site_fract_z
Si Si1 0.000000 0.819837 0.750000
Si Si2 0.219885 0.210519 0.704014
Si Si3 0.429328 0.954471 0.871255
Si Si4 0.214016 0.565637 0.547718
Si Si5 0.000000 0.450276 0.750000
Si Si6 0.972524 0.021832 0.375825
Si Si7 0.272957 0.295498 0.869100
O O1 0.858063 0.732774 0.695568
O O2 0.965264 0.907339 0.802124
O O3 0.099635 0.315071 0.654211
O O4 0.274382 0.213737 0.800549
O O5 0.144052 0.085328 0.662928
O O6 0.430231 0.022507 0.794691
O O7 0.302094 0.003377 0.881774
O O8 0.585158 0.975597 0.956800
O O9 0.363433 0.523554 0.557434
O O10 0.215237 0.709608 0.560349
O O11 0.877542 0.369372 0.673343
O O12 0.914927 0.115135 0.416188
#
# Coordination Sequence:
#
# PCOD8139894 Si02
#       7
#     4   8   8   8   4   8   8
#     4  10  20  40  62  96 142 176 230 280 338 400
#     4  10  21  38  65 100 131 183 223 282 336 408
#     4  10  23  43  70  99 136 185 226 275 356 394
#     4  11  22  45  71  94 143 184 219 290 340 408
#     4  10  22  44  60 102 132 162 240 280 318 424
#     4  11  22  39  67  98 135 183 227 275 346 400
#     4  10  23  38  66 100 134 176 231 275 342 403
#
# _framework density 24.620114000000001
#
# number of rings (size 3 to 8) (size 9 to 14) (size 15 to 20)
#    0.000    1.667    1.667    3.000    4.667    4.000 
#    3.000    6.667    0.000    0.000    0.000    0.000 
#    0.000    0.000    0.000    0.000    0.000    0.000 
#
# Total GULP energy -297538.458206 kJ/mol
# GULP energy per Si atom -12397.435759 kJ/mol
# Density = 2.456408 g / cm^3
# Si number density = 24.620114 Si / 1000 Ang^3
#
#
#
# Elastic Constant Matrix: (Units=GPa)
#
#
# Indices 1 2 3 4 5 6 
#
# 1 128.6055 48.3252 39.3610 0.0000 19.1768 0.0000
# 2 48.3252 75.8179 22.6859 0.0000 12.6099 0.0000
# 3 39.3610 22.6859 51.8459 0.0000 1.2592 0.0000
# 4 0.0000 0.0000 0.0000 15.8291 0.0000 2.0592
# 5 19.1768 12.6099 1.2592 0.0000 49.6909 0.0000
# 6 0.0000 0.0000 0.0000 2.0592 0.0000 46.9353
#
#
#
# Elastic Compliance Matrix: (Units=1/GPa)
#
#
# Indices 1 2 3 4 5 6 
#
# 1 0.012386 -0.005248 -0.007028 0.000000 -0.003270 0.000000
# 2 -0.005248 0.018106 -0.003878 0.000000 -0.002471 0.000000
# 3 -0.007028 -0.003878 0.026247 0.000000 0.003031 0.000000
# 4 0.000000 0.000000 0.000000 0.063537 0.000000 -0.002788
# 5 -0.003270 -0.002471 0.003031 0.000000 0.021937 0.000000
# 6 0.000000 0.000000 0.000000 -0.002788 0.000000 0.021428
#
#
# Mechanical properties :
#
#
# Convention : Reuss Voigt Hill
#
# Bulk Modulus (GPa) = 40.93191 53.00152 46.96672
# Shear Modulus (GPa) = 24.49863 32.21753 28.35808
#
# Velocity S-wave (km/s) = 3.15789 3.62136 3.39754
# Velocity P-wave (km/s) = 5.47337 6.24981 5.87444
#
# Compressibility (1/GPa) = 0.02443082
#
# Stress axis : x y z
#
# Youngs Moduli (GPa) = 80.73411 55.23038 38.10006
#
# Poissons Ratio (x) = 0.28986 0.26776
# Poissons Ratio (y) = 0.42370 0.14776
# Poissons Ratio (z) = 0.56738 0.21419
#
# Static dielectric constant tensor:
#      x y z
#    x 5.085090 0.000000 0.054570 
#    y 0.000000 4.385340 0.000000 
#    z 0.054570 0.000000 4.054050 
# 
# 
# High freq. dielectric constant tensor:
#      x y z
#    x 2.007480 0.000000 0.010610 
#    y 0.000000 1.977940 0.000000 
#    z 0.010610 0.000000 1.953530 
# 
# From -- ./inp_files/196253.got.cif
#   From: 2010.06.25/outbox.cif.g09.slc.cpg/sg15_99_cif.got.tgz:196253.got - 2010.06.28 07:06:18.
