data_PCOD8139423
_publ_section_title
;
Structure prediction by ZEFSAII (Michael W. Deem and Ramdas Pophale) SiO2 
 PCOD8139423
Probable space group: C 2/C
;
_chemical_formula_sum "Si O2"
_cell_formula_units_Z 48
_cell_length_a 18.053191
_cell_length_b 14.886048
_cell_length_c 13.550493
_cell_angle_alpha 90.000000
_cell_angle_beta 144.472029
_cell_angle_gamma 90.000000
_cell_volume 2116.116666
_symmetry_space_group_name_H-M "C 2/C"
_symmetry_group_IT_number 15
_symmetry_cell_setting 'monoclinic'
loop_
_space_group_symop_operation_xyz
x,y,z
-x,y,1/2-z
-x,-y,-z
x,-y,1/2+z
1/2+x,1/2+y,z
1/2-x,1/2+y,1/2-z
1/2-x,1/2-y,-z
1/2+x,1/2-y,1/2+z
loop_
_atom_site_type_symbol
_atom_site_label
_atom_site_fract_x
_atom_site_fract_y
_atom_site_fract_z
Si Si1 0.532001 0.581168 0.675645
Si Si2 0.266257 0.828833 0.845108
Si Si3 0.770316 0.015028 0.345269
Si Si4 0.502421 0.740017 0.493887
Si Si5 0.421628 0.926625 0.476451
Si Si6 0.208202 0.509335 0.997882
O O1 0.500000 0.619141 0.750000
O O2 0.422350 0.510172 0.523585
O O3 0.543112 0.663774 0.614050
O O4 0.659399 0.524469 0.812482
O O5 0.266894 0.891400 0.748020
O O6 0.380694 0.756593 0.955418
O O7 0.297134 0.885149 0.978251
O O8 0.127703 0.782476 0.706357
O O9 0.721145 0.931046 0.227136
O O10 0.696649 0.009778 0.369977
O O11 0.478980 0.828476 0.533951
O O12 0.500000 0.000000 0.500000
O O13 0.408408 0.956531 0.576264
#
# Coordination Sequence:
#
# PCOD8139423 Si02
#       6
#     8   8   8   8   8   8
#     4   9  20  37  62  92 119 150 196 248 310 360
#     4  10  22  38  62  91 120 159 202 244 304 354
#     4   9  20  38  60  87 118 153 201 243 293 364
#     4  11  21  38  56  88 126 151 197 254 295 356
#     4  11  21  37  56  84 119 157 202 238 295 355
#     4  10  20  39  62  86 118 162 197 245 296 360
#
# _framework density 22.683059
#
# number of rings (size 3 to 8) (size 9 to 14) (size 15 to 20)
#    0.000    2.000    3.333    1.000    0.000    9.333 
#    0.000    5.833    0.000    4.000    0.000    0.000 
#    0.000    0.000    0.000    0.000    0.000    0.000 
#
# Total GULP energy -297491.472166 kJ/mol
# GULP energy per Si atom -12395.478007 kJ/mol
# Density = 2.263143 g / cm^3
# Si number density = 22.683059 Si / 1000 Ang^3
#
#
#
# Elastic Constant Matrix: (Units=GPa)
#
#
# Indices 1 2 3 4 5 6 
#
# 1 102.9875 17.3443 15.8583 0.0000 4.1848 0.0000
# 2 17.3443 63.2223 9.5772 0.0000 10.0522 0.0000
# 3 15.8583 9.5772 51.6381 0.0000 9.7692 0.0000
# 4 0.0000 0.0000 0.0000 26.5460 0.0000 10.0580
# 5 4.1848 10.0522 9.7692 0.0000 35.7002 0.0000
# 6 0.0000 0.0000 0.0000 10.0580 0.0000 32.7938
#
#
#
# Elastic Compliance Matrix: (Units=1/GPa)
#
#
# Indices 1 2 3 4 5 6 
#
# 1 0.010557 -0.002507 -0.002823 0.000000 0.000241 0.000000
# 2 -0.002507 0.017419 -0.001675 0.000000 -0.004152 0.000000
# 3 -0.002823 -0.001675 0.021505 0.000000 -0.005082 0.000000
# 4 0.000000 0.000000 0.000000 0.042624 0.000000 -0.013073
# 5 0.000241 -0.004152 -0.005082 0.000000 0.030543 0.000000
# 6 0.000000 0.000000 0.000000 -0.013073 0.000000 0.034503
#
#
# Mechanical properties :
#
#
# Convention : Reuss Voigt Hill
#
# Bulk Modulus (GPa) = 28.19208 33.71193 30.95201
# Shear Modulus (GPa) = 27.32495 30.67922 29.00209
#
# Velocity S-wave (km/s) = 3.47456 3.68165 3.57960
# Velocity P-wave (km/s) = 5.34345 5.74170 5.54615
#
# Compressibility (1/GPa) = 0.03547095
#
# Stress axis : x y z
#
# Youngs Moduli (GPa) = 94.72420 57.40877 46.50177
#
# Poissons Ratio (x) = 0.14392 0.13126
# Poissons Ratio (y) = 0.23746 0.07790
# Poissons Ratio (z) = 0.26738 0.09617
#
# Static dielectric constant tensor:
#      x y z
#    x 4.355790 0.000000 0.345740 
#    y 0.000000 3.982960 0.000000 
#    z 0.345740 0.000000 4.463980 
# 
# 
# High freq. dielectric constant tensor:
#      x y z
#    x 1.906280 0.000000 0.021250 
#    y 0.000000 1.872050 0.000000 
#    z 0.021250 0.000000 1.900040 
# 
# From -- ./inp_files/162354.got.cif
#   From: 2010.06.25/outbox.cif.g09.slc.cpg/sg15_82_cif.got.tgz:162354.got - 2010.06.28 07:06:18.
