data_PCOD8139228
_publ_section_title
;
Structure prediction by ZEFSAII (Michael W. Deem and Ramdas Pophale) SiO2 
 PCOD8139228
Probable space group: C 2/C
;
_chemical_formula_sum "Si O2"
_cell_formula_units_Z 28
_cell_length_a 9.068430
_cell_length_b 17.825246
_cell_length_c 13.893614
_cell_angle_alpha 90.000000
_cell_angle_beta 144.049241
_cell_angle_gamma 90.000000
_cell_volume 1318.521954
_symmetry_space_group_name_H-M "C 2/C"
_symmetry_group_IT_number 15
_symmetry_cell_setting 'monoclinic'
loop_
_space_group_symop_operation_xyz
x,y,z
-x,y,1/2-z
-x,-y,-z
x,-y,1/2+z
1/2+x,1/2+y,z
1/2-x,1/2+y,1/2-z
1/2-x,1/2-y,-z
1/2+x,1/2-y,1/2+z
loop_
_atom_site_type_symbol
_atom_site_label
_atom_site_fract_x
_atom_site_fract_y
_atom_site_fract_z
Si Si1 0.000000 0.533196 0.250000
Si Si2 0.111923 0.844238 0.596926
Si Si3 0.833585 0.187124 0.751492
Si Si4 0.113961 0.610941 0.907247
O O1 0.779943 0.581833 0.179570
O O2 0.893431 0.479838 0.107404
O O3 0.283926 0.775805 0.721030
O O4 0.990969 0.829962 0.429521
O O5 0.900216 0.859713 0.567111
O O6 0.568008 0.141640 0.604367
O O7 0.000000 0.160325 0.750000
O O8 0.000000 0.648212 0.750000
#
# Coordination Sequence:
#
# PCOD8139228 Si02
#       4
#     4   8   8   8
#     4  10  20  38  68  84 116 162 202 234 294 364
#     4  11  21  39  64  88 118 158 203 238 296 352
#     4  11  22  37  61  91 122 152 198 248 294 349
#     4   8  20  37  61  84 117 157 200 235 288 357
#
# _framework density 21.235900000000001
#
# number of rings (size 3 to 8) (size 9 to 14) (size 15 to 20)
#    0.857    1.143    1.429    2.571    0.000    0.000 
#    0.000    1.429    0.000    0.000    0.000    0.000 
#    0.000    0.000    0.000    0.000    0.000    0.000 
#
# Total GULP energy -173508.598341 kJ/mol
# GULP energy per Si atom -12393.471310 kJ/mol
# Density = 2.118757 g / cm^3
# Si number density = 21.235900 Si / 1000 Ang^3
#
#
#
# Elastic Constant Matrix: (Units=GPa)
#
#
# Indices 1 2 3 4 5 6 
#
# 1 158.6597 58.5355 33.5479 0.0000 47.9972 0.0001
# 2 58.5355 110.2264 7.3053 0.0006 15.0989 0.0006
# 3 33.5479 7.3053 39.1875 -0.0015 16.3029 -0.0023
# 4 0.0000 0.0006 -0.0015 22.3983 -0.0019 17.7137
# 5 47.9972 15.0989 16.3029 -0.0019 33.8041 -0.0016
# 6 0.0001 0.0006 -0.0023 17.7137 -0.0016 33.0887
#
#
#
# Elastic Compliance Matrix: (Units=1/GPa)
#
#
# Indices 1 2 3 4 5 6 
#
# 1 0.013557 -0.004859 -0.004497 -0.000001 -0.014910 0.000000
# 2 -0.004859 0.011405 0.001605 0.000000 0.001031 0.000000
# 3 -0.004497 0.001605 0.033415 0.000000 -0.010447 0.000002
# 4 -0.000001 0.000000 0.000000 0.077427 0.000004 -0.041449
# 5 -0.014910 0.001031 -0.010447 0.000004 0.055329 0.000000
# 6 0.000000 0.000000 0.000002 -0.041449 0.000000 0.052411
#
#
# Mechanical properties :
#
#
# Convention : Reuss Voigt Hill
#
# Bulk Modulus (GPa) = 23.32418 56.31678 39.82048
# Shear Modulus (GPa) = 18.29233 31.77055 25.03144
#
# Velocity S-wave (km/s) = 2.93812 3.87211 3.43699
# Velocity P-wave (km/s) = 4.74524 6.82409 5.87731
#
# Compressibility (1/GPa) = 0.04287396
#
# Stress axis : x y z
#
# Youngs Moduli (GPa) = 73.76403 87.68099 29.92641
#
# Poissons Ratio (x) = 0.42603 0.13459
# Poissons Ratio (y) = 0.35841 -0.04802
# Poissons Ratio (z) = 0.33174 -0.14070
#
# Static dielectric constant tensor:
#      x y z
#    x 4.023190 0.000000 0.488660 
#    y 0.000000 3.795920 0.000000 
#    z 0.488660 0.000000 3.653130 
# 
# 
# High freq. dielectric constant tensor:
#      x y z
#    x 1.833480 0.000000 0.040920 
#    y 0.000000 1.833100 0.000000 
#    z 0.040920 0.000000 1.806920 
# 
# From -- ./inp_files/21552.got.cif
#   From: 2010.06.25/outbox.cif.g09.slc.cpg/sg15_11_cif.got.tgz:21552.got - 2010.06.28 07:06:18.
