data_PCOD8139176
_publ_section_title
;
Structure prediction by ZEFSAII (Michael W. Deem and Ramdas Pophale) SiO2 
 PCOD8139176
Probable space group: C 2/C
;
_chemical_formula_sum "Si O2"
_cell_formula_units_Z 48
_cell_length_a 22.257110
_cell_length_b 9.522594
_cell_length_c 13.895775
_cell_angle_alpha 90.000000
_cell_angle_beta 133.171140
_cell_angle_gamma 90.000000
_cell_volume 2147.934200
_symmetry_space_group_name_H-M "C 2/C"
_symmetry_group_IT_number 15
_symmetry_cell_setting 'monoclinic'
loop_
_space_group_symop_operation_xyz
x,y,z
-x,y,1/2-z
-x,-y,-z
x,-y,1/2+z
1/2+x,1/2+y,z
1/2-x,1/2+y,1/2-z
1/2-x,1/2-y,-z
1/2+x,1/2-y,1/2+z
loop_
_atom_site_type_symbol
_atom_site_label
_atom_site_fract_x
_atom_site_fract_y
_atom_site_fract_z
Si Si1 0.144896 0.820973 0.664194
Si Si2 0.411721 0.307939 0.683596
Si Si3 0.578522 0.277122 0.391717
Si Si4 0.279655 0.467872 0.000444
Si Si5 0.719762 0.976248 0.234760
Si Si6 0.630684 0.021646 0.961134
O O1 0.095273 0.803520 0.708796
O O2 0.078840 0.822196 0.504345
O O3 0.193538 0.968896 0.715140
O O4 0.210616 0.693379 0.721665
O O5 0.500000 0.371194 0.750000
O O6 0.339935 0.398246 0.556795
O O7 0.406231 0.152775 0.634061
O O8 0.500000 0.342611 0.250000
O O9 0.663574 0.329051 0.434462
O O10 0.572150 0.109502 0.375171
O O11 0.216768 0.469592 0.841194
O O12 0.224482 0.482182 0.033919
O O13 0.642791 0.043081 0.089889
#
# Coordination Sequence:
#
# PCOD8139176 Si02
#       6
#     8   8   8   8   8   8
#     4  10  21  41  65  91 123 160 212 255 310 366
#     4  12  24  42  63  94 129 167 203 259 314 369
#     4  10  23  42  59  92 128 161 200 257 320 371
#     4  11  21  40  66  89 123 162 213 257 301 371
#     4  10  20  38  66  94 116 156 212 264 300 358
#     4  11  21  40  66  89 123 162 213 257 301 371
#
# _framework density 22.347052999999999
#
# number of rings (size 3 to 8) (size 9 to 14) (size 15 to 20)
#    0.000    1.333    3.333    3.000    0.000    0.000 
#    6.000    5.000    0.000    0.000    0.000    0.000 
#    0.000    0.000    0.000    0.000    0.000    0.000 
#
# Total GULP energy -297508.905331 kJ/mol
# GULP energy per Si atom -12396.204389 kJ/mol
# Density = 2.229619 g / cm^3
# Si number density = 22.347053 Si / 1000 Ang^3
#
#
#
# Elastic Constant Matrix: (Units=GPa)
#
#
# Indices 1 2 3 4 5 6 
#
# 1 83.9981 21.2119 41.6865 0.0000 -7.3129 0.0000
# 2 21.2119 71.8525 28.6543 0.0000 -12.7118 0.0000
# 3 41.6865 28.6543 137.0770 0.0000 -16.6978 0.0000
# 4 0.0000 0.0000 0.0000 21.3025 0.0000 -4.0713
# 5 -7.3129 -12.7118 -16.6978 0.0000 28.5128 0.0000
# 6 0.0000 0.0000 0.0000 -4.0713 0.0000 23.7834
#
#
#
# Elastic Compliance Matrix: (Units=1/GPa)
#
#
# Indices 1 2 3 4 5 6 
#
# 1 0.014505 -0.002713 -0.003810 0.000000 0.000279 0.000000
# 2 -0.002713 0.016469 -0.001947 0.000000 0.005506 0.000000
# 3 -0.003810 -0.001947 0.009299 0.000000 0.003601 0.000000
# 4 0.000000 0.000000 0.000000 0.048531 0.000000 0.008308
# 5 0.000279 0.005506 0.003601 0.000000 0.039707 0.000000
# 6 0.000000 0.000000 0.000000 0.008308 0.000000 0.043468
#
#
# Mechanical properties :
#
#
# Convention : Reuss Voigt Hill
#
# Bulk Modulus (GPa) = 42.85682 52.89256 47.87469
# Shear Modulus (GPa) = 25.41970 28.14473 26.78222
#
# Velocity S-wave (km/s) = 3.37634 3.55271 3.46564
# Velocity P-wave (km/s) = 5.86677 6.36781 6.12242
#
# Compressibility (1/GPa) = 0.02333351
#
# Stress axis : x y z
#
# Youngs Moduli (GPa) = 68.93993 60.72045 107.53374
#
# Poissons Ratio (x) = 0.16476 0.40970
# Poissons Ratio (y) = 0.18706 0.20934
# Poissons Ratio (z) = 0.26266 0.11821
#
# Static dielectric constant tensor:
#      x y z
#    x 3.836210 0.000000 -0.273270 
#    y 0.000000 4.022690 0.000000 
#    z -0.273270 0.000000 4.034870 
# 
# 
# High freq. dielectric constant tensor:
#      x y z
#    x 1.854470 0.000000 -0.025350 
#    y 0.000000 1.883800 0.000000 
#    z -0.025350 0.000000 1.890080 
# 
# From -- ./inp_files/152120.got.cif
#   From: 2010.06.25/outbox.cif.g09.slc.cpg/sg15_77_cif.got.tgz:152120.got - 2010.06.28 07:06:18.
