data_PCOD8139252
_publ_section_title
;
Structure prediction by ZEFSAII (Michael W. Deem and Ramdas Pophale) SiO2 
 PCOD8139252
Probable space group: C 2/C
;
_chemical_formula_sum "Si O2"
_cell_formula_units_Z 64
_cell_length_a 13.853942
_cell_length_b 13.169381
_cell_length_c 29.591124
_cell_angle_alpha 90.000000
_cell_angle_beta 35.586127
_cell_angle_gamma 90.000000
_cell_volume 3141.723848
_symmetry_space_group_name_H-M "C 2/C"
_symmetry_group_IT_number 15
_symmetry_cell_setting 'monoclinic'
loop_
_space_group_symop_operation_xyz
x,y,z
-x,y,1/2-z
-x,-y,-z
x,-y,1/2+z
1/2+x,1/2+y,z
1/2-x,1/2+y,1/2-z
1/2-x,1/2-y,-z
1/2+x,1/2-y,1/2+z
loop_
_atom_site_type_symbol
_atom_site_label
_atom_site_fract_x
_atom_site_fract_y
_atom_site_fract_z
Si Si1 0.869400 0.240106 0.911389
Si Si2 0.658564 0.708206 0.077566
Si Si3 0.144298 0.425539 0.931710
Si Si4 0.561596 0.566766 0.680024
Si Si5 0.489271 0.911656 0.804738
Si Si6 0.655332 0.596276 0.281933
Si Si7 0.627914 0.863912 0.164300
Si Si8 0.327771 0.233874 0.148662
O O1 0.837501 0.144940 0.890558
O O2 0.871190 0.342708 0.880959
O O3 0.053097 0.219692 0.859350
O O4 0.750000 0.250000 0.000000
O O5 0.799663 0.641206 0.047316
O O6 0.492280 0.642490 0.130213
O O7 0.602989 0.805502 0.127398
O O8 0.750000 0.750000 0.000000
O O9 0.306825 0.484271 0.852936
O O10 0.080557 0.354142 0.915336
O O11 0.000000 0.500000 0.000000
O O12 0.500000 0.620954 0.750000
O O13 0.408046 0.512177 0.712867
O O14 0.500000 0.865636 0.750000
O O15 0.674807 0.922967 0.754759
O O16 0.390236 0.017497 0.838907
O O17 0.678023 0.677832 0.232525
O O18 0.500000 0.824588 0.250000
O O19 0.793955 0.827315 0.126995
#
# Coordination Sequence:
#
# PCOD8139252 Si02
#       8
#     8   8   8   8   8   8   8   8
#     4  11  25  43  61  90 134 171 204 259 328 385
#     4  10  22  38  61  96 128 158 209 268 319 382
#     4  10  21  39  62  93 128 160 205 262 319 374
#     4  11  22  39  67  95 124 164 216 260 311 377
#     4  10  24  42  64  93 128 166 220 265 313 379
#     4  10  21  39  65  97 125 160 215 267 310 379
#     4  10  20  38  69  88 118 164 216 261 310 374
#     4  10  20  40  66  91 121 167 216 253 311 384
#
# _framework density 20.370982000000001
#
# number of rings (size 3 to 8) (size 9 to 14) (size 15 to 20)
#    0.000    1.750    2.500    1.125    3.500    4.000 
#   11.250    0.625    0.000    0.000    0.000    0.000 
#    0.000    0.000    0.000    0.000    0.000    0.000 
#
# Total GULP energy -396467.392598 kJ/mol
# GULP energy per Si atom -12389.606019 kJ/mol
# Density = 2.032462 g / cm^3
# Si number density = 20.370982 Si / 1000 Ang^3
#
#
#
# Elastic Constant Matrix: (Units=GPa)
#
#
# Indices 1 2 3 4 5 6 
#
# 1 72.8040 47.2195 30.2283 -0.0001 12.8215 0.0001
# 2 47.2195 110.7173 57.2559 -0.0002 13.0444 0.0001
# 3 30.2283 57.2559 131.7214 -0.0007 29.9765 0.0003
# 4 -0.0001 -0.0002 -0.0007 42.2296 0.0001 2.0981
# 5 12.8215 13.0444 29.9765 0.0001 30.8230 -0.0001
# 6 0.0001 0.0001 0.0003 2.0981 -0.0001 24.7609
#
#
#
# Elastic Compliance Matrix: (Units=1/GPa)
#
#
# Indices 1 2 3 4 5 6 
#
# 1 0.019659 -0.007805 -0.000012 0.000000 -0.004863 0.000000
# 2 -0.007805 0.014750 -0.005058 0.000000 0.001924 0.000000
# 3 -0.000012 -0.005058 0.011950 0.000000 -0.009476 0.000000
# 4 0.000000 0.000000 0.000000 0.023780 0.000000 -0.002015
# 5 -0.004863 0.001924 -0.009476 0.000000 0.042868 0.000000
# 6 0.000000 0.000000 0.000000 -0.002015 0.000000 0.040557
#
#
# Mechanical properties :
#
#
# Convention : Reuss Voigt Hill
#
# Bulk Modulus (GPa) = 48.52481 64.96111 56.74296
# Shear Modulus (GPa) = 26.85523 31.59863 29.22693
#
# Velocity S-wave (km/s) = 3.63479 3.94275 3.79190
# Velocity P-wave (km/s) = 6.44111 7.25846 6.86197
#
# Compressibility (1/GPa) = 0.02060801
#
# Stress axis : x y z
#
# Youngs Moduli (GPa) = 50.86658 67.79736 83.68477
#
# Poissons Ratio (x) = 0.52917 0.00102
# Poissons Ratio (y) = 0.39702 0.42327
# Poissons Ratio (z) = 0.00062 0.34292
#
# Static dielectric constant tensor:
#      x y z
#    x 3.767890 0.000000 0.019100 
#    y 0.000000 3.686010 0.000000 
#    z 0.019100 0.000000 3.600150 
# 
# 
# High freq. dielectric constant tensor:
#      x y z
#    x 1.793570 0.000000 0.009120 
#    y 0.000000 1.797730 0.000000 
#    z 0.009120 0.000000 1.791020 
# 
# From -- ./inp_files/313577.got.cif
#   From: 2010.06.25/outbox.cif.g09.slc.cpg/sg15_157_cif.got.tgz:313577.got - 2010.06.28 07:06:18.
