data_PCOD8139016
_publ_section_title
;
Structure prediction by ZEFSAII (Michael W. Deem and Ramdas Pophale) SiO2 
 PCOD8139016
Probable space group: C 2/C
;
_chemical_formula_sum "Si O2"
_cell_formula_units_Z 44
_cell_length_a 11.907695
_cell_length_b 13.950695
_cell_length_c 26.662105
_cell_angle_alpha 90.000000
_cell_angle_beta 149.095116
_cell_angle_gamma 90.000000
_cell_volume 2274.862577
_symmetry_space_group_name_H-M "C 2/C"
_symmetry_group_IT_number 15
_symmetry_cell_setting 'monoclinic'
loop_
_space_group_symop_operation_xyz
x,y,z
-x,y,1/2-z
-x,-y,-z
x,-y,1/2+z
1/2+x,1/2+y,z
1/2-x,1/2+y,1/2-z
1/2-x,1/2-y,-z
1/2+x,1/2-y,1/2+z
loop_
_atom_site_type_symbol
_atom_site_label
_atom_site_fract_x
_atom_site_fract_y
_atom_site_fract_z
Si Si1 0.417766 0.936321 0.855471
Si Si2 0.477443 0.147018 0.604213
Si Si3 0.691793 0.189706 0.524889
Si Si4 0.580683 0.766770 0.725898
Si Si5 0.801240 0.279089 0.940029
Si Si6 0.500000 0.616204 0.250000
O O1 0.419794 0.859508 0.810948
O O2 0.183772 0.946902 0.793190
O O3 0.467113 0.041868 0.853657
O O4 0.595193 0.910780 0.967232
O O5 0.680855 0.220227 0.683139
O O6 0.280683 0.183939 0.563592
O O7 0.386437 0.141626 0.512595
O O8 0.750000 0.250000 0.500000
O O9 0.504208 0.248168 0.482520
O O10 0.910601 0.183610 0.642463
O O11 0.500000 0.800593 0.750000
O O12 0.600846 0.317278 0.831224
#
# Coordination Sequence:
#
# PCOD8139016 Si02
#       6
#     8   8   8   8   8   4
#     4  10  23  39  60  92 119 159 206 248 298 359
#     4  11  23  39  64  89 123 158 203 247 306 353
#     4   9  20  39  61  84 123 160 199 247 301 350
#     4  11  21  42  60  88 123 164 197 249 299 359
#     4  10  21  40  62  88 121 162 197 250 305 353
#     4  10  20  38  64  86 124 154 202 254 294 354
#
# _framework density 19.341828
#
# number of rings (size 3 to 8) (size 9 to 14) (size 15 to 20)
#    0.000    1.818    3.636    0.000    1.273    4.364 
#    1.636    3.636    0.000    0.000    0.000    0.000 
#    0.000    0.000    0.000    0.000    0.000    0.000 
#
# Total GULP energy -272652.038037 kJ/mol
# GULP energy per Si atom -12393.274456 kJ/mol
# Density = 1.929781 g / cm^3
# Si number density = 19.341828 Si / 1000 Ang^3
#
#
#
# Elastic Constant Matrix: (Units=GPa)
#
#
# Indices 1 2 3 4 5 6 
#
# 1 119.3712 44.1696 25.5620 0.0000 3.9528 0.0000
# 2 44.1696 102.9987 34.5841 0.0000 -1.4705 0.0000
# 3 25.5620 34.5841 109.0235 0.0002 -11.4389 -0.0001
# 4 0.0000 0.0000 0.0002 19.1109 0.0001 -1.6890
# 5 3.9528 -1.4705 -11.4389 0.0001 33.4302 0.0000
# 6 0.0000 0.0000 -0.0001 -1.6890 0.0000 9.3550
#
#
#
# Elastic Compliance Matrix: (Units=1/GPa)
#
#
# Indices 1 2 3 4 5 6 
#
# 1 0.010183 -0.003947 -0.001328 0.000000 -0.001832 0.000000
# 2 -0.003947 0.012413 -0.003014 0.000000 -0.000019 0.000000
# 3 -0.001328 -0.003014 0.010831 0.000000 0.003731 0.000000
# 4 0.000000 0.000000 0.000000 0.053175 0.000000 0.009600
# 5 -0.001832 -0.000019 0.003731 0.000000 0.031405 0.000000
# 6 0.000000 0.000000 0.000000 0.009600 0.000000 0.108628
#
#
# Mechanical properties :
#
#
# Convention : Reuss Voigt Hill
#
# Bulk Modulus (GPa) = 59.34934 60.00276 59.67605
# Shear Modulus (GPa) = 20.09412 27.51774 23.80593
#
# Velocity S-wave (km/s) = 3.22669 3.77597 3.51208
# Velocity P-wave (km/s) = 6.68080 7.07815 6.88234
#
# Compressibility (1/GPa) = 0.01684939
#
# Stress axis : x y z
#
# Youngs Moduli (GPa) = 98.20603 80.55849 92.32608
#
# Poissons Ratio (x) = 0.31797 0.12257
# Poissons Ratio (y) = 0.38763 0.27829
# Poissons Ratio (z) = 0.13038 0.24282
#
# Static dielectric constant tensor:
#      x y z
#    x 3.753280 0.000000 -0.085920 
#    y 0.000000 3.155980 0.000000 
#    z -0.085920 0.000000 4.280210 
# 
# 
# High freq. dielectric constant tensor:
#      x y z
#    x 1.771690 0.000000 0.002340 
#    y 0.000000 1.711800 0.000000 
#    z 0.002340 0.000000 1.774320 
# 
# From -- ./inp_files/86066.got.cif
#   From: 2010.06.25/outbox.cif.g09.slc.cpg/sg15_44_cif.got.tgz:86066.got - 2010.06.28 07:06:18.
