data_PCOD8139976
_publ_section_title
;
Structure prediction by ZEFSAII (Michael W. Deem and Ramdas Pophale) SiO2 
 PCOD8139976
Probable space group: C 2/C
;
_chemical_formula_sum "Si O2"
_cell_formula_units_Z 64
_cell_length_a 12.634711
_cell_length_b 13.823603
_cell_length_c 30.992879
_cell_angle_alpha 90.000000
_cell_angle_beta 34.902013
_cell_angle_gamma 90.000000
_cell_volume 3097.256175
_symmetry_space_group_name_H-M "C 2/C"
_symmetry_group_IT_number 15
_symmetry_cell_setting 'monoclinic'
loop_
_space_group_symop_operation_xyz
x,y,z
-x,y,1/2-z
-x,-y,-z
x,-y,1/2+z
1/2+x,1/2+y,z
1/2-x,1/2+y,1/2-z
1/2-x,1/2-y,-z
1/2+x,1/2-y,1/2+z
loop_
_atom_site_type_symbol
_atom_site_label
_atom_site_fract_x
_atom_site_fract_y
_atom_site_fract_z
Si Si1 0.873564 0.803277 0.249946
Si Si2 0.612568 0.055518 0.751282
Si Si3 0.796115 0.499320 0.503207
Si Si4 0.963833 0.359314 0.380685
Si Si5 0.571153 0.167548 0.402435
Si Si6 0.733810 0.618899 0.248909
Si Si7 0.480809 0.359266 0.122712
Si Si8 0.819037 0.831528 0.899010
O O1 0.675911 0.853191 0.327575
O O2 0.828914 0.696367 0.248275
O O3 0.988013 0.855114 0.172931
O O4 0.000000 0.802013 0.250000
O O5 0.500000 0.005723 0.750000
O O6 0.470600 0.117242 0.827507
O O7 0.766307 0.128046 0.680599
O O8 0.722103 0.982739 0.744827
O O9 0.851314 0.445688 0.440659
O O10 0.595680 0.549646 0.566298
O O11 0.795764 0.417155 0.539817
O O12 0.934473 0.586877 0.467754
O O13 0.852015 0.257840 0.421308
O O14 0.688458 0.119317 0.325173
O O15 0.456960 0.259195 0.421252
O O16 0.701925 0.203293 0.397232
O O17 0.515555 0.629523 0.317630
#
# Coordination Sequence:
#
# PCOD8139976 Si02
#       8
#     8   8   8   8   8   8   8   8
#     4   9  20  38  62  91 121 158 207 265 315 359
#     4  11  20  40  66  91 118 158 210 260 314 366
#     4  12  23  42  61  90 134 168 203 254 309 374
#     4  10  23  41  63  91 128 162 210 261 307 369
#     4  11  23  41  65  92 124 167 209 256 311 368
#     4  10  20  40  64  92 119 158 207 265 307 367
#     4  10  23  41  63  91 128 162 210 261 307 369
#     4  11  23  41  65  92 124 167 209 256 311 368
#
# _framework density 20.663450000000001
#
# number of rings (size 3 to 8) (size 9 to 14) (size 15 to 20)
#    0.000    1.500    2.500    3.375    0.000    2.000 
#    0.000    2.500    0.000    0.000    0.000    0.000 
#    0.000    0.000    0.000    0.000    0.000    0.000 
#
# Total GULP energy -396687.703486 kJ/mol
# GULP energy per Si atom -12396.490734 kJ/mol
# Density = 2.061642 g / cm^3
# Si number density = 20.663450 Si / 1000 Ang^3
#
#
#
# Elastic Constant Matrix: (Units=GPa)
#
#
# Indices 1 2 3 4 5 6 
#
# 1 124.3873 29.1243 45.5629 -0.0003 8.4723 -0.0001
# 2 29.1243 105.8283 47.2103 -0.0001 2.7605 -0.0002
# 3 45.5629 47.2103 107.5890 0.0005 -1.1214 -0.0006
# 4 -0.0003 -0.0001 0.0005 47.0951 0.0004 -2.6192
# 5 8.4723 2.7605 -1.1214 0.0004 5.7342 0.0006
# 6 -0.0001 -0.0002 -0.0006 -2.6192 0.0006 22.8417
#
#
#
# Elastic Compliance Matrix: (Units=1/GPa)
#
#
# Indices 1 2 3 4 5 6 
#
# 1 0.011000 -0.000535 -0.004600 0.000000 -0.016895 0.000000
# 2 -0.000535 0.012036 -0.005118 0.000000 -0.006005 0.000000
# 3 -0.004600 -0.005118 0.013613 0.000000 0.011922 0.000000
# 4 0.000000 0.000000 0.000000 0.021370 -0.000002 0.002450
# 5 -0.016895 -0.006005 0.011922 -0.000002 0.204576 -0.000005
# 6 0.000000 0.000000 0.000000 0.002450 -0.000005 0.044061
#
#
# Mechanical properties :
#
#
# Convention : Reuss Voigt Hill
#
# Bulk Modulus (GPa) = 61.94080 64.62219 63.28150
# Shear Modulus (GPa) = 15.03571 29.52801 22.28186
#
# Velocity S-wave (km/s) = 2.70042 3.78431 3.28734
# Velocity P-wave (km/s) = 6.30588 7.10185 6.71567
#
# Compressibility (1/GPa) = 0.01614445
#
# Stress axis : x y z
#
# Youngs Moduli (GPa) = 90.90639 83.08393 73.46121
#
# Poissons Ratio (x) = 0.04441 0.33793
# Poissons Ratio (y) = 0.04859 0.37595
# Poissons Ratio (z) = 0.41818 0.42520
#
# Static dielectric constant tensor:
#      x y z
#    x 3.352400 0.000000 -0.028710 
#    y 0.000000 3.872730 0.000000 
#    z -0.028710 0.000000 3.815690 
# 
# 
# High freq. dielectric constant tensor:
#      x y z
#    x 1.787590 0.000000 -0.001290 
#    y 0.000000 1.824310 0.000000 
#    z -0.001290 0.000000 1.811120 
# 
# From -- ./inp_files/293065.got.cif
#   From: 2010.06.25/outbox.cif.g09.slc.cpg/sg15_147_cif.got.tgz:293065.got - 2010.06.28 07:06:18.
