data_PCOD8139090
_publ_section_title
;
Structure prediction by ZEFSAII (Michael W. Deem and Ramdas Pophale) SiO2 
 PCOD8139090
Probable space group: C 2/C
;
_chemical_formula_sum "Si O2"
_cell_formula_units_Z 60
_cell_length_a 19.717286
_cell_length_b 14.728332
_cell_length_c 13.663025
_cell_angle_alpha 90.000000
_cell_angle_beta 43.427432
_cell_angle_gamma 90.000000
_cell_volume 2727.591913
_symmetry_space_group_name_H-M "C 2/C"
_symmetry_group_IT_number 15
_symmetry_cell_setting 'monoclinic'
loop_
_space_group_symop_operation_xyz
x,y,z
-x,y,1/2-z
-x,-y,-z
x,-y,1/2+z
1/2+x,1/2+y,z
1/2-x,1/2+y,1/2-z
1/2-x,1/2-y,-z
1/2+x,1/2-y,1/2+z
loop_
_atom_site_type_symbol
_atom_site_label
_atom_site_fract_x
_atom_site_fract_y
_atom_site_fract_z
Si Si1 0.871220 0.386958 0.248135
Si Si2 0.912261 0.010296 0.918400
Si Si3 0.500000 0.220387 0.750000
Si Si4 0.683466 0.762472 0.747261
Si Si5 0.125367 0.658556 0.972690
Si Si6 0.007372 0.820758 0.355103
Si Si7 0.840857 0.819060 0.028466
Si Si8 0.304022 0.068880 0.402616
O O1 0.968568 0.338161 0.188264
O O2 0.878789 0.400339 0.122396
O O3 0.773775 0.329460 0.379450
O O4 0.868029 0.483778 0.302431
O O5 0.000000 0.985819 0.750000
O O6 0.948147 0.090163 0.957985
O O7 0.884406 0.919662 0.009433
O O8 0.812325 0.045625 0.968066
O O9 0.595489 0.281370 0.627593
O O10 0.796707 0.738850 0.618359
O O11 0.622490 0.680486 0.760193
O O12 0.648891 0.756019 0.896307
O O13 0.670264 0.858052 0.708079
O O14 0.026542 0.718383 0.083915
O O15 0.150545 0.597500 0.040081
O O16 0.000000 0.841520 0.250000
#
# Coordination Sequence:
#
# PCOD8139090 Si02
#       8
#     8   8   4   8   8   8   8   8
#     4  10  26  41  67  97 124 171 223 262 322 392
#     4  10  20  38  64  98 124 169 223 270 323 377
#     4  12  22  48  66  88 134 174 212 268 328 386
#     4  11  22  38  62  96 130 173 213 263 326 388
#     4  11  21  42  63  93 129 166 214 264 323 387
#     4  11  20  33  63  93 124 169 213 260 329 376
#     4  10  23  42  66  93 131 172 218 264 325 390
#     4  11  22  42  65  94 136 171 209 276 324 376
#
# _framework density 21.997426000000001
#
# number of rings (size 3 to 8) (size 9 to 14) (size 15 to 20)
#    0.000    1.333    3.333    3.200    0.000    2.667 
#    0.000    4.667    0.000    0.000    0.000    0.000 
#    0.000    0.000    0.000    0.000    0.000    0.000 
#
# Total GULP energy -371655.983186 kJ/mol
# GULP energy per Si atom -12388.532773 kJ/mol
# Density = 2.194736 g / cm^3
# Si number density = 21.997426 Si / 1000 Ang^3
#
#
#
# Elastic Constant Matrix: (Units=GPa)
#
#
# Indices 1 2 3 4 5 6 
#
# 1 84.6735 41.4161 27.3377 0.0000 11.4196 0.0000
# 2 41.4161 105.6818 44.3362 0.0000 12.5237 0.0000
# 3 27.3377 44.3362 80.5902 0.0000 9.9577 0.0000
# 4 0.0000 0.0000 0.0000 27.8100 0.0000 -3.9084
# 5 11.4196 12.5237 9.9577 0.0000 32.5832 0.0000
# 6 0.0000 0.0000 0.0000 -3.9084 0.0000 22.3845
#
#
#
# Elastic Compliance Matrix: (Units=1/GPa)
#
#
# Indices 1 2 3 4 5 6 
#
# 1 0.015206 -0.004687 -0.002228 0.000000 -0.002847 0.000000
# 2 -0.004687 0.013991 -0.005867 0.000000 -0.001942 0.000000
# 3 -0.002228 -0.005867 0.016645 0.000000 -0.002051 0.000000
# 4 0.000000 0.000000 0.000000 0.036863 0.000000 0.006436
# 5 -0.002847 -0.001942 -0.002051 0.000000 0.033062 0.000000
# 6 0.000000 0.000000 0.000000 0.006436 0.000000 0.045798
#
#
# Mechanical properties :
#
#
# Convention : Reuss Voigt Hill
#
# Bulk Modulus (GPa) = 49.31437 55.23616 52.27526
# Shear Modulus (GPa) = 25.78822 27.07925 26.43373
#
# Velocity S-wave (km/s) = 3.42764 3.51239 3.47028
# Velocity P-wave (km/s) = 6.17510 6.45089 6.31450
#
# Compressibility (1/GPa) = 0.02027807
#
# Stress axis : x y z
#
# Youngs Moduli (GPa) = 65.76411 71.47610 60.07705
#
# Poissons Ratio (x) = 0.33502 0.13384
# Poissons Ratio (y) = 0.30824 0.35247
# Poissons Ratio (z) = 0.14651 0.41935
#
# Static dielectric constant tensor:
#      x y z
#    x 3.703210 0.000000 -0.127600 
#    y 0.000000 3.982840 0.000000 
#    z -0.127600 0.000000 3.958110 
# 
# 
# High freq. dielectric constant tensor:
#      x y z
#    x 1.857640 0.000000 -0.021240 
#    y 0.000000 1.864250 0.000000 
#    z -0.021240 0.000000 1.866170 
# 
# From -- ./inp_files/168610.got.cif
#   From: 2010.06.25/outbox.cif.g09.slc.cpg/sg15_85_cif.got.tgz:168610.got - 2010.06.28 07:06:18.
