data_PCOD8139224
_publ_section_title
;
Structure prediction by ZEFSAII (Michael W. Deem and Ramdas Pophale) SiO2 
 PCOD8139224
Probable space group: C 2/C
;
_chemical_formula_sum "Si O2"
_cell_formula_units_Z 52
_cell_length_a 13.629203
_cell_length_b 19.368544
_cell_length_c 9.466469
_cell_angle_alpha 90.000000
_cell_angle_beta 67.385314
_cell_angle_gamma 90.000000
_cell_volume 2306.798711
_symmetry_space_group_name_H-M "C 2/C"
_symmetry_group_IT_number 15
_symmetry_cell_setting 'monoclinic'
loop_
_space_group_symop_operation_xyz
x,y,z
-x,y,1/2-z
-x,-y,-z
x,-y,1/2+z
1/2+x,1/2+y,z
1/2-x,1/2+y,1/2-z
1/2-x,1/2-y,-z
1/2+x,1/2-y,1/2+z
loop_
_atom_site_type_symbol
_atom_site_label
_atom_site_fract_x
_atom_site_fract_y
_atom_site_fract_z
Si Si1 0.459577 0.858928 0.024022
Si Si2 0.500000 0.762673 0.250000
Si Si3 0.900320 0.221745 0.952386
Si Si4 0.331497 0.069757 0.081294
Si Si5 0.373289 0.673966 0.653804
Si Si6 0.284088 0.058735 0.787378
Si Si7 0.282966 0.291299 0.791368
O O1 0.516356 0.811085 0.106898
O O2 0.357687 0.893534 0.149666
O O3 0.424178 0.804879 0.920312
O O4 0.547277 0.916165 0.930390
O O5 0.604010 0.715599 0.195993
O O6 0.871187 0.187591 0.822221
O O7 0.005066 0.184385 0.963968
O O8 0.800993 0.210041 0.111637
O O9 0.263211 0.137860 0.130268
O O10 0.275796 0.014381 0.213795
O O11 0.331458 0.045727 0.917599
O O12 0.331151 0.596499 0.643420
O O13 0.294197 0.728328 0.621944
#
# Coordination Sequence:
#
# PCOD8139224 Si02
#       7
#     8   4   8   8   8   8   8
#     4  11  20  42  68 103 135 168 227 289 345 400
#     4  10  20  38  68 102 126 162 224 292 322 394
#     4  10  23  39  69 110 130 170 225 290 336 398
#     4  12  27  44  67  99 138 191 222 282 345 413
#     4  11  22  43  70  99 141 177 225 283 340 407
#     4  12  27  44  68  97 143 181 233 276 345 410
#     4  11  23  40  71  97 136 172 230 274 346 399
#
# _framework density 22.542062999999999
#
# number of rings (size 3 to 8) (size 9 to 14) (size 15 to 20)
#    0.000    0.923    6.154    0.923    6.462    1.231 
#    0.000    2.308    0.000    0.000    0.000    0.000 
#    0.000    0.000    0.000    0.000    0.000    0.000 
#
# Total GULP energy -322367.226927 kJ/mol
# GULP energy per Si atom -12398.739497 kJ/mol
# Density = 2.249076 g / cm^3
# Si number density = 22.542063 Si / 1000 Ang^3
#
#
#
# Elastic Constant Matrix: (Units=GPa)
#
#
# Indices 1 2 3 4 5 6 
#
# 1 77.1955 18.7000 -6.1465 0.0000 -10.5035 0.0000
# 2 18.7000 109.5854 20.0217 0.0000 -6.9802 0.0000
# 3 -6.1465 20.0217 47.9276 0.0000 -12.7203 0.0000
# 4 0.0000 0.0000 0.0000 41.7545 0.0000 -3.8214
# 5 -10.5035 -6.9802 -12.7203 0.0000 35.2529 0.0000
# 6 0.0000 0.0000 0.0000 -3.8214 0.0000 18.6171
#
#
#
# Elastic Compliance Matrix: (Units=1/GPa)
#
#
# Indices 1 2 3 4 5 6 
#
# 1 0.014798 -0.003019 0.004612 0.000000 0.005475 0.000000
# 2 -0.003019 0.010504 -0.004934 0.000000 -0.000600 0.000000
# 3 0.004612 -0.004934 0.026125 0.000000 0.009824 0.000000
# 4 0.000000 0.000000 0.000000 0.024408 0.000000 0.005010
# 5 0.005475 -0.000600 0.009824 0.000000 0.033424 0.000000
# 6 0.000000 0.000000 0.000000 0.005010 0.000000 0.054742
#
#
# Mechanical properties :
#
#
# Convention : Reuss Voigt Hill
#
# Bulk Modulus (GPa) = 22.34949 33.31765 27.83357
# Shear Modulus (GPa) = 26.93997 32.60044 29.77021
#
# Velocity S-wave (km/s) = 3.46077 3.80703 3.63802
# Velocity P-wave (km/s) = 5.08973 5.84268 5.47915
#
# Compressibility (1/GPa) = 0.04474375
#
# Stress axis : x y z
#
# Youngs Moduli (GPa) = 67.57818 95.20373 38.27761
#
# Poissons Ratio (x) = 0.28742 -0.17654
# Poissons Ratio (y) = 0.20402 0.18888
# Poissons Ratio (z) = -0.31168 0.46978
#
# Static dielectric constant tensor:
#      x y z
#    x 4.344610 0.000000 -0.117280 
#    y 0.000000 4.097190 0.000000 
#    z -0.117280 0.000000 4.227230 
# 
# 
# High freq. dielectric constant tensor:
#      x y z
#    x 1.894860 0.000000 -0.001020 
#    y 0.000000 1.865030 0.000000 
#    z -0.001020 0.000000 1.898050 
# 
# From -- ./inp_files/98195.got.cif
#   From: 2010.06.25/outbox.cif.g09.slc.cpg/sg15_50_cif.got.tgz:98195.got - 2010.06.28 07:06:18.
