data_PCOD8139162
_publ_section_title
;
Structure prediction by ZEFSAII (Michael W. Deem and Ramdas Pophale) SiO2 
 PCOD8139162
Probable space group: C 2/C
;
_chemical_formula_sum "Si O2"
_cell_formula_units_Z 40
_cell_length_a 18.722580
_cell_length_b 5.198038
_cell_length_c 22.994516
_cell_angle_alpha 90.000000
_cell_angle_beta 124.994607
_cell_angle_gamma 90.000000
_cell_volume 1833.253647
_symmetry_space_group_name_H-M "C 2/C"
_symmetry_group_IT_number 15
_symmetry_cell_setting 'monoclinic'
loop_
_space_group_symop_operation_xyz
x,y,z
-x,y,1/2-z
-x,-y,-z
x,-y,1/2+z
1/2+x,1/2+y,z
1/2-x,1/2+y,1/2-z
1/2-x,1/2-y,-z
1/2+x,1/2-y,1/2+z
loop_
_atom_site_type_symbol
_atom_site_label
_atom_site_fract_x
_atom_site_fract_y
_atom_site_fract_z
Si Si1 0.719476 0.481864 0.313584
Si Si2 0.044986 0.994988 0.160813
Si Si3 0.680095 0.507248 0.633462
Si Si4 0.272139 0.183012 0.075601
Si Si5 0.040548 0.490272 0.333073
O O1 0.624576 0.514050 0.242731
O O2 0.778871 0.725094 0.327260
O O3 0.708471 0.443782 0.378563
O O4 0.765843 0.223897 0.309440
O O5 0.983072 0.237336 0.141780
O O6 0.081033 0.998880 0.111028
O O7 0.991317 0.736620 0.145886
O O8 0.689128 0.463586 0.567691
O O9 0.354921 0.995670 0.121025
O O10 0.250000 0.250000 0.000000
O O11 0.000000 0.485052 0.250000
#
# Coordination Sequence:
#
# PCOD8139162 Si02
#       5
#     8   8   8   8   8
#     4  10  20  38  66  91 125 165 218 256 323 381
#     4  12  22  39  65  97 130 157 216 275 329 370
#     4  10  22  39  63  95 124 172 211 266 319 388
#     4  10  25  45  65  93 132 179 217 253 325 404
#     4  12  24  40  64  99 129 165 211 276 328 372
#
# _framework density 21.819127999999999
#
# number of rings (size 3 to 8) (size 9 to 14) (size 15 to 20)
#    1.200    0.000    2.000    5.400    2.800    0.800 
#    0.000    2.000    0.000    0.000    0.000    0.000 
#    0.000    0.000    0.000    0.000    0.000    0.000 
#
# Total GULP energy -247856.964974 kJ/mol
# GULP energy per Si atom -12392.848249 kJ/mol
# Density = 2.176947 g / cm^3
# Si number density = 21.819128 Si / 1000 Ang^3
#
#
#
# Elastic Constant Matrix: (Units=GPa)
#
#
# Indices 1 2 3 4 5 6 
#
# 1 149.2450 37.1744 23.0055 -0.0027 -27.6540 0.0111
# 2 37.1744 146.8562 -14.9753 -0.0016 -2.8714 0.0068
# 3 23.0055 -14.9753 45.8708 -0.0012 -17.1564 0.0054
# 4 -0.0027 -0.0016 -0.0012 4.6436 -0.0006 22.9991
# 5 -27.6540 -2.8714 -17.1564 -0.0006 27.4017 0.0012
# 6 0.0111 0.0068 0.0054 22.9991 0.0012 -70.1258
#
#
#
# Elastic Compliance Matrix: (Units=1/GPa)
#
#
# Indices 1 2 3 4 5 6 
#
# 1 0.009047 -0.002416 -0.002619 0.000000 0.007237 0.000001
# 2 -0.002416 0.007863 0.004146 0.000000 0.000982 0.000001
# 3 -0.002619 0.004146 0.030870 -0.000001 0.017119 0.000002
# 4 0.000000 0.000000 -0.000001 0.082057 -0.000001 0.026912
# 5 0.007237 0.000982 0.017119 -0.000001 0.054619 0.000003
# 6 0.000001 0.000001 0.000002 0.026912 0.000003 -0.005434
#
#
# Mechanical properties :
#
#
# Convention : Reuss Voigt Hill
#
# Bulk Modulus (GPa) = 21.73833 48.04235 34.89034
# Shear Modulus (GPa) = 25.49271 12.16841 18.83056
#
# Velocity S-wave (km/s) = 3.42184 2.36412 2.94092
# Velocity P-wave (km/s) = 5.05931 5.43308 5.24952
#
# Compressibility (1/GPa) = 0.04600170
#
# Stress axis : x y z
#
# Youngs Moduli (GPa) = 110.53651 127.18128 32.39373
#
# Poissons Ratio (x) = 0.30722 0.08484
# Poissons Ratio (y) = 0.26701 -0.13429
# Poissons Ratio (z) = 0.28950 -0.52724
#
# Static dielectric constant tensor:
#      x y z
#    x 11.392050 0.000030 10.538290 
#    y 0.000030 4.002860 0.000040 
#    z 10.538290 0.000040 19.465230 
# 
# 
# High freq. dielectric constant tensor:
#      x y z
#    x 1.878620 0.000000 -0.017400 
#    y 0.000000 1.870950 0.000000 
#    z -0.017400 0.000000 1.803740 
# 
# From -- ./inp_files/278528.got.cif
#   From: 2010.06.25/outbox.cif.g09.slc.cpg/sg15_140_cif.got.tgz:278528.got - 2010.06.28 07:06:18.
