data_PCOD8139515
_publ_section_title
;
Structure prediction by ZEFSAII (Michael W. Deem and Ramdas Pophale) SiO2 
 PCOD8139515
Probable space group: C 2/C
;
_chemical_formula_sum "Si O2"
_cell_formula_units_Z 56
_cell_length_a 16.253248
_cell_length_b 17.023983
_cell_length_c 12.376904
_cell_angle_alpha 90.000000
_cell_angle_beta 127.029702
_cell_angle_gamma 90.000000
_cell_volume 2733.960485
_symmetry_space_group_name_H-M "C 2/C"
_symmetry_group_IT_number 15
_symmetry_cell_setting 'monoclinic'
loop_
_space_group_symop_operation_xyz
x,y,z
-x,y,1/2-z
-x,-y,-z
x,-y,1/2+z
1/2+x,1/2+y,z
1/2-x,1/2+y,1/2-z
1/2-x,1/2-y,-z
1/2+x,1/2-y,1/2+z
loop_
_atom_site_type_symbol
_atom_site_label
_atom_site_fract_x
_atom_site_fract_y
_atom_site_fract_z
Si Si1 0.839107 0.646827 0.362422
Si Si2 0.697602 0.377467 0.248740
Si Si3 0.255846 0.482825 0.852083
Si Si4 0.989113 0.781248 0.459320
Si Si5 0.098619 0.111643 0.889181
Si Si6 0.341571 0.235209 0.750921
Si Si7 0.114411 0.600342 0.869477
O O1 0.810510 0.590784 0.240669
O O2 0.741455 0.696185 0.329158
O O3 0.878573 0.597878 0.495879
O O4 0.931066 0.699927 0.386901
O O5 0.710788 0.468251 0.227059
O O6 0.600248 0.346952 0.100740
O O7 0.683054 0.367420 0.365447
O O8 0.800560 0.328542 0.304864
O O9 0.193102 0.537093 0.884405
O O10 0.357835 0.451473 0.992399
O O11 0.066285 0.807475 0.424208
O O12 0.051908 0.772492 0.620753
O O13 0.000000 0.073941 0.750000
O O14 0.362632 0.188897 0.655834
O O15 0.000000 0.573220 0.750000
#
# Coordination Sequence:
#
# PCOD8139515 Si02
#       7
#     8   8   8   8   8   8   8
#     4  11  22  41  66  91 122 162 209 250 313 364
#     4   9  22  39  61  90 128 158 208 251 306 364
#     4  11  23  42  61  92 127 167 198 254 311 370
#     4  10  20  39  63  91 118 161 204 257 302 359
#     4  10  21  41  62  92 124 158 208 251 308 362
#     4  10  20  41  64  89 124 160 203 263 299 361
#     4  11  23  41  64  91 126 162 209 250 306 366
#
# _framework density 20.483104999999998
#
# number of rings (size 3 to 8) (size 9 to 14) (size 15 to 20)
#    0.000    1.714    2.857    1.286    0.000    3.429 
#   10.286    0.000    0.000    0.000    0.000    0.000 
#    0.000    0.000    0.000    0.000    0.000    0.000 
#
# Total GULP energy -347199.642966 kJ/mol
# GULP energy per Si atom -12399.987249 kJ/mol
# Density = 2.043648 g / cm^3
# Si number density = 20.483105 Si / 1000 Ang^3
#
#
#
# Elastic Constant Matrix: (Units=GPa)
#
#
# Indices 1 2 3 4 5 6 
#
# 1 72.4693 35.7496 16.9714 0.0000 -2.3169 0.0000
# 2 35.7496 97.6538 48.0448 0.0000 -0.6039 0.0000
# 3 16.9714 48.0448 105.5792 0.0000 10.8626 0.0000
# 4 0.0000 0.0000 0.0000 25.7022 0.0000 3.7498
# 5 -2.3169 -0.6039 10.8626 0.0000 29.7526 0.0000
# 6 0.0000 0.0000 0.0000 3.7498 0.0000 30.8590
#
#
#
# Elastic Compliance Matrix: (Units=1/GPa)
#
#
# Indices 1 2 3 4 5 6 
#
# 1 0.016882 -0.006155 -0.000037 0.000000 0.001203 0.000000
# 2 -0.006155 0.015628 -0.006344 0.000000 0.002154 0.000000
# 3 -0.000037 -0.006344 0.012861 0.000000 -0.004827 0.000000
# 4 0.000000 0.000000 0.000000 0.039609 0.000000 -0.004813
# 5 0.001203 0.002154 -0.004827 0.000000 0.035510 0.000000
# 6 0.000000 0.000000 0.000000 -0.004813 0.000000 0.032990
#
#
# Mechanical properties :
#
#
# Convention : Reuss Voigt Hill
#
# Bulk Modulus (GPa) = 49.26053 53.02599 51.14326
# Shear Modulus (GPa) = 26.98053 28.92517 27.95285
#
# Velocity S-wave (km/s) = 3.63327 3.76193 3.69816
# Velocity P-wave (km/s) = 6.45774 6.69428 6.57708
#
# Compressibility (1/GPa) = 0.02030023
#
# Stress axis : x y z
#
# Youngs Moduli (GPa) = 59.23380 63.98806 77.75474
#
# Poissons Ratio (x) = 0.39384 0.00286
# Poissons Ratio (y) = 0.36457 0.49327
# Poissons Ratio (z) = 0.00218 0.40593
#
# Static dielectric constant tensor:
#      x y z
#    x 3.737140 0.000000 0.110680 
#    y 0.000000 3.672720 0.000000 
#    z 0.110680 0.000000 3.670290 
# 
# 
# High freq. dielectric constant tensor:
#      x y z
#    x 1.799270 0.000000 0.009390 
#    y 0.000000 1.790650 0.000000 
#    z 0.009390 0.000000 1.802710 
# 
# From -- ./inp_files/106729.got.cif
#   From: 2010.06.25/outbox.cif.g09.slc.cpg/sg15_54_cif.got.tgz:106729.got - 2010.06.28 07:06:18.
