data_PCOD8139157
_publ_section_title
;
Structure prediction by ZEFSAII (Michael W. Deem and Ramdas Pophale) SiO2 
 PCOD8139157
Probable space group: C 2/C
;
_chemical_formula_sum "Si O2"
_cell_formula_units_Z 40
_cell_length_a 8.859339
_cell_length_b 26.147626
_cell_length_c 8.790358
_cell_angle_alpha 90.000000
_cell_angle_beta 92.858823
_cell_angle_gamma 90.000000
_cell_volume 2033.758183
_symmetry_space_group_name_H-M "C 2/C"
_symmetry_group_IT_number 15
_symmetry_cell_setting 'monoclinic'
loop_
_space_group_symop_operation_xyz
x,y,z
-x,y,1/2-z
-x,-y,-z
x,-y,1/2+z
1/2+x,1/2+y,z
1/2-x,1/2+y,1/2-z
1/2-x,1/2-y,-z
1/2+x,1/2-y,1/2+z
loop_
_atom_site_type_symbol
_atom_site_label
_atom_site_fract_x
_atom_site_fract_y
_atom_site_fract_z
Si Si1 0.761406 0.691758 0.956059
Si Si2 0.617285 0.998782 0.875878
Si Si3 0.265046 0.402864 0.444523
Si Si4 0.000000 0.650886 0.750000
Si Si5 0.500000 0.352800 0.250000
Si Si6 0.173978 0.385870 0.778116
O O1 0.622897 0.682406 0.836124
O O2 0.918066 0.685127 0.873293
O O3 0.750000 0.750000 0.000000
O O4 0.750406 0.654273 0.101926
O O5 0.500000 0.021143 0.750000
O O6 0.757169 0.035667 0.925391
O O7 0.686214 0.943004 0.845921
O O8 0.500000 0.000000 0.000000
O O9 0.422705 0.386771 0.377408
O O10 0.259382 0.384320 0.619718
O O11 0.122148 0.382650 0.343995
O O12 0.000000 0.370126 0.750000
#
# Coordination Sequence:
#
# PCOD8139157 Si02
#       6
#     8   8   8   4   4   8
#     4  11  25  44  66  91 128 164 219 264 328 373
#     4  11  19  33  64  99 123 163 219 256 301 370
#     4  11  21  40  63  95 134 164 210 257 319 382
#     4  10  20  38  66  90 120 170 214 258 300 390
#     4  10  28  42  62  96 130 172 204 268 330 382
#     4  11  22  38  66  98 121 164 223 265 301 370
#
# _framework density 19.668023000000002
#
# number of rings (size 3 to 8) (size 9 to 14) (size 15 to 20)
#    0.000    1.200    7.000    0.000    4.200    2.400 
#    0.000    8.000    0.000    0.000    0.000    0.000 
#    0.000    0.000    0.000    0.000    0.000    0.000 
#
# Total GULP energy -247837.344416 kJ/mol
# GULP energy per Si atom -12391.867221 kJ/mol
# Density = 1.962326 g / cm^3
# Si number density = 19.668023 Si / 1000 Ang^3
#
#
#
# Elastic Constant Matrix: (Units=GPa)
#
#
# Indices 1 2 3 4 5 6 
#
# 1 81.0666 33.3800 36.1944 0.0000 -21.1285 0.0000
# 2 33.3800 114.2371 49.2186 0.0000 -11.6633 0.0000
# 3 36.1944 49.2186 151.5643 0.0000 -28.1740 0.0000
# 4 0.0000 0.0000 0.0000 33.0657 0.0000 0.7980
# 5 -21.1285 -11.6633 -28.1740 0.0000 42.6700 0.0000
# 6 0.0000 0.0000 0.0000 0.7980 0.0000 22.8027
#
#
#
# Elastic Compliance Matrix: (Units=1/GPa)
#
#
# Indices 1 2 3 4 5 6 
#
# 1 0.015992 -0.003368 -0.001624 0.000000 0.005926 0.000000
# 2 -0.003368 0.010905 -0.002842 0.000000 -0.000563 0.000000
# 3 -0.001624 -0.002842 0.008680 0.000000 0.004150 0.000000
# 4 0.000000 0.000000 0.000000 0.030268 0.000000 -0.001059
# 5 0.005926 -0.000563 0.004150 0.000000 0.028956 0.000000
# 6 0.000000 0.000000 0.000000 -0.001059 0.000000 0.043892
#
#
# Mechanical properties :
#
#
# Convention : Reuss Voigt Hill
#
# Bulk Modulus (GPa) = 50.22708 64.93934 57.58321
# Shear Modulus (GPa) = 31.05670 34.91268 32.98469
#
# Velocity S-wave (km/s) = 3.97803 4.21776 4.09965
# Velocity P-wave (km/s) = 6.83319 7.53716 7.19379
#
# Compressibility (1/GPa) = 0.01990958
#
# Stress axis : x y z
#
# Youngs Moduli (GPa) = 62.53205 91.70384 115.20934
#
# Poissons Ratio (x) = 0.30888 0.18705
# Poissons Ratio (y) = 0.21062 0.32737
# Poissons Ratio (z) = 0.10153 0.26058
#
# Static dielectric constant tensor:
#      x y z
#    x 3.492950 0.000000 -0.163190 
#    y 0.000000 3.348240 0.000000 
#    z -0.163190 0.000000 3.896140 
# 
# 
# High freq. dielectric constant tensor:
#      x y z
#    x 1.749960 0.000000 -0.006690 
#    y 0.000000 1.758380 0.000000 
#    z -0.006690 0.000000 1.793240 
# 
# From -- ./inp_files/23525.got.cif
#   From: 2010.06.25/outbox.cif.g09.slc.cpg/sg15_12_cif.got.tgz:23525.got - 2010.06.28 07:06:18.
