data_PCOD8139923
_publ_section_title
;
Structure prediction by ZEFSAII (Michael W. Deem and Ramdas Pophale) SiO2 
 PCOD8139923
Probable space group: C 2/C
;
_chemical_formula_sum "Si O2"
_cell_formula_units_Z 64
_cell_length_a 8.935825
_cell_length_b 23.401973
_cell_length_c 30.169411
_cell_angle_alpha 90.000000
_cell_angle_beta 150.991902
_cell_angle_gamma 90.000000
_cell_volume 3059.397494
_symmetry_space_group_name_H-M "C 2/C"
_symmetry_group_IT_number 15
_symmetry_cell_setting 'monoclinic'
loop_
_space_group_symop_operation_xyz
x,y,z
-x,y,1/2-z
-x,-y,-z
x,-y,1/2+z
1/2+x,1/2+y,z
1/2-x,1/2+y,1/2-z
1/2-x,1/2-y,-z
1/2+x,1/2-y,1/2+z
loop_
_atom_site_type_symbol
_atom_site_label
_atom_site_fract_x
_atom_site_fract_y
_atom_site_fract_z
Si Si1 0.806921 0.139738 0.575061
Si Si2 0.653839 0.952530 0.570664
Si Si3 0.174756 0.893522 0.252307
Si Si4 0.202549 0.725634 0.036514
Si Si5 0.801956 0.834112 0.404255
Si Si6 0.486331 0.001552 0.875714
Si Si7 0.456214 0.419929 0.964585
Si Si8 0.866465 0.125624 0.348834
O O1 0.588100 0.099524 0.489008
O O2 0.611670 0.189679 0.547278
O O3 0.952991 0.101874 0.652463
O O4 0.068261 0.168322 0.611989
O O5 0.981963 0.928222 0.637870
O O6 0.500000 0.000000 0.500000
O O7 0.717818 0.976771 0.636683
O O8 0.442983 0.849549 0.309848
O O9 0.289597 0.957374 0.293133
O O10 0.000000 0.868436 0.250000
O O11 0.155684 0.773954 0.061052
O O12 0.488325 0.686441 0.127867
O O13 0.250000 0.750000 0.000000
O O14 0.989451 0.883690 0.477394
O O15 0.624067 0.950876 0.881278
O O16 0.772257 0.034429 0.972453
O O17 0.459530 0.377813 0.924233
O O18 0.500000 0.125091 0.250000
#
# Coordination Sequence:
#
# PCOD8139923 Si02
#       8
#     8   8   8   8   8   8   8   8
#     4  11  24  41  65 101 130 171 228 281 329 402
#     4  11  21  39  66  90 133 178 217 263 333 405
#     4  11  24  39  63 101 134 165 223 278 326 394
#     4  11  23  42  72  91 126 180 224 278 341 398
#     4  11  22  43  67  92 132 173 223 277 340 390
#     4  10  21  39  63  93 132 177 210 260 330 393
#     4  10  20  40  63  93 129 172 215 262 323 402
#     4  11  25  41  62  96 132 170 225 276 329 398
#
# _framework density 20.919149999999998
#
# number of rings (size 3 to 8) (size 9 to 14) (size 15 to 20)
#    0.000    1.250    3.750    2.250    3.500    3.500 
#    0.000    0.000    0.000    0.000    0.000    0.000 
#    0.000    0.000    0.000    0.000    0.000    0.000 
#
# Total GULP energy -396874.845353 kJ/mol
# GULP energy per Si atom -12402.338917 kJ/mol
# Density = 2.087154 g / cm^3
# Si number density = 20.919150 Si / 1000 Ang^3
#
#
#
# Elastic Constant Matrix: (Units=GPa)
#
#
# Indices 1 2 3 4 5 6 
#
# 1 142.8919 45.3462 46.3939 0.0235 12.6527 0.0098
# 2 45.3462 101.8445 33.6180 0.0206 9.1743 0.0143
# 3 46.3939 33.6180 89.4862 0.0829 15.1311 0.0398
# 4 0.0235 0.0206 0.0829 27.1764 0.0267 -3.8576
# 5 12.6527 9.1743 15.1311 0.0267 39.1011 0.0111
# 6 0.0098 0.0143 0.0398 -3.8576 0.0111 35.5219
#
#
#
# Elastic Compliance Matrix: (Units=1/GPa)
#
#
# Indices 1 2 3 4 5 6 
#
# 1 0.009114 -0.002815 -0.003510 0.000006 -0.000930 0.000004
# 2 -0.002815 0.012121 -0.002961 0.000003 -0.000787 0.000000
# 3 -0.003510 -0.002961 0.014763 -0.000038 -0.003883 -0.000017
# 4 0.000006 0.000003 -0.000038 0.037373 -0.000015 0.004059
# 5 -0.000930 -0.000787 -0.003883 -0.000015 0.027563 -0.000005
# 6 0.000004 0.000000 -0.000017 0.004059 -0.000005 0.028592
#
#
# Mechanical properties :
#
#
# Convention : Reuss Voigt Hill
#
# Bulk Modulus (GPa) = 57.38701 64.99319 61.19010
# Shear Modulus (GPa) = 32.48714 34.28417 33.38566
#
# Velocity S-wave (km/s) = 3.94507 4.05271 3.99925
# Velocity P-wave (km/s) = 6.94577 7.28255 7.11615
#
# Compressibility (1/GPa) = 0.01742555
#
# Stress axis : x y z
#
# Youngs Moduli (GPa) = 109.72397 82.50356 67.73474
#
# Poissons Ratio (x) = 0.23229 0.23775
# Poissons Ratio (y) = 0.30893 0.20054
# Poissons Ratio (z) = 0.38513 0.24427
#
# Static dielectric constant tensor:
#      x y z
#    x 3.888600 -0.000080 0.181300 
#    y -0.000080 3.807760 -0.000100 
#    z 0.181300 -0.000100 3.588690 
# 
# 
# High freq. dielectric constant tensor:
#      x y z
#    x 1.832480 0.000000 0.010750 
#    y 0.000000 1.818600 -0.000010 
#    z 0.010750 -0.000010 1.806970 
# 
# From -- ./inp_files/309134.got.cif
#   From: 2010.06.25/outbox.cif.g09.slc.cpg/sg15_155_cif.got.tgz:309134.got - 2010.06.28 07:06:18.
