data_PCOD8139352
_publ_section_title
;
Structure prediction by ZEFSAII (Michael W. Deem and Ramdas Pophale) SiO2 
 PCOD8139352
Probable space group: C 2/C
;
_chemical_formula_sum "Si O2"
_cell_formula_units_Z 64
_cell_length_a 9.504540
_cell_length_b 15.199496
_cell_length_c 28.491178
_cell_angle_alpha 90.000000
_cell_angle_beta 51.906860
_cell_angle_gamma 90.000000
_cell_volume 3239.293775
_symmetry_space_group_name_H-M "C 2/C"
_symmetry_group_IT_number 15
_symmetry_cell_setting 'monoclinic'
loop_
_space_group_symop_operation_xyz
x,y,z
-x,y,1/2-z
-x,-y,-z
x,-y,1/2+z
1/2+x,1/2+y,z
1/2-x,1/2+y,1/2-z
1/2-x,1/2-y,-z
1/2+x,1/2-y,1/2+z
loop_
_atom_site_type_symbol
_atom_site_label
_atom_site_fract_x
_atom_site_fract_y
_atom_site_fract_z
Si Si1 0.328201 0.291354 0.409878
Si Si2 0.363698 0.934253 0.108988
Si Si3 0.405166 0.763036 0.719667
Si Si4 0.409179 0.600797 0.218556
Si Si5 0.494187 0.716769 0.530818
Si Si6 0.754588 0.352934 0.486848
Si Si7 0.252452 0.386771 0.910961
Si Si8 0.820802 0.080502 0.759138
O O1 0.284283 0.377445 0.388231
O O2 0.450266 0.228584 0.352044
O O3 0.431962 0.321229 0.435560
O O4 0.151107 0.239607 0.461757
O O5 0.331844 0.938705 0.171186
O O6 0.355239 0.032204 0.089635
O O7 0.552679 0.888026 0.066195
O O8 0.500000 0.775239 0.750000
O O9 0.261366 0.838610 0.743759
O O10 0.291898 0.671780 0.737139
O O11 0.500000 0.592944 0.250000
O O12 0.558064 0.634684 0.151955
O O13 0.341024 0.502046 0.219490
O O14 0.379408 0.638232 0.529930
O O15 0.378000 0.803389 0.565929
O O16 0.750000 0.250000 0.500000
O O17 0.697663 0.406878 0.544992
O O18 0.000000 0.099388 0.750000
#
# Coordination Sequence:
#
# PCOD8139352 Si02
#       8
#     8   8   8   8   8   8   8   8
#     4  11  21  39  61  86 127 162 204 248 316 373
#     4  12  20  39  67  86 121 160 209 256 314 377
#     4  11  23  37  66  92 118 169 206 247 327 373
#     4  11  22  40  62  93 124 157 210 261 305 378
#     4  10  24  39  59  89 128 161 205 264 303 366
#     4  10  22  36  60  95 117 159 213 255 299 364
#     4  11  21  36  66  89 120 160 211 257 313 369
#     4  10  20  39  60  90 121 158 206 254 301 378
#
# _framework density 19.757394000000001
#
# number of rings (size 3 to 8) (size 9 to 14) (size 15 to 20)
#    0.000    1.250    7.500    1.125    5.250    0.000 
#    0.000    1.250    2.750    0.000    0.000    0.000 
#    0.000    0.000    0.000    0.000    0.000    0.000 
#
# Total GULP energy -396628.041953 kJ/mol
# GULP energy per Si atom -12394.626311 kJ/mol
# Density = 1.971243 g / cm^3
# Si number density = 19.757394 Si / 1000 Ang^3
#
#
#
# Elastic Constant Matrix: (Units=GPa)
#
#
# Indices 1 2 3 4 5 6 
#
# 1 78.4214 21.6714 25.4966 0.0000 -6.0427 0.0001
# 2 21.6714 79.0512 16.4572 0.0000 -14.3850 0.0001
# 3 25.4966 16.4572 133.8598 -0.0002 -8.8372 0.0002
# 4 0.0000 0.0000 -0.0002 36.2297 0.0001 -14.9867
# 5 -6.0427 -14.3850 -8.8372 0.0001 23.1173 -0.0001
# 6 0.0001 0.0001 0.0002 -14.9867 -0.0001 44.0727
#
#
#
# Elastic Compliance Matrix: (Units=1/GPa)
#
#
# Indices 1 2 3 4 5 6 
#
# 1 0.014485 -0.003343 -0.002293 0.000000 0.000830 0.000000
# 2 -0.003343 0.015226 -0.000685 0.000000 0.008339 0.000000
# 3 -0.002293 -0.000685 0.008129 0.000000 0.002082 0.000000
# 4 0.000000 0.000000 0.000000 0.032120 0.000000 0.010922
# 5 0.000830 0.008339 0.002082 0.000000 0.049460 0.000000
# 6 0.000000 0.000000 0.000000 0.010922 0.000000 0.026404
#
#
# Mechanical properties :
#
#
# Convention : Reuss Voigt Hill
#
# Bulk Modulus (GPa) = 39.68400 46.50921 43.09660
# Shear Modulus (GPa) = 29.96447 35.86442 32.91444
#
# Velocity S-wave (km/s) = 3.89861 4.26519 4.08601
# Velocity P-wave (km/s) = 6.35569 6.91715 6.64235
#
# Compressibility (1/GPa) = 0.02519907
#
# Stress axis : x y z
#
# Youngs Moduli (GPa) = 69.03775 65.67520 123.01730
#
# Poissons Ratio (x) = 0.21952 0.28211
# Poissons Ratio (y) = 0.23076 0.08424
# Poissons Ratio (z) = 0.15832 0.04497
#
# Static dielectric constant tensor:
#      x y z
#    x 4.304060 0.000000 -1.705750 
#    y 0.000000 3.760530 0.000010 
#    z -1.705750 0.000010 8.731740 
# 
# 
# High freq. dielectric constant tensor:
#      x y z
#    x 1.750460 0.000000 -0.000220 
#    y 0.000000 1.757760 0.000000 
#    z -0.000220 0.000000 1.792590 
# 
# From -- ./inp_files/308225.got.cif
#   From: 2010.06.25/outbox.cif.g09.slc.cpg/sg15_155_cif.got.tgz:308225.got - 2010.06.28 07:06:18.
