data_PCOD8139272
_publ_section_title
;
Structure prediction by ZEFSAII (Michael W. Deem and Ramdas Pophale) SiO2 
 PCOD8139272
Probable space group: C 2/C
;
_chemical_formula_sum "Si O2"
_cell_formula_units_Z 52
_cell_length_a 16.050711
_cell_length_b 8.806302
_cell_length_c 22.266775
_cell_angle_alpha 90.000000
_cell_angle_beta 131.422999
_cell_angle_gamma 90.000000
_cell_volume 2360.027106
_symmetry_space_group_name_H-M "C 2/C"
_symmetry_group_IT_number 15
_symmetry_cell_setting 'monoclinic'
loop_
_space_group_symop_operation_xyz
x,y,z
-x,y,1/2-z
-x,-y,-z
x,-y,1/2+z
1/2+x,1/2+y,z
1/2-x,1/2+y,1/2-z
1/2-x,1/2-y,-z
1/2+x,1/2-y,1/2+z
loop_
_atom_site_type_symbol
_atom_site_label
_atom_site_fract_x
_atom_site_fract_y
_atom_site_fract_z
Si Si1 0.500000 0.252649 0.750000
Si Si2 0.618075 0.481602 0.525741
Si Si3 0.724925 0.177588 0.612394
Si Si4 0.097140 0.991852 0.377906
Si Si5 0.275918 0.153584 0.687440
Si Si6 0.060995 0.716156 0.222124
Si Si7 0.673651 0.957253 0.682688
O O1 0.435446 0.353617 0.670410
O O2 0.407747 0.145286 0.736736
O O3 0.500000 0.500000 0.500000
O O4 0.652989 0.305182 0.545288
O O5 0.612667 0.531797 0.454479
O O6 0.706062 0.593780 0.598008
O O7 0.788477 0.077062 0.593227
O O8 0.811452 0.255945 0.699232
O O9 0.642834 0.072290 0.613738
O O10 0.997265 0.873819 0.321166
O O11 0.247407 0.326188 0.688726
O O12 0.250988 0.045767 0.732400
O O13 0.063481 0.610073 0.163555
O O14 0.000000 0.637181 0.250000
#
# Coordination Sequence:
#
# PCOD8139272 Si02
#       7
#     4   8   8   8   8   8   8
#     4  12  26  44  78 108 134 182 248 304 346 414
#     4  12  28  45  70 107 151 189 230 297 367 420
#     4  11  22  45  70  99 140 189 236 287 347 427
#     4  11  23  46  74 101 142 189 233 291 363 422
#     4  12  26  44  72 109 142 184 242 298 358 418
#     4  10  20  38  71 101 131 182 239 283 338 426
#     4  12  22  41  73  99 140 179 243 287 339 425
#
# _framework density 22.033643999999999
#
# number of rings (size 3 to 8) (size 9 to 14) (size 15 to 20)
#    0.000    0.615    6.923    1.385    5.385    0.615 
#    0.000    4.615    3.385    0.000    0.000    0.000 
#    0.000    0.000    0.000    0.000    0.000    0.000 
#
# Total GULP energy -322429.823991 kJ/mol
# GULP energy per Si atom -12401.147077 kJ/mol
# Density = 2.198349 g / cm^3
# Si number density = 22.033644 Si / 1000 Ang^3
#
#
#
# Elastic Constant Matrix: (Units=GPa)
#
#
# Indices 1 2 3 4 5 6 
#
# 1 138.0595 35.1702 35.1080 0.0000 -13.0144 0.0000
# 2 35.1702 65.2311 27.7930 0.0000 -4.3796 0.0000
# 3 35.1080 27.7930 91.8259 0.0000 -20.1860 0.0000
# 4 0.0000 0.0000 0.0000 32.4125 0.0000 -0.3449
# 5 -13.0144 -4.3796 -20.1860 0.0000 39.0327 0.0000
# 6 0.0000 0.0000 0.0000 -0.3449 0.0000 46.8296
#
#
#
# Elastic Compliance Matrix: (Units=1/GPa)
#
#
# Indices 1 2 3 4 5 6 
#
# 1 0.008851 -0.003871 -0.001872 0.000000 0.001549 0.000000
# 2 -0.003871 0.019319 -0.004710 0.000000 -0.001559 0.000000
# 3 -0.001872 -0.004710 0.014417 0.000000 0.006303 0.000000
# 4 0.000000 0.000000 0.000000 0.030855 0.000000 0.000227
# 5 0.001549 -0.001559 0.006303 0.000000 0.029221 0.000000
# 6 0.000000 0.000000 0.000000 0.000227 0.000000 0.021356
#
#
# Mechanical properties :
#
#
# Convention : Reuss Voigt Hill
#
# Bulk Modulus (GPa) = 46.12150 54.58431 50.35290
# Shear Modulus (GPa) = 32.86183 36.79131 34.82657
#
# Velocity S-wave (km/s) = 3.86610 4.09073 3.98000
# Velocity P-wave (km/s) = 6.39584 6.86578 6.63497
#
# Compressibility (1/GPa) = 0.02168186
#
# Stress axis : x y z
#
# Youngs Moduli (GPa) = 112.97686 51.76194 69.36158
#
# Poissons Ratio (x) = 0.20035 0.12986
# Poissons Ratio (y) = 0.43730 0.32670
# Poissons Ratio (z) = 0.21151 0.24381
#
# Static dielectric constant tensor:
#      x y z
#    x 4.157120 0.000000 -0.269110 
#    y 0.000000 4.100050 0.000000 
#    z -0.269110 0.000000 3.773760 
# 
# 
# High freq. dielectric constant tensor:
#      x y z
#    x 1.879620 0.000000 -0.024100 
#    y 0.000000 1.878490 0.000000 
#    z -0.024100 0.000000 1.841170 
# 
# From -- ./inp_files/247898.got.cif
#   From: 2010.06.25/outbox.cif.g09.slc.cpg/sg15_124_cif.got.tgz:247898.got - 2010.06.28 07:06:18.
