data_PCOD8139119
_publ_section_title
;
Structure prediction by ZEFSAII (Michael W. Deem and Ramdas Pophale) SiO2 
 PCOD8139119
Probable space group: C 2/C
;
_chemical_formula_sum "Si O2"
_cell_formula_units_Z 56
_cell_length_a 27.420495
_cell_length_b 12.278539
_cell_length_c 8.949983
_cell_angle_alpha 90.000000
_cell_angle_beta 63.678915
_cell_angle_gamma 90.000000
_cell_volume 2700.902394
_symmetry_space_group_name_H-M "C 2/C"
_symmetry_group_IT_number 15
_symmetry_cell_setting 'monoclinic'
loop_
_space_group_symop_operation_xyz
x,y,z
-x,y,1/2-z
-x,-y,-z
x,-y,1/2+z
1/2+x,1/2+y,z
1/2-x,1/2+y,1/2-z
1/2-x,1/2-y,-z
1/2+x,1/2-y,1/2+z
loop_
_atom_site_type_symbol
_atom_site_label
_atom_site_fract_x
_atom_site_fract_y
_atom_site_fract_z
Si Si1 0.262799 0.626819 0.025278
Si Si2 0.458746 0.191493 0.525698
Si Si3 0.075712 0.675100 0.267844
Si Si4 0.944573 0.063651 0.043611
Si Si5 0.886757 0.905687 0.319203
Si Si6 0.870732 0.549517 0.775864
Si Si7 0.702257 0.015010 0.367620
O O1 0.234394 0.600564 0.221471
O O2 0.250000 0.750000 0.000000
O O3 0.326125 0.601552 0.964775
O O4 0.242893 0.550503 0.918265
O O5 0.521547 0.155457 0.439317
O O6 0.434965 0.175657 0.393772
O O7 0.451686 0.314074 0.594969
O O8 0.426531 0.115949 0.686590
O O9 0.100312 0.791567 0.280793
O O10 0.118532 0.580536 0.244313
O O11 0.893868 0.003736 0.191937
O O12 0.931351 0.070808 0.886478
O O13 0.000000 0.000000 0.000000
O O14 0.830025 0.572089 0.692655
O O15 0.841274 0.580984 0.970931
#
# Coordination Sequence:
#
# PCOD8139119 Si02
#       7
#     8   8   8   8   8   8   8
#     4  11  24  45  69  95 128 174 229 277 328 390
#     4  10  21  37  63  95 130 167 206 256 319 394
#     4  10  20  38  65  91 126 173 207 248 331 392
#     4  11  22  41  63  96 130 167 210 261 314 399
#     4  11  22  41  67  88 128 170 212 261 326 374
#     4  11  20  41  63  94 131 165 210 270 329 386
#     4  10  23  42  64  96 127 165 222 274 322 385
#
# _framework density 20.733809000000001
#
# number of rings (size 3 to 8) (size 9 to 14) (size 15 to 20)
#    0.000    1.429    2.857    3.429    2.000    0.000 
#    7.714    1.429    0.000    0.000    0.000    0.000 
#    0.000    0.000    0.000    0.000    0.000    0.000 
#
# Total GULP energy -347232.678556 kJ/mol
# GULP energy per Si atom -12401.167091 kJ/mol
# Density = 2.068662 g / cm^3
# Si number density = 20.733809 Si / 1000 Ang^3
#
#
#
# Elastic Constant Matrix: (Units=GPa)
#
#
# Indices 1 2 3 4 5 6 
#
# 1 94.4354 32.8406 44.8974 0.0000 -17.7480 0.0000
# 2 32.8406 117.5474 55.6909 0.0000 -8.6686 0.0000
# 3 44.8974 55.6909 134.1895 0.0000 -24.6319 0.0000
# 4 0.0000 0.0000 0.0000 32.6345 0.0000 -8.3859
# 5 -17.7480 -8.6686 -24.6319 0.0000 38.4973 0.0000
# 6 0.0000 0.0000 0.0000 -8.3859 0.0000 29.5383
#
#
#
# Elastic Compliance Matrix: (Units=1/GPa)
#
#
# Indices 1 2 3 4 5 6 
#
# 1 0.013426 -0.002083 -0.002920 0.000000 0.003852 0.000000
# 2 -0.002083 0.010921 -0.004034 0.000000 -0.001082 0.000000
# 3 -0.002920 -0.004034 0.010979 0.000000 0.004770 0.000000
# 4 0.000000 0.000000 0.000000 0.033054 0.000000 0.009384
# 5 0.003852 -0.001082 0.004770 0.000000 0.030560 0.000000
# 6 0.000000 0.000000 0.000000 0.009384 0.000000 0.036518
#
#
# Mechanical properties :
#
#
# Convention : Reuss Voigt Hill
#
# Bulk Modulus (GPa) = 57.96964 68.11445 63.04205
# Shear Modulus (GPa) = 31.39061 34.31692 32.85377
#
# Velocity S-wave (km/s) = 3.89521 4.07273 3.98496
# Velocity P-wave (km/s) = 6.94622 7.41885 7.18642
#
# Compressibility (1/GPa) = 0.01725041
#
# Stress axis : x y z
#
# Youngs Moduli (GPa) = 74.48154 91.57033 91.08297
#
# Poissons Ratio (x) = 0.19077 0.26601
# Poissons Ratio (y) = 0.15517 0.36742
# Poissons Ratio (z) = 0.21752 0.36938
#
# Static dielectric constant tensor:
#      x y z
#    x 3.766780 0.000000 -0.150280 
#    y 0.000000 3.762300 0.000000 
#    z -0.150280 0.000000 3.785450 
# 
# 
# High freq. dielectric constant tensor:
#      x y z
#    x 1.816900 0.000000 -0.013940 
#    y 0.000000 1.803890 0.000000 
#    z -0.013940 0.000000 1.812110 
# 
# From -- ./inp_files/65434.got.cif
#   From: 2010.06.25/outbox.cif.g09.slc.cpg/sg15_33_cif.got.tgz:65434.got - 2010.06.28 07:06:18.
