data_PCOD8139463
_publ_section_title
;
Structure prediction by ZEFSAII (Michael W. Deem and Ramdas Pophale) SiO2 
 PCOD8139463
Probable space group: C 2/C
;
_chemical_formula_sum "Si O2"
_cell_formula_units_Z 52
_cell_length_a 9.793040
_cell_length_b 21.130140
_cell_length_c 12.458190
_cell_angle_alpha 90.000000
_cell_angle_beta 100.466661
_cell_angle_gamma 90.000000
_cell_volume 2535.057041
_symmetry_space_group_name_H-M "C 2/C"
_symmetry_group_IT_number 15
_symmetry_cell_setting 'monoclinic'
loop_
_space_group_symop_operation_xyz
x,y,z
-x,y,1/2-z
-x,-y,-z
x,-y,1/2+z
1/2+x,1/2+y,z
1/2-x,1/2+y,1/2-z
1/2-x,1/2-y,-z
1/2+x,1/2-y,1/2+z
loop_
_atom_site_type_symbol
_atom_site_label
_atom_site_fract_x
_atom_site_fract_y
_atom_site_fract_z
Si Si1 0.078758 0.871535 0.939027
Si Si2 0.655996 0.032357 0.308875
Si Si3 0.204542 0.113495 0.999719
Si Si4 0.377083 0.166777 0.847493
Si Si5 0.373180 0.499940 0.162845
Si Si6 0.170687 0.393039 0.375282
Si Si7 0.500000 0.280714 0.750000
O O1 0.062268 0.943255 0.897335
O O2 0.093986 0.823989 0.840973
O O3 0.211521 0.863038 0.033434
O O4 0.939838 0.855144 0.985401
O O5 0.500000 0.044782 0.250000
O O6 0.667681 0.969001 0.382951
O O7 0.705659 0.092581 0.384588
O O8 0.749220 0.027272 0.216480
O O9 0.286858 0.166486 0.942823
O O10 0.183980 0.052753 0.923167
O O11 0.300386 0.125536 0.744415
O O12 0.525519 0.135358 0.894384
O O13 0.396548 0.238013 0.806981
O O14 0.500000 0.471027 0.250000
#
# Coordination Sequence:
#
# PCOD8139463 Si02
#       7
#     8   8   8   8   8   8   4
#     4  12  23  39  67  92 125 173 213 261 324 380
#     4  12  22  36  60  94 134 170 204 260 323 391
#     4  12  24  38  63 100 125 170 213 266 324 388
#     4  10  24  42  63  89 128 164 224 270 306 379
#     4  12  22  37  59  96 136 161 199 264 330 390
#     4  10  20  39  62  94 120 170 207 257 329 375
#     4  10  24  48  64  88 130 176 222 268 312 376
#
# _framework density 20.512359
#
# number of rings (size 3 to 8) (size 9 to 14) (size 15 to 20)
#    0.000    0.923    6.923    1.385    2.154    4.308 
#    0.000    0.000    0.000    3.692    0.000    0.000 
#    0.000    0.000    0.000    0.000    0.000    0.000 
#
# Total GULP energy -322519.027666 kJ/mol
# GULP energy per Si atom -12404.577987 kJ/mol
# Density = 2.046567 g / cm^3
# Si number density = 20.512359 Si / 1000 Ang^3
#
#
#
# Elastic Constant Matrix: (Units=GPa)
#
#
# Indices 1 2 3 4 5 6 
#
# 1 123.3748 16.9260 64.8087 0.0000 3.3697 0.0000
# 2 16.9260 63.7494 35.0016 0.0000 3.1281 0.0000
# 3 64.8087 35.0016 104.8692 0.0000 15.8122 0.0000
# 4 0.0000 0.0000 0.0000 27.3690 0.0000 -4.1270
# 5 3.3697 3.1281 15.8122 0.0000 48.3619 0.0000
# 6 0.0000 0.0000 0.0000 -4.1270 0.0000 17.2975
#
#
#
# Elastic Compliance Matrix: (Units=1/GPa)
#
#
# Indices 1 2 3 4 5 6 
#
# 1 0.012203 0.001175 -0.008198 0.000000 0.001754 0.000000
# 2 0.001175 0.019356 -0.007348 0.000000 0.001069 0.000000
# 3 -0.008198 -0.007348 0.017773 0.000000 -0.004764 0.000000
# 4 0.000000 0.000000 0.000000 0.037901 0.000000 0.009043
# 5 0.001754 0.001069 -0.004764 0.000000 0.022044 0.000000
# 6 0.000000 0.000000 0.000000 0.009043 0.000000 0.059969
#
#
# Mechanical properties :
#
#
# Convention : Reuss Voigt Hill
#
# Bulk Modulus (GPa) = 48.56590 58.38510 53.47550
# Shear Modulus (GPa) = 24.40807 30.28949 27.34878
#
# Velocity S-wave (km/s) = 3.45326 3.84688 3.65538
# Velocity P-wave (km/s) = 6.29507 6.94669 6.62889
#
# Compressibility (1/GPa) = 0.02059058
#
# Stress axis : x y z
#
# Youngs Moduli (GPa) = 81.95005 51.66285 56.26625
#
# Poissons Ratio (x) = -0.06071 0.46126
# Poissons Ratio (y) = -0.09629 0.41343
# Poissons Ratio (z) = 0.67181 0.37960
#
# Static dielectric constant tensor:
#      x y z
#    x 3.738290 0.000000 -0.055720 
#    y 0.000000 3.546550 0.000000 
#    z -0.055720 0.000000 3.859320 
# 
# 
# High freq. dielectric constant tensor:
#      x y z
#    x 1.802520 0.000000 0.001100 
#    y 0.000000 1.780130 0.000000 
#    z 0.001100 0.000000 1.812100 
# 
# From -- ./inp_files/80789.got.cif
#   From: 2010.06.25/outbox.cif.g09.slc.cpg/sg15_41_cif.got.tgz:80789.got - 2010.06.28 07:06:18.
