data_PCOD8139996
_publ_section_title
;
Structure prediction by ZEFSAII (Michael W. Deem and Ramdas Pophale) SiO2 
 PCOD8139996
Probable space group: C 2/C
;
_chemical_formula_sum "Si O2"
_cell_formula_units_Z 40
_cell_length_a 16.925389
_cell_length_b 12.227303
_cell_length_c 19.873976
_cell_angle_alpha 90.000000
_cell_angle_beta 153.935312
_cell_angle_gamma 90.000000
_cell_volume 1807.173860
_symmetry_space_group_name_H-M "C 2/C"
_symmetry_group_IT_number 15
_symmetry_cell_setting 'monoclinic'
loop_
_space_group_symop_operation_xyz
x,y,z
-x,y,1/2-z
-x,-y,-z
x,-y,1/2+z
1/2+x,1/2+y,z
1/2-x,1/2+y,1/2-z
1/2-x,1/2-y,-z
1/2+x,1/2-y,1/2+z
loop_
_atom_site_type_symbol
_atom_site_label
_atom_site_fract_x
_atom_site_fract_y
_atom_site_fract_z
Si Si1 0.863515 0.693735 0.893784
Si Si2 0.211818 0.335770 0.590766
Si Si3 0.374837 0.872502 0.258152
Si Si4 0.133752 0.934680 0.554879
Si Si5 0.914597 0.949090 0.255235
O O1 0.780221 0.661381 0.757022
O O2 0.819383 0.819224 0.876134
O O3 0.771156 0.617985 0.879246
O O4 0.077813 0.669136 0.053487
O O5 0.306576 0.218068 0.652281
O O6 0.369084 0.422470 0.724091
O O7 0.092507 0.366896 0.433388
O O8 0.316452 0.993070 0.189626
O O9 0.055658 0.917727 0.420771
O O10 0.000000 0.000000 0.500000
O O11 0.000000 0.915847 0.250000
#
# Coordination Sequence:
#
# PCOD8139996 Si02
#       5
#     8   8   8   8   8
#     4  10  22  37  69  95 125 167 220 268 313 378
#     4  10  20  40  64  96 125 167 222 263 315 378
#     4  10  21  36  71  98 123 159 228 272 309 368
#     4  12  20  42  68  96 129 168 220 272 313 379
#     4  12  26  42  64  98 137 173 209 265 333 390
#
# _framework density 22.134005999999999
#
# number of rings (size 3 to 8) (size 9 to 14) (size 15 to 20)
#    1.200    0.000    4.000    3.000    0.000    2.400 
#    0.000    5.000    0.000    0.000    0.000    0.000 
#    0.000    0.000    0.000    0.000    0.000    0.000 
#
# Total GULP energy -247910.161704 kJ/mol
# GULP energy per Si atom -12395.508085 kJ/mol
# Density = 2.208363 g / cm^3
# Si number density = 22.134006 Si / 1000 Ang^3
#
#
#
# Elastic Constant Matrix: (Units=GPa)
#
#
# Indices 1 2 3 4 5 6 
#
# 1 60.7053 2.5913 10.5081 0.0133 -16.4590 0.0045
# 2 2.5913 92.3100 1.4610 0.0155 -5.0982 0.0124
# 3 10.5081 1.4610 70.7300 0.0178 -12.6858 0.0184
# 4 0.0133 0.0155 0.0178 33.1143 0.0141 -3.1690
# 5 -16.4590 -5.0982 -12.6858 0.0141 20.6455 0.0102
# 6 0.0045 0.0124 0.0184 -3.1690 0.0102 5.3404
#
#
#
# Elastic Compliance Matrix: (Units=1/GPa)
#
#
# Indices 1 2 3 4 5 6 
#
# 1 0.021027 0.000338 -0.000123 -0.000022 0.016771 -0.000063
# 2 0.000338 0.010994 0.000290 -0.000011 0.003162 -0.000039
# 3 -0.000123 0.000290 0.015898 -0.000021 0.009742 -0.000087
# 4 -0.000022 -0.000011 -0.000021 0.032017 -0.000064 0.018999
# 5 0.016771 0.003162 0.009742 -0.000064 0.068574 -0.000224
# 6 -0.000063 -0.000039 -0.000087 0.018999 -0.000224 0.198525
#
#
# Mechanical properties :
#
#
# Convention : Reuss Voigt Hill
#
# Bulk Modulus (GPa) = 20.43797 28.09625 24.26711
# Shear Modulus (GPa) = 13.79942 25.76569 19.78256
#
# Velocity S-wave (km/s) = 2.49960 3.41556 2.99283
# Velocity P-wave (km/s) = 4.19339 5.31752 4.78855
#
# Compressibility (1/GPa) = 0.04892854
#
# Stress axis : x y z
#
# Youngs Moduli (GPa) = 47.55787 90.96156 62.90134
#
# Poissons Ratio (x) = -0.03074 0.00773
# Poissons Ratio (y) = -0.01607 -0.01824
# Poissons Ratio (z) = 0.00584 -0.02637
#
# Static dielectric constant tensor:
#      x y z
#    x 3.559560 0.000000 -0.041010 
#    y 0.000000 4.099240 -0.000010 
#    z -0.041010 -0.000010 3.899370 
# 
# 
# High freq. dielectric constant tensor:
#      x y z
#    x 1.826640 0.000000 -0.000230 
#    y 0.000000 1.875030 0.000000 
#    z -0.000230 0.000000 1.871870 
# 
# From -- ./inp_files/248705.got.cif
#   From: 2010.06.25/outbox.cif.g09.slc.cpg/sg15_125_cif.got.tgz:248705.got - 2010.06.28 07:06:18.
