data_PCOD8139173
_publ_section_title
;
Structure prediction by ZEFSAII (Michael W. Deem and Ramdas Pophale) SiO2 
 PCOD8139173
Probable space group: C 2/C
;
_chemical_formula_sum "Si O2"
_cell_formula_units_Z 56
_cell_length_a 18.661977
_cell_length_b 12.771325
_cell_length_c 13.585728
_cell_angle_alpha 90.000000
_cell_angle_beta 120.422963
_cell_angle_gamma 90.000000
_cell_volume 2792.160271
_symmetry_space_group_name_H-M "C 2/C"
_symmetry_group_IT_number 15
_symmetry_cell_setting 'monoclinic'
loop_
_space_group_symop_operation_xyz
x,y,z
-x,y,1/2-z
-x,-y,-z
x,-y,1/2+z
1/2+x,1/2+y,z
1/2-x,1/2+y,1/2-z
1/2-x,1/2-y,-z
1/2+x,1/2-y,1/2+z
loop_
_atom_site_type_symbol
_atom_site_label
_atom_site_fract_x
_atom_site_fract_y
_atom_site_fract_z
Si Si1 0.167432 0.955609 0.382536
Si Si2 0.408370 0.675530 0.152566
Si Si3 0.246901 0.845726 0.619194
Si Si4 0.688177 0.211547 0.741670
Si Si5 0.580379 0.268553 0.248059
Si Si6 0.696801 0.992006 0.681275
Si Si7 0.128921 0.722308 0.076359
O O1 0.204845 0.879448 0.490161
O O2 0.091576 0.891547 0.281188
O O3 0.238189 0.970496 0.352855
O O4 0.138072 0.067017 0.404141
O O5 0.500000 0.647641 0.250000
O O6 0.367319 0.735639 0.214300
O O7 0.407965 0.748052 0.055239
O O8 0.184444 0.767724 0.632955
O O9 0.337824 0.796373 0.662773
O O10 0.254147 0.946384 0.692604
O O11 0.652592 0.094899 0.696268
O O12 0.783254 0.218962 0.846424
O O13 0.500000 0.224336 0.250000
O O14 0.566698 0.258097 0.120485
O O15 0.637017 0.904690 0.590164
#
# Coordination Sequence:
#
# PCOD8139173 Si02
#       7
#     8   8   8   8   8   8   8
#     4  12  21  38  66  95 123 167 217 253 312 374
#     4  12  26  41  62  97 130 160 204 265 327 366
#     4  10  22  37  65  93 123 171 214 255 299 378
#     4  10  20  41  64  91 128 161 215 251 302 383
#     4  10  22  41  61  94 133 161 207 264 319 361
#     4  10  20  38  66  93 116 160 227 249 299 365
#     4  10  22  42  64  90 125 174 206 255 307 378
#
# _framework density 20.056155
#
# number of rings (size 3 to 8) (size 9 to 14) (size 15 to 20)
#    0.000    1.714    5.714    2.143    2.000    1.143 
#    0.000    5.714    0.000    0.000    0.000    0.000 
#    0.000    0.000    0.000    0.000    0.000    0.000 
#
# Total GULP energy -347033.340777 kJ/mol
# GULP energy per Si atom -12394.047885 kJ/mol
# Density = 2.001051 g / cm^3
# Si number density = 20.056155 Si / 1000 Ang^3
#
#
#
# Elastic Constant Matrix: (Units=GPa)
#
#
# Indices 1 2 3 4 5 6 
#
# 1 154.1611 45.7557 41.1977 0.0000 -20.4827 0.0000
# 2 45.7557 147.0959 43.9690 0.0000 -10.6682 0.0000
# 3 41.1977 43.9690 82.7127 0.0000 -17.1453 0.0000
# 4 0.0000 0.0000 0.0000 8.0353 0.0000 -41.5483
# 5 -20.4827 -10.6682 -17.1453 0.0000 21.1200 0.0000
# 6 0.0000 0.0000 0.0000 -41.5483 0.0000 13.2766
#
#
#
# Elastic Compliance Matrix: (Units=1/GPa)
#
#
# Indices 1 2 3 4 5 6 
#
# 1 0.008243 -0.001521 -0.002163 0.000000 0.005470 0.000000
# 2 -0.001521 0.008372 -0.003754 0.000000 -0.000293 0.000000
# 3 -0.002163 -0.003754 0.017236 0.000000 0.009997 0.000000
# 4 0.000000 0.000000 0.000000 -0.008198 0.000000 -0.025654
# 5 0.005470 -0.000293 0.009997 0.000000 0.060621 0.000000
# 6 0.000000 0.000000 0.000000 -0.025654 0.000000 -0.004961
#
#
# Mechanical properties :
#
#
# Convention : Reuss Voigt Hill
#
# Bulk Modulus (GPa) = 52.70226 71.75715 62.22971
# Shear Modulus (GPa) = 48.77398 25.35620 37.06509
#
# Velocity S-wave (km/s) = 4.93675 3.55950 4.30358
# Velocity P-wave (km/s) = 7.67005 7.26286 7.46923
#
# Compressibility (1/GPa) = 0.01897452
#
# Stress axis : x y z
#
# Youngs Moduli (GPa) = 121.31548 119.44400 58.01974
#
# Poissons Ratio (x) = 0.18163 0.12553
# Poissons Ratio (y) = 0.18448 0.21780
# Poissons Ratio (z) = 0.26247 0.44838
#
# Static dielectric constant tensor:
#      x y z
#    x 3.629630 0.000000 -0.353750 
#    y 0.000000 4.010920 0.000000 
#    z -0.353750 0.000000 3.619850 
# 
# 
# High freq. dielectric constant tensor:
#      x y z
#    x 1.773270 0.000000 -0.030610 
#    y 0.000000 1.797100 0.000000 
#    z -0.030610 0.000000 1.769350 
# 
# From -- ./inp_files/161422.got.cif
#   From: 2010.06.25/outbox.cif.g09.slc.cpg/sg15_81_cif.got.tgz:161422.got - 2010.06.28 07:06:18.
