data_PCOD8139036
_publ_section_title
;
Structure prediction by ZEFSAII (Michael W. Deem and Ramdas Pophale) SiO2 
 PCOD8139036
Probable space group: C 2/C
;
_chemical_formula_sum "Si O2"
_cell_formula_units_Z 56
_cell_length_a 22.990303
_cell_length_b 9.692258
_cell_length_c 14.453757
_cell_angle_alpha 90.000000
_cell_angle_beta 62.705980
_cell_angle_gamma 90.000000
_cell_volume 2862.124582
_symmetry_space_group_name_H-M "C 2/C"
_symmetry_group_IT_number 15
_symmetry_cell_setting 'monoclinic'
loop_
_space_group_symop_operation_xyz
x,y,z
-x,y,1/2-z
-x,-y,-z
x,-y,1/2+z
1/2+x,1/2+y,z
1/2-x,1/2+y,1/2-z
1/2-x,1/2-y,-z
1/2+x,1/2-y,1/2+z
loop_
_atom_site_type_symbol
_atom_site_label
_atom_site_fract_x
_atom_site_fract_y
_atom_site_fract_z
Si Si1 0.129752 0.208263 0.317753
Si Si2 0.739253 0.855534 0.871482
Si Si3 0.020489 0.991515 0.837397
Si Si4 0.840166 0.521799 0.234831
Si Si5 0.570476 0.235273 0.233523
Si Si6 0.735142 0.560278 0.945081
Si Si7 0.386914 0.616710 0.972059
O O1 0.187395 0.125516 0.222868
O O2 0.059540 0.138063 0.349531
O O3 0.130219 0.368038 0.288523
O O4 0.139590 0.198828 0.420121
O O5 0.686411 0.932081 0.845840
O O6 0.723684 0.693646 0.888846
O O7 0.731323 0.913062 0.980615
O O8 0.000000 0.946876 0.750000
O O9 0.065833 0.127448 0.799847
O O10 0.955023 0.034174 0.942059
O O11 0.898442 0.619539 0.225066
O O12 0.782584 0.539204 0.352131
O O13 0.500000 0.182846 0.250000
O O14 0.610838 0.271709 0.111698
O O15 0.665253 0.497562 0.017845
#
# Coordination Sequence:
#
# PCOD8139036 Si02
#       7
#     8   8   8   8   8   8   8
#     4  11  22  37  61  92 120 157 210 244 299 369
#     4  10  22  40  57  91 131 153 200 248 313 361
#     4   9  20  39  63  85 119 161 203 250 294 355
#     4  11  24  39  63  90 125 161 195 255 307 363
#     4   9  22  42  61  85 122 158 199 253 306 354
#     4  10  22  39  63  90 122 164 196 254 303 359
#     4  10  20  38  64  89 115 159 212 246 293 364
#
# _framework density 19.565884
#
# number of rings (size 3 to 8) (size 9 to 14) (size 15 to 20)
#    0.000    2.286    1.429    2.143    4.000    3.429 
#    0.000    2.857    0.000    0.000    0.000    0.000 
#    0.000    0.000    0.000    0.000    0.000    0.000 
#
# Total GULP energy -347138.125472 kJ/mol
# GULP energy per Si atom -12397.790195 kJ/mol
# Density = 1.952135 g / cm^3
# Si number density = 19.565884 Si / 1000 Ang^3
#
#
#
# Elastic Constant Matrix: (Units=GPa)
#
#
# Indices 1 2 3 4 5 6 
#
# 1 92.6056 63.6299 22.9689 0.0000 4.1802 0.0000
# 2 63.6299 88.9837 24.4507 0.0000 5.9512 0.0000
# 3 22.9689 24.4507 92.4037 0.0000 1.7187 0.0000
# 4 0.0000 0.0000 0.0000 19.6799 0.0000 1.6119
# 5 4.1802 5.9512 1.7187 0.0000 20.5779 0.0000
# 6 0.0000 0.0000 0.0000 1.6119 0.0000 29.7446
#
#
#
# Elastic Compliance Matrix: (Units=1/GPa)
#
#
# Indices 1 2 3 4 5 6 
#
# 1 0.021388 -0.014924 -0.001369 0.000000 0.000086 0.000000
# 2 -0.014924 0.022752 -0.002248 0.000000 -0.003361 0.000000
# 3 -0.001369 -0.002248 0.011758 0.000000 -0.000054 0.000000
# 4 0.000000 0.000000 0.000000 0.051040 0.000000 -0.002766
# 5 0.000086 -0.003361 -0.000054 0.000000 0.049555 0.000000
# 6 0.000000 0.000000 0.000000 -0.002766 0.000000 0.033769
#
#
# Mechanical properties :
#
#
# Convention : Reuss Voigt Hill
#
# Bulk Modulus (GPa) = 53.14506 55.12131 54.13318
# Shear Modulus (GPa) = 21.40248 24.86338 23.13293
#
# Velocity S-wave (km/s) = 3.31095 3.56863 3.44220
# Velocity P-wave (km/s) = 6.46820 6.72409 6.59739
#
# Compressibility (1/GPa) = 0.01881643
#
# Stress axis : x y z
#
# Youngs Moduli (GPa) = 46.75411 43.95184 85.04612
#
# Poissons Ratio (x) = 0.65593 0.11644
# Poissons Ratio (y) = 0.69775 0.19120
# Poissons Ratio (z) = 0.06402 0.09881
#
# Static dielectric constant tensor:
#      x y z
#    x 3.377520 0.000000 -0.046580 
#    y 0.000000 3.376290 0.000000 
#    z -0.046580 0.000000 3.715780 
# 
# 
# High freq. dielectric constant tensor:
#      x y z
#    x 1.755010 0.000000 0.002420 
#    y 0.000000 1.748730 0.000000 
#    z 0.002420 0.000000 1.776380 
# 
# From -- ./inp_files/172250.got.cif
#   From: 2010.06.25/outbox.cif.g09.slc.cpg/sg15_87_cif.got.tgz:172250.got - 2010.06.28 07:06:18.
