data_PCOD8139782
_publ_section_title
;
Structure prediction by ZEFSAII (Michael W. Deem and Ramdas Pophale) SiO2 
 PCOD8139782
Probable space group: C 2/C
;
_chemical_formula_sum "Si O2"
_cell_formula_units_Z 44
_cell_length_a 13.228407
_cell_length_b 17.678571
_cell_length_c 9.168827
_cell_angle_alpha 90.000000
_cell_angle_beta 121.469613
_cell_angle_gamma 90.000000
_cell_volume 1828.838403
_symmetry_space_group_name_H-M "C 2/C"
_symmetry_group_IT_number 15
_symmetry_cell_setting 'monoclinic'
loop_
_space_group_symop_operation_xyz
x,y,z
-x,y,1/2-z
-x,-y,-z
x,-y,1/2+z
1/2+x,1/2+y,z
1/2-x,1/2+y,1/2-z
1/2-x,1/2-y,-z
1/2+x,1/2-y,1/2+z
loop_
_atom_site_type_symbol
_atom_site_label
_atom_site_fract_x
_atom_site_fract_y
_atom_site_fract_z
Si Si1 0.000000 0.405044 0.750000
Si Si2 0.700329 0.594474 0.289447
Si Si3 0.744916 0.454252 0.517788
Si Si4 0.369501 0.746294 0.184639
Si Si5 0.764376 0.197946 0.651617
Si Si6 0.929700 0.302560 0.934363
O O1 0.115626 0.457927 0.832135
O O2 0.976210 0.348686 0.593595
O O3 0.704088 0.532804 0.419306
O O4 0.669914 0.557816 0.109392
O O5 0.603541 0.658369 0.257257
O O6 0.824958 0.636934 0.370904
O O7 0.719179 0.388662 0.381502
O O8 0.347340 0.793330 0.319301
O O9 0.250000 0.750000 0.000000
O O10 0.468574 0.777233 0.130253
O O11 0.750000 0.250000 0.500000
O O12 0.884349 0.226796 0.820009
#
# Coordination Sequence:
#
# PCOD8139782 Si02
#       6
#     4   8   8   8   8   8
#     4  10  20  40  58  98 120 154 206 256 304 364
#     4  10  23  40  57  88 123 165 197 244 307 371
#     4  11  23  37  64  83 129 163 200 246 311 370
#     4  11  23  40  65  92 121 156 214 260 293 359
#     4  11  19  40  64  87 120 168 198 248 315 356
#     4  10  22  37  64  91 123 153 208 252 306 364
#
# _framework density 24.058989
#
# number of rings (size 3 to 8) (size 9 to 14) (size 15 to 20)
#    0.000    1.455    5.455    3.273    5.091    2.909 
#    1.636    0.909    2.000    0.000    0.000    0.000 
#    0.000    0.000    0.000    0.000    0.000    0.000 
#
# Total GULP energy -272655.240189 kJ/mol
# GULP energy per Si atom -12393.420009 kJ/mol
# Density = 2.400423 g / cm^3
# Si number density = 24.058989 Si / 1000 Ang^3
#
#
#
# Elastic Constant Matrix: (Units=GPa)
#
#
# Indices 1 2 3 4 5 6 
#
# 1 67.2321 -8.9533 20.0011 0.0000 -20.4042 0.0000
# 2 -8.9533 108.5587 41.5253 0.0000 -4.5515 0.0000
# 3 20.0011 41.5253 178.5756 0.0000 -17.7708 0.0000
# 4 0.0000 0.0000 0.0000 58.9674 0.0000 -3.5487
# 5 -20.4042 -4.5515 -17.7708 0.0000 36.1170 0.0000
# 6 0.0000 0.0000 0.0000 -3.5487 0.0000 18.4804
#
#
#
# Elastic Compliance Matrix: (Units=1/GPa)
#
#
# Indices 1 2 3 4 5 6 
#
# 1 0.018802 0.002629 -0.001711 0.000000 0.010111 0.000000
# 2 0.002629 0.010479 -0.002578 0.000000 0.001537 0.000000
# 3 -0.001711 -0.002578 0.006585 0.000000 0.001948 0.000000
# 4 0.000000 0.000000 0.000000 0.017157 0.000000 0.003295
# 5 0.010111 0.001537 0.001948 0.000000 0.034553 0.000000
# 6 0.000000 0.000000 0.000000 0.003295 0.000000 0.054744
#
#
# Mechanical properties :
#
#
# Convention : Reuss Voigt Hill
#
# Bulk Modulus (GPa) = 30.72630 51.05694 40.89162
# Shear Modulus (GPa) = 31.95133 42.83253 37.39193
#
# Velocity S-wave (km/s) = 3.64818 4.22395 3.94658
# Velocity P-wave (km/s) = 5.52672 6.71243 6.14822
#
# Compressibility (1/GPa) = 0.03254541
#
# Stress axis : x y z
#
# Youngs Moduli (GPa) = 53.18677 95.42791 151.86161
#
# Poissons Ratio (x) = -0.25089 0.25983
# Poissons Ratio (y) = -0.13983 0.39154
# Poissons Ratio (z) = 0.09100 0.24604
#
# Static dielectric constant tensor:
#      x y z
#    x 5.110090 0.000000 -0.600380 
#    y 0.000000 4.519270 0.000000 
#    z -0.600380 0.000000 5.386910 
# 
# 
# High freq. dielectric constant tensor:
#      x y z
#    x 1.959820 0.000000 -0.011140 
#    y 0.000000 1.932020 0.000000 
#    z -0.011140 0.000000 2.003730 
# 
# From -- ./inp_files/55014.got.cif
#   From: 2010.06.25/outbox.cif.g09.slc.cpg/sg15_28_cif.got.tgz:55014.got - 2010.06.28 07:06:18.
