data_PCOD8139811
_publ_section_title
;
Structure prediction by ZEFSAII (Michael W. Deem and Ramdas Pophale) SiO2 
 PCOD8139811
Probable space group: C 2/C
;
_chemical_formula_sum "Si O2"
_cell_formula_units_Z 60
_cell_length_a 23.281508
_cell_length_b 7.411576
_cell_length_c 24.274746
_cell_angle_alpha 90.000000
_cell_angle_beta 138.945400
_cell_angle_gamma 90.000000
_cell_volume 2751.027421
_symmetry_space_group_name_H-M "C 2/C"
_symmetry_group_IT_number 15
_symmetry_cell_setting 'monoclinic'
loop_
_space_group_symop_operation_xyz
x,y,z
-x,y,1/2-z
-x,-y,-z
x,-y,1/2+z
1/2+x,1/2+y,z
1/2-x,1/2+y,1/2-z
1/2-x,1/2-y,-z
1/2+x,1/2-y,1/2+z
loop_
_atom_site_type_symbol
_atom_site_label
_atom_site_fract_x
_atom_site_fract_y
_atom_site_fract_z
Si Si1 0.390599 0.668455 0.087846
Si Si2 0.500000 0.113093 0.750000
Si Si3 0.751213 0.152942 0.074497
Si Si4 0.801304 0.261730 0.272119
Si Si5 0.837568 0.520362 0.695201
Si Si6 0.282489 0.822933 0.380051
Si Si7 0.069643 0.902437 0.477782
Si Si8 0.878912 0.907081 0.372819
O O1 0.467203 0.754751 0.178543
O O2 0.315954 0.584319 0.073363
O O3 0.430417 0.511446 0.079016
O O4 0.346937 0.827439 0.019623
O O5 0.427101 0.987443 0.726009
O O6 0.777546 0.350983 0.114599
O O7 0.756912 0.010448 0.127784
O O8 0.853882 0.382660 0.265889
O O9 0.814837 0.353333 0.341415
O O10 0.842190 0.062270 0.305193
O O11 0.697141 0.255373 0.180914
O O12 0.792492 0.329255 0.672512
O O13 0.365089 0.768108 0.478408
O O14 0.105859 0.024388 0.554176
O O15 0.970662 0.832414 0.416046
#
# Coordination Sequence:
#
# PCOD8139811 Si02
#       8
#     8   4   8   8   8   8   8   8
#     4  10  20  42  63  89 123 172 212 270 323 385
#     4  10  24  40  68  92 126 168 216 272 334 378
#     4  10  22  39  67  90 123 173 222 249 325 397
#     4  11  19  38  63  92 126 171 210 256 329 377
#     4  11  21  44  63  94 134 168 214 270 319 388
#     4  11  23  39  66 100 127 177 212 267 327 386
#     4  10  20  40  60  92 128 168 216 265 325 379
#     4  10  21  35  63  92 129 170 212 270 317 389
#
# _framework density 21.810032
#
# number of rings (size 3 to 8) (size 9 to 14) (size 15 to 20)
#    0.000    1.600    4.000    1.600    0.000    1.600 
#    2.400    2.667    0.000    6.400    0.000    0.000 
#    0.000    0.000    0.000    0.000    0.000    0.000 
#
# Total GULP energy -371951.904020 kJ/mol
# GULP energy per Si atom -12398.396801 kJ/mol
# Density = 2.176039 g / cm^3
# Si number density = 21.810032 Si / 1000 Ang^3
#
#
#
# Elastic Constant Matrix: (Units=GPa)
#
#
# Indices 1 2 3 4 5 6 
#
# 1 111.6222 11.6695 22.5072 -0.0001 1.5329 0.0002
# 2 11.6695 40.8157 11.9594 -0.0004 1.6425 0.0003
# 3 22.5072 11.9594 88.4026 0.0000 0.7529 0.0003
# 4 -0.0001 -0.0004 0.0000 26.8758 0.0000 -3.7159
# 5 1.5329 1.6425 0.7529 0.0000 40.6549 -0.0001
# 6 0.0002 0.0003 0.0003 -3.7159 -0.0001 22.3359
#
#
#
# Elastic Compliance Matrix: (Units=1/GPa)
#
#
# Indices 1 2 3 4 5 6 
#
# 1 0.009618 -0.002107 -0.002162 0.000000 -0.000238 0.000000
# 2 -0.002107 0.026011 -0.002975 0.000000 -0.000916 0.000000
# 3 -0.002162 -0.002975 0.012265 0.000000 -0.000025 0.000000
# 4 0.000000 0.000000 0.000000 0.038084 0.000000 0.006336
# 5 -0.000238 -0.000916 -0.000025 0.000000 0.024644 0.000000
# 6 0.000000 0.000000 0.000000 0.006336 0.000000 0.045825
#
#
# Mechanical properties :
#
#
# Convention : Reuss Voigt Hill
#
# Bulk Modulus (GPa) = 29.93325 37.01253 33.47289
# Shear Modulus (GPa) = 27.46199 30.95361 29.20780
#
# Velocity S-wave (km/s) = 3.55229 3.77136 3.66347
# Velocity P-wave (km/s) = 5.52986 5.99762 5.76849
#
# Compressibility (1/GPa) = 0.03340766
#
# Stress axis : x y z
#
# Youngs Moduli (GPa) = 103.96949 38.44496 81.53352
#
# Poissons Ratio (x) = 0.08100 0.17625
# Poissons Ratio (y) = 0.21906 0.24253
# Poissons Ratio (z) = 0.22475 0.11436
#
# Static dielectric constant tensor:
#      x y z
#    x 4.218160 0.000000 -0.041100 
#    y 0.000000 3.535920 0.000000 
#    z -0.041100 0.000000 4.091430 
# 
# 
# High freq. dielectric constant tensor:
#      x y z
#    x 1.869470 0.000000 -0.008790 
#    y 0.000000 1.821070 0.000000 
#    z -0.008790 0.000000 1.863990 
# 
# From -- ./inp_files/281700.got.cif
#   From: 2010.06.25/outbox.cif.g09.slc.cpg/sg15_141_cif.got.tgz:281700.got - 2010.06.28 07:06:18.
