data_PCOD8139797
_publ_section_title
;
Structure prediction by ZEFSAII (Michael W. Deem and Ramdas Pophale) SiO2 
 PCOD8139797
Probable space group: C 2/C
;
_chemical_formula_sum "Si O2"
_cell_formula_units_Z 40
_cell_length_a 11.764471
_cell_length_b 8.892513
_cell_length_c 25.780343
_cell_angle_alpha 90.000000
_cell_angle_beta 44.394521
_cell_angle_gamma 90.000000
_cell_volume 1886.827987
_symmetry_space_group_name_H-M "C 2/C"
_symmetry_group_IT_number 15
_symmetry_cell_setting 'monoclinic'
loop_
_space_group_symop_operation_xyz
x,y,z
-x,y,1/2-z
-x,-y,-z
x,-y,1/2+z
1/2+x,1/2+y,z
1/2-x,1/2+y,1/2-z
1/2-x,1/2-y,-z
1/2+x,1/2-y,1/2+z
loop_
_atom_site_type_symbol
_atom_site_label
_atom_site_fract_x
_atom_site_fract_y
_atom_site_fract_z
Si Si1 0.566486 0.141458 0.407059
Si Si2 0.499641 0.696115 0.410995
Si Si3 0.945900 0.555547 0.684384
Si Si4 0.803111 0.552471 0.033600
Si Si5 0.736440 0.549255 0.855363
O O1 0.686307 0.049042 0.407154
O O2 0.605982 0.316548 0.399556
O O3 0.593681 0.087304 0.339182
O O4 0.380886 0.100096 0.484431
O O5 0.581826 0.791694 0.338330
O O6 0.380789 0.570109 0.424940
O O7 0.407752 0.802347 0.481322
O O8 0.640883 0.606307 0.394465
O O9 0.825711 0.551409 0.771358
O O10 0.134670 0.558065 0.640180
#
# Coordination Sequence:
#
# PCOD8139797 Si02
#       5
#     8   8   8   8   8
#     4  10  20  40  60  87 119 153 193 243 290 345
#     4  10  20  40  62  85 119 156 191 243 293 344
#     4  10  22  41  58  85 119 153 199 239 287 351
#     4   9  20  39  61  87 121 152 192 241 295 352
#     4  11  22  38  63  84 114 159 196 240 290 341
#
# _framework density 21.199601000000001
#
# number of rings (size 3 to 8) (size 9 to 14) (size 15 to 20)
#    0.000    2.000    2.000    1.200    0.000    1.600 
#   10.800    0.000    0.000    0.000    0.000    0.000 
#    0.000    0.000    0.000    0.000    0.000    0.000 
#
# Total GULP energy -247964.074618 kJ/mol
# GULP energy per Si atom -12398.203731 kJ/mol
# Density = 2.115135 g / cm^3
# Si number density = 21.199601 Si / 1000 Ang^3
#
#
#
# Elastic Constant Matrix: (Units=GPa)
#
#
# Indices 1 2 3 4 5 6 
#
# 1 73.5450 43.0855 13.9960 0.0000 10.1954 0.0000
# 2 43.0855 91.5332 21.4588 0.0000 -8.8795 0.0000
# 3 13.9960 21.4588 48.0195 0.0000 10.1773 0.0000
# 4 0.0000 0.0000 0.0000 8.0060 0.0000 -22.8356
# 5 10.1954 -8.8795 10.1773 0.0000 34.8944 0.0000
# 6 0.0000 0.0000 0.0000 -22.8356 0.0000 17.0337
#
#
#
# Elastic Compliance Matrix: (Units=1/GPa)
#
#
# Indices 1 2 3 4 5 6 
#
# 1 0.021209 -0.011042 0.000705 0.000000 -0.009213 0.000000
# 2 -0.011042 0.018832 -0.007351 0.000000 0.010162 0.000000
# 3 0.000705 -0.007351 0.025948 0.000000 -0.009645 0.000000
# 4 0.000000 0.000000 0.000000 -0.044233 0.000000 -0.059299
# 5 -0.009213 0.010162 -0.009645 0.000000 0.036749 0.000000
# 6 0.000000 0.000000 0.000000 -0.059299 0.000000 -0.020790
#
#
# Mechanical properties :
#
#
# Convention : Reuss Voigt Hill
#
# Bulk Modulus (GPa) = 32.66529 41.13090 36.89810
# Shear Modulus (GPa) = 60.02711 20.95732 40.49221
#
# Velocity S-wave (km/s) = 5.32698 3.14757 4.37515
# Velocity P-wave (km/s) = 7.29914 5.71432 6.55480
#
# Compressibility (1/GPa) = 0.03061353
#
# Stress axis : x y z
#
# Youngs Moduli (GPa) = 47.14979 53.10142 38.53811
#
# Poissons Ratio (x) = 0.58636 -0.02718
# Poissons Ratio (y) = 0.52064 0.28329
# Poissons Ratio (z) = -0.03326 0.39034
#
# Static dielectric constant tensor:
#      x y z
#    x 4.026550 0.000000 0.134970 
#    y 0.000000 3.648810 0.000000 
#    z 0.134970 0.000000 3.678070 
# 
# 
# High freq. dielectric constant tensor:
#      x y z
#    x 1.839310 0.000000 0.016630 
#    y 0.000000 1.819880 0.000000 
#    z 0.016630 0.000000 1.819800 
# 
# From -- ./inp_files/235697.got.cif
#   From: 2010.06.25/outbox.cif.g09.slc.cpg/sg15_118_cif.got.tgz:235697.got - 2010.06.28 07:06:18.
