data_PCOD8139636
_publ_section_title
;
Structure prediction by ZEFSAII (Michael W. Deem and Ramdas Pophale) SiO2 
 PCOD8139636
Probable space group: C 2/C
;
_chemical_formula_sum "Si O2"
_cell_formula_units_Z 60
_cell_length_a 7.058867
_cell_length_b 18.782677
_cell_length_c 20.837523
_cell_angle_alpha 90.000000
_cell_angle_beta 74.928239
_cell_angle_gamma 90.000000
_cell_volume 2667.695440
_symmetry_space_group_name_H-M "C 2/C"
_symmetry_group_IT_number 15
_symmetry_cell_setting 'monoclinic'
loop_
_space_group_symop_operation_xyz
x,y,z
-x,y,1/2-z
-x,-y,-z
x,-y,1/2+z
1/2+x,1/2+y,z
1/2-x,1/2+y,1/2-z
1/2-x,1/2-y,-z
1/2+x,1/2-y,1/2+z
loop_
_atom_site_type_symbol
_atom_site_label
_atom_site_fract_x
_atom_site_fract_y
_atom_site_fract_z
Si Si1 0.987795 0.218084 0.419593
Si Si2 0.701921 0.460131 0.416809
Si Si3 0.520355 0.082753 0.380703
Si Si4 0.031178 0.722178 0.448552
Si Si5 0.119665 0.071462 0.061539
Si Si6 0.752635 0.281405 0.202088
Si Si7 0.500000 0.150559 0.250000
Si Si8 0.398366 0.336140 0.163562
O O1 0.078956 0.253415 0.476197
O O2 0.755487 0.205729 0.446144
O O3 0.042734 0.134045 0.408771
O O4 0.045490 0.270892 0.355671
O O5 0.492268 0.497379 0.432233
O O6 0.722744 0.417133 0.482202
O O7 0.697465 0.407035 0.356471
O O8 0.878236 0.515486 0.394679
O O9 0.431264 0.151624 0.426826
O O10 0.722736 0.060982 0.396324
O O11 0.572386 0.101730 0.302431
O O12 0.031021 0.784824 0.398407
O O13 0.668041 0.201351 0.206616
O O14 0.604156 0.340909 0.185157
O O15 0.774197 0.303566 0.275032
#
# Coordination Sequence:
#
# PCOD8139636 Si02
#       8
#     8   8   8   8   8   8   4   8
#     4  10  21  37  66 101 121 167 222 281 335 392
#     4  11  23  43  65  92 136 180 216 279 341 409
#     4  11  22  43  67  91 132 176 219 280 333 402
#     4  10  20  39  65  96 128 157 224 286 324 400
#     4  10  23  40  66 100 127 172 230 267 338 413
#     4  10  21  40  66  90 131 174 214 284 351 394
#     4  10  20  42  64  92 126 166 222 272 330 408
#     4  10  21  42  60  92 136 167 220 278 336 409
#
# _framework density 22.491323000000001
#
# number of rings (size 3 to 8) (size 9 to 14) (size 15 to 20)
#    0.000    1.867    4.000    1.200    0.000    3.200 
#    7.200    1.333    0.000    0.000    0.000    0.000 
#    0.000    0.000    0.000    0.000    0.000    0.000 
#
# Total GULP energy -371691.212602 kJ/mol
# GULP energy per Si atom -12389.707087 kJ/mol
# Density = 2.244013 g / cm^3
# Si number density = 22.491323 Si / 1000 Ang^3
#
#
#
# Elastic Constant Matrix: (Units=GPa)
#
#
# Indices 1 2 3 4 5 6 
#
# 1 52.6168 47.3039 46.7870 0.0000 17.4796 0.0000
# 2 47.3039 108.7319 52.7242 0.0000 6.5318 0.0000
# 3 46.7870 52.7242 155.5239 0.0000 12.4931 0.0000
# 4 0.0000 0.0000 0.0000 44.0371 0.0000 11.6936
# 5 17.4796 6.5318 12.4931 0.0000 33.0224 0.0000
# 6 0.0000 0.0000 0.0000 11.6936 0.0000 35.3026
#
#
#
# Elastic Compliance Matrix: (Units=1/GPa)
#
#
# Indices 1 2 3 4 5 6 
#
# 1 0.044579 -0.014971 -0.006887 0.000000 -0.018030 0.000000
# 2 -0.014971 0.016054 -0.001362 0.000000 0.005264 0.000000
# 3 -0.006887 -0.001362 0.008920 0.000000 0.000540 0.000000
# 4 0.000000 0.000000 0.000000 0.024898 0.000000 -0.008247
# 5 -0.018030 0.005264 0.000540 0.000000 0.038580 0.000000
# 6 0.000000 0.000000 0.000000 -0.008247 0.000000 0.031058
#
#
# Mechanical properties :
#
#
# Convention : Reuss Voigt Hill
#
# Bulk Modulus (GPa) = 43.26588 67.83366 55.54977
# Shear Modulus (GPa) = 22.91124 33.80961 28.36042
#
# Velocity S-wave (km/s) = 3.19512 3.88136 3.55484
# Velocity P-wave (km/s) = 5.73500 7.09309 6.44989
#
# Compressibility (1/GPa) = 0.02311290
#
# Stress axis : x y z
#
# Youngs Moduli (GPa) = 22.43230 62.28908 112.10872
#
# Poissons Ratio (x) = 0.93255 0.77210
# Poissons Ratio (y) = 0.33584 0.15264
# Poissons Ratio (z) = 0.15449 0.08481
#
# Static dielectric constant tensor:
#      x y z
#    x 3.852530 0.000000 0.345800 
#    y 0.000000 4.049980 0.000000 
#    z 0.345800 0.000000 4.460720 
# 
# 
# High freq. dielectric constant tensor:
#      x y z
#    x 1.871960 0.000000 0.018120 
#    y 0.000000 1.875500 0.000000 
#    z 0.018120 0.000000 1.899480 
# 
# From -- ./inp_files/232667.got.cif
#   From: 2010.06.25/outbox.cif.g09.slc.cpg/sg15_117_cif.got.tgz:232667.got - 2010.06.28 07:06:18.
