data_PCOD8139964
_publ_section_title
;
Structure prediction by ZEFSAII (Michael W. Deem and Ramdas Pophale) SiO2 
 PCOD8139964
Probable space group: C 2/C
;
_chemical_formula_sum "Si O2"
_cell_formula_units_Z 64
_cell_length_a 31.513133
_cell_length_b 9.377212
_cell_length_c 19.852553
_cell_angle_alpha 90.000000
_cell_angle_beta 33.172866
_cell_angle_gamma 90.000000
_cell_volume 3209.973818
_symmetry_space_group_name_H-M "C 2/C"
_symmetry_group_IT_number 15
_symmetry_cell_setting 'monoclinic'
loop_
_space_group_symop_operation_xyz
x,y,z
-x,y,1/2-z
-x,-y,-z
x,-y,1/2+z
1/2+x,1/2+y,z
1/2-x,1/2+y,1/2-z
1/2-x,1/2-y,-z
1/2+x,1/2-y,1/2+z
loop_
_atom_site_type_symbol
_atom_site_label
_atom_site_fract_x
_atom_site_fract_y
_atom_site_fract_z
Si Si1 0.803729 0.180899 0.786318
Si Si2 0.327990 0.571366 0.345529
Si Si3 0.760171 0.711910 0.835799
Si Si4 0.225295 0.933238 0.955406
Si Si5 0.350151 0.863310 0.091054
Si Si6 0.435475 0.345270 0.386540
Si Si7 0.882533 0.685163 0.055837
Si Si8 0.505764 0.639958 0.319983
O O1 0.784432 0.301587 0.867823
O O2 0.725221 0.122738 0.856194
O O3 0.862540 0.242100 0.653225
O O4 0.846457 0.048976 0.765271
O O5 0.286456 0.706416 0.367541
O O6 0.268528 0.503292 0.479003
O O7 0.404823 0.628380 0.278943
O O8 0.745551 0.546459 0.870625
O O9 0.825933 0.720271 0.690982
O O10 0.680443 0.780069 0.917087
O O11 0.138309 0.879094 0.061126
O O12 0.386681 0.015692 0.059849
O O13 0.417476 0.771758 0.966774
O O14 0.500000 0.283818 0.250000
O O15 0.464372 0.487836 0.385421
O O16 0.965637 0.742379 0.920627
O O17 0.500000 0.688494 0.250000
#
# Coordination Sequence:
#
# PCOD8139964 Si02
#       8
#     8   8   8   8   8   8   8   8
#     4  10  23  37  63  96 122 161 209 264 307 362
#     4  12  23  39  62  98 124 162 213 257 311 368
#     4  11  22  38  64  97 123 161 210 262 310 364
#     4  11  20  40  64  89 130 156 206 262 310 362
#     4  10  22  39  64  91 125 163 209 255 313 368
#     4  10  20  40  64  90 121 169 203 245 311 379
#     4  11  21  41  64  90 127 167 207 255 310 378
#     4  11  23  42  64  90 126 171 206 251 314 376
#
# _framework density 19.937857000000001
#
# number of rings (size 3 to 8) (size 9 to 14) (size 15 to 20)
#    0.000    1.250    6.250    0.750    1.750    1.000 
#    0.000    1.875    0.000    0.000    0.000    0.000 
#    0.000    0.000    0.000    0.000    0.000    0.000 
#
# Total GULP energy -396939.799780 kJ/mol
# GULP energy per Si atom -12404.368743 kJ/mol
# Density = 1.989248 g / cm^3
# Si number density = 19.937857 Si / 1000 Ang^3
#
#
#
# Elastic Constant Matrix: (Units=GPa)
#
#
# Indices 1 2 3 4 5 6 
#
# 1 70.5125 8.8554 24.9068 0.0008 9.9576 0.0016
# 2 8.8554 68.4063 32.9573 -0.0084 5.7618 0.0026
# 3 24.9068 32.9573 120.6229 -0.0108 14.8307 0.0022
# 4 0.0008 -0.0084 -0.0108 37.5955 0.0046 5.6027
# 5 9.9576 5.7618 14.8307 0.0046 23.0293 0.0000
# 6 0.0016 0.0026 0.0022 5.6027 0.0000 24.2728
#
#
#
# Elastic Compliance Matrix: (Units=1/GPa)
#
#
# Indices 1 2 3 4 5 6 
#
# 1 0.015850 -0.000400 -0.002534 0.000000 -0.005122 -0.000001
# 2 -0.000400 0.016884 -0.004379 0.000003 -0.001231 -0.000002
# 3 -0.002534 -0.004379 0.010578 0.000003 -0.004621 -0.000001
# 4 0.000000 0.000003 0.000003 0.027546 -0.000008 -0.006358
# 5 -0.005122 -0.001231 -0.004621 -0.000008 0.048922 0.000003
# 6 -0.000001 -0.000002 -0.000001 -0.006358 0.000003 0.042666
#
#
# Mechanical properties :
#
#
# Convention : Reuss Voigt Hill
#
# Bulk Modulus (GPa) = 34.85924 43.66452 39.26188
# Shear Modulus (GPa) = 26.79035 29.83432 28.31234
#
# Velocity S-wave (km/s) = 3.66962 3.87248 3.77242
# Velocity P-wave (km/s) = 5.95623 6.47632 6.22171
#
# Compressibility (1/GPa) = 0.02868680
#
# Stress axis : x y z
#
# Youngs Moduli (GPa) = 63.08987 59.22828 94.53419
#
# Poissons Ratio (x) = 0.02367 0.23954
# Poissons Ratio (y) = 0.02521 0.41398
# Poissons Ratio (z) = 0.15987 0.25937
#
# Static dielectric constant tensor:
#      x y z
#    x 3.386750 -0.000010 0.134370 
#    y -0.000010 3.690550 0.000010 
#    z 0.134370 0.000010 3.700300 
# 
# 
# High freq. dielectric constant tensor:
#      x y z
#    x 1.756360 0.000000 0.016800 
#    y 0.000000 1.783020 0.000000 
#    z 0.016800 0.000000 1.783060 
# 
# From -- ./inp_files/224574.got.cif
#   From: 2010.06.25/outbox.cif.g09.slc.cpg/sg15_113_cif.got.tgz:224574.got - 2010.06.28 07:06:18.
