data_PCOD8139653
_publ_section_title
;
Structure prediction by ZEFSAII (Michael W. Deem and Ramdas Pophale) SiO2 
 PCOD8139653
Probable space group: C 2/C
;
_chemical_formula_sum "Si O2"
_cell_formula_units_Z 56
_cell_length_a 19.293402
_cell_length_b 4.847698
_cell_length_c 28.008584
_cell_angle_alpha 90.000000
_cell_angle_beta 71.962485
_cell_angle_gamma 90.000000
_cell_volume 2490.860192
_symmetry_space_group_name_H-M "C 2/C"
_symmetry_group_IT_number 15
_symmetry_cell_setting 'monoclinic'
loop_
_space_group_symop_operation_xyz
x,y,z
-x,y,1/2-z
-x,-y,-z
x,-y,1/2+z
1/2+x,1/2+y,z
1/2-x,1/2+y,1/2-z
1/2-x,1/2-y,-z
1/2+x,1/2-y,1/2+z
loop_
_atom_site_type_symbol
_atom_site_label
_atom_site_fract_x
_atom_site_fract_y
_atom_site_fract_z
Si Si1 0.651920 0.028571 0.117050
Si Si2 0.478042 0.099809 0.420257
Si Si3 0.721880 0.466453 0.556298
Si Si4 0.074977 0.108582 0.404215
Si Si5 0.212793 0.607942 0.700094
Si Si6 0.688133 0.116959 0.811532
Si Si7 0.144331 0.803381 0.984813
O O1 0.706867 0.849589 0.072604
O O2 0.654803 0.893598 0.169219
O O3 0.568627 0.020545 0.116867
O O4 0.680947 0.339848 0.104060
O O5 0.540186 0.323595 0.392595
O O6 0.429033 0.216165 0.473074
O O7 0.511668 0.818665 0.433548
O O8 0.807881 0.532588 0.538477
O O9 0.690778 0.497984 0.509250
O O10 0.117436 0.276046 0.353993
O O11 0.125054 0.041792 0.439463
O O12 0.242821 0.300883 0.690910
O O13 0.170287 0.649883 0.758885
O O14 0.283277 0.811672 0.679636
#
# Coordination Sequence:
#
# PCOD8139653 Si02
#       7
#     8   8   8   8   8   8   8
#     4  11  21  40  59  85 118 152 190 241 293 337
#     4  11  25  37  55  82 118 162 199 224 273 354
#     4  10  23  36  60  89 113 146 198 246 290 344
#     4  12  23  39  58  83 120 158 191 234 282 347
#     4  10  20  39  66  90 114 142 185 253 305 341
#     4  10  22  38  63  94 113 142 193 241 302 357
#     4  10  22  39  58  84 117 153 195 243 289 332
#
# _framework density 22.482192000000001
#
# number of rings (size 3 to 8) (size 9 to 14) (size 15 to 20)
#    0.000    1.429    0.000    6.000    0.000    9.714 
#    0.000    0.714    0.000    3.429    0.000    0.000 
#    0.000    0.000    0.000    0.000    0.000    0.000 
#
# Total GULP energy -347154.144418 kJ/mol
# GULP energy per Si atom -12398.362301 kJ/mol
# Density = 2.243102 g / cm^3
# Si number density = 22.482192 Si / 1000 Ang^3
#
#
#
# Elastic Constant Matrix: (Units=GPa)
#
#
# Indices 1 2 3 4 5 6 
#
# 1 106.8315 17.7098 58.6552 0.0136 26.8175 -0.0039
# 2 17.7098 69.6142 13.0865 0.0584 18.7701 -0.0277
# 3 58.6552 13.0865 105.7732 0.0146 30.9136 -0.0068
# 4 0.0136 0.0584 0.0146 23.3746 -0.0059 -0.1232
# 5 26.8175 18.7701 30.9136 -0.0059 32.3625 0.0089
# 6 -0.0039 -0.0277 -0.0068 -0.1232 0.0089 29.7116
#
#
#
# Elastic Compliance Matrix: (Units=1/GPa)
#
#
# Indices 1 2 3 4 5 6 
#
# 1 0.014289 -0.001041 -0.006258 -0.000003 -0.005260 0.000001
# 2 -0.001041 0.017193 0.001543 -0.000046 -0.010584 0.000019
# 3 -0.006258 0.001543 0.015926 -0.000013 -0.010922 0.000007
# 4 -0.000003 -0.000046 -0.000013 0.042783 0.000049 0.000177
# 5 -0.005260 -0.010584 -0.010922 0.000049 0.051830 -0.000028
# 6 0.000001 0.000019 0.000007 0.000177 -0.000028 0.033658
#
#
# Mechanical properties :
#
#
# Convention : Reuss Voigt Hill
#
# Bulk Modulus (GPa) = 27.85740 51.23575 39.54657
# Shear Modulus (GPa) = 25.10612 29.94091 27.52351
#
# Velocity S-wave (km/s) = 3.34535 3.65329 3.50270
# Velocity P-wave (km/s) = 5.22873 6.37451 5.82983
#
# Compressibility (1/GPa) = 0.03589711
#
# Stress axis : x y z
#
# Youngs Moduli (GPa) = 69.98279 58.16223 62.79194
#
# Poissons Ratio (x) = 0.06053 0.39295
# Poissons Ratio (y) = 0.07283 -0.09690
# Poissons Ratio (z) = 0.43795 -0.08975
#
# Static dielectric constant tensor:
#      x y z
#    x 4.043240 0.000030 0.221150 
#    y 0.000030 4.084180 0.000010 
#    z 0.221150 0.000010 4.165290 
# 
# 
# High freq. dielectric constant tensor:
#      x y z
#    x 1.877100 0.000000 0.011800 
#    y 0.000000 1.898960 -0.000010 
#    z 0.011800 -0.000010 1.872370 
# 
# From -- ./inp_files/314822.got.cif
#   From: 2010.06.25/outbox.cif.g09.slc.cpg/sg15_158_cif.got.tgz:314822.got - 2010.06.28 07:06:18.
