data_PCOD8139684
_publ_section_title
;
Structure prediction by ZEFSAII (Michael W. Deem and Ramdas Pophale) SiO2 
 PCOD8139684
Probable space group: C 2/C
;
_chemical_formula_sum "Si O2"
_cell_formula_units_Z 56
_cell_length_a 27.581723
_cell_length_b 5.031362
_cell_length_c 19.427682
_cell_angle_alpha 90.000000
_cell_angle_beta 111.676957
_cell_angle_gamma 90.000000
_cell_volume 2505.388590
_symmetry_space_group_name_H-M "C 2/C"
_symmetry_group_IT_number 15
_symmetry_cell_setting 'monoclinic'
loop_
_space_group_symop_operation_xyz
x,y,z
-x,y,1/2-z
-x,-y,-z
x,-y,1/2+z
1/2+x,1/2+y,z
1/2-x,1/2+y,1/2-z
1/2-x,1/2-y,-z
1/2+x,1/2-y,1/2+z
loop_
_atom_site_type_symbol
_atom_site_label
_atom_site_fract_x
_atom_site_fract_y
_atom_site_fract_z
Si Si1 0.863999 0.652355 0.881246
Si Si2 0.580846 0.875717 0.224478
Si Si3 0.683674 0.515505 0.455518
Si Si4 0.924093 0.162356 0.948889
Si Si5 0.503582 0.558583 0.387702
Si Si6 0.582207 0.384825 0.321443
Si Si7 0.212077 0.509031 0.553222
O O1 0.870083 0.606847 0.802590
O O2 0.905852 0.464094 0.940656
O O3 0.807210 0.552040 0.877788
O O4 0.876935 0.951345 0.913713
O O5 0.526791 0.823884 0.154285
O O6 0.592361 0.625667 0.276858
O O7 0.578487 0.125324 0.272992
O O8 0.630560 0.391784 0.398910
O O9 0.726821 0.574191 0.417886
O O10 0.706882 0.297733 0.517931
O O11 0.676125 0.789391 0.494663
O O12 0.950910 0.132903 0.036379
O O13 0.962890 0.134851 0.904238
O O14 0.528075 0.408437 0.334954
#
# Coordination Sequence:
#
# PCOD8139684 Si02
#       7
#     8   8   8   8   8   8   8
#     4  11  21  40  59  86 119 152 190 244 298 338
#     4  11  26  38  55  84 120 162 203 229 277 359
#     4  10  22  39  64  95 115 144 196 241 299 357
#     4  10  23  37  61  89 113 146 200 250 292 345
#     4  10  23  40  59  84 116 156 200 245 290 333
#     4  12  24  41  59  83 122 162 195 238 285 348
#     4  10  20  39  67  92 116 144 186 253 304 342
#
# _framework density 22.351824000000001
#
# number of rings (size 3 to 8) (size 9 to 14) (size 15 to 20)
#    0.000    1.429    0.000    5.571    0.000   13.143 
#    0.000    1.429    0.000    0.000    0.000    0.000 
#    0.000    0.000    0.000    0.000    0.000    0.000 
#
# Total GULP energy -347082.992035 kJ/mol
# GULP energy per Si atom -12395.821144 kJ/mol
# Density = 2.230095 g / cm^3
# Si number density = 22.351824 Si / 1000 Ang^3
#
#
#
# Elastic Constant Matrix: (Units=GPa)
#
#
# Indices 1 2 3 4 5 6 
#
# 1 100.8428 22.4040 41.4516 0.0004 -38.6541 -0.0008
# 2 22.4040 99.8935 23.0692 -0.0079 -12.0917 0.0016
# 3 41.4516 23.0692 69.2804 -0.0010 -29.1151 0.0001
# 4 0.0004 -0.0079 -0.0010 27.3721 -0.0009 -6.7968
# 5 -38.6541 -12.0917 -29.1151 -0.0009 38.5435 0.0004
# 6 -0.0008 0.0016 0.0001 -6.7968 0.0004 22.4931
#
#
#
# Elastic Compliance Matrix: (Units=1/GPa)
#
#
# Indices 1 2 3 4 5 6 
#
# 1 0.017118 -0.001240 -0.004070 0.000000 0.013703 0.000000
# 2 -0.001240 0.010960 -0.002908 0.000003 -0.000003 0.000000
# 3 -0.004070 -0.002908 0.023059 0.000000 0.012424 0.000000
# 4 0.000000 0.000003 0.000000 0.039497 0.000002 0.011935
# 5 0.013703 -0.000003 0.012424 0.000002 0.049072 0.000000
# 6 0.000000 0.000000 0.000000 0.011935 0.000000 0.048064
#
#
# Mechanical properties :
#
#
# Convention : Reuss Voigt Hill
#
# Bulk Modulus (GPa) = 28.81920 49.31849 39.06884
# Shear Modulus (GPa) = 23.17240 29.88787 26.53013
#
# Velocity S-wave (km/s) = 3.22329 3.66068 3.44893
# Velocity P-wave (km/s) = 5.17439 6.32297 5.77729
#
# Compressibility (1/GPa) = 0.03469909
#
# Stress axis : x y z
#
# Youngs Moduli (GPa) = 58.41965 91.23893 43.36699
#
# Poissons Ratio (x) = 0.11318 0.17650
# Poissons Ratio (y) = 0.07247 0.12613
# Poissons Ratio (z) = 0.23776 0.26537
#
# Static dielectric constant tensor:
#      x y z
#    x 4.483490 0.000000 -0.400180 
#    y 0.000000 3.956130 0.000010 
#    z -0.400180 0.000010 3.937680 
# 
# 
# High freq. dielectric constant tensor:
#      x y z
#    x 1.887090 0.000000 -0.033570 
#    y 0.000000 1.892200 0.000000 
#    z -0.033570 0.000000 1.858020 
# 
# From -- ./inp_files/221282.got.cif
#   From: 2010.06.25/outbox.cif.g09.slc.cpg/sg15_111_cif.got.tgz:221282.got - 2010.06.28 07:06:18.
