data_PCOD8139401
_publ_section_title
;
Structure prediction by ZEFSAII (Michael W. Deem and Ramdas Pophale) SiO2 
 PCOD8139401
Probable space group: C 2/C
;
_chemical_formula_sum "Si O2"
_cell_formula_units_Z 44
_cell_length_a 12.012184
_cell_length_b 36.556182
_cell_length_c 5.167510
_cell_angle_alpha 90.000000
_cell_angle_beta 90.000157
_cell_angle_gamma 90.000000
_cell_volume 2269.154844
_symmetry_space_group_name_H-M "C 2/C"
_symmetry_group_IT_number 15
_symmetry_cell_setting 'monoclinic'
loop_
_space_group_symop_operation_xyz
x,y,z
-x,y,1/2-z
-x,-y,-z
x,-y,1/2+z
1/2+x,1/2+y,z
1/2-x,1/2+y,1/2-z
1/2-x,1/2-y,-z
1/2+x,1/2-y,1/2+z
loop_
_atom_site_type_symbol
_atom_site_label
_atom_site_fract_x
_atom_site_fract_y
_atom_site_fract_z
Si Si1 0.303414 0.081868 0.749979
Si Si2 0.631356 0.124884 0.250019
Si Si3 0.131238 0.779798 0.250036
Si Si4 0.369167 0.477540 0.249993
Si Si5 0.261931 0.798009 0.750053
Si Si6 0.000000 0.475095 0.250000
O O1 0.314089 0.107090 0.500498
O O2 0.183038 0.062861 0.749987
O O3 0.391966 0.049657 0.749989
O O4 0.314098 0.107093 0.999443
O O5 0.500000 0.117994 0.250000
O O6 0.655799 0.167774 0.250036
O O7 0.182971 0.798969 0.500783
O O8 0.157229 0.736810 0.249941
O O9 0.000000 0.785999 0.250000
O O10 0.183030 0.798988 0.999425
O O11 0.500000 0.471342 0.250000
O O12 0.328927 0.500003 0.499978
O O13 0.000000 0.500000 0.500000
#
# Coordination Sequence:
#
# PCOD8139401 Si02
#       6
#     8   8   8   8   8   4
#     4  12  23  39  59  89 119 153 193 246 289 364
#     4  12  23  41  58  84 123 159 193 232 304 364
#     4  10  20  39  61  90 119 149 206 257 294 338
#     4  10  21  40  63  84 110 150 195 242 289 340
#     4  10  22  37  62  88 116 163 197 242 300 359
#     4  12  22  36  58  86 118 152 192 244 302 340
#
# _framework density 19.390481000000001
#
# number of rings (size 3 to 8) (size 9 to 14) (size 15 to 20)
#    0.000    1.091    1.818    5.455    0.000    0.000 
#    0.000   10.909    0.000    0.000    0.000    0.000 
#    0.000    0.000    0.000    0.000    0.000    0.000 
#
# Total GULP energy -272942.286634 kJ/mol
# GULP energy per Si atom -12406.467574 kJ/mol
# Density = 1.934635 g / cm^3
# Si number density = 19.390481 Si / 1000 Ang^3
#
#
#
# Elastic Constant Matrix: (Units=GPa)
#
#
# Indices 1 2 3 4 5 6 
#
# 1 67.7929 24.4308 30.2544 0.0000 0.6119 0.0000
# 2 24.4308 101.5080 49.0355 0.0000 2.3219 0.0000
# 3 30.2544 49.0355 178.6634 0.0000 9.9036 0.0000
# 4 0.0000 0.0000 0.0000 -110.1644 0.0000 -13.3471
# 5 0.6119 2.3219 9.9036 0.0000 22.8672 0.0000
# 6 0.0000 0.0000 0.0000 -13.3471 0.0000 27.1887
#
#
#
# Elastic Compliance Matrix: (Units=1/GPa)
#
#
# Indices 1 2 3 4 5 6 
#
# 1 0.016758 -0.003066 -0.002038 0.000000 0.000745 0.000000
# 2 -0.003066 0.011919 -0.002756 0.000000 0.000065 0.000000
# 3 -0.002038 -0.002756 0.006844 0.000000 -0.002630 0.000000
# 4 0.000000 0.000000 0.000000 -0.008568 0.000000 -0.004206
# 5 0.000745 0.000065 -0.002630 0.000000 0.044843 0.000000
# 6 0.000000 0.000000 0.000000 -0.004206 0.000000 0.034715
#
#
# Mechanical properties :
#
#
# Convention : Reuss Voigt Hill
#
# Bulk Modulus (GPa) = 50.49775 61.71176 56.10475
# Shear Modulus (GPa) = 38.81022 4.26122 21.53572
#
# Velocity S-wave (km/s) = 4.47868 1.48403 3.33623
# Velocity P-wave (km/s) = 7.26937 5.90181 6.62100
#
# Compressibility (1/GPa) = 0.01980286
#
# Stress axis : x y z
#
# Youngs Moduli (GPa) = 59.67171 83.89903 146.10777
#
# Poissons Ratio (x) = 0.25724 0.29771
# Poissons Ratio (y) = 0.18296 0.40263
# Poissons Ratio (z) = 0.12159 0.23120
#
# Static dielectric constant tensor:
#      x y z
#    x 3.449350 0.000000 0.031650 
#    y 0.000000 3.529280 0.000000 
#    z 0.031650 0.000000 3.783430 
# 
# 
# High freq. dielectric constant tensor:
#      x y z
#    x 1.756480 0.000000 0.002210 
#    y 0.000000 1.756300 0.000000 
#    z 0.002210 0.000000 1.779780 
# 
# From -- ./inp_files/5789.got.cif
#   From: 2010.06.25/outbox.cif.g09.slc.cpg/sg15_3_cif.got.tgz:5789.got - 2010.06.28 07:06:18.
