data_PCOD8139597
_publ_section_title
;
Structure prediction by ZEFSAII (Michael W. Deem and Ramdas Pophale) SiO2 
 PCOD8139597
Probable space group: C 2/C
;
_chemical_formula_sum "Si O2"
_cell_formula_units_Z 64
_cell_length_a 19.084694
_cell_length_b 14.243595
_cell_length_c 19.450151
_cell_angle_alpha 90.000000
_cell_angle_beta 141.604124
_cell_angle_gamma 90.000000
_cell_volume 3283.849839
_symmetry_space_group_name_H-M "C 2/C"
_symmetry_group_IT_number 15
_symmetry_cell_setting 'monoclinic'
loop_
_space_group_symop_operation_xyz
x,y,z
-x,y,1/2-z
-x,-y,-z
x,-y,1/2+z
1/2+x,1/2+y,z
1/2-x,1/2+y,1/2-z
1/2-x,1/2-y,-z
1/2+x,1/2-y,1/2+z
loop_
_atom_site_type_symbol
_atom_site_label
_atom_site_fract_x
_atom_site_fract_y
_atom_site_fract_z
Si Si1 0.450048 0.574221 0.281762
Si Si2 0.502727 0.957176 0.925866
Si Si3 0.241539 0.459550 0.082385
Si Si4 0.380963 0.309592 0.850273
Si Si5 0.135897 0.922931 0.461568
Si Si6 0.254518 0.026713 0.190606
Si Si7 0.505940 0.735502 0.928611
Si Si8 0.773326 0.852908 0.242321
O O1 0.500000 0.616037 0.250000
O O2 0.322015 0.542111 0.170682
O O3 0.446978 0.659137 0.332934
O O4 0.524725 0.486839 0.365729
O O5 0.389947 0.984865 0.798052
O O6 0.520059 0.845882 0.936727
O O7 0.614052 0.999305 0.973040
O O8 0.500000 0.000000 0.000000
O O9 0.290501 0.414601 0.050640
O O10 0.228800 0.383124 0.133262
O O11 0.282877 0.382031 0.795974
O O12 0.323130 0.208781 0.794890
O O13 0.476792 0.303925 0.981581
O O14 0.213288 0.968683 0.580385
O O15 0.096419 0.817341 0.448964
O O16 0.196521 0.938723 0.184137
O O17 0.381431 0.709568 0.809432
#
# Coordination Sequence:
#
# PCOD8139597 Si02
#       8
#     8   8   8   8   8   8   8   8
#     4  10  20  39  65  86 118 159 200 252 307 349
#     4  12  22  39  60  87 123 165 199 237 300 369
#     4  11  22  39  61  91 124 161 197 245 311 368
#     4  11  20  37  61  91 117 155 207 250 297 356
#     4  10  23  40  62  91 123 156 200 257 307 350
#     4  11  22  39  61  89 120 160 203 248 300 355
#     4  11  22  35  60  92 118 153 201 253 296 352
#     4  12  21  37  64  90 118 159 207 248 295 362
#
# _framework density 19.489319999999999
#
# number of rings (size 3 to 8) (size 9 to 14) (size 15 to 20)
#    0.000    1.000    6.250    0.750    0.000    3.000 
#    0.000    1.250    5.500    2.250    0.000    0.000 
#    0.000    0.000    0.000    0.000    0.000    0.000 
#
# Total GULP energy -396791.774315 kJ/mol
# GULP energy per Si atom -12399.742947 kJ/mol
# Density = 1.944496 g / cm^3
# Si number density = 19.489320 Si / 1000 Ang^3
#
#
#
# Elastic Constant Matrix: (Units=GPa)
#
#
# Indices 1 2 3 4 5 6 
#
# 1 109.6221 33.4240 31.9348 0.0000 -6.2672 0.0000
# 2 33.4240 60.6436 3.3036 0.0000 -15.8516 0.0000
# 3 31.9348 3.3036 81.0131 0.0000 6.7239 0.0000
# 4 0.0000 0.0000 0.0000 23.5281 0.0000 0.2133
# 5 -6.2672 -15.8516 6.7239 0.0000 38.8475 0.0000
# 6 0.0000 0.0000 0.0000 0.2133 0.0000 25.0741
#
#
#
# Elastic Compliance Matrix: (Units=1/GPa)
#
#
# Indices 1 2 3 4 5 6 
#
# 1 0.012503 -0.006603 -0.004670 0.000000 0.000131 0.000000
# 2 -0.006603 0.022103 0.001056 0.000000 0.007771 0.000000
# 3 -0.004670 0.001056 0.014375 0.000000 -0.002810 0.000000
# 4 0.000000 0.000000 0.000000 0.042506 0.000000 -0.000362
# 5 0.000131 0.007771 -0.002810 0.000000 0.029420 0.000000
# 6 0.000000 0.000000 0.000000 -0.000362 0.000000 0.039885
#
#
# Mechanical properties :
#
#
# Convention : Reuss Voigt Hill
#
# Bulk Modulus (GPa) = 35.02909 43.17816 39.10363
# Shear Modulus (GPa) = 26.21359 29.66437 27.93898
#
# Velocity S-wave (km/s) = 3.67143 3.90562 3.79034
# Velocity P-wave (km/s) = 5.99876 6.52238 6.26604
#
# Compressibility (1/GPa) = 0.02854770
#
# Stress axis : x y z
#
# Youngs Moduli (GPa) = 79.97770 45.24373 69.56562
#
# Poissons Ratio (x) = 0.29873 0.32490
# Poissons Ratio (y) = 0.52806 -0.07349
# Poissons Ratio (z) = 0.37353 -0.04780
#
# Static dielectric constant tensor:
#      x y z
#    x 3.571050 0.000000 0.095450 
#    y 0.000000 3.448350 0.000000 
#    z 0.095450 0.000000 3.772120 
# 
# 
# High freq. dielectric constant tensor:
#      x y z
#    x 1.751500 0.000000 0.011900 
#    y 0.000000 1.744000 0.000000 
#    z 0.011900 0.000000 1.773090 
# 
# From -- ./inp_files/211421.got.cif
#   From: 2010.06.25/outbox.cif.g09.slc.cpg/sg15_106_cif.got.tgz:211421.got - 2010.06.28 07:06:18.
