data_PCOD8139009
_publ_section_title
;
Structure prediction by ZEFSAII (Michael W. Deem and Ramdas Pophale) SiO2 
 PCOD8139009
Probable space group: C 2/C
;
_chemical_formula_sum "Si O2"
_cell_formula_units_Z 52
_cell_length_a 12.392846
_cell_length_b 12.419599
_cell_length_c 21.297123
_cell_angle_alpha 90.000000
_cell_angle_beta 55.493997
_cell_angle_gamma 90.000000
_cell_volume 2701.232739
_symmetry_space_group_name_H-M "C 2/C"
_symmetry_group_IT_number 15
_symmetry_cell_setting 'monoclinic'
loop_
_space_group_symop_operation_xyz
x,y,z
-x,y,1/2-z
-x,-y,-z
x,-y,1/2+z
1/2+x,1/2+y,z
1/2-x,1/2+y,1/2-z
1/2-x,1/2-y,-z
1/2+x,1/2-y,1/2+z
loop_
_atom_site_type_symbol
_atom_site_label
_atom_site_fract_x
_atom_site_fract_y
_atom_site_fract_z
Si Si1 0.306557 0.656820 0.438087
Si Si2 0.256278 0.584725 0.968012
Si Si3 0.564668 0.776401 0.602785
Si Si4 0.228198 0.596460 0.829756
Si Si5 0.500000 0.305766 0.250000
Si Si6 0.705124 0.142141 0.339139
Si Si7 0.943017 0.258442 0.203900
O O1 0.250000 0.750000 0.500000
O O2 0.303910 0.536422 0.469368
O O3 0.209419 0.647583 0.412279
O O4 0.450634 0.688440 0.368349
O O5 0.374423 0.666777 0.946050
O O6 0.211650 0.604660 0.910750
O O7 0.135241 0.616545 0.053168
O O8 0.571483 0.771020 0.676068
O O9 0.411629 0.778390 0.639189
O O10 0.381076 0.620615 0.761450
O O11 0.185390 0.478634 0.821979
O O12 0.123294 0.665188 0.825576
O O13 0.837307 0.175284 0.262375
O O14 0.000000 0.314750 0.250000
#
# Coordination Sequence:
#
# PCOD8139009 Si02
#       7
#     8   8   8   8   4   8   8
#     4  10  23  39  61  86 120 163 200 246 302 365
#     4   9  22  39  64  84 122 160 204 249 292 368
#     4  10  20  39  61  90 117 152 206 250 296 350
#     4  10  21  37  63  89 114 166 201 250 299 363
#     4  10  20  38  64  84 122 156 204 240 308 358
#     4  10  22  37  63  87 119 156 207 250 297 362
#     4  10  22  39  56  89 124 153 202 255 304 354
#
# _framework density 19.250471000000001
#
# number of rings (size 3 to 8) (size 9 to 14) (size 15 to 20)
#    0.000    2.154    1.538    0.000   11.846    1.231 
#    1.385    0.769    0.000    0.000    0.000    0.000 
#    0.000    0.000    0.000    0.000    0.000    0.000 
#
# Total GULP energy -322123.557342 kJ/mol
# GULP energy per Si atom -12389.367590 kJ/mol
# Density = 1.920666 g / cm^3
# Si number density = 19.250471 Si / 1000 Ang^3
#
#
#
# Elastic Constant Matrix: (Units=GPa)
#
#
# Indices 1 2 3 4 5 6 
#
# 1 96.1118 50.9846 23.1237 0.0000 -11.9854 0.0000
# 2 50.9846 131.9140 50.9235 0.0000 4.2421 0.0000
# 3 23.1237 50.9235 111.5128 0.0000 -14.0880 0.0000
# 4 0.0000 0.0000 0.0000 21.7943 0.0000 1.6361
# 5 -11.9854 4.2421 -14.0880 0.0000 24.7989 0.0000
# 6 0.0000 0.0000 0.0000 1.6361 0.0000 26.4316
#
#
#
# Elastic Compliance Matrix: (Units=1/GPa)
#
#
# Indices 1 2 3 4 5 6 
#
# 1 0.014589 -0.006278 0.000935 0.000000 0.008656 0.000000
# 2 -0.006278 0.012344 -0.005371 0.000000 -0.008197 0.000000
# 3 0.000935 -0.005371 0.012281 0.000000 0.008347 0.000000
# 4 0.000000 0.000000 0.000000 0.046098 0.000000 -0.002853
# 5 0.008656 -0.008197 0.008347 0.000000 0.050652 0.000000
# 6 0.000000 0.000000 0.000000 -0.002853 0.000000 0.038010
#
#
# Mechanical properties :
#
#
# Convention : Reuss Voigt Hill
#
# Bulk Modulus (GPa) = 56.22078 65.51136 60.86607
# Shear Modulus (GPa) = 24.83472 28.90541 26.87006
#
# Velocity S-wave (km/s) = 3.59567 3.87918 3.74011
# Velocity P-wave (km/s) = 6.81959 7.35996 7.09492
#
# Compressibility (1/GPa) = 0.01778702
#
# Stress axis : x y z
#
# Youngs Moduli (GPa) = 68.54278 81.01007 81.42772
#
# Poissons Ratio (x) = 0.50860 -0.07616
# Poissons Ratio (y) = 0.43033 0.43733
# Poissons Ratio (z) = -0.06411 0.43509
#
# Static dielectric constant tensor:
#      x y z
#    x 3.640310 0.000000 -0.016660 
#    y 0.000000 3.581800 0.000000 
#    z -0.016660 0.000000 3.675850 
# 
# 
# High freq. dielectric constant tensor:
#      x y z
#    x 1.743520 0.000000 -0.013360 
#    y 0.000000 1.742130 0.000000 
#    z -0.013360 0.000000 1.757940 
# 
# From -- ./inp_files/237476.got.cif
#   From: 2010.06.25/outbox.cif.g09.slc.cpg/sg15_119_cif.got.tgz:237476.got - 2010.06.28 07:06:18.
