data_PCOD8139210
_publ_section_title
;
Structure prediction by ZEFSAII (Michael W. Deem and Ramdas Pophale) SiO2 
 PCOD8139210
Probable space group: C 2/C
;
_chemical_formula_sum "Si O2"
_cell_formula_units_Z 64
_cell_length_a 27.144022
_cell_length_b 16.623402
_cell_length_c 17.986755
_cell_angle_alpha 90.000000
_cell_angle_beta 157.669425
_cell_angle_gamma 90.000000
_cell_volume 3083.707513
_symmetry_space_group_name_H-M "C 2/C"
_symmetry_group_IT_number 15
_symmetry_cell_setting 'monoclinic'
loop_
_space_group_symop_operation_xyz
x,y,z
-x,y,1/2-z
-x,-y,-z
x,-y,1/2+z
1/2+x,1/2+y,z
1/2-x,1/2+y,1/2-z
1/2-x,1/2-y,-z
1/2+x,1/2-y,1/2+z
loop_
_atom_site_type_symbol
_atom_site_label
_atom_site_fract_x
_atom_site_fract_y
_atom_site_fract_z
Si Si1 0.700962 0.130752 0.419815
Si Si2 0.520608 0.026217 0.446082
Si Si3 0.230812 0.646600 0.700401
Si Si4 0.970441 0.795564 0.623086
Si Si5 0.882786 0.887536 0.795460
Si Si6 0.892326 0.927352 0.299103
Si Si7 0.140648 0.759172 0.452795
Si Si8 0.091941 0.384002 0.443159
O O1 0.615836 0.052567 0.281247
O O2 0.837965 0.105329 0.646179
O O3 0.741381 0.181088 0.403204
O O4 0.625203 0.185556 0.373034
O O5 0.611738 0.103933 0.574363
O O6 0.500000 0.000000 0.500000
O O7 0.589300 0.951573 0.502055
O O8 0.289649 0.584807 0.722440
O O9 0.178406 0.727223 0.587191
O O10 0.332854 0.667614 0.907168
O O11 0.965833 0.699417 0.606777
O O12 0.000000 0.819225 0.750000
O O13 0.082597 0.829001 0.725023
O O14 0.736434 0.870154 0.614196
O O15 0.915066 0.978642 0.816744
O O16 0.978202 0.875636 0.999973
O O17 0.000000 0.802196 0.250000
O O18 0.000000 0.417155 0.250000
#
# Coordination Sequence:
#
# PCOD8139210 Si02
#       8
#     8   8   8   8   8   8   8   8
#     4  10  22  39  61 100 127 167 214 271 329 393
#     4  12  26  41  66 100 138 165 219 285 335 384
#     4  10  21  41  67  92 131 174 213 270 335 396
#     4  10  25  43  65  98 133 178 226 276 325 379
#     4  10  20  41  70  93 130 176 229 268 322 409
#     4   9  19  38  68  95 122 174 219 264 330 394
#     4  10  20  38  67  94 130 170 214 256 333 405
#     4  11  25  43  70  95 129 182 226 266 333 400
#
# _framework density 20.754238999999998
#
# number of rings (size 3 to 8) (size 9 to 14) (size 15 to 20)
#    0.000    1.750    2.500    0.750    3.500    6.000 
#    2.250    0.625    0.000    0.000    0.000    0.000 
#    0.000    0.000    0.000    0.000    0.000    0.000 
#
# Total GULP energy -396781.532483 kJ/mol
# GULP energy per Si atom -12399.422890 kJ/mol
# Density = 2.070700 g / cm^3
# Si number density = 20.754239 Si / 1000 Ang^3
#
#
#
# Elastic Constant Matrix: (Units=GPa)
#
#
# Indices 1 2 3 4 5 6 
#
# 1 108.9143 49.9157 63.4319 0.0001 0.8700 0.0000
# 2 49.9157 83.8855 31.3104 0.0000 -7.0217 0.0000
# 3 63.4319 31.3104 140.4636 0.0001 -0.5096 0.0001
# 4 0.0001 0.0000 0.0001 26.3898 0.0000 0.7421
# 5 0.8700 -7.0217 -0.5096 0.0000 32.5072 0.0000
# 6 0.0000 0.0000 0.0001 0.7421 0.0000 34.0365
#
#
#
# Elastic Compliance Matrix: (Units=1/GPa)
#
#
# Indices 1 2 3 4 5 6 
#
# 1 0.015862 -0.007572 -0.005483 0.000000 -0.002146 0.000000
# 2 -0.007572 0.016870 -0.000327 0.000000 0.003842 0.000000
# 3 -0.005483 -0.000327 0.009669 0.000000 0.000228 0.000000
# 4 0.000000 0.000000 0.000000 0.037917 0.000000 -0.000827
# 5 -0.002146 0.003842 0.000228 0.000000 0.031653 0.000000
# 6 0.000000 0.000000 0.000000 -0.000827 0.000000 0.029398
#
#
# Mechanical properties :
#
#
# Convention : Reuss Voigt Hill
#
# Bulk Modulus (GPa) = 63.94971 69.17547 66.56259
# Shear Modulus (GPa) = 28.84390 31.16038 30.00214
#
# Velocity S-wave (km/s) = 3.73202 3.87899 3.80622
# Velocity P-wave (km/s) = 7.03210 7.31199 7.17341
#
# Compressibility (1/GPa) = 0.01563729
#
# Stress axis : x y z
#
# Youngs Moduli (GPa) = 63.04265 59.27585 103.42104
#
# Poissons Ratio (x) = 0.44882 0.56708
# Poissons Ratio (y) = 0.47735 0.03384
# Poissons Ratio (z) = 0.34568 0.01940
#
# Static dielectric constant tensor:
#      x y z
#    x 3.609160 0.000000 0.002250 
#    y 0.000000 3.692880 0.000000 
#    z 0.002250 0.000000 3.982630 
# 
# 
# High freq. dielectric constant tensor:
#      x y z
#    x 1.796850 0.000000 0.004070 
#    y 0.000000 1.806990 0.000000 
#    z 0.004070 0.000000 1.826690 
# 
# From -- ./inp_files/174269.got.cif
#   From: 2010.06.25/outbox.cif.g09.slc.cpg/sg15_88_cif.got.tgz:174269.got - 2010.06.28 07:06:18.
