data_PCOD8139689
_publ_section_title
;
Structure prediction by ZEFSAII (Michael W. Deem and Ramdas Pophale) SiO2 
 PCOD8139689
Probable space group: C 2/C
;
_chemical_formula_sum "Si O2"
_cell_formula_units_Z 48
_cell_length_a 10.084592
_cell_length_b 16.680156
_cell_length_c 26.646220
_cell_angle_alpha 90.000000
_cell_angle_beta 152.179188
_cell_angle_gamma 90.000000
_cell_volume 2091.891827
_symmetry_space_group_name_H-M "C 2/C"
_symmetry_group_IT_number 15
_symmetry_cell_setting 'monoclinic'
loop_
_space_group_symop_operation_xyz
x,y,z
-x,y,1/2-z
-x,-y,-z
x,-y,1/2+z
1/2+x,1/2+y,z
1/2-x,1/2+y,1/2-z
1/2-x,1/2-y,-z
1/2+x,1/2-y,1/2+z
loop_
_atom_site_type_symbol
_atom_site_label
_atom_site_fract_x
_atom_site_fract_y
_atom_site_fract_z
Si Si1 0.853886 0.477811 0.532581
Si Si2 0.846804 0.047675 0.635454
Si Si3 0.017842 0.300903 0.476668
Si Si4 0.820494 0.693505 0.070356
Si Si5 0.448612 0.120472 0.851990
Si Si6 0.443833 0.263207 0.788645
O O1 0.171000 0.487453 0.613229
O O2 0.816147 0.551752 0.559434
O O3 0.621512 0.489426 0.410152
O O4 0.803956 0.398151 0.547792
O O5 0.664062 0.126912 0.561364
O O6 0.147412 0.074905 0.758899
O O7 0.338077 0.312506 0.603896
O O8 0.901119 0.215487 0.459160
O O9 0.993594 0.307605 0.408135
O O10 0.128766 0.709523 0.196964
O O11 0.750000 0.750000 0.000000
O O12 0.473375 0.166326 0.807586
O O13 0.500000 0.281924 0.750000
#
# Coordination Sequence:
#
# PCOD8139689 Si02
#       6
#     8   8   8   8   8   8
#     4  10  21  35  62  98 122 171 227 273 330 412
#     4  10  20  39  67  92 136 173 215 288 352 383
#     4  11  22  40  66  98 129 173 228 279 340 408
#     4  12  22  41  65  97 134 171 223 287 345 403
#     4  11  24  43  66  98 140 178 224 290 350 397
#     4  12  24  39  69  94 134 185 232 273 344 414
#
# _framework density 22.945736
#
# number of rings (size 3 to 8) (size 9 to 14) (size 15 to 20)
#    0.000    1.000    5.000    2.500    0.000    6.667 
#    0.000    0.833    3.667    0.000    0.000    0.000 
#    0.000    0.000    0.000    0.000    0.000    0.000 
#
# Total GULP energy -297341.395694 kJ/mol
# GULP energy per Si atom -12389.224821 kJ/mol
# Density = 2.289351 g / cm^3
# Si number density = 22.945736 Si / 1000 Ang^3
#
#
#
# Elastic Constant Matrix: (Units=GPa)
#
#
# Indices 1 2 3 4 5 6 
#
# 1 27.9723 24.3280 18.9571 0.0011 -11.3528 -0.0009
# 2 24.3280 123.4332 21.4771 -0.0004 -14.5608 -0.0020
# 3 18.9571 21.4771 145.2470 -0.0024 -6.9835 -0.0074
# 4 0.0011 -0.0004 -0.0024 41.8404 -0.0009 -11.8707
# 5 -11.3528 -14.5608 -6.9835 -0.0009 23.3801 -0.0026
# 6 -0.0009 -0.0020 -0.0074 -11.8707 -0.0026 39.2551
#
#
#
# Elastic Compliance Matrix: (Units=1/GPa)
#
#
# Indices 1 2 3 4 5 6 
#
# 1 0.053600 -0.007347 -0.004949 -0.000001 0.019973 0.000001
# 2 -0.007347 0.009911 -0.000387 0.000000 0.002489 0.000001
# 3 -0.004949 -0.000387 0.007570 0.000001 -0.000383 0.000002
# 4 -0.000001 0.000000 0.000001 0.026143 0.000002 0.007906
# 5 0.019973 0.002489 -0.000383 0.000002 0.053906 0.000005
# 6 0.000001 0.000001 0.000002 0.007906 0.000005 0.027865
#
#
# Mechanical properties :
#
#
# Convention : Reuss Voigt Hill
#
# Bulk Modulus (GPa) = 21.87509 47.35298 34.61403
# Shear Modulus (GPa) = 22.76895 36.35445 29.56170
#
# Velocity S-wave (km/s) = 3.15349 3.98473 3.59323
# Velocity P-wave (km/s) = 4.77634 6.46935 5.68621
#
# Compressibility (1/GPa) = 0.04571410
#
# Stress axis : x y z
#
# Youngs Moduli (GPa) = 18.65684 100.90279 132.10853
#
# Poissons Ratio (x) = 0.74133 0.65380
# Poissons Ratio (y) = 0.13707 0.05111
# Poissons Ratio (z) = 0.09233 0.03903
#
# Static dielectric constant tensor:
#      x y z
#    x 3.937420 0.000000 -0.167190 
#    y 0.000000 4.198440 -0.000010 
#    z -0.167190 -0.000010 4.535030 
# 
# 
# High freq. dielectric constant tensor:
#      x y z
#    x 1.870150 0.000000 -0.023350 
#    y 0.000000 1.899700 0.000000 
#    z -0.023350 0.000000 1.924620 
# 
# From -- ./inp_files/311445.got.cif
#   From: 2010.06.25/outbox.cif.g09.slc.cpg/sg15_156_cif.got.tgz:311445.got - 2010.06.28 07:06:18.
