data_PCOD8139736
_publ_section_title
;
Structure prediction by ZEFSAII (Michael W. Deem and Ramdas Pophale) SiO2 
 PCOD8139736
Probable space group: C 2/C
;
_chemical_formula_sum "Si O2"
_cell_formula_units_Z 48
_cell_length_a 11.988448
_cell_length_b 12.761860
_cell_length_c 16.210539
_cell_angle_alpha 90.000000
_cell_angle_beta 60.051574
_cell_angle_gamma 90.000000
_cell_volume 2148.970692
_symmetry_space_group_name_H-M "C 2/C"
_symmetry_group_IT_number 15
_symmetry_cell_setting 'monoclinic'
loop_
_space_group_symop_operation_xyz
x,y,z
-x,y,1/2-z
-x,-y,-z
x,-y,1/2+z
1/2+x,1/2+y,z
1/2-x,1/2+y,1/2-z
1/2-x,1/2-y,-z
1/2+x,1/2-y,1/2+z
loop_
_atom_site_type_symbol
_atom_site_label
_atom_site_fract_x
_atom_site_fract_y
_atom_site_fract_z
Si Si1 0.703079 0.038560 0.702405
Si Si2 0.095838 0.706662 0.469497
Si Si3 0.032442 0.034783 0.327504
Si Si4 0.876636 0.262766 0.174120
Si Si5 0.283496 0.414523 0.003646
Si Si6 0.894471 0.320825 0.724605
O O1 0.634755 0.147385 0.752325
O O2 0.703432 0.023585 0.603047
O O3 0.850482 0.032655 0.679809
O O4 0.617704 0.946322 0.771441
O O5 0.190161 0.610416 0.460506
O O6 0.169347 0.810869 0.467553
O O7 0.070432 0.710682 0.381603
O O8 0.959588 0.696042 0.566323
O O9 0.060892 0.159107 0.308973
O O10 0.000000 0.989658 0.250000
O O11 0.905736 0.017022 0.430212
O O12 0.735424 0.232963 0.194534
O O13 0.000000 0.280912 0.750000
#
# Coordination Sequence:
#
# PCOD8139736 Si02
#       6
#     8   8   8   8   8   8
#     4  11  23  39  63  96 126 170 214 259 320 380
#     4  10  22  41  68  95 125 167 219 262 318 376
#     4  10  22  40  64  95 131 165 216 271 313 374
#     4  10  23  41  67  91 126 173 219 260 313 380
#     4  10  20  39  69  95 121 168 217 267 311 376
#     4  11  25  44  60  95 135 164 209 269 326 383
#
# _framework density 22.336272999999998
#
# number of rings (size 3 to 8) (size 9 to 14) (size 15 to 20)
#    0.000    1.667    1.667    2.500    7.000    2.000 
#    3.000    0.000    0.000    0.000    0.000    0.000 
#    0.000    0.000    0.000    0.000    0.000    0.000 
#
# Total GULP energy -297638.259468 kJ/mol
# GULP energy per Si atom -12401.594144 kJ/mol
# Density = 2.228544 g / cm^3
# Si number density = 22.336273 Si / 1000 Ang^3
#
#
#
# Elastic Constant Matrix: (Units=GPa)
#
#
# Indices 1 2 3 4 5 6 
#
# 1 108.4599 -9.9057 53.1057 0.0000 13.3055 0.0000
# 2 -9.9057 43.7820 10.4176 0.0000 -5.9995 0.0000
# 3 53.1057 10.4176 149.4319 0.0000 1.1028 0.0000
# 4 0.0000 0.0000 0.0000 25.4665 0.0000 0.1585
# 5 13.3055 -5.9995 1.1028 0.0000 44.7295 0.0000
# 6 0.0000 0.0000 0.0000 0.1585 0.0000 14.5717
#
#
#
# Elastic Compliance Matrix: (Units=1/GPa)
#
#
# Indices 1 2 3 4 5 6 
#
# 1 0.012117 0.003401 -0.004521 0.000000 -0.003037 0.000000
# 2 0.003401 0.024634 -0.002943 0.000000 0.002365 0.000000
# 3 -0.004521 -0.002943 0.008498 0.000000 0.000740 0.000000
# 4 0.000000 0.000000 0.000000 0.039270 0.000000 -0.000427
# 5 -0.003037 0.002365 0.000740 0.000000 0.023559 0.000000
# 6 0.000000 0.000000 0.000000 -0.000427 0.000000 0.068631
#
#
# Mechanical properties :
#
#
# Convention : Reuss Voigt Hill
#
# Bulk Modulus (GPa) = 26.93760 45.43435 36.18597
# Shear Modulus (GPa) = 25.35371 33.49063 29.42217
#
# Velocity S-wave (km/s) = 3.37277 3.87639 3.63331
# Velocity P-wave (km/s) = 5.22050 6.35770 5.81696
#
# Compressibility (1/GPa) = 0.03712284
#
# Stress axis : x y z
#
# Youngs Moduli (GPa) = 82.53101 40.59370 117.66985
#
# Poissons Ratio (x) = -0.13806 0.53196
# Poissons Ratio (y) = -0.28069 0.34636
# Poissons Ratio (z) = 0.37310 0.11949
#
# Static dielectric constant tensor:
#      x y z
#    x 4.019690 0.000000 -0.200850 
#    y 0.000000 3.852530 0.000000 
#    z -0.200850 0.000000 4.135310 
# 
# 
# High freq. dielectric constant tensor:
#      x y z
#    x 1.876440 0.000000 -0.011040 
#    y 0.000000 1.858620 0.000000 
#    z -0.011040 0.000000 1.888850 
# 
# From -- ./inp_files/143826.got.cif
#   From: 2010.06.25/outbox.cif.g09.slc.cpg/sg15_72_cif.got.tgz:143826.got - 2010.06.28 07:06:18.
