data_PCOD8139471
_publ_section_title
;
Structure prediction by ZEFSAII (Michael W. Deem and Ramdas Pophale) SiO2 
 PCOD8139471
Probable space group: C 2/C
;
_chemical_formula_sum "Si O2"
_cell_formula_units_Z 60
_cell_length_a 8.624389
_cell_length_b 18.113322
_cell_length_c 17.359887
_cell_angle_alpha 90.000000
_cell_angle_beta 93.466517
_cell_angle_gamma 90.000000
_cell_volume 2706.935975
_symmetry_space_group_name_H-M "C 2/C"
_symmetry_group_IT_number 15
_symmetry_cell_setting 'monoclinic'
loop_
_space_group_symop_operation_xyz
x,y,z
-x,y,1/2-z
-x,-y,-z
x,-y,1/2+z
1/2+x,1/2+y,z
1/2-x,1/2+y,1/2-z
1/2-x,1/2-y,-z
1/2+x,1/2-y,1/2+z
loop_
_atom_site_type_symbol
_atom_site_label
_atom_site_fract_x
_atom_site_fract_y
_atom_site_fract_z
Si Si1 0.055006 0.354700 0.074302
Si Si2 0.531628 0.760157 0.935937
Si Si3 0.620356 0.603301 0.972626
Si Si4 0.000000 0.104683 0.250000
Si Si5 0.132934 0.436554 0.314470
Si Si6 0.361203 0.309659 0.291844
Si Si7 0.068063 0.010437 0.122991
Si Si8 0.298029 0.721894 0.334067
O O1 0.207909 0.401000 0.056940
O O2 0.088292 0.288896 0.137050
O O3 0.943021 0.416699 0.105691
O O4 0.970439 0.319895 0.995973
O O5 0.583042 0.688713 0.986650
O O6 0.401395 0.729848 0.873977
O O7 0.684284 0.798158 0.902019
O O8 0.502601 0.568267 0.905392
O O9 0.599658 0.562218 0.051700
O O10 0.881547 0.153069 0.296418
O O11 0.053839 0.049059 0.320784
O O12 0.213052 0.361677 0.289265
O O13 0.264842 0.498637 0.330105
O O14 0.000000 0.462438 0.250000
O O15 0.500000 0.352290 0.250000
O O16 0.321021 0.242973 0.235411
#
# Coordination Sequence:
#
# PCOD8139471 Si02
#       8
#     8   8   8   4   8   8   8   8
#     4  11  22  39  72  94 131 168 208 290 335 378
#     4  10  20  39  71  98 129 164 217 270 343 388
#     4  10  22  46  65  94 132 176 223 261 328 400
#     4  12  24  40  66  90 132 168 224 264 326 380
#     4  12  25  41  63  99 131 172 226 264 325 392
#     4  10  21  39  67  97 134 164 211 274 337 397
#     4  11  26  42  66  93 130 186 226 259 310 407
#     4  10  20  39  63 101 124 165 212 275 336 386
#
# _framework density 22.165282000000001
#
# number of rings (size 3 to 8) (size 9 to 14) (size 15 to 20)
#    0.000    1.333    2.667    4.000    2.800    1.067 
#    4.800    3.333    0.000    0.000    0.000    0.000 
#    0.000    0.000    0.000    0.000    0.000    0.000 
#
# Total GULP energy -371657.139352 kJ/mol
# GULP energy per Si atom -12388.571312 kJ/mol
# Density = 2.211483 g / cm^3
# Si number density = 22.165282 Si / 1000 Ang^3
#
#
#
# Elastic Constant Matrix: (Units=GPa)
#
#
# Indices 1 2 3 4 5 6 
#
# 1 62.1880 21.0411 38.0973 0.0000 5.4493 0.0000
# 2 21.0411 66.4526 47.0062 0.0000 -15.4522 0.0000
# 3 38.0973 47.0062 120.9774 0.0000 2.0289 0.0000
# 4 0.0000 0.0000 0.0000 24.3554 0.0000 -6.3700
# 5 5.4493 -15.4522 2.0289 0.0000 37.3573 0.0000
# 6 0.0000 0.0000 0.0000 -6.3700 0.0000 24.7843
#
#
#
# Elastic Compliance Matrix: (Units=1/GPa)
#
#
# Indices 1 2 3 4 5 6 
#
# 1 0.020884 -0.004231 -0.004857 0.000000 -0.004533 0.000000
# 2 -0.004231 0.025175 -0.008642 0.000000 0.011500 0.000000
# 3 -0.004857 -0.008642 0.013214 0.000000 -0.003584 0.000000
# 4 0.000000 0.000000 0.000000 0.044018 0.000000 0.011313
# 5 -0.004533 0.011500 -0.003584 0.000000 0.032381 0.000000
# 6 0.000000 0.000000 0.000000 0.011313 0.000000 0.043256
#
#
# Mechanical properties :
#
#
# Convention : Reuss Voigt Hill
#
# Bulk Modulus (GPa) = 41.99432 51.32305 46.65868
# Shear Modulus (GPa) = 22.48947 26.86429 24.67688
#
# Velocity S-wave (km/s) = 3.18877 3.48515 3.34025
# Velocity P-wave (km/s) = 5.70481 6.27694 5.99770
#
# Compressibility (1/GPa) = 0.02381275
#
# Stress axis : x y z
#
# Youngs Moduli (GPa) = 47.88275 39.72120 75.67974
#
# Poissons Ratio (x) = 0.16807 0.36755
# Poissons Ratio (y) = 0.20260 0.65406
# Poissons Ratio (z) = 0.23255 0.34329
#
# Static dielectric constant tensor:
#      x y z
#    x 4.015470 0.000000 -0.085090 
#    y 0.000000 3.896620 0.000000 
#    z -0.085090 0.000000 4.270260 
# 
# 
# High freq. dielectric constant tensor:
#      x y z
#    x 1.852970 0.000000 -0.004070 
#    y 0.000000 1.859710 0.000000 
#    z -0.004070 0.000000 1.898880 
# 
# From -- ./inp_files/191005.got.cif
#   From: 2010.06.25/outbox.cif.g09.slc.cpg/sg15_96_cif.got.tgz:191005.got - 2010.06.28 07:06:18.
