data_PCOD8139368
_publ_section_title
;
Structure prediction by ZEFSAII (Michael W. Deem and Ramdas Pophale) SiO2 
 PCOD8139368
Probable space group: C 2/C
;
_chemical_formula_sum "Si O2"
_cell_formula_units_Z 40
_cell_length_a 13.765024
_cell_length_b 9.789440
_cell_length_c 26.008297
_cell_angle_alpha 90.000000
_cell_angle_beta 144.642756
_cell_angle_gamma 90.000000
_cell_volume 2028.055141
_symmetry_space_group_name_H-M "C 2/C"
_symmetry_group_IT_number 15
_symmetry_cell_setting 'monoclinic'
loop_
_space_group_symop_operation_xyz
x,y,z
-x,y,1/2-z
-x,-y,-z
x,-y,1/2+z
1/2+x,1/2+y,z
1/2-x,1/2+y,1/2-z
1/2-x,1/2-y,-z
1/2+x,1/2-y,1/2+z
loop_
_atom_site_type_symbol
_atom_site_label
_atom_site_fract_x
_atom_site_fract_y
_atom_site_fract_z
Si Si1 0.671909 0.965830 0.233158
Si Si2 0.809115 0.032437 0.907243
Si Si3 0.633801 0.239661 0.900938
Si Si4 0.996699 0.977226 0.308879
Si Si5 0.437101 0.184998 0.165368
O O1 0.765082 0.956749 0.328318
O O2 0.540203 0.842837 0.167311
O O3 0.804256 0.964508 0.244306
O O4 0.575019 0.110280 0.189284
O O5 0.743942 0.175107 0.902628
O O6 0.726880 0.907728 0.903186
O O7 0.000000 0.000000 0.000000
O O8 0.591661 0.396463 0.873710
O O9 0.750000 0.250000 0.000000
O O10 0.000000 0.997543 0.250000
O O11 0.093842 0.838435 0.368985
O O12 0.500000 0.202243 0.250000
#
# Coordination Sequence:
#
# PCOD8139368 Si02
#       5
#     8   8   8   8   8
#     4  10  20  39  61  83 116 160 194 235 301 367
#     4  10  20  39  63  84 113 157 200 238 295 371
#     4  11  23  39  59  88 122 159 201 245 295 361
#     4  11  21  36  59  89 117 146 193 254 303 345
#     4   8  18  35  57  82 110 144 188 236 289 348
#
# _framework density 19.723330000000001
#
# number of rings (size 3 to 8) (size 9 to 14) (size 15 to 20)
#    0.000    2.000    0.000    5.400    0.000    3.200 
#    0.000   15.000    0.000    0.000    0.000    0.000 
#    0.000    0.000    0.000    0.000    0.000    0.000 
#
# Total GULP energy -247875.840780 kJ/mol
# GULP energy per Si atom -12393.792039 kJ/mol
# Density = 1.967844 g / cm^3
# Si number density = 19.723330 Si / 1000 Ang^3
#
#
#
# Elastic Constant Matrix: (Units=GPa)
#
#
# Indices 1 2 3 4 5 6 
#
# 1 132.6002 40.4003 53.1276 0.0000 13.5269 0.0000
# 2 40.4003 172.1258 57.2129 0.0000 5.9277 0.0000
# 3 53.1276 57.2129 132.7886 0.0000 8.9879 0.0000
# 4 0.0000 0.0000 0.0000 21.1284 0.0000 0.4233
# 5 13.5269 5.9277 8.9879 0.0000 30.6252 0.0000
# 6 0.0000 0.0000 0.0000 0.4233 0.0000 19.6020
#
#
#
# Elastic Compliance Matrix: (Units=1/GPa)
#
#
# Indices 1 2 3 4 5 6 
#
# 1 0.009422 -0.001076 -0.003100 0.000000 -0.003043 0.000000
# 2 -0.001076 0.006910 -0.002539 0.000000 -0.000117 0.000000
# 3 -0.003100 -0.002539 0.009936 0.000000 -0.001056 0.000000
# 4 0.000000 0.000000 0.000000 0.047350 0.000000 -0.001022
# 5 -0.003043 -0.000117 -0.001056 0.000000 0.034330 0.000000
# 6 0.000000 0.000000 0.000000 -0.001022 0.000000 0.051037
#
#
# Mechanical properties :
#
#
# Convention : Reuss Voigt Hill
#
# Bulk Modulus (GPa) = 77.89072 82.11070 80.00071
# Shear Modulus (GPa) = 28.29739 33.38937 30.84338
#
# Velocity S-wave (km/s) = 3.79187 4.11893 3.95878
# Velocity P-wave (km/s) = 7.66476 8.02138 7.84509
#
# Compressibility (1/GPa) = 0.01283850
#
# Stress axis : x y z
#
# Youngs Moduli (GPa) = 106.13624 144.71327 100.64106
#
# Poissons Ratio (x) = 0.15575 0.31198
# Poissons Ratio (y) = 0.11423 0.25551
# Poissons Ratio (z) = 0.32901 0.36740
#
# Static dielectric constant tensor:
#      x y z
#    x 3.662170 0.000000 0.140820 
#    y 0.000000 4.934060 0.000000 
#    z 0.140820 0.000000 3.407790 
# 
# 
# High freq. dielectric constant tensor:
#      x y z
#    x 1.772520 0.000000 0.010170 
#    y 0.000000 1.789390 0.000000 
#    z 0.010170 0.000000 1.753130 
# 
# From -- ./inp_files/150580.got.cif
#   From: 2010.06.25/outbox.cif.g09.slc.cpg/sg15_76_cif.got.tgz:150580.got - 2010.06.28 07:06:18.
