data_PCOD8139167
_publ_section_title
;
Structure prediction by ZEFSAII (Michael W. Deem and Ramdas Pophale) SiO2 
 PCOD8139167
Probable space group: C 2/C
;
_chemical_formula_sum "Si O2"
_cell_formula_units_Z 60
_cell_length_a 20.727678
_cell_length_b 9.272366
_cell_length_c 16.762029
_cell_angle_alpha 90.000000
_cell_angle_beta 110.917005
_cell_angle_gamma 90.000000
_cell_volume 3009.265509
_symmetry_space_group_name_H-M "C 2/C"
_symmetry_group_IT_number 15
_symmetry_cell_setting 'monoclinic'
loop_
_space_group_symop_operation_xyz
x,y,z
-x,y,1/2-z
-x,-y,-z
x,-y,1/2+z
1/2+x,1/2+y,z
1/2-x,1/2+y,1/2-z
1/2-x,1/2-y,-z
1/2+x,1/2-y,1/2+z
loop_
_atom_site_type_symbol
_atom_site_label
_atom_site_fract_x
_atom_site_fract_y
_atom_site_fract_z
Si Si1 0.453666 0.159107 0.523900
Si Si2 0.555088 0.054275 0.341090
Si Si3 0.500000 0.324217 0.750000
Si Si4 0.865028 0.362602 0.225907
Si Si5 0.727603 0.662023 0.411993
Si Si6 0.848154 0.466295 0.395159
Si Si7 0.583017 0.263651 0.486361
Si Si8 0.405358 0.566102 0.076916
O O1 0.520435 0.234091 0.518166
O O2 0.400619 0.285747 0.524280
O O3 0.473663 0.068369 0.611517
O O4 0.419618 0.052080 0.444346
O O5 0.500000 0.091292 0.250000
O O6 0.570878 0.202919 0.392514
O O7 0.625179 0.995494 0.331175
O O8 0.562709 0.226856 0.742754
O O9 0.528825 0.425296 0.834064
O O10 0.799826 0.270345 0.168085
O O11 0.843748 0.429668 0.300784
O O12 0.750000 0.750000 0.500000
O O13 0.786485 0.565125 0.398717
O O14 0.665856 0.552151 0.406336
O O15 0.850009 0.315744 0.445866
O O16 0.590512 0.434584 0.482951
#
# Coordination Sequence:
#
# PCOD8139167 Si02
#       8
#     8   8   4   8   8   8   8   8
#     4  11  20  38  65  91 123 162 205 253 318 377
#     4  11  18  35  61  91 123 162 199 253 312 373
#     4  10  20  38  66  92 124 162 206 252 330 384
#     4  11  21  40  68  90 121 164 210 264 314 371
#     4  11  22  46  67  86 125 178 215 245 316 389
#     4  11  23  42  63  93 121 163 220 259 298 381
#     4  11  24  35  60 100 127 151 208 267 316 363
#     4  11  22  40  63  91 125 172 195 254 321 372
#
# _framework density 19.938420000000001
#
# number of rings (size 3 to 8) (size 9 to 14) (size 15 to 20)
#    0.000    1.067    4.667    5.200    0.933    0.533 
#    4.800    1.333    0.000    0.000    0.000    0.000 
#    0.000    0.000    0.000    0.000    0.000    0.000 
#
# Total GULP energy -371933.490696 kJ/mol
# GULP energy per Si atom -12397.783023 kJ/mol
# Density = 1.989304 g / cm^3
# Si number density = 19.938420 Si / 1000 Ang^3
#
#
#
# Elastic Constant Matrix: (Units=GPa)
#
#
# Indices 1 2 3 4 5 6 
#
# 1 85.8669 14.8356 41.6702 0.0000 -9.0550 0.0000
# 2 14.8356 76.3477 36.3671 0.0000 -11.9636 0.0000
# 3 41.6702 36.3671 126.7529 0.0000 -14.6550 0.0000
# 4 0.0000 0.0000 0.0000 31.8120 0.0000 -3.6198
# 5 -9.0550 -11.9636 -14.6550 0.0000 28.2369 0.0000
# 6 0.0000 0.0000 0.0000 -3.6198 0.0000 25.1789
#
#
#
# Elastic Compliance Matrix: (Units=1/GPa)
#
#
# Indices 1 2 3 4 5 6 
#
# 1 0.013996 -0.000361 -0.004252 0.000000 0.002129 0.000000
# 2 -0.000361 0.015721 -0.003867 0.000000 0.004538 0.000000
# 3 -0.004252 -0.003867 0.010691 0.000000 0.002547 0.000000
# 4 0.000000 0.000000 0.000000 0.031957 0.000000 0.004594
# 5 0.002129 0.004538 0.002547 0.000000 0.039342 0.000000
# 6 0.000000 0.000000 0.000000 0.004594 0.000000 0.040376
#
#
# Mechanical properties :
#
#
# Convention : Reuss Voigt Hill
#
# Bulk Modulus (GPa) = 42.64587 52.74589 47.69588
# Shear Modulus (GPa) = 28.27098 30.11854 29.19476
#
# Velocity S-wave (km/s) = 3.76961 3.89083 3.83070
# Velocity P-wave (km/s) = 6.35467 6.83349 6.59842
#
# Compressibility (1/GPa) = 0.02344893
#
# Stress axis : x y z
#
# Youngs Moduli (GPa) = 71.44906 63.60770 93.53576
#
# Poissons Ratio (x) = 0.02296 0.39767
# Poissons Ratio (y) = 0.02579 0.36173
# Poissons Ratio (z) = 0.30377 0.24599
#
# Static dielectric constant tensor:
#      x y z
#    x 3.599670 0.000000 0.012850 
#    y 0.000000 3.617530 0.000000 
#    z 0.012850 0.000000 3.755630 
# 
# 
# High freq. dielectric constant tensor:
#      x y z
#    x 1.769120 0.000000 -0.008230 
#    y 0.000000 1.769830 0.000000 
#    z -0.008230 0.000000 1.785080 
# 
# From -- ./inp_files/213990.got.cif
#   From: 2010.06.25/outbox.cif.g09.slc.cpg/sg15_107_cif.got.tgz:213990.got - 2010.06.28 07:06:18.
