data_PCOD8139256
_publ_section_title
;
Structure prediction by ZEFSAII (Michael W. Deem and Ramdas Pophale) SiO2 
 PCOD8139256
Probable space group: C 2/C
;
_chemical_formula_sum "Si O2"
_cell_formula_units_Z 64
_cell_length_a 22.907751
_cell_length_b 16.935029
_cell_length_c 13.694705
_cell_angle_alpha 90.000000
_cell_angle_beta 32.404720
_cell_angle_gamma 90.000000
_cell_volume 2847.094470
_symmetry_space_group_name_H-M "C 2/C"
_symmetry_group_IT_number 15
_symmetry_cell_setting 'monoclinic'
loop_
_space_group_symop_operation_xyz
x,y,z
-x,y,1/2-z
-x,-y,-z
x,-y,1/2+z
1/2+x,1/2+y,z
1/2-x,1/2+y,1/2-z
1/2-x,1/2-y,-z
1/2+x,1/2-y,1/2+z
loop_
_atom_site_type_symbol
_atom_site_label
_atom_site_fract_x
_atom_site_fract_y
_atom_site_fract_z
Si Si1 0.804445 0.577906 0.376142
Si Si2 0.671170 0.943163 0.291219
Si Si3 0.252684 0.696113 0.201368
Si Si4 0.409859 0.497460 0.761689
Si Si5 0.125860 0.306650 0.068159
Si Si6 0.888861 0.348235 0.949123
Si Si7 0.136354 0.956440 0.893263
Si Si8 0.705578 0.351271 0.529653
O O1 0.875023 0.505684 0.225261
O O2 0.807425 0.656824 0.306476
O O3 0.677380 0.553919 0.562220
O O4 0.844105 0.594530 0.428500
O O5 0.588742 0.905607 0.488102
O O6 0.722077 0.865711 0.168841
O O7 0.760314 0.994715 0.219859
O O8 0.155966 0.714464 0.414642
O O9 0.338815 0.637331 0.132396
O O10 0.307870 0.777378 0.089487
O O11 0.390258 0.489578 0.674620
O O12 0.531816 0.527670 0.610663
O O13 0.395294 0.410721 0.826611
O O14 0.213053 0.368470 0.991730
O O15 0.000000 0.335144 0.250000
O O16 0.146560 0.232968 0.111515
O O17 0.000000 0.311246 0.750000
#
# Coordination Sequence:
#
# PCOD8139256 Si02
#       8
#     8   8   8   8   8   8   8   8
#     4  10  24  43  66  95 132 172 226 282 325 412
#     4  10  22  42  68  91 130 167 231 280 323 402
#     4  11  24  45  64 100 141 169 227 274 338 418
#     4  10  20  38  69  96 128 170 227 281 339 383
#     4  11  24  42  67  96 138 183 219 282 350 394
#     4  12  26  44  66  95 137 183 215 275 341 404
#     4  10  21  39  68  98 128 175 218 288 339 387
#     4  10  22  41  63 101 131 167 232 284 321 411
#
# _framework density 22.479057000000001
#
# number of rings (size 3 to 8) (size 9 to 14) (size 15 to 20)
#    0.000    1.500    3.750    0.375    3.500    5.000 
#    0.000    8.750    0.000    0.000    0.000    0.000 
#    0.000    0.000    0.000    0.000    0.000    0.000 
#
# Total GULP energy -396538.673709 kJ/mol
# GULP energy per Si atom -12391.833553 kJ/mol
# Density = 2.242789 g / cm^3
# Si number density = 22.479057 Si / 1000 Ang^3
#
#
#
# Elastic Constant Matrix: (Units=GPa)
#
#
# Indices 1 2 3 4 5 6 
#
# 1 48.5239 20.2362 13.4001 0.0000 14.3919 0.0000
# 2 20.2362 77.5937 26.4523 0.0000 10.6374 0.0000
# 3 13.4001 26.4523 114.8273 0.0000 22.4142 0.0000
# 4 0.0000 0.0000 0.0000 7.4511 0.0000 -5.8239
# 5 14.3919 10.6374 22.4142 0.0000 36.0771 0.0000
# 6 0.0000 0.0000 0.0000 -5.8239 0.0000 27.3957
#
#
#
# Elastic Compliance Matrix: (Units=1/GPa)
#
#
# Indices 1 2 3 4 5 6 
#
# 1 0.025415 -0.005445 -0.000052 0.000000 -0.008501 0.000000
# 2 -0.005445 0.015340 -0.002776 0.000000 -0.000626 0.000000
# 3 -0.000052 -0.002776 0.010459 0.000000 -0.005659 0.000000
# 4 0.000000 0.000000 0.000000 0.160953 0.000000 0.034216
# 5 -0.008501 -0.000626 -0.005659 0.000000 0.034810 0.000000
# 6 0.000000 0.000000 0.000000 0.034216 0.000000 0.043776
#
#
# Mechanical properties :
#
#
# Convention : Reuss Voigt Hill
#
# Bulk Modulus (GPa) = 28.84593 40.12467 34.48530
# Shear Modulus (GPa) = 15.68114 26.24186 20.96150
#
# Velocity S-wave (km/s) = 2.64406 3.42042 3.05698
# Velocity P-wave (km/s) = 4.70973 5.78684 5.27585
#
# Compressibility (1/GPa) = 0.03466693
#
# Stress axis : x y z
#
# Youngs Moduli (GPa) = 39.34717 65.18937 95.61229
#
# Poissons Ratio (x) = 0.35495 0.00499
# Poissons Ratio (y) = 0.21424 0.26544
# Poissons Ratio (z) = 0.00205 0.18098
#
# Static dielectric constant tensor:
#      x y z
#    x 4.243260 0.000000 0.361590 
#    y 0.000000 4.046710 0.000000 
#    z 0.361590 0.000000 4.184720 
# 
# 
# High freq. dielectric constant tensor:
#      x y z
#    x 1.892070 0.000000 0.028140 
#    y 0.000000 1.877780 0.000000 
#    z 0.028140 0.000000 1.883850 
# 
# From -- ./inp_files/174227.got.cif
#   From: 2010.06.25/outbox.cif.g09.slc.cpg/sg15_88_cif.got.tgz:174227.got - 2010.06.28 07:06:18.
