data_PCOD8139130
_publ_section_title
;
Structure prediction by ZEFSAII (Michael W. Deem and Ramdas Pophale) SiO2 
 PCOD8139130
Probable space group: C 2/C
;
_chemical_formula_sum "Si O2"
_cell_formula_units_Z 48
_cell_length_a 14.364447
_cell_length_b 18.170164
_cell_length_c 16.846753
_cell_angle_alpha 90.000000
_cell_angle_beta 30.657090
_cell_angle_gamma 90.000000
_cell_volume 2242.063809
_symmetry_space_group_name_H-M "C 2/C"
_symmetry_group_IT_number 15
_symmetry_cell_setting 'monoclinic'
loop_
_space_group_symop_operation_xyz
x,y,z
-x,y,1/2-z
-x,-y,-z
x,-y,1/2+z
1/2+x,1/2+y,z
1/2-x,1/2+y,1/2-z
1/2-x,1/2-y,-z
1/2+x,1/2-y,1/2+z
loop_
_atom_site_type_symbol
_atom_site_label
_atom_site_fract_x
_atom_site_fract_y
_atom_site_fract_z
Si Si1 0.906922 0.342821 0.738725
Si Si2 0.157753 0.419244 0.187706
Si Si3 0.024397 0.882951 0.825760
Si Si4 0.536810 0.733788 0.524101
Si Si5 0.156682 0.470469 0.828235
Si Si6 0.136759 0.282473 0.291375
O O1 0.693984 0.327485 0.912565
O O2 0.930506 0.402841 0.654485
O O3 0.000000 0.370649 0.750000
O O4 0.010547 0.270413 0.629797
O O5 0.217064 0.469051 0.218909
O O6 0.053062 0.344761 0.295993
O O7 0.000000 0.458228 0.250000
O O8 0.332692 0.400378 0.006902
O O9 0.000000 0.890292 0.750000
O O10 0.169653 0.943743 0.748360
O O11 0.093699 0.800560 0.795320
O O12 0.350890 0.696618 0.631232
O O13 0.578845 0.794330 0.425160
O O14 0.000000 0.500000 0.000000
#
# Coordination Sequence:
#
# PCOD8139130 Si02
#       6
#     8   8   8   8   8   8
#     4  11  22  40  66  98 135 177 227 276 339 405
#     4  12  26  41  68 102 137 180 223 277 346 409
#     4  12  26  44  69  99 134 176 234 284 337 409
#     4  10  20  38  65  95 131 175 218 284 334 389
#     4  12  25  46  68  96 140 180 224 283 348 413
#     4  11  21  41  67  99 136 176 224 280 342 394
#
# _framework density 21.408846
#
# number of rings (size 3 to 8) (size 9 to 14) (size 15 to 20)
#    0.000    0.667    5.000    4.000    2.333    1.333 
#    0.000    0.000    0.000    5.000    0.000    0.000 
#    0.000    0.000    0.000    0.000    0.000    0.000 
#
# Total GULP energy -297509.874216 kJ/mol
# GULP energy per Si atom -12396.244759 kJ/mol
# Density = 2.136012 g / cm^3
# Si number density = 21.408846 Si / 1000 Ang^3
#
#
#
# Elastic Constant Matrix: (Units=GPa)
#
#
# Indices 1 2 3 4 5 6 
#
# 1 147.7788 39.3940 46.1939 -0.0071 1.7757 0.0013
# 2 39.3940 91.2653 28.9765 0.0057 -1.3695 0.0012
# 3 46.1939 28.9765 99.7931 0.0082 2.6608 -0.0071
# 4 -0.0071 0.0057 0.0082 22.8958 0.0096 3.2323
# 5 1.7757 -1.3695 2.6608 0.0096 23.0388 -0.0038
# 6 0.0013 0.0012 -0.0071 3.2323 -0.0038 21.3857
#
#
#
# Elastic Compliance Matrix: (Units=1/GPa)
#
#
# Indices 1 2 3 4 5 6 
#
# 1 0.008461 -0.002665 -0.003131 0.000005 -0.000449 -0.000002
# 2 -0.002665 0.012938 -0.002557 -0.000004 0.001270 -0.000001
# 3 -0.003131 -0.002557 0.012248 -0.000005 -0.001325 0.000005
# 4 0.000005 -0.000004 -0.000005 0.044629 -0.000020 -0.006745
# 5 -0.000449 0.001270 -0.001325 -0.000020 0.043668 0.000010
# 6 -0.000002 -0.000001 0.000005 -0.006745 0.000010 0.047780
#
#
# Mechanical properties :
#
#
# Convention : Reuss Voigt Hill
#
# Bulk Modulus (GPa) = 59.02657 63.10732 61.06694
# Shear Modulus (GPa) = 26.03119 28.41556 27.22338
#
# Velocity S-wave (km/s) = 3.49077 3.64714 3.56981
# Velocity P-wave (km/s) = 6.62407 6.87581 6.75111
#
# Compressibility (1/GPa) = 0.01694152
#
# Stress axis : x y z
#
# Youngs Moduli (GPa) = 118.18407 77.28985 81.64679
#
# Poissons Ratio (x) = 0.20597 0.25563
# Poissons Ratio (y) = 0.31496 0.20878
# Poissons Ratio (z) = 0.37003 0.19764
#
# Static dielectric constant tensor:
#      x y z
#    x 4.068060 -0.000030 0.080180 
#    y -0.000030 3.778390 0.000020 
#    z 0.080180 0.000020 4.426900 
# 
# 
# High freq. dielectric constant tensor:
#      x y z
#    x 1.850490 0.000000 0.010090 
#    y 0.000000 1.828600 0.000010 
#    z 0.010090 0.000010 1.855950 
# 
# From -- ./inp_files/63191.got.cif
#   From: 2010.06.25/outbox.cif.g09.slc.cpg/sg15_32_cif.got.tgz:63191.got - 2010.06.28 07:06:18.
