data_PCOD8139438
_publ_section_title
;
Structure prediction by ZEFSAII (Michael W. Deem and Ramdas Pophale) SiO2 
 PCOD8139438
Probable space group: C 2/C
;
_chemical_formula_sum "Si O2"
_cell_formula_units_Z 56
_cell_length_a 14.568630
_cell_length_b 22.564098
_cell_length_c 9.063219
_cell_angle_alpha 90.000000
_cell_angle_beta 62.023270
_cell_angle_gamma 90.000000
_cell_volume 2631.163470
_symmetry_space_group_name_H-M "C 2/C"
_symmetry_group_IT_number 15
_symmetry_cell_setting 'monoclinic'
loop_
_space_group_symop_operation_xyz
x,y,z
-x,y,1/2-z
-x,-y,-z
x,-y,1/2+z
1/2+x,1/2+y,z
1/2-x,1/2+y,1/2-z
1/2-x,1/2-y,-z
1/2+x,1/2-y,1/2+z
loop_
_atom_site_type_symbol
_atom_site_label
_atom_site_fract_x
_atom_site_fract_y
_atom_site_fract_z
Si Si1 0.301573 0.658610 0.046802
Si Si2 0.106404 0.472539 0.474150
Si Si3 0.319431 0.264480 0.804618
Si Si4 0.500000 0.648178 0.250000
Si Si5 0.242000 0.526305 0.144265
Si Si6 0.000000 0.119410 0.750000
Si Si7 0.122161 0.919434 0.422313
Si Si8 0.812531 0.351607 0.162468
O O1 0.264608 0.703453 0.204799
O O2 0.286131 0.591702 0.114529
O O3 0.423126 0.662460 0.903924
O O4 0.227637 0.672363 0.964361
O O5 0.203846 0.507688 0.333890
O O6 0.136537 0.478386 0.623429
O O7 0.104236 0.403897 0.425072
O O8 0.000000 0.500000 0.500000
O O9 0.407575 0.309638 0.777379
O O10 0.366132 0.202365 0.709638
O O11 0.250000 0.250000 0.000000
O O12 0.467475 0.606154 0.407258
O O13 0.337722 0.481444 0.038735
O O14 0.070698 0.076003 0.798262
O O15 0.218555 0.874331 0.336062
#
# Coordination Sequence:
#
# PCOD8139438 Si02
#       8
#     8   8   8   4   8   4   8   8
#     4  10  22  40  66  91 126 172 213 268 323 393
#     4  10  21  41  66  92 128 168 219 272 327 395
#     4  12  24  43  64  94 132 174 218 273 329 390
#     4  12  24  41  62  98 134 171 226 268 330 400
#     4  10  23  39  63  97 131 166 214 265 340 390
#     4  10  20  39  62  88 126 167 216 256 320 394
#     4  10  21  40  62  92 132 171 211 272 326 397
#     4   9  21  43  62  89 123 171 217 267 329 383
#
# _framework density 21.283360999999999
#
# number of rings (size 3 to 8) (size 9 to 14) (size 15 to 20)
#    0.000    1.714    2.857    1.714    2.000    1.143 
#    7.714    0.000    3.143    0.000    0.000    0.000 
#    0.000    0.000    0.000    0.000    0.000    0.000 
#
# Total GULP energy -346967.982207 kJ/mol
# GULP energy per Si atom -12391.713650 kJ/mol
# Density = 2.123492 g / cm^3
# Si number density = 21.283361 Si / 1000 Ang^3
#
#
#
# Elastic Constant Matrix: (Units=GPa)
#
#
# Indices 1 2 3 4 5 6 
#
# 1 73.5722 35.5014 18.6743 0.0000 -5.3808 0.0000
# 2 35.5014 118.9652 51.4441 0.0000 7.3457 0.0000
# 3 18.6743 51.4441 95.6587 0.0000 5.6607 0.0000
# 4 0.0000 0.0000 0.0000 34.9766 0.0000 4.8176
# 5 -5.3808 7.3457 5.6607 0.0000 24.1292 0.0000
# 6 0.0000 0.0000 0.0000 4.8176 0.0000 42.3888
#
#
#
# Elastic Compliance Matrix: (Units=1/GPa)
#
#
# Indices 1 2 3 4 5 6 
#
# 1 0.016577 -0.004877 -0.000933 0.000000 0.005400 0.000000
# 2 -0.004877 0.012482 -0.005548 0.000000 -0.003586 0.000000
# 3 -0.000933 -0.005548 0.013723 0.000000 -0.001738 0.000000
# 4 0.000000 0.000000 0.000000 0.029045 0.000000 -0.003301
# 5 0.005400 -0.003586 -0.001738 0.000000 0.044147 0.000000
# 6 0.000000 0.000000 0.000000 -0.003301 0.000000 0.023966
#
#
# Mechanical properties :
#
#
# Convention : Reuss Voigt Hill
#
# Bulk Modulus (GPa) = 49.83755 55.49288 52.66521
# Shear Modulus (GPa) = 29.52545 32.47068 30.99807
#
# Velocity S-wave (km/s) = 3.72863 3.91018 3.82048
# Velocity P-wave (km/s) = 6.48104 6.82026 6.65281
#
# Compressibility (1/GPa) = 0.02006519
#
# Stress axis : x y z
#
# Youngs Moduli (GPa) = 60.32396 80.11625 72.87211
#
# Poissons Ratio (x) = 0.39072 0.06799
# Poissons Ratio (y) = 0.29420 0.40432
# Poissons Ratio (z) = 0.05628 0.44451
#
# Static dielectric constant tensor:
#      x y z
#    x 4.032980 0.000000 -0.121990 
#    y 0.000000 4.082000 0.000000 
#    z -0.121990 0.000000 4.101560 
# 
# 
# High freq. dielectric constant tensor:
#      x y z
#    x 1.823230 0.000000 0.016180 
#    y 0.000000 1.831250 0.000000 
#    z 0.016180 0.000000 1.842990 
# 
# From -- ./inp_files/42581.got.cif
#   From: 2010.06.25/outbox.cif.g09.slc.cpg/sg15_22_cif.got.tgz:42581.got - 2010.06.28 07:06:18.
