data_PCOD8139109
_publ_section_title
;
Structure prediction by ZEFSAII (Michael W. Deem and Ramdas Pophale) SiO2 
 PCOD8139109
Probable space group: C 2/C
;
_chemical_formula_sum "Si O2"
_cell_formula_units_Z 60
_cell_length_a 20.873631
_cell_length_b 24.258908
_cell_length_c 8.410378
_cell_angle_alpha 90.000000
_cell_angle_beta 140.774894
_cell_angle_gamma 90.000000
_cell_volume 2693.116900
_symmetry_space_group_name_H-M "C 2/C"
_symmetry_group_IT_number 15
_symmetry_cell_setting 'monoclinic'
loop_
_space_group_symop_operation_xyz
x,y,z
-x,y,1/2-z
-x,-y,-z
x,-y,1/2+z
1/2+x,1/2+y,z
1/2-x,1/2+y,1/2-z
1/2-x,1/2-y,-z
1/2+x,1/2-y,1/2+z
loop_
_atom_site_type_symbol
_atom_site_label
_atom_site_fract_x
_atom_site_fract_y
_atom_site_fract_z
Si Si1 0.826052 0.927262 0.052467
Si Si2 0.839798 0.217020 0.859070
Si Si3 0.440775 0.720962 0.375865
Si Si4 0.000000 0.140617 0.750000
Si Si5 0.797757 0.329285 0.656025
Si Si6 0.980776 0.340440 0.530441
Si Si7 0.906037 0.542198 0.847004
Si Si8 0.762799 0.486665 0.338603
O O1 0.741223 0.883721 0.829732
O O2 0.815876 0.981695 0.926215
O O3 0.935177 0.899020 0.240420
O O4 0.804533 0.941512 0.196512
O O5 0.780455 0.275427 0.731603
O O6 0.764396 0.173377 0.631561
O O7 0.861708 0.203191 0.085882
O O8 0.944067 0.217441 0.961899
O O9 0.429195 0.679666 0.503396
O O10 0.415962 0.784234 0.380194
O O11 0.915640 0.333979 0.861655
O O12 0.931337 0.394450 0.358033
O O13 0.000000 0.351831 0.750000
O O14 0.810571 0.528637 0.555190
O O15 0.861046 0.539141 0.939387
O O16 0.000000 0.500000 0.000000
#
# Coordination Sequence:
#
# PCOD8139109 Si02
#       8
#     8   8   8   4   8   8   8   8
#     4  11  24  45  68  92 129 172 221 291 339 395
#     4   9  20  39  62  93 130 174 217 258 326 409
#     4  10  21  40  61  97 130 168 225 272 328 403
#     4  12  24  46  70  92 130 174 228 290 348 386
#     4  10  20  38  65  90 132 176 208 263 331 397
#     4  11  21  35  60  93 135 170 207 266 326 389
#     4  11  21  39  66  98 135 176 213 264 330 407
#     4  10  24  44  64  96 131 166 229 274 334 403
#
# _framework density 22.279019999999999
#
# number of rings (size 3 to 8) (size 9 to 14) (size 15 to 20)
#    0.000    1.600    2.000    3.600    1.867    0.533 
#    9.600    1.333    0.000    0.000    0.000    0.000 
#    0.000    0.000    0.000    0.000    0.000    0.000 
#
# Total GULP energy -371870.475753 kJ/mol
# GULP energy per Si atom -12395.682525 kJ/mol
# Density = 2.222831 g / cm^3
# Si number density = 22.279020 Si / 1000 Ang^3
#
#
#
# Elastic Constant Matrix: (Units=GPa)
#
#
# Indices 1 2 3 4 5 6 
#
# 1 102.4621 51.5539 19.5005 0.0000 -3.3749 0.0000
# 2 51.5539 125.0563 29.8142 0.0000 6.6158 0.0000
# 3 19.5005 29.8142 78.6923 0.0000 -13.5072 0.0000
# 4 0.0000 0.0000 0.0000 28.8250 0.0000 7.5128
# 5 -3.3749 6.6158 -13.5072 0.0000 27.8027 0.0000
# 6 0.0000 0.0000 0.0000 7.5128 0.0000 41.5367
#
#
#
# Elastic Compliance Matrix: (Units=1/GPa)
#
#
# Indices 1 2 3 4 5 6 
#
# 1 0.012560 -0.005121 -0.000765 0.000000 0.002371 0.000000
# 2 -0.005121 0.011316 -0.003914 0.000000 -0.005216 0.000000
# 3 -0.000765 -0.003914 0.015845 0.000000 0.008536 0.000000
# 4 0.000000 0.000000 0.000000 0.036408 0.000000 -0.006585
# 5 0.002371 -0.005216 0.008536 0.000000 0.041644 0.000000
# 6 0.000000 0.000000 0.000000 -0.006585 0.000000 0.025266
#
#
# Mechanical properties :
#
#
# Convention : Reuss Voigt Hill
#
# Bulk Modulus (GPa) = 49.69655 56.43866 53.06760
# Shear Modulus (GPa) = 29.52510 33.32235 31.42372
#
# Velocity S-wave (km/s) = 3.64434 3.87160 3.75969
# Velocity P-wave (km/s) = 6.32954 6.73598 6.53592
#
# Compressibility (1/GPa) = 0.02012212
#
# Stress axis : x y z
#
# Youngs Moduli (GPa) = 79.61784 88.36719 63.10969
#
# Poissons Ratio (x) = 0.45251 0.04830
# Poissons Ratio (y) = 0.40771 0.24700
# Poissons Ratio (z) = 0.06093 0.34585
#
# Static dielectric constant tensor:
#      x y z
#    x 4.180630 0.000000 -0.040980 
#    y 0.000000 4.197960 0.000000 
#    z -0.040980 0.000000 3.800800 
# 
# 
# High freq. dielectric constant tensor:
#      x y z
#    x 1.872260 0.000000 -0.004330 
#    y 0.000000 1.883220 0.000000 
#    z -0.004330 0.000000 1.856800 
# 
# From -- ./inp_files/58797.got.cif
#   From: 2010.06.25/outbox.cif.g09.slc.cpg/sg15_30_cif.got.tgz:58797.got - 2010.06.28 07:06:18.
