data_PCOD8139360
_publ_section_title
;
Structure prediction by ZEFSAII (Michael W. Deem and Ramdas Pophale) SiO2 
 PCOD8139360
Probable space group: C 2/C
;
_chemical_formula_sum "Si O2"
_cell_formula_units_Z 56
_cell_length_a 10.574546
_cell_length_b 8.665969
_cell_length_c 27.406395
_cell_angle_alpha 90.000000
_cell_angle_beta 74.161218
_cell_angle_gamma 90.000000
_cell_volume 2416.133674
_symmetry_space_group_name_H-M "C 2/C"
_symmetry_group_IT_number 15
_symmetry_cell_setting 'monoclinic'
loop_
_space_group_symop_operation_xyz
x,y,z
-x,y,1/2-z
-x,-y,-z
x,-y,1/2+z
1/2+x,1/2+y,z
1/2-x,1/2+y,1/2-z
1/2-x,1/2-y,-z
1/2+x,1/2-y,1/2+z
loop_
_atom_site_type_symbol
_atom_site_label
_atom_site_fract_x
_atom_site_fract_y
_atom_site_fract_z
Si Si1 0.954576 0.858881 0.806086
Si Si2 0.698561 0.995278 0.949879
Si Si3 0.974285 0.996974 0.445803
Si Si4 0.424909 0.045607 0.858260
Si Si5 0.825972 0.092357 0.153884
Si Si6 0.563435 0.851216 0.547778
Si Si7 0.208193 0.561757 0.838695
O O1 0.924710 0.732228 0.851726
O O2 0.000000 0.783338 0.750000
O O3 0.070441 0.968949 0.816088
O O4 0.828894 0.962303 0.806916
O O5 0.838497 0.912255 0.947364
O O6 0.581585 0.871049 0.960751
O O7 0.705105 0.075330 0.897070
O O8 0.668451 0.127583 0.993286
O O9 0.099777 0.072843 0.406029
O O10 0.940271 0.822190 0.430672
O O11 0.000000 0.000000 0.500000
O O12 0.573457 0.986670 0.830789
O O13 0.312610 0.995349 0.832182
O O14 0.396540 0.979013 0.915425
O O15 0.786038 0.261173 0.177246
#
# Coordination Sequence:
#
# PCOD8139360 Si02
#       7
#     8   8   8   8   8   8   8
#     4  11  26  48  71  96 129 172 226 289 356 411
#     4  10  20  39  60  91 140 179 222 270 323 394
#     4  12  23  35  62  99 142 186 229 272 325 408
#     4  10  24  42  70  99 134 172 225 279 338 412
#     4  11  24  40  68 101 133 177 224 272 343 404
#     4  10  22  38  63  96 137 185 226 273 334 400
#     4  10  22  44  67  96 138 178 216 283 338 406
#
# _framework density 23.177526
#
# number of rings (size 3 to 8) (size 9 to 14) (size 15 to 20)
#    0.000    1.429    1.429    3.000    4.000    4.000 
#    0.000    0.714    0.000    0.000    0.000    0.000 
#    0.000    0.000    0.000    0.000    0.000    0.000 
#
# Total GULP energy -346876.550813 kJ/mol
# GULP energy per Si atom -12388.448243 kJ/mol
# Density = 2.312477 g / cm^3
# Si number density = 23.177526 Si / 1000 Ang^3
#
#
#
# Elastic Constant Matrix: (Units=GPa)
#
#
# Indices 1 2 3 4 5 6 
#
# 1 207.4446 28.9949 21.9720 0.0000 -2.8073 0.0000
# 2 28.9949 60.4647 32.6986 0.0000 -14.8993 0.0000
# 3 21.9720 32.6986 83.7070 0.0000 -1.1533 0.0000
# 4 0.0000 0.0000 0.0000 21.4770 0.0000 2.4234
# 5 -2.8073 -14.8993 -1.1533 0.0000 24.2980 0.0000
# 6 0.0000 0.0000 0.0000 2.4234 0.0000 31.6087
#
#
#
# Elastic Compliance Matrix: (Units=1/GPa)
#
#
# Indices 1 2 3 4 5 6 
#
# 1 0.005201 -0.002517 -0.000395 0.000000 -0.000961 0.000000
# 2 -0.002517 0.026798 -0.009591 0.000000 0.015686 0.000000
# 3 -0.000395 -0.009591 0.015725 0.000000 -0.005180 0.000000
# 4 0.000000 0.000000 0.000000 0.046968 0.000000 -0.003601
# 5 -0.000961 0.015686 -0.005180 0.000000 0.050417 0.000000
# 6 0.000000 0.000000 0.000000 -0.003601 0.000000 0.031913
#
#
# Mechanical properties :
#
#
# Convention : Reuss Voigt Hill
#
# Bulk Modulus (GPa) = 44.01983 57.66080 50.84032
# Shear Modulus (GPa) = 23.85473 33.34013 28.59743
#
# Velocity S-wave (km/s) = 3.21162 3.79683 3.51642
# Velocity P-wave (km/s) = 5.72594 6.64478 6.20240
#
# Compressibility (1/GPa) = 0.02271703
#
# Stress axis : x y z
#
# Youngs Moduli (GPa) = 192.26078 37.31654 63.59155
#
# Poissons Ratio (x) = 0.09394 0.02513
# Poissons Ratio (y) = 0.48400 0.60991
# Poissons Ratio (z) = 0.07597 0.35791
#
# Static dielectric constant tensor:
#      x y z
#    x 4.816380 0.000000 0.029660 
#    y 0.000000 3.823110 0.000000 
#    z 0.029660 0.000000 3.814660 
# 
# 
# High freq. dielectric constant tensor:
#      x y z
#    x 1.953420 0.000000 0.004230 
#    y 0.000000 1.882490 0.000000 
#    z 0.004230 0.000000 1.887560 
# 
# From -- ./inp_files/309914.got.cif
#   From: 2010.06.25/outbox.cif.g09.slc.cpg/sg15_155_cif.got.tgz:309914.got - 2010.06.28 07:06:18.
