data_PCOD8139654
_publ_section_title
;
Structure prediction by ZEFSAII (Michael W. Deem and Ramdas Pophale) SiO2 
 PCOD8139654
Probable space group: C 2/C
;
_chemical_formula_sum "Si O2"
_cell_formula_units_Z 56
_cell_length_a 13.796848
_cell_length_b 17.725831
_cell_length_c 11.494196
_cell_angle_alpha 90.000000
_cell_angle_beta 85.023724
_cell_angle_gamma 90.000000
_cell_volume 2800.431820
_symmetry_space_group_name_H-M "C 2/C"
_symmetry_group_IT_number 15
_symmetry_cell_setting 'monoclinic'
loop_
_space_group_symop_operation_xyz
x,y,z
-x,y,1/2-z
-x,-y,-z
x,-y,1/2+z
1/2+x,1/2+y,z
1/2-x,1/2+y,1/2-z
1/2-x,1/2-y,-z
1/2+x,1/2-y,1/2+z
loop_
_atom_site_type_symbol
_atom_site_label
_atom_site_fract_x
_atom_site_fract_y
_atom_site_fract_z
Si Si1 0.092997 0.729453 0.959596
Si Si2 0.989708 0.420865 0.937574
Si Si3 0.911527 0.885202 0.190256
Si Si4 0.516986 0.373660 0.574369
Si Si5 0.204890 0.233984 0.678321
Si Si6 0.867032 0.948419 0.734593
Si Si7 0.156375 0.601702 0.252216
O O1 0.182855 0.720253 0.863217
O O2 0.009620 0.784946 0.919105
O O3 0.043216 0.647593 0.976146
O O4 0.133621 0.766869 0.074123
O O5 0.909360 0.427625 0.846031
O O6 0.096387 0.403086 0.877219
O O7 0.000000 0.500000 0.000000
O O8 0.820690 0.830550 0.224954
O O9 0.000000 0.845730 0.250000
O O10 0.895913 0.965527 0.253602
O O11 0.933286 0.895653 0.052160
O O12 0.415974 0.419482 0.608393
O O13 0.594092 0.394662 0.666362
O O14 0.193582 0.313670 0.740355
O O15 0.751091 0.950288 0.742249
#
# Coordination Sequence:
#
# PCOD8139654 Si02
#       7
#     8   8   8   8   8   8   8
#     4  10  20  39  66  90 123 165 214 261 307 383
#     4  10  23  40  66  94 122 164 212 267 316 367
#     4  12  23  36  63  96 126 160 216 268 316 375
#     4  11  22  42  61  93 129 166 205 255 323 383
#     4  10  21  37  65  94 117 168 216 260 313 370
#     4  11  25  40  63  92 134 170 199 263 328 380
#     4  10  22  44  63  87 126 163 214 258 314 379
#
# _framework density 19.996917
#
# number of rings (size 3 to 8) (size 9 to 14) (size 15 to 20)
#    0.000    1.429    4.286    1.286    4.000    1.143 
#    0.000    7.143    0.000    0.000    0.000    0.000 
#    0.000    0.000    0.000    0.000    0.000    0.000 
#
# Total GULP energy -347171.082921 kJ/mol
# GULP energy per Si atom -12398.967247 kJ/mol
# Density = 1.995140 g / cm^3
# Si number density = 19.996917 Si / 1000 Ang^3
#
#
#
# Elastic Constant Matrix: (Units=GPa)
#
#
# Indices 1 2 3 4 5 6 
#
# 1 128.6730 53.1248 47.9753 0.0000 -29.4099 0.0000
# 2 53.1248 133.2847 49.9500 0.0000 -13.8368 0.0000
# 3 47.9753 49.9500 102.5677 0.0000 -28.5098 0.0000
# 4 0.0000 0.0000 0.0000 24.3163 0.0000 -6.7139
# 5 -29.4099 -13.8368 -28.5098 0.0000 31.1600 0.0000
# 6 0.0000 0.0000 0.0000 -6.7139 0.0000 27.4016
#
#
#
# Elastic Compliance Matrix: (Units=1/GPa)
#
#
# Indices 1 2 3 4 5 6 
#
# 1 0.011499 -0.003144 -0.001634 0.000000 0.007962 0.000000
# 2 -0.003144 0.010038 -0.004028 0.000000 -0.002196 0.000000
# 3 -0.001634 -0.004028 0.015489 0.000000 0.010840 0.000000
# 4 0.000000 0.000000 0.000000 0.044109 0.000000 0.010807
# 5 0.007962 -0.002196 0.010840 0.000000 0.048550 0.000000
# 6 0.000000 0.000000 0.000000 0.010807 0.000000 0.039142
#
#
# Mechanical properties :
#
#
# Convention : Reuss Voigt Hill
#
# Bulk Modulus (GPa) = 51.51330 74.06950 62.79140
# Shear Modulus (GPa) = 25.91884 30.80726 28.36305
#
# Velocity S-wave (km/s) = 3.60410 3.92931 3.77021
# Velocity P-wave (km/s) = 6.56780 7.59650 7.10080
#
# Compressibility (1/GPa) = 0.01941246
#
# Stress axis : x y z
#
# Youngs Moduli (GPa) = 86.96528 99.62629 64.56265
#
# Poissons Ratio (x) = 0.31325 0.10551
# Poissons Ratio (y) = 0.27344 0.26005
# Poissons Ratio (z) = 0.14213 0.40128
#
# Static dielectric constant tensor:
#      x y z
#    x 4.054850 0.000000 -0.313270 
#    y 0.000000 3.532980 0.000000 
#    z -0.313270 0.000000 3.538510 
# 
# 
# High freq. dielectric constant tensor:
#      x y z
#    x 1.781800 0.000000 -0.024230 
#    y 0.000000 1.785510 0.000000 
#    z -0.024230 0.000000 1.767250 
# 
# From -- ./inp_files/97005.got.cif
#   From: 2010.06.25/outbox.cif.g09.slc.cpg/sg15_49_cif.got.tgz:97005.got - 2010.06.28 07:06:18.
