data_PCOD8139878
_publ_section_title
;
Structure prediction by ZEFSAII (Michael W. Deem and Ramdas Pophale) SiO2 
 PCOD8139878
Probable space group: C 2/C
;
_chemical_formula_sum "Si O2"
_cell_formula_units_Z 56
_cell_length_a 15.345198
_cell_length_b 17.680526
_cell_length_c 12.031953
_cell_angle_alpha 90.000000
_cell_angle_beta 61.057176
_cell_angle_gamma 90.000000
_cell_volume 2856.689318
_symmetry_space_group_name_H-M "C 2/C"
_symmetry_group_IT_number 15
_symmetry_cell_setting 'monoclinic'
loop_
_space_group_symop_operation_xyz
x,y,z
-x,y,1/2-z
-x,-y,-z
x,-y,1/2+z
1/2+x,1/2+y,z
1/2-x,1/2+y,1/2-z
1/2-x,1/2-y,-z
1/2+x,1/2-y,1/2+z
loop_
_atom_site_type_symbol
_atom_site_label
_atom_site_fract_x
_atom_site_fract_y
_atom_site_fract_z
Si Si1 0.083125 0.323714 0.552379
Si Si2 0.606221 0.990396 0.491036
Si Si3 0.252692 0.459702 0.724079
Si Si4 0.861670 0.306705 0.743405
Si Si5 0.315818 0.779773 0.237563
Si Si6 0.613552 0.370941 0.705010
Si Si7 0.228993 0.585287 0.573511
O O1 0.106264 0.411963 0.557046
O O2 0.125198 0.281422 0.636021
O O3 0.132131 0.292382 0.411972
O O4 0.965579 0.310215 0.614744
O O5 0.500000 0.000000 0.500000
O O6 0.690952 0.986945 0.345336
O O7 0.633755 0.058361 0.558971
O O8 0.187566 0.388605 0.728623
O O9 0.353492 0.429740 0.719355
O O10 0.278262 0.512534 0.603477
O O11 0.797011 0.245726 0.716715
O O12 0.378167 0.715459 0.261383
O O13 0.314322 0.854158 0.313552
O O14 0.500000 0.390844 0.750000
O O15 0.684337 0.378916 0.554278
#
# Coordination Sequence:
#
# PCOD8139878 Si02
#       7
#     8   8   8   8   8   8   8
#     4  11  21  37  64  91 126 170 207 258 318 374
#     4  11  21  35  60  97 127 153 200 255 324 379
#     4  10  20  40  62  91 123 162 201 265 310 370
#     4  10  22  39  61  93 131 163 210 259 312 378
#     4  11  24  41  63  90 131 169 213 257 313 378
#     4  10  25  43  61  88 126 168 212 260 308 369
#     4  11  23  40  67  92 124 166 209 265 318 375
#
# _framework density 19.603110999999998
#
# number of rings (size 3 to 8) (size 9 to 14) (size 15 to 20)
#    0.000    1.429    4.286    0.857    2.000    2.286 
#    0.000    0.000    3.143    0.000    0.000    0.000 
#    0.000    0.000    0.000    0.000    0.000    0.000 
#
# Total GULP energy -347232.275559 kJ/mol
# GULP energy per Si atom -12401.152699 kJ/mol
# Density = 1.955849 g / cm^3
# Si number density = 19.603111 Si / 1000 Ang^3
#
#
#
# Elastic Constant Matrix: (Units=GPa)
#
#
# Indices 1 2 3 4 5 6 
#
# 1 137.5709 38.0091 30.9762 0.0000 -3.2704 0.0000
# 2 38.0091 73.9321 23.0259 0.0000 4.7174 0.0000
# 3 30.9762 23.0259 80.7116 0.0000 4.2187 0.0000
# 4 0.0000 0.0000 0.0000 34.6176 0.0000 8.8101
# 5 -3.2704 4.7174 4.2187 0.0000 28.1098 0.0000
# 6 0.0000 0.0000 0.0000 8.8101 0.0000 19.3848
#
#
#
# Elastic Compliance Matrix: (Units=1/GPa)
#
#
# Indices 1 2 3 4 5 6 
#
# 1 0.008963 -0.003990 -0.002410 0.000000 0.002074 0.000000
# 2 -0.003990 0.016719 -0.003092 0.000000 -0.002806 0.000000
# 3 -0.002410 -0.003092 0.014297 0.000000 -0.001907 0.000000
# 4 0.000000 0.000000 0.000000 0.032665 0.000000 -0.014846
# 5 0.002074 -0.002806 -0.001907 0.000000 0.036573 0.000000
# 6 0.000000 0.000000 0.000000 -0.014846 0.000000 0.058334
#
#
# Mechanical properties :
#
#
# Convention : Reuss Voigt Hill
#
# Bulk Modulus (GPa) = 47.62969 52.91522 50.27246
# Shear Modulus (GPa) = 25.83532 29.76933 27.80232
#
# Velocity S-wave (km/s) = 3.63425 3.90115 3.77007
# Velocity P-wave (km/s) = 6.47767 6.88069 6.68222
#
# Compressibility (1/GPa) = 0.02099531
#
# Stress axis : x y z
#
# Youngs Moduli (GPa) = 111.56592 59.81185 69.94696
#
# Poissons Ratio (x) = 0.23864 0.16859
# Poissons Ratio (y) = 0.44513 0.21626
# Poissons Ratio (z) = 0.26890 0.18493
#
# Static dielectric constant tensor:
#      x y z
#    x 3.637610 0.000000 0.183240 
#    y 0.000000 3.619770 0.000000 
#    z 0.183240 0.000000 3.581600 
# 
# 
# High freq. dielectric constant tensor:
#      x y z
#    x 1.767710 0.000000 0.015610 
#    y 0.000000 1.759820 0.000000 
#    z 0.015610 0.000000 1.767770 
# 
# From -- ./inp_files/98385.got.cif
#   From: 2010.06.25/outbox.cif.g09.slc.cpg/sg15_50_cif.got.tgz:98385.got - 2010.06.28 07:06:18.
