data_PCOD8139200
_publ_section_title
;
Structure prediction by ZEFSAII (Michael W. Deem and Ramdas Pophale) SiO2 
 PCOD8139200
Probable space group: C 2/C
;
_chemical_formula_sum "Si O2"
_cell_formula_units_Z 44
_cell_length_a 13.733176
_cell_length_b 18.565412
_cell_length_c 7.765856
_cell_angle_alpha 90.000000
_cell_angle_beta 101.345579
_cell_angle_gamma 90.000000
_cell_volume 1941.306525
_symmetry_space_group_name_H-M "C 2/C"
_symmetry_group_IT_number 15
_symmetry_cell_setting 'monoclinic'
loop_
_space_group_symop_operation_xyz
x,y,z
-x,y,1/2-z
-x,-y,-z
x,-y,1/2+z
1/2+x,1/2+y,z
1/2-x,1/2+y,1/2-z
1/2-x,1/2-y,-z
1/2+x,1/2-y,1/2+z
loop_
_atom_site_type_symbol
_atom_site_label
_atom_site_fract_x
_atom_site_fract_y
_atom_site_fract_z
Si Si1 0.182951 0.413178 0.124094
Si Si2 0.518001 0.822245 0.946169
Si Si3 0.500000 0.282010 0.750000
Si Si4 0.602761 0.441340 0.206023
Si Si5 0.142407 0.429492 0.504377
Si Si6 0.143796 0.095430 0.332244
O O1 0.303061 0.410188 0.153020
O O2 0.146335 0.409197 0.306616
O O3 0.141735 0.484638 0.018808
O O4 0.133740 0.344440 0.011643
O O5 0.500000 0.789404 0.750000
O O6 0.481181 0.765099 0.073740
O O7 0.454663 0.895594 0.944151
O O8 0.403852 0.331240 0.754509
O O9 0.500000 0.412465 0.250000
O O10 0.606801 0.528361 0.204343
O O11 0.607215 0.415781 0.013399
O O12 0.237693 0.397466 0.638362
#
# Coordination Sequence:
#
# PCOD8139200 Si02
#       6
#     8   8   4   8   8   8
#     4  10  20  38  67 102 132 170 221 287 332 380
#     4  12  25  45  65  95 135 185 226 268 331 403
#     4  12  26  46  64  94 146 180 220 264 336 406
#     4  10  20  39  68 103 131 163 224 281 331 387
#     4  10  20  40  68  99 135 169 224 281 333 385
#     4  10  23  40  70  99 132 176 214 281 337 389
#
# _framework density 22.665147999999999
#
# number of rings (size 3 to 8) (size 9 to 14) (size 15 to 20)
#    0.000    1.455    2.727    2.182    0.000    2.909 
#    0.000    0.909    0.000    0.000    0.000    0.000 
#    0.000    0.000    0.000    0.000    0.000    0.000 
#
# Total GULP energy -272881.461749 kJ/mol
# GULP energy per Si atom -12403.702807 kJ/mol
# Density = 2.261356 g / cm^3
# Si number density = 22.665148 Si / 1000 Ang^3
#
#
#
# Elastic Constant Matrix: (Units=GPa)
#
#
# Indices 1 2 3 4 5 6 
#
# 1 115.6951 24.6967 15.4355 0.0000 11.5978 0.0000
# 2 24.6967 62.4454 22.0512 0.0000 11.3082 0.0000
# 3 15.4355 22.0512 76.2319 0.0000 5.4950 0.0000
# 4 0.0000 0.0000 0.0000 24.6490 0.0000 -4.7503
# 5 11.5978 11.3082 5.4950 0.0000 29.9686 0.0000
# 6 0.0000 0.0000 0.0000 -4.7503 0.0000 24.9017
#
#
#
# Elastic Compliance Matrix: (Units=1/GPa)
#
#
# Indices 1 2 3 4 5 6 
#
# 1 0.009660 -0.003067 -0.000895 0.000000 -0.002417 0.000000
# 2 -0.003067 0.019887 -0.004739 0.000000 -0.005448 0.000000
# 3 -0.000895 -0.004739 0.014710 0.000000 -0.000563 0.000000
# 4 0.000000 0.000000 0.000000 0.042118 0.000000 0.008034
# 5 -0.002417 -0.005448 -0.000563 0.000000 0.036463 0.000000
# 6 0.000000 0.000000 0.000000 0.008034 0.000000 0.041690
#
#
# Mechanical properties :
#
#
# Convention : Reuss Voigt Hill
#
# Bulk Modulus (GPa) = 37.23485 42.08214 39.65849
# Shear Modulus (GPa) = 26.19436 28.71646 27.45541
#
# Velocity S-wave (km/s) = 3.40326 3.56334 3.48422
# Velocity P-wave (km/s) = 5.64861 5.96130 5.80706
#
# Compressibility (1/GPa) = 0.02685656
#
# Stress axis : x y z
#
# Youngs Moduli (GPa) = 103.52297 50.28434 67.97919
#
# Poissons Ratio (x) = 0.15421 0.06081
# Poissons Ratio (y) = 0.31748 0.32215
# Poissons Ratio (z) = 0.09261 0.23829
#
# Static dielectric constant tensor:
#      x y z
#    x 4.251020 0.000000 0.235240 
#    y 0.000000 3.807900 0.000000 
#    z 0.235240 0.000000 4.150000 
# 
# 
# High freq. dielectric constant tensor:
#      x y z
#    x 1.900380 0.000000 0.012080 
#    y 0.000000 1.861820 0.000000 
#    z 0.012080 0.000000 1.904100 
# 
# From -- ./inp_files/39309.got.cif
#   From: 2010.06.25/outbox.cif.g09.slc.cpg/sg15_20_cif.got.tgz:39309.got - 2010.06.28 07:06:18.
