data_PCOD8139970
_publ_section_title
;
Structure prediction by ZEFSAII (Michael W. Deem and Ramdas Pophale) SiO2 
 PCOD8139970
Probable space group: C 2/C
;
_chemical_formula_sum "Si O2"
_cell_formula_units_Z 56
_cell_length_a 24.495903
_cell_length_b 16.292947
_cell_length_c 8.064887
_cell_angle_alpha 90.000000
_cell_angle_beta 52.798936
_cell_angle_gamma 90.000000
_cell_volume 2563.818967
_symmetry_space_group_name_H-M "C 2/C"
_symmetry_group_IT_number 15
_symmetry_cell_setting 'monoclinic'
loop_
_space_group_symop_operation_xyz
x,y,z
-x,y,1/2-z
-x,-y,-z
x,-y,1/2+z
1/2+x,1/2+y,z
1/2-x,1/2+y,1/2-z
1/2-x,1/2-y,-z
1/2+x,1/2-y,1/2+z
loop_
_atom_site_type_symbol
_atom_site_label
_atom_site_fract_x
_atom_site_fract_y
_atom_site_fract_z
Si Si1 0.916080 0.914777 0.072735
Si Si2 0.576083 0.411722 0.821681
Si Si3 0.430464 0.951680 0.273538
Si Si4 0.334612 0.282078 0.693854
Si Si5 0.635198 0.750909 0.725228
Si Si6 0.313620 0.829082 0.547235
Si Si7 0.974362 0.372977 0.630953
O O1 0.875890 0.846291 0.248825
O O2 0.890188 0.004031 0.174318
O O3 0.900093 0.897399 0.910124
O O4 0.994933 0.910887 0.977899
O O5 0.600449 0.340836 0.901001
O O6 0.500000 0.935516 0.250000
O O7 0.359709 0.913006 0.476706
O O8 0.422533 0.048729 0.252215
O O9 0.451507 0.902764 0.070786
O O10 0.338162 0.232309 0.511580
O O11 0.338881 0.219609 0.839618
O O12 0.267711 0.341756 0.827338
O O13 0.565816 0.802642 0.894685
O O14 0.685045 0.778459 0.781873
O O15 0.000000 0.329882 0.750000
#
# Coordination Sequence:
#
# PCOD8139970 Si02
#       7
#     8   8   8   8   8   8   8
#     4  10  22  37  69  95 130 165 215 271 328 381
#     4  10  21  42  61  99 132 168 212 272 324 387
#     4  10  20  40  64  90 128 162 213 271 322 380
#     4  11  25  42  64  91 136 167 219 264 319 395
#     4  12  23  40  68  96 128 170 217 266 328 386
#     4  11  24  44  64  91 128 178 213 266 322 389
#     4  10  22  36  63 100 127 157 209 278 321 382
#
# _framework density 21.842416
#
# number of rings (size 3 to 8) (size 9 to 14) (size 15 to 20)
#    0.000    1.429    2.857    2.143    4.000    1.143 
#    0.000    4.286    0.000    0.000    0.000    0.000 
#    0.000    0.000    0.000    0.000    0.000    0.000 
#
# Total GULP energy -346902.039274 kJ/mol
# GULP energy per Si atom -12389.358546 kJ/mol
# Density = 2.179270 g / cm^3
# Si number density = 21.842416 Si / 1000 Ang^3
#
#
#
# Elastic Constant Matrix: (Units=GPa)
#
#
# Indices 1 2 3 4 5 6 
#
# 1 71.6907 11.2756 23.6192 0.0000 13.8820 0.0000
# 2 11.2756 58.6490 12.8093 0.0000 -6.8863 0.0000
# 3 23.6192 12.8093 58.2578 0.0000 16.8758 0.0000
# 4 0.0000 0.0000 0.0000 28.3168 0.0000 0.1912
# 5 13.8820 -6.8863 16.8758 0.0000 34.9570 0.0000
# 6 0.0000 0.0000 0.0000 0.1912 0.0000 22.3187
#
#
#
# Elastic Compliance Matrix: (Units=1/GPa)
#
#
# Indices 1 2 3 4 5 6 
#
# 1 0.016932 -0.002783 -0.004820 0.000000 -0.004945 0.000000
# 2 -0.002783 0.019652 -0.005388 0.000000 0.007578 0.000000
# 3 -0.004820 -0.005388 0.023318 0.000000 -0.010404 0.000000
# 4 0.000000 0.000000 0.000000 0.035317 0.000000 -0.000303
# 5 -0.004945 0.007578 -0.010404 0.000000 0.037086 0.000000
# 6 0.000000 0.000000 0.000000 -0.000303 0.000000 0.044808
#
#
# Mechanical properties :
#
#
# Convention : Reuss Voigt Hill
#
# Bulk Modulus (GPa) = 29.48122 31.55618 30.51870
# Shear Modulus (GPa) = 23.32075 26.51139 24.91607
#
# Velocity S-wave (km/s) = 3.27108 3.48768 3.38112
# Velocity P-wave (km/s) = 5.27192 5.54050 5.40788
#
# Compressibility (1/GPa) = 0.03391990
#
# Stress axis : x y z
#
# Youngs Moduli (GPa) = 59.05891 50.88521 42.88590
#
# Poissons Ratio (x) = 0.14162 0.20672
# Poissons Ratio (y) = 0.16437 0.23105
# Poissons Ratio (z) = 0.28468 0.27415
#
# Static dielectric constant tensor:
#      x y z
#    x 4.029000 0.000000 0.303770 
#    y 0.000000 3.879180 0.000000 
#    z 0.303770 0.000000 4.515090 
# 
# 
# High freq. dielectric constant tensor:
#      x y z
#    x 1.865090 0.000000 0.026220 
#    y 0.000000 1.848500 0.000000 
#    z 0.026220 0.000000 1.845100 
# 
# From -- ./inp_files/62669.got.cif
#   From: 2010.06.25/outbox.cif.g09.slc.cpg/sg15_32_cif.got.tgz:62669.got - 2010.06.28 07:06:18.
