data_PCOD8139989
_publ_section_title
;
Structure prediction by ZEFSAII (Michael W. Deem and Ramdas Pophale) SiO2 
 PCOD8139989
Probable space group: C 2/C
;
_chemical_formula_sum "Si O2"
_cell_formula_units_Z 48
_cell_length_a 11.678610
_cell_length_b 9.016810
_cell_length_c 20.885000
_cell_angle_alpha 90.000000
_cell_angle_beta 104.497418
_cell_angle_gamma 90.000000
_cell_volume 2129.242891
_symmetry_space_group_name_H-M "C 2/C"
_symmetry_group_IT_number 15
_symmetry_cell_setting 'monoclinic'
loop_
_space_group_symop_operation_xyz
x,y,z
-x,y,1/2-z
-x,-y,-z
x,-y,1/2+z
1/2+x,1/2+y,z
1/2-x,1/2+y,1/2-z
1/2-x,1/2-y,-z
1/2+x,1/2-y,1/2+z
loop_
_atom_site_type_symbol
_atom_site_label
_atom_site_fract_x
_atom_site_fract_y
_atom_site_fract_z
Si Si1 0.069641 0.114608 0.822453
Si Si2 0.746057 0.647919 0.146415
Si Si3 0.363078 0.844434 0.993505
Si Si4 0.866780 0.136706 0.885518
Si Si5 0.268474 0.097847 0.298894
Si Si6 0.410814 0.086475 0.903096
O O1 0.134548 0.265660 0.855264
O O2 0.000000 0.163895 0.750000
O O3 0.977658 0.064059 0.863802
O O4 0.159042 0.980975 0.820077
O O5 0.722447 0.495197 0.104045
O O6 0.743426 0.604132 0.220726
O O7 0.637068 0.749730 0.111636
O O8 0.422939 0.729296 0.951827
O O9 0.340480 0.996186 0.949983
O O10 0.250000 0.750000 0.000000
O O11 0.450056 0.891035 0.063203
O O12 0.785660 0.236841 0.827500
O O13 0.387449 0.003340 0.333317
#
# Coordination Sequence:
#
# PCOD8139989 Si02
#       6
#     8   8   8   8   8   8
#     4  11  21  40  63  93 138 171 214 279 338 409
#     4  11  21  37  65 100 128 169 221 273 345 409
#     4  10  23  46  66  93 135 183 238 284 332 402
#     4  11  23  40  64  94 131 172 228 278 338 404
#     4  10  20  40  64  94 133 171 215 272 345 413
#     4   9  22  41  67  94 136 176 225 282 339 393
#
# _framework density 22.543223999999999
#
# number of rings (size 3 to 8) (size 9 to 14) (size 15 to 20)
#    0.000    1.667    3.333    1.000    0.000    8.667 
#    0.000    6.667    0.000    0.000    0.000    0.000 
#    0.000    0.000    0.000    0.000    0.000    0.000 
#
# Total GULP energy -297343.013405 kJ/mol
# GULP energy per Si atom -12389.292225 kJ/mol
# Density = 2.249191 g / cm^3
# Si number density = 22.543224 Si / 1000 Ang^3
#
#
#
# Elastic Constant Matrix: (Units=GPa)
#
#
# Indices 1 2 3 4 5 6 
#
# 1 102.1591 29.9310 28.2898 0.0000 10.2705 0.0000
# 2 29.9310 137.0499 29.9372 0.0000 20.5282 0.0000
# 3 28.2898 29.9372 89.6201 0.0000 22.2844 0.0000
# 4 0.0000 0.0000 0.0000 3.0165 0.0000 -0.9548
# 5 10.2705 20.5282 22.2844 0.0000 31.2952 0.0000
# 6 0.0000 0.0000 0.0000 -0.9548 0.0000 33.8967
#
#
#
# Elastic Compliance Matrix: (Units=1/GPa)
#
#
# Indices 1 2 3 4 5 6 
#
# 1 0.011127 -0.001741 -0.002803 0.000000 -0.000514 0.000000
# 2 -0.001741 0.008578 -0.001287 0.000000 -0.004139 0.000000
# 3 -0.002803 -0.001287 0.014623 0.000000 -0.008649 0.000000
# 4 0.000000 0.000000 0.000000 0.334494 0.000000 0.009422
# 5 -0.000514 -0.004139 -0.008649 0.000000 0.040996 0.000000
# 6 0.000000 0.000000 0.000000 0.009422 0.000000 0.029767
#
#
# Mechanical properties :
#
#
# Convention : Reuss Voigt Hill
#
# Bulk Modulus (GPa) = 44.11708 56.12722 50.12215
# Shear Modulus (GPa) = 10.89796 29.68641 20.29219
#
# Velocity S-wave (km/s) = 2.20108 3.63280 3.00350
# Velocity P-wave (km/s) = 5.10609 6.52288 5.85748
#
# Compressibility (1/GPa) = 0.02266696
#
# Stress axis : x y z
#
# Youngs Moduli (GPa) = 89.87544 116.57951 68.38329
#
# Poissons Ratio (x) = 0.20293 0.19168
# Poissons Ratio (y) = 0.15645 0.08799
# Poissons Ratio (z) = 0.25192 0.15000
#
# Static dielectric constant tensor:
#      x y z
#    x 3.913530 0.000000 0.184120 
#    y 0.000000 4.322560 0.000000 
#    z 0.184120 0.000000 4.250650 
# 
# 
# High freq. dielectric constant tensor:
#      x y z
#    x 1.859740 0.000000 0.022740 
#    y 0.000000 1.905720 0.000000 
#    z 0.022740 0.000000 1.889380 
# 
# From -- ./inp_files/267647.got.cif
#   From: 2010.06.25/outbox.cif.g09.slc.cpg/sg15_134_cif.got.tgz:267647.got - 2010.06.28 07:06:18.
