data_PCOD8139563
_publ_section_title
;
Structure prediction by ZEFSAII (Michael W. Deem and Ramdas Pophale) SiO2 
 PCOD8139563
Probable space group: C 2/C
;
_chemical_formula_sum "Si O2"
_cell_formula_units_Z 64
_cell_length_a 8.653531
_cell_length_b 22.668866
_cell_length_c 28.860149
_cell_angle_alpha 90.000000
_cell_angle_beta 146.075097
_cell_angle_gamma 90.000000
_cell_volume 3159.644804
_symmetry_space_group_name_H-M "C 2/C"
_symmetry_group_IT_number 15
_symmetry_cell_setting 'monoclinic'
loop_
_space_group_symop_operation_xyz
x,y,z
-x,y,1/2-z
-x,-y,-z
x,-y,1/2+z
1/2+x,1/2+y,z
1/2-x,1/2+y,1/2-z
1/2-x,1/2-y,-z
1/2+x,1/2-y,1/2+z
loop_
_atom_site_type_symbol
_atom_site_label
_atom_site_fract_x
_atom_site_fract_y
_atom_site_fract_z
Si Si1 0.589974 0.639896 0.347785
Si Si2 0.121987 0.589634 0.729807
Si Si3 0.538660 0.678016 0.857183
Si Si4 0.221996 0.035379 0.266902
Si Si5 0.434579 0.206230 0.287038
Si Si6 0.134055 0.832492 0.082508
Si Si7 0.855515 0.719956 0.480290
Si Si8 0.091737 0.370324 0.903822
O O1 0.453028 0.574081 0.314639
O O2 0.354270 0.680250 0.266514
O O3 0.648345 0.667103 0.413184
O O4 0.863561 0.647184 0.385223
O O5 0.434077 0.616145 0.809512
O O6 0.142115 0.522749 0.719202
O O7 0.000000 0.589023 0.750000
O O8 0.917483 0.629707 0.646861
O O9 0.421283 0.724334 0.790652
O O10 0.406927 0.687157 0.874798
O O11 0.865621 0.684089 0.940957
O O12 0.487559 0.069793 0.353697
O O13 0.000000 0.017481 0.250000
O O14 0.500000 0.189195 0.250000
O O15 0.650182 0.178883 0.378172
O O16 0.134243 0.770474 0.055888
O O17 0.884254 0.875379 0.003219
O O18 0.750000 0.750000 0.500000
#
# Coordination Sequence:
#
# PCOD8139563 Si02
#       8
#     8   8   8   8   8   8   8   8
#     4  10  21  38  61  87 123 166 206 244 302 380
#     4  10  24  42  63  89 118 164 211 261 304 363
#     4  11  22  40  62  86 127 168 203 247 306 377
#     4   9  21  40  64  86 117 160 214 255 308 363
#     4  11  21  34  57  95 126 158 200 253 310 361
#     4  11  22  41  64  89 125 163 211 245 308 379
#     4  12  23  37  60  98 131 156 198 255 313 365
#     4  10  20  39  64  89 120 168 207 250 301 374
#
# _framework density 20.255438999999999
#
# number of rings (size 3 to 8) (size 9 to 14) (size 15 to 20)
#    0.000    1.500    2.500    3.750    0.000    6.000 
#    0.000    0.625    0.000    0.000    0.000    0.000 
#    0.000    0.000    0.000    0.000    0.000    0.000 
#
# Total GULP energy -396524.253077 kJ/mol
# GULP energy per Si atom -12391.382909 kJ/mol
# Density = 2.020934 g / cm^3
# Si number density = 20.255439 Si / 1000 Ang^3
#
#
#
# Elastic Constant Matrix: (Units=GPa)
#
#
# Indices 1 2 3 4 5 6 
#
# 1 58.2265 25.0127 35.6523 0.0032 -8.0597 0.0033
# 2 25.0127 100.2909 61.2892 0.0006 4.6083 0.0017
# 3 35.6523 61.2892 122.4786 0.0080 6.1779 0.0031
# 4 0.0032 0.0006 0.0080 28.5863 0.0043 -2.1641
# 5 -8.0597 4.6083 6.1779 0.0043 24.9945 0.0017
# 6 0.0033 0.0017 0.0031 -2.1641 0.0017 32.9773
#
#
#
# Elastic Compliance Matrix: (Units=1/GPa)
#
#
# Indices 1 2 3 4 5 6 
#
# 1 0.023234 -0.002599 -0.005939 -0.000002 0.009439 -0.000002
# 2 -0.002599 0.014673 -0.006488 0.000002 -0.001940 0.000000
# 3 -0.005939 -0.006488 0.013343 -0.000002 -0.004017 0.000000
# 4 -0.000002 0.000002 -0.000002 0.035157 -0.000007 0.002307
# 5 0.009439 -0.001940 -0.004017 -0.000007 0.044403 -0.000003
# 6 -0.000002 0.000000 0.000000 0.002307 -0.000003 0.030475
#
#
# Mechanical properties :
#
#
# Convention : Reuss Voigt Hill
#
# Bulk Modulus (GPa) = 47.17451 58.32273 52.74862
# Shear Modulus (GPa) = 25.20133 27.91440 26.55787
#
# Velocity S-wave (km/s) = 3.53111 3.71633 3.62491
# Velocity P-wave (km/s) = 6.32182 6.87539 6.60440
#
# Compressibility (1/GPa) = 0.02119789
#
# Stress axis : x y z
#
# Youngs Moduli (GPa) = 43.04118 68.15047 74.94705
#
# Poissons Ratio (x) = 0.17713 0.44508
# Poissons Ratio (y) = 0.11187 0.48628
# Poissons Ratio (z) = 0.25560 0.44218
#
# Static dielectric constant tensor:
#      x y z
#    x 3.814440 -0.000030 -0.061830 
#    y -0.000030 3.746790 -0.000020 
#    z -0.061830 -0.000020 4.109530 
# 
# 
# High freq. dielectric constant tensor:
#      x y z
#    x 1.781980 0.000000 0.000110 
#    y 0.000000 1.776100 0.000000 
#    z 0.000110 0.000000 1.806180 
# 
# From -- ./inp_files/309127.got.cif
#   From: 2010.06.25/outbox.cif.g09.slc.cpg/sg15_155_cif.got.tgz:309127.got - 2010.06.28 07:06:18.
