data_PCOD8139962
_publ_section_title
;
Structure prediction by ZEFSAII (Michael W. Deem and Ramdas Pophale) SiO2 
 PCOD8139962
Probable space group: C 2/C
;
_chemical_formula_sum "Si O2"
_cell_formula_units_Z 64
_cell_length_a 10.303442
_cell_length_b 29.819867
_cell_length_c 9.450726
_cell_angle_alpha 90.000000
_cell_angle_beta 83.081703
_cell_angle_gamma 90.000000
_cell_volume 2882.567639
_symmetry_space_group_name_H-M "C 2/C"
_symmetry_group_IT_number 15
_symmetry_cell_setting 'monoclinic'
loop_
_space_group_symop_operation_xyz
x,y,z
-x,y,1/2-z
-x,-y,-z
x,-y,1/2+z
1/2+x,1/2+y,z
1/2-x,1/2+y,1/2-z
1/2-x,1/2-y,-z
1/2+x,1/2-y,1/2+z
loop_
_atom_site_type_symbol
_atom_site_label
_atom_site_fract_x
_atom_site_fract_y
_atom_site_fract_z
Si Si1 0.276681 0.791835 0.150875
Si Si2 0.250050 0.139563 0.231632
Si Si3 0.279592 0.504075 0.527044
Si Si4 0.110022 0.709818 0.136915
Si Si5 0.854215 0.458814 0.711340
Si Si6 0.485938 0.562073 0.913380
Si Si7 0.939761 0.839531 0.505909
Si Si8 0.714257 0.300589 0.468530
O O1 0.238064 0.739399 0.157466
O O2 0.286796 0.811332 0.308173
O O3 0.409155 0.792682 0.033395
O O4 0.173110 0.821636 0.079865
O O5 0.367529 0.159588 0.310157
O O6 0.271510 0.086897 0.220209
O O7 0.112253 0.150979 0.327573
O O8 0.261842 0.162844 0.076025
O O9 0.214833 0.496808 0.686603
O O10 0.159634 0.520196 0.443091
O O11 0.395376 0.540628 0.512844
O O12 0.343901 0.456334 0.477195
O O13 0.000000 0.732608 0.250000
O O14 0.000000 0.450459 0.750000
O O15 0.500000 0.548544 0.750000
O O16 0.496020 0.614788 0.934840
O O17 0.056675 0.803398 0.483344
O O18 0.750000 0.250000 0.500000
#
# Coordination Sequence:
#
# PCOD8139962 Si02
#       8
#     8   8   8   8   8   8   8   8
#     4  10  22  39  64  93 128 180 227 272 348 417
#     4  11  24  42  66  98 132 177 236 289 346 418
#     4  11  24  42  70 104 142 181 235 293 369 426
#     4  10  20  40  64  89 126 177 227 275 329 409
#     4  12  25  47  71 102 142 193 239 291 360 451
#     4  11  21  40  72 107 141 172 232 309 357 431
#     4  11  23  41  68  96 134 182 226 288 354 423
#     4  12  23  40  60  99 139 174 226 292 351 413
#
# _framework density 22.202428999999999
#
# number of rings (size 3 to 8) (size 9 to 14) (size 15 to 20)
#    0.000    1.000    3.750    3.750    0.000    0.000 
#    2.250    0.625    0.000    0.000    0.000    0.000 
#    0.000    0.000    0.000    0.000    0.000    0.000 
#
# Total GULP energy -396544.591436 kJ/mol
# GULP energy per Si atom -12392.018482 kJ/mol
# Density = 2.215190 g / cm^3
# Si number density = 22.202429 Si / 1000 Ang^3
#
#
#
# Elastic Constant Matrix: (Units=GPa)
#
#
# Indices 1 2 3 4 5 6 
#
# 1 73.8431 25.5529 45.6764 0.0000 -5.7587 0.0000
# 2 25.5529 106.5412 34.8774 0.0000 7.4811 0.0000
# 3 45.6764 34.8774 171.3946 0.0000 -15.6064 0.0000
# 4 0.0000 0.0000 0.0000 34.8277 0.0000 -1.9282
# 5 -5.7587 7.4811 -15.6064 0.0000 37.9883 0.0000
# 6 0.0000 0.0000 0.0000 -1.9282 0.0000 28.0520
#
#
#
# Elastic Compliance Matrix: (Units=1/GPa)
#
#
# Indices 1 2 3 4 5 6 
#
# 1 0.017037 -0.002958 -0.003792 0.000000 0.001607 0.000000
# 2 -0.002958 0.010894 -0.001729 0.000000 -0.003304 0.000000
# 3 -0.003792 -0.001729 0.007455 0.000000 0.002828 0.000000
# 4 0.000000 0.000000 0.000000 0.028822 0.000000 0.001981
# 5 0.001607 -0.003304 0.002828 0.000000 0.028380 0.000000
# 6 0.000000 0.000000 0.000000 0.001981 0.000000 0.035784
#
#
# Mechanical properties :
#
#
# Convention : Reuss Voigt Hill
#
# Bulk Modulus (GPa) = 54.26932 62.66580 58.46756
# Shear Modulus (GPa) = 33.00945 36.55174 34.78060
#
# Velocity S-wave (km/s) = 3.86002 4.06186 3.96223
# Velocity P-wave (km/s) = 6.66051 7.09114 6.87920
#
# Compressibility (1/GPa) = 0.01842662
#
# Stress axis : x y z
#
# Youngs Moduli (GPa) = 58.69708 91.79755 134.14705
#
# Poissons Ratio (x) = 0.27150 0.50869
# Poissons Ratio (y) = 0.17360 0.23200
# Poissons Ratio (z) = 0.22258 0.15876
#
# Static dielectric constant tensor:
#      x y z
#    x 3.920380 0.000000 -0.248090 
#    y 0.000000 3.918060 0.000000 
#    z -0.248090 0.000000 4.463810 
# 
# 
# High freq. dielectric constant tensor:
#      x y z
#    x 1.850100 0.000000 -0.011990 
#    y 0.000000 1.873670 0.000000 
#    z -0.011990 0.000000 1.891350 
# 
# From -- ./inp_files/35693.got.cif
#   From: 2010.06.25/outbox.cif.g09.slc.cpg/sg15_18_cif.got.tgz:35693.got - 2010.06.28 07:06:18.
