data_PCOD8139819
_publ_section_title
;
Structure prediction by ZEFSAII (Michael W. Deem and Ramdas Pophale) SiO2 
 PCOD8139819
Probable space group: C 2/C
;
_chemical_formula_sum "Si O2"
_cell_formula_units_Z 52
_cell_length_a 19.632789
_cell_length_b 6.638979
_cell_length_c 26.601077
_cell_angle_alpha 90.000000
_cell_angle_beta 48.763414
_cell_angle_gamma 90.000000
_cell_volume 2607.335859
_symmetry_space_group_name_H-M "C 2/C"
_symmetry_group_IT_number 15
_symmetry_cell_setting 'monoclinic'
loop_
_space_group_symop_operation_xyz
x,y,z
-x,y,1/2-z
-x,-y,-z
x,-y,1/2+z
1/2+x,1/2+y,z
1/2-x,1/2+y,1/2-z
1/2-x,1/2-y,-z
1/2+x,1/2-y,1/2+z
loop_
_atom_site_type_symbol
_atom_site_label
_atom_site_fract_x
_atom_site_fract_y
_atom_site_fract_z
Si Si1 0.653755 0.294328 0.604174
Si Si2 0.605420 0.505900 0.946638
Si Si3 0.194809 0.259149 0.322783
Si Si4 0.500000 0.144403 0.750000
Si Si5 0.657316 0.049066 0.740429
Si Si6 0.279813 0.854630 0.623720
Si Si7 0.215353 0.947618 0.988741
O O1 0.560900 0.278905 0.681878
O O2 0.727643 0.427927 0.599339
O O3 0.644727 0.423145 0.557502
O O4 0.695482 0.074802 0.570625
O O5 0.630767 0.392785 0.883018
O O6 0.625756 0.746223 0.935572
O O7 0.500000 0.500000 0.000000
O O8 0.656684 0.393212 0.967705
O O9 0.144663 0.307055 0.294874
O O10 0.208180 0.469631 0.343388
O O11 0.294866 0.160753 0.266492
O O12 0.562976 0.008736 0.756442
O O13 0.720698 0.165980 0.671285
O O14 0.250000 0.750000 0.000000
#
# Coordination Sequence:
#
# PCOD8139819 Si02
#       7
#     8   8   8   4   8   8   8
#     4   9  20  38  62  83 119 158 197 241 312 358
#     4  10  23  37  57  91 121 147 206 249 288 354
#     4  11  20  38  64  82 119 165 196 240 306 370
#     4  10  22  40  58  94 124 146 200 274 300 344
#     4  10  21  37  60  87 117 154 200 241 304 369
#     4   9  19  39  60  83 116 160 190 240 300 362
#     4  10  20  40  61  83 116 165 200 237 297 371
#
# _framework density 19.943728
#
# number of rings (size 3 to 8) (size 9 to 14) (size 15 to 20)
#    0.000    2.154    1.538    1.846    2.154    0.615 
#    2.769    6.923    0.000    0.000    0.000    0.000 
#    0.000    0.000    0.000    0.000    0.000    0.000 
#
# Total GULP energy -322179.357231 kJ/mol
# GULP energy per Si atom -12391.513740 kJ/mol
# Density = 1.989834 g / cm^3
# Si number density = 19.943728 Si / 1000 Ang^3
#
#
#
# Elastic Constant Matrix: (Units=GPa)
#
#
# Indices 1 2 3 4 5 6 
#
# 1 135.2011 40.5562 42.5751 0.0017 2.0489 -0.0044
# 2 40.5562 62.6146 26.8729 0.0292 -4.2714 0.0261
# 3 42.5751 26.8729 116.6513 0.0000 -4.2881 0.0000
# 4 0.0017 0.0292 0.0000 32.6873 0.0009 11.1020
# 5 2.0489 -4.2714 -4.2881 0.0009 35.7669 -0.0012
# 6 -0.0044 0.0261 0.0000 11.1020 -0.0012 24.6239
#
#
#
# Elastic Compliance Matrix: (Units=1/GPa)
#
#
# Indices 1 2 3 4 5 6 
#
# 1 0.009796 -0.005425 -0.002380 0.000002 -0.001494 0.000006
# 2 -0.005425 0.020823 -0.002726 -0.000013 0.002471 -0.000017
# 3 -0.002380 -0.002726 0.010107 0.000002 0.001023 0.000002
# 4 0.000002 -0.000013 0.000002 0.036125 -0.000003 -0.016287
# 5 -0.001494 0.002471 0.001023 -0.000003 0.028462 0.000000
# 6 0.000006 -0.000017 0.000002 -0.016287 0.000000 0.047954
#
#
# Mechanical properties :
#
#
# Convention : Reuss Voigt Hill
#
# Bulk Modulus (GPa) = 50.85806 59.38615 55.12210
# Shear Modulus (GPa) = 27.64178 32.24647 29.94412
#
# Velocity S-wave (km/s) = 3.72693 4.02540 3.87903
# Velocity P-wave (km/s) = 6.63898 7.17263 6.91096
#
# Compressibility (1/GPa) = 0.01966257
#
# Stress axis : x y z
#
# Youngs Moduli (GPa) = 102.08160 48.02308 98.94160
#
# Poissons Ratio (x) = 0.26054 0.23553
# Poissons Ratio (y) = 0.55383 0.26973
# Poissons Ratio (z) = 0.24300 0.13092
#
# Static dielectric constant tensor:
#      x y z
#    x 3.690560 -0.000050 -0.006040 
#    y -0.000050 3.456440 -0.000080 
#    z -0.006040 -0.000080 3.126360 
# 
# 
# High freq. dielectric constant tensor:
#      x y z
#    x 1.779550 0.000000 0.024590 
#    y 0.000000 1.758580 0.000000 
#    z 0.024590 0.000000 1.782650 
# 
# From -- ./inp_files/316975.got.cif
#   From: 2010.06.25/outbox.cif.g09.slc.cpg/sg15_159_cif.got.tgz:316975.got - 2010.06.28 07:06:18.
