data_PCOD8139847
_publ_section_title
;
Structure prediction by ZEFSAII (Michael W. Deem and Ramdas Pophale) SiO2 
 PCOD8139847
Probable space group: C 2/C
;
_chemical_formula_sum "Si O2"
_cell_formula_units_Z 36
_cell_length_a 21.752817
_cell_length_b 18.246183
_cell_length_c 5.011538
_cell_angle_alpha 90.000000
_cell_angle_beta 62.409081
_cell_angle_gamma 90.000000
_cell_volume 1762.901462
_symmetry_space_group_name_H-M "C 2/C"
_symmetry_group_IT_number 15
_symmetry_cell_setting 'monoclinic'
loop_
_space_group_symop_operation_xyz
x,y,z
-x,y,1/2-z
-x,-y,-z
x,-y,1/2+z
1/2+x,1/2+y,z
1/2-x,1/2+y,1/2-z
1/2-x,1/2-y,-z
1/2+x,1/2-y,1/2+z
loop_
_atom_site_type_symbol
_atom_site_label
_atom_site_fract_x
_atom_site_fract_y
_atom_site_fract_z
Si Si1 0.702880 0.180973 0.525347
Si Si2 0.000000 0.257879 0.250000
Si Si3 0.072731 0.152139 0.491157
Si Si4 0.805378 0.048562 0.296867
Si Si5 0.119818 0.285682 0.679385
O O1 0.750000 0.250000 0.500000
O O2 0.744803 0.106382 0.465963
O O3 0.678200 0.193276 0.273841
O O4 0.638560 0.174059 0.863281
O O5 0.942082 0.207794 0.222184
O O6 0.957031 0.307355 0.550653
O O7 0.119264 0.084602 0.304141
O O8 0.115404 0.197786 0.630820
O O9 0.000000 0.121367 0.750000
O O10 0.798288 0.981205 0.512400
#
# Coordination Sequence:
#
# PCOD8139847 Si02
#       5
#     8   4   8   8   8
#     4  12  23  39  67  91 122 170 221 264 319 369
#     4  10  20  40  62 104 128 158 216 274 310 384
#     4  10  23  39  64  91 135 168 216 255 307 382
#     4  12  28  43  60  92 134 176 215 256 313 379
#     4  11  21  37  65  95 124 156 211 272 316 362
#
# _framework density 20.420878999999999
#
# number of rings (size 3 to 8) (size 9 to 14) (size 15 to 20)
#    0.000    0.889    4.444    2.000    9.333    0.889 
#    0.000    0.000    0.000    0.000    0.000   15.556 
#    0.000    0.000    0.000    0.000    0.000    0.000 
#
# Total GULP energy -223149.844986 kJ/mol
# GULP energy per Si atom -12397.213610 kJ/mol
# Density = 2.037440 g / cm^3
# Si number density = 20.420879 Si / 1000 Ang^3
#
#
#
# Elastic Constant Matrix: (Units=GPa)
#
#
# Indices 1 2 3 4 5 6 
#
# 1 81.8138 45.3139 29.9438 0.0000 5.5836 0.0000
# 2 45.3139 74.7791 37.4593 0.0000 -20.0161 0.0000
# 3 29.9438 37.4593 134.2201 0.0000 -16.1069 0.0000
# 4 0.0000 0.0000 0.0000 29.7713 0.0000 0.0502
# 5 5.5836 -20.0161 -16.1069 0.0000 42.2782 0.0000
# 6 0.0000 0.0000 0.0000 0.0502 0.0000 31.0504
#
#
#
# Elastic Compliance Matrix: (Units=1/GPa)
#
#
# Indices 1 2 3 4 5 6 
#
# 1 0.022244 -0.015434 -0.001975 0.000000 -0.010997 0.000000
# 2 -0.015434 0.027845 -0.002621 0.000000 0.014223 0.000000
# 3 -0.001975 -0.002621 0.008912 0.000000 0.002415 0.000000
# 4 0.000000 0.000000 0.000000 0.033589 0.000000 -0.000054
# 5 -0.010997 0.014223 0.002415 0.000000 0.032759 0.000000
# 6 0.000000 0.000000 0.000000 -0.000054 0.000000 0.032206
#
#
# Mechanical properties :
#
#
# Convention : Reuss Voigt Hill
#
# Bulk Modulus (GPa) = 52.79247 57.36077 55.07662
# Shear Modulus (GPa) = 24.51819 32.49305 28.50562
#
# Velocity S-wave (km/s) = 3.46879 3.99327 3.74024
# Velocity P-wave (km/s) = 6.47701 7.02936 6.75883
#
# Compressibility (1/GPa) = 0.01894210
#
# Stress axis : x y z
#
# Youngs Moduli (GPa) = 44.95504 35.91287 112.20244
#
# Poissons Ratio (x) = 0.55427 0.22159
# Poissons Ratio (y) = 0.69382 0.29412
# Poissons Ratio (z) = 0.08878 0.09414
#
# Static dielectric constant tensor:
#      x y z
#    x 3.455250 0.000000 0.738200 
#    y 0.000000 3.257470 0.000000 
#    z 0.738200 0.000000 2.231350 
# 
# 
# High freq. dielectric constant tensor:
#      x y z
#    x 1.804400 0.000000 -0.000480 
#    y 0.000000 1.741100 0.000000 
#    z -0.000480 0.000000 1.831840 
# 
# From -- ./inp_files/14881.got.cif
#   From: 2010.06.25/outbox.cif.g09.slc.cpg/sg15_8_cif.got.tgz:14881.got - 2010.06.28 07:06:18.
