data_PCOD8139723
_publ_section_title
;
Structure prediction by ZEFSAII (Michael W. Deem and Ramdas Pophale) SiO2 
 PCOD8139723
Probable space group: C 2/C
;
_chemical_formula_sum "Si O2"
_cell_formula_units_Z 52
_cell_length_a 9.637750
_cell_length_b 16.290463
_cell_length_c 16.146308
_cell_angle_alpha 90.000000
_cell_angle_beta 91.487487
_cell_angle_gamma 90.000000
_cell_volume 2534.171153
_symmetry_space_group_name_H-M "C 2/C"
_symmetry_group_IT_number 15
_symmetry_cell_setting 'monoclinic'
loop_
_space_group_symop_operation_xyz
x,y,z
-x,y,1/2-z
-x,-y,-z
x,-y,1/2+z
1/2+x,1/2+y,z
1/2-x,1/2+y,1/2-z
1/2-x,1/2-y,-z
1/2+x,1/2-y,1/2+z
loop_
_atom_site_type_symbol
_atom_site_label
_atom_site_fract_x
_atom_site_fract_y
_atom_site_fract_z
Si Si1 0.386947 0.497290 0.426989
Si Si2 0.500000 0.904780 0.250000
Si Si3 0.269286 0.293169 0.232983
Si Si4 0.284154 0.330063 0.888096
Si Si5 0.422398 0.054363 0.566389
Si Si6 0.951695 0.711225 0.999147
Si Si7 0.023320 0.833506 0.131227
O O1 0.500000 0.500000 0.500000
O O2 0.374682 0.587571 0.387309
O O3 0.236782 0.466943 0.452778
O O4 0.441861 0.429931 0.363818
O O5 0.634699 0.848883 0.240590
O O6 0.527092 0.958564 0.335616
O O7 0.236630 0.198470 0.207343
O O8 0.367484 0.330024 0.162774
O O9 0.358593 0.285752 0.316972
O O10 0.139638 0.341949 0.936035
O O11 0.357572 0.249856 0.926837
O O12 0.441352 0.150252 0.543803
O O13 0.500000 0.000000 0.500000
O O14 0.028496 0.789060 0.042360
#
# Coordination Sequence:
#
# PCOD8139723 Si02
#       7
#     8   4   8   8   8   8   8
#     4  12  24  41  66 104 138 179 233 292 351 413
#     4  12  24  44  70  98 138 182 230 290 354 416
#     4  10  22  43  67  91 136 181 227 277 347 420
#     4  10  20  39  68  94 131 177 224 275 345 416
#     4  12  26  45  70 102 140 183 241 289 350 415
#     4  10  20  40  68  94 127 180 225 273 344 420
#     4  10  22  42  68  96 135 180 225 282 356 413
#
# _framework density 20.519528999999999
#
# number of rings (size 3 to 8) (size 9 to 14) (size 15 to 20)
#    0.000    1.231    6.154    0.000    2.154    0.615 
#    5.538    1.538    0.000    0.000    0.000    0.000 
#    0.000    0.000    0.000    0.000    0.000    0.000 
#
# Total GULP energy -322149.041654 kJ/mol
# GULP energy per Si atom -12390.347756 kJ/mol
# Density = 2.047283 g / cm^3
# Si number density = 20.519529 Si / 1000 Ang^3
#
#
#
# Elastic Constant Matrix: (Units=GPa)
#
#
# Indices 1 2 3 4 5 6 
#
# 1 133.3492 42.1167 43.8023 0.0000 15.0233 0.0000
# 2 42.1167 115.0789 43.4540 0.0000 5.5818 0.0000
# 3 43.8023 43.4540 107.5335 0.0000 15.3659 0.0000
# 4 0.0000 0.0000 0.0000 38.3425 0.0000 0.5097
# 5 15.0233 5.5818 15.3659 0.0000 26.9984 0.0000
# 6 0.0000 0.0000 0.0000 0.5097 0.0000 41.0672
#
#
#
# Elastic Compliance Matrix: (Units=1/GPa)
#
#
# Indices 1 2 3 4 5 6 
#
# 1 0.009418 -0.002380 -0.002390 0.000000 -0.003388 0.000000
# 2 -0.002380 0.010857 -0.003577 0.000000 0.001116 0.000000
# 3 -0.002390 -0.003577 0.012434 0.000000 -0.005007 0.000000
# 4 0.000000 0.000000 0.000000 0.026085 0.000000 -0.000324
# 5 -0.003388 0.001116 -0.005007 0.000000 0.041544 0.000000
# 6 0.000000 0.000000 0.000000 -0.000324 0.000000 0.024354
#
#
# Mechanical properties :
#
#
# Convention : Reuss Voigt Hill
#
# Bulk Modulus (GPa) = 62.44518 68.30084 65.37301
# Shear Modulus (GPa) = 34.07729 36.38755 35.23242
#
# Velocity S-wave (km/s) = 4.07962 4.21564 4.14819
# Velocity P-wave (km/s) = 7.25873 7.55338 7.40752
#
# Compressibility (1/GPa) = 0.01601405
#
# Stress axis : x y z
#
# Youngs Moduli (GPa) = 106.18431 92.10321 80.42306
#
# Poissons Ratio (x) = 0.21918 0.19224
# Poissons Ratio (y) = 0.25269 0.28771
# Poissons Ratio (z) = 0.25382 0.32950
#
# Static dielectric constant tensor:
#      x y z
#    x 3.917190 0.000000 0.080390 
#    y 0.000000 3.901550 0.000000 
#    z 0.080390 0.000000 3.815760 
# 
# 
# High freq. dielectric constant tensor:
#      x y z
#    x 1.810370 0.000000 0.014940 
#    y 0.000000 1.797040 0.000000 
#    z 0.014940 0.000000 1.796420 
# 
# From -- ./inp_files/190449.got.cif
#   From: 2010.06.25/outbox.cif.g09.slc.cpg/sg15_96_cif.got.tgz:190449.got - 2010.06.28 07:06:18.
