data_PCOD8139184
_publ_section_title
;
Structure prediction by ZEFSAII (Michael W. Deem and Ramdas Pophale) SiO2 
 PCOD8139184
Probable space group: C 2/C
;
_chemical_formula_sum "Si O2"
_cell_formula_units_Z 60
_cell_length_a 17.333681
_cell_length_b 8.657301
_cell_length_c 24.567216
_cell_angle_alpha 90.000000
_cell_angle_beta 48.881117
_cell_angle_gamma 90.000000
_cell_volume 2777.308681
_symmetry_space_group_name_H-M "C 2/C"
_symmetry_group_IT_number 15
_symmetry_cell_setting 'monoclinic'
loop_
_space_group_symop_operation_xyz
x,y,z
-x,y,1/2-z
-x,-y,-z
x,-y,1/2+z
1/2+x,1/2+y,z
1/2-x,1/2+y,1/2-z
1/2-x,1/2-y,-z
1/2+x,1/2-y,1/2+z
loop_
_atom_site_type_symbol
_atom_site_label
_atom_site_fract_x
_atom_site_fract_y
_atom_site_fract_z
Si Si1 0.592433 0.814924 0.954277
Si Si2 0.059137 0.838264 0.050348
Si Si3 0.000000 0.183175 0.750000
Si Si4 0.722294 0.470015 0.415757
Si Si5 0.121828 0.091856 0.785861
Si Si6 0.282811 0.339198 0.693003
Si Si7 0.417403 0.910206 0.878195
Si Si8 0.446861 0.074322 0.607667
O O1 0.494064 0.717364 0.980322
O O2 0.692660 0.706116 0.914029
O O3 0.616149 0.949705 0.899409
O O4 0.556036 0.885562 0.028477
O O5 0.116045 0.695563 0.054353
O O6 0.970416 0.910768 0.128611
O O7 0.139425 0.968763 0.997297
O O8 0.078224 0.068794 0.745078
O O9 0.057906 0.291703 0.680972
O O10 0.728015 0.575740 0.359615
O O11 0.829943 0.473322 0.397802
O O12 0.177925 0.257315 0.758811
O O13 0.201169 0.959810 0.765397
O O14 0.377147 0.222150 0.648497
O O15 0.518654 0.006341 0.849484
#
# Coordination Sequence:
#
# PCOD8139184 Si02
#       8
#     8   8   4   8   8   8   8   8
#     4  10  20  38  66  95 132 164 218 272 322 381
#     4  10  20  39  65  95 132 170 213 266 328 396
#     4  10  22  46  62  88 138 172 214 266 334 390
#     4  12  21  40  70 100 125 175 223 270 327 392
#     4  11  25  42  67  97 128 173 216 273 322 393
#     4  12  25  41  68  98 127 171 226 265 325 397
#     4  10  23  39  65  96 134 178 212 270 332 380
#     4  10  23  42  63  97 134 176 209 271 333 386
#
# _framework density 21.603649000000001
#
# number of rings (size 3 to 8) (size 9 to 14) (size 15 to 20)
#    0.000    1.333    4.000    1.600    5.600    0.533 
#    0.000    3.333    0.000    0.000    0.000    0.000 
#    0.000    0.000    0.000    0.000    0.000    0.000 
#
# Total GULP energy -371943.051112 kJ/mol
# GULP energy per Si atom -12398.101704 kJ/mol
# Density = 2.155448 g / cm^3
# Si number density = 21.603649 Si / 1000 Ang^3
#
#
#
# Elastic Constant Matrix: (Units=GPa)
#
#
# Indices 1 2 3 4 5 6 
#
# 1 130.2869 40.9179 23.5069 0.0000 12.4740 0.0005
# 2 40.9179 85.7354 10.7372 0.0000 6.5529 0.0017
# 3 23.5069 10.7372 59.5489 0.0000 11.3116 0.0001
# 4 0.0000 0.0000 0.0000 31.4530 0.0000 -5.6199
# 5 12.4740 6.5529 11.3116 0.0000 22.8271 0.0000
# 6 0.0005 0.0017 0.0001 -5.6199 0.0000 34.1928
#
#
#
# Elastic Compliance Matrix: (Units=1/GPa)
#
#
# Indices 1 2 3 4 5 6 
#
# 1 0.009693 -0.004088 -0.002545 0.000000 -0.002862 0.000000
# 2 -0.004088 0.013800 -0.000603 0.000000 -0.001429 -0.000001
# 3 -0.002545 -0.000603 0.019439 0.000000 -0.008069 0.000000
# 4 0.000000 0.000000 0.000000 0.032755 0.000000 0.005384
# 5 -0.002862 -0.001429 -0.008069 0.000000 0.049780 0.000000
# 6 0.000000 -0.000001 0.000000 0.005384 0.000000 0.030131
#
#
# Mechanical properties :
#
#
# Convention : Reuss Voigt Hill
#
# Bulk Modulus (GPa) = 35.13960 47.32168 41.23064
# Shear Modulus (GPa) = 27.84636 31.05520 29.45078
#
# Velocity S-wave (km/s) = 3.59411 3.79555 3.69620
# Velocity P-wave (km/s) = 5.79003 6.41563 6.11084
#
# Compressibility (1/GPa) = 0.02845792
#
# Stress axis : x y z
#
# Youngs Moduli (GPa) = 103.17153 72.46536 51.44269
#
# Poissons Ratio (x) = 0.29627 0.13094
# Poissons Ratio (y) = 0.42180 0.03102
# Poissons Ratio (z) = 0.26261 0.04369
#
# Static dielectric constant tensor:
#      x y z
#    x 4.230780 0.000000 0.229040 
#    y 0.000000 3.917670 0.000000 
#    z 0.229040 0.000000 3.711520 
# 
# 
# High freq. dielectric constant tensor:
#      x y z
#    x 1.849360 0.000000 0.011010 
#    y 0.000000 1.839900 0.000000 
#    z 0.011010 0.000000 1.842870 
# 
# From -- ./inp_files/298383.got.cif
#   From: 2010.06.25/outbox.cif.g09.slc.cpg/sg15_150_cif.got.tgz:298383.got - 2010.06.28 07:06:18.
