data_PCOD8139093
_publ_section_title
;
Structure prediction by ZEFSAII (Michael W. Deem and Ramdas Pophale) SiO2 
 PCOD8139093
Probable space group: C 2/C
;
_chemical_formula_sum "Si O2"
_cell_formula_units_Z 32
_cell_length_a 12.664989
_cell_length_b 17.655064
_cell_length_c 8.668653
_cell_angle_alpha 90.000000
_cell_angle_beta 134.672648
_cell_angle_gamma 90.000000
_cell_volume 1378.408354
_symmetry_space_group_name_H-M "C 2/C"
_symmetry_group_IT_number 15
_symmetry_cell_setting 'monoclinic'
loop_
_space_group_symop_operation_xyz
x,y,z
-x,y,1/2-z
-x,-y,-z
x,-y,1/2+z
1/2+x,1/2+y,z
1/2-x,1/2+y,1/2-z
1/2-x,1/2-y,-z
1/2+x,1/2-y,1/2+z
loop_
_atom_site_type_symbol
_atom_site_label
_atom_site_fract_x
_atom_site_fract_y
_atom_site_fract_z
Si Si1 0.822918 0.831258 0.054185
Si Si2 0.000000 0.094015 0.250000
Si Si3 0.746695 0.886190 0.297404
Si Si4 0.500000 0.100496 0.750000
Si Si5 0.257798 0.550629 0.227135
O O1 0.749821 0.876443 0.119665
O O2 0.000000 0.826343 0.250000
O O3 0.750000 0.750000 0.000000
O O4 0.773536 0.872798 0.846338
O O5 0.902333 0.042519 0.265602
O O6 0.108875 0.147115 0.465105
O O7 0.601728 0.850813 0.234435
O O8 0.748114 0.977607 0.327646
O O9 0.390086 0.052072 0.529048
#
# Coordination Sequence:
#
# PCOD8139093 Si02
#       5
#     8   4   8   4   8
#     4  12  28  47  71 104 143 185 227 288 356 418
#     4  10  20  38  65 100 127 172 240 290 328 390
#     4  11  23  42  72 102 141 183 237 286 342 408
#     4  10  24  40  63 104 137 180 224 286 344 404
#     4  11  23  42  72 102 141 183 237 286 342 408
#
# _framework density 23.215183
#
# number of rings (size 3 to 8) (size 9 to 14) (size 15 to 20)
#    0.000    1.000    2.500    4.500    7.000    0.000 
#    0.000    7.500    0.000    0.000    0.000    0.000 
#    0.000    0.000    0.000    0.000    0.000    0.000 
#
# Total GULP energy -198221.880449 kJ/mol
# GULP energy per Si atom -12388.867528 kJ/mol
# Density = 2.316234 g / cm^3
# Si number density = 23.215183 Si / 1000 Ang^3
#
#
#
# Elastic Constant Matrix: (Units=GPa)
#
#
# Indices 1 2 3 4 5 6 
#
# 1 190.6131 27.7857 75.9597 0.0000 5.8466 0.0000
# 2 27.7857 87.5103 34.6702 0.0000 -5.3685 0.0000
# 3 75.9597 34.6702 153.9782 0.0000 6.4756 0.0000
# 4 0.0000 0.0000 0.0000 18.3376 0.0000 -4.8083
# 5 5.8466 -5.3685 6.4756 0.0000 46.2536 0.0000
# 6 0.0000 0.0000 0.0000 -4.8083 0.0000 22.0551
#
#
#
# Elastic Compliance Matrix: (Units=1/GPa)
#
#
# Indices 1 2 3 4 5 6 
#
# 1 0.006604 -0.000930 -0.003027 0.000000 -0.000519 0.000000
# 2 -0.000930 0.012839 -0.002515 0.000000 0.001960 0.000000
# 3 -0.003027 -0.002515 0.008601 0.000000 -0.001113 0.000000
# 4 0.000000 0.000000 0.000000 0.057839 0.000000 0.012610
# 5 -0.000519 0.001960 -0.001113 0.000000 0.022069 0.000000
# 6 0.000000 0.000000 0.000000 0.012610 0.000000 0.048090
#
#
# Mechanical properties :
#
#
# Convention : Reuss Voigt Hill
#
# Bulk Modulus (GPa) = 66.21863 78.77031 72.49447
# Shear Modulus (GPa) = 28.73292 36.90834 32.82063
#
# Velocity S-wave (km/s) = 3.52188 3.99160 3.76408
# Velocity P-wave (km/s) = 6.71744 7.43290 7.08421
#
# Compressibility (1/GPa) = 0.01510149
#
# Stress axis : x y z
#
# Youngs Moduli (GPa) = 151.42909 77.88841 116.27177
#
# Poissons Ratio (x) = 0.07240 0.35191
# Poissons Ratio (y) = 0.14076 0.29239
# Poissons Ratio (z) = 0.45832 0.19587
#
# Static dielectric constant tensor:
#      x y z
#    x 4.627170 0.000000 0.214400 
#    y 0.000000 3.801550 0.000000 
#    z 0.214400 0.000000 4.157110 
# 
# 
# High freq. dielectric constant tensor:
#      x y z
#    x 1.954190 0.000000 -0.004420 
#    y 0.000000 1.850280 0.000000 
#    z -0.004420 0.000000 1.944430 
# 
# From -- ./inp_files/30060.got.cif
#   From: 2010.06.25/outbox.cif.g09.slc.cpg/sg15_16_cif.got.tgz:30060.got - 2010.06.28 07:06:18.
