data_PCOD8139457
_publ_section_title
;
Structure prediction by ZEFSAII (Michael W. Deem and Ramdas Pophale) SiO2 
 PCOD8139457
Probable space group: C 2/C
;
_chemical_formula_sum "Si O2"
_cell_formula_units_Z 52
_cell_length_a 9.513225
_cell_length_b 14.033734
_cell_length_c 16.467306
_cell_angle_alpha 90.000000
_cell_angle_beta 71.628459
_cell_angle_gamma 90.000000
_cell_volume 2086.434386
_symmetry_space_group_name_H-M "C 2/C"
_symmetry_group_IT_number 15
_symmetry_cell_setting 'monoclinic'
loop_
_space_group_symop_operation_xyz
x,y,z
-x,y,1/2-z
-x,-y,-z
x,-y,1/2+z
1/2+x,1/2+y,z
1/2-x,1/2+y,1/2-z
1/2-x,1/2-y,-z
1/2+x,1/2-y,1/2+z
loop_
_atom_site_type_symbol
_atom_site_label
_atom_site_fract_x
_atom_site_fract_y
_atom_site_fract_z
Si Si1 0.823702 0.101546 0.640854
Si Si2 0.833712 0.573400 0.260464
Si Si3 0.930657 0.254163 0.349790
Si Si4 0.642399 0.610999 0.535384
Si Si5 0.307008 0.446375 0.881930
Si Si6 0.000000 0.914579 0.250000
Si Si7 0.772314 0.241934 0.124999
O O1 0.770423 0.993677 0.665982
O O2 0.690238 0.163120 0.629266
O O3 0.873394 0.143707 0.722140
O O4 0.964250 0.102566 0.553463
O O5 0.814739 0.557687 0.167094
O O6 0.795438 0.683413 0.286974
O O7 0.000000 0.546200 0.250000
O O8 0.000000 0.230978 0.250000
O O9 0.065099 0.284342 0.384481
O O10 0.855613 0.158890 0.398598
O O11 0.732769 0.509177 0.529722
O O12 0.665597 0.671527 0.616762
O O13 0.720701 0.666378 0.449560
O O14 0.445417 0.511522 0.829149
#
# Coordination Sequence:
#
# PCOD8139457 Si02
#       7
#     8   8   8   8   8   4   8
#     4  10  23  37  65  95 131 172 214 270 327 381
#     4  11  24  41  65 102 130 168 219 280 326 383
#     4  12  23  37  63 102 129 167 221 281 319 381
#     4  10  25  46  66  93 132 185 211 261 328 406
#     4  10  20  39  62  92 128 167 218 264 321 383
#     4   8  16  36  56  88 126 166 210 258 320 378
#     4  11  25  45  68  94 135 174 221 260 332 392
#
# _framework density 24.922903000000002
#
# number of rings (size 3 to 8) (size 9 to 14) (size 15 to 20)
#    0.000    1.538    2.308    2.308   10.769    3.077 
#    1.385    0.769    0.000    0.000    0.000    0.000 
#    0.000    0.000    0.000    0.000    0.000    0.000 
#
# Total GULP energy -322258.454927 kJ/mol
# GULP energy per Si atom -12394.555959 kJ/mol
# Density = 2.486618 g / cm^3
# Si number density = 24.922903 Si / 1000 Ang^3
#
#
#
# Elastic Constant Matrix: (Units=GPa)
#
#
# Indices 1 2 3 4 5 6 
#
# 1 155.7111 42.7327 0.7497 0.0000 25.4252 0.0000
# 2 42.7327 113.6455 -7.7997 0.0000 9.5551 0.0000
# 3 0.7497 -7.7997 13.1689 0.0000 13.0684 0.0000
# 4 0.0000 0.0000 0.0000 30.2114 0.0000 5.5062
# 5 25.4252 9.5551 13.0684 0.0000 29.5289 0.0000
# 6 0.0000 0.0000 0.0000 5.5062 0.0000 16.8657
#
#
#
# Elastic Compliance Matrix: (Units=1/GPa)
#
#
# Indices 1 2 3 4 5 6 
#
# 1 0.008654 -0.001655 0.009610 0.000000 -0.011169 0.000000
# 2 -0.001655 0.011310 0.016067 0.000000 -0.009345 0.000000
# 3 0.009610 0.016067 0.175238 0.000000 -0.091027 0.000000
# 4 0.000000 0.000000 0.000000 0.035194 0.000000 -0.011490
# 5 -0.011169 -0.009345 -0.091027 0.000000 0.086791 0.000000
# 6 0.000000 0.000000 0.000000 -0.011490 0.000000 0.063043
#
#
# Mechanical properties :
#
#
# Convention : Reuss Voigt Hill
#
# Bulk Modulus (GPa) = 4.11108 39.32121 21.71614
# Shear Modulus (GPa) = 12.09866 31.77737 21.93802
#
# Velocity S-wave (km/s) = 2.20567 3.57463 2.97009
# Velocity P-wave (km/s) = 2.85302 5.73137 4.52705
#
# Compressibility (1/GPa) = 0.24324515
#
# Stress axis : x y z
#
# Youngs Moduli (GPa) = 115.55533 88.41649 5.70653
#
# Poissons Ratio (x) = 0.14636 -0.05484
# Poissons Ratio (y) = 0.19129 -0.09168
# Poissons Ratio (z) = -1.11054 -1.42055
#
# Static dielectric constant tensor:
#      x y z
#    x 4.512840 0.000000 0.409600 
#    y 0.000000 4.488860 0.000000 
#    z 0.409600 0.000000 4.587780 
# 
# 
# High freq. dielectric constant tensor:
#      x y z
#    x 1.987700 0.000000 0.028010 
#    y 0.000000 1.999080 0.000000 
#    z 0.028010 0.000000 1.985880 
# 
# From -- ./inp_files/231224.got.cif
#   From: 2010.06.25/outbox.cif.g09.slc.cpg/sg15_116_cif.got.tgz:231224.got - 2010.06.28 07:06:18.
