data_PCOD8139071
_publ_section_title
;
Structure prediction by ZEFSAII (Michael W. Deem and Ramdas Pophale) SiO2 
 PCOD8139071
Probable space group: C 2/C
;
_chemical_formula_sum "Si O2"
_cell_formula_units_Z 64
_cell_length_a 25.733069
_cell_length_b 14.869297
_cell_length_c 11.683184
_cell_angle_alpha 90.000000
_cell_angle_beta 137.167043
_cell_angle_gamma 90.000000
_cell_volume 3039.238600
_symmetry_space_group_name_H-M "C 2/C"
_symmetry_group_IT_number 15
_symmetry_cell_setting 'monoclinic'
loop_
_space_group_symop_operation_xyz
x,y,z
-x,y,1/2-z
-x,-y,-z
x,-y,1/2+z
1/2+x,1/2+y,z
1/2-x,1/2+y,1/2-z
1/2-x,1/2-y,-z
1/2+x,1/2-y,1/2+z
loop_
_atom_site_type_symbol
_atom_site_label
_atom_site_fract_x
_atom_site_fract_y
_atom_site_fract_z
Si Si1 0.315060 0.162463 0.305043
Si Si2 0.895371 0.180217 0.823603
Si Si3 0.579939 0.123217 0.631596
Si Si4 0.842507 0.914196 0.016184
Si Si5 0.675895 0.768987 0.449662
Si Si6 0.590039 0.606867 0.403775
Si Si7 0.551448 0.045159 0.941884
Si Si8 0.455229 0.288173 0.066189
O O1 0.354331 0.221427 0.267135
O O2 0.246999 0.099015 0.153176
O O3 0.287300 0.223760 0.364391
O O4 0.378245 0.106735 0.479630
O O5 0.850983 0.126158 0.655466
O O6 0.984522 0.181164 0.932878
O O7 0.888021 0.129507 0.931195
O O8 0.637196 0.142258 0.829588
O O9 0.496184 0.108805 0.549399
O O10 0.590070 0.205419 0.560231
O O11 0.593943 0.034593 0.578980
O O12 0.896527 0.866762 0.008062
O O13 0.862910 0.018627 0.054900
O O14 0.750000 0.750000 0.500000
O O15 0.614094 0.686928 0.355079
O O16 0.500000 0.588777 0.250000
O O17 0.500000 0.013133 0.750000
O O18 0.500000 0.253320 0.250000
#
# Coordination Sequence:
#
# PCOD8139071 Si02
#       8
#     8   8   8   8   8   8   8   8
#     4  11  23  43  65  92 134 175 219 277 337 406
#     4  10  22  42  68  92 129 180 222 268 337 404
#     4  11  22  39  66  94 128 169 219 278 329 396
#     4  11  25  42  63 101 137 174 226 282 337 398
#     4  11  25  42  68  99 133 174 220 280 346 394
#     4  11  25  43  71 100 132 179 229 275 332 408
#     4  11  23  41  66  97 127 172 231 272 331 403
#     4  10  20  38  64  93 132 170 219 273 329 399
#
# _framework density 21.057907
#
# number of rings (size 3 to 8) (size 9 to 14) (size 15 to 20)
#    0.000    1.250    2.500    3.375    3.500    4.000 
#    0.000    0.000    0.000    0.000    0.000    0.000 
#    0.000    0.000    0.000    0.000    0.000    0.000 
#
# Total GULP energy -396532.518939 kJ/mol
# GULP energy per Si atom -12391.641217 kJ/mol
# Density = 2.100998 g / cm^3
# Si number density = 21.057907 Si / 1000 Ang^3
#
#
#
# Elastic Constant Matrix: (Units=GPa)
#
#
# Indices 1 2 3 4 5 6 
#
# 1 96.3100 39.8177 30.2577 0.0000 -8.7493 0.0000
# 2 39.8177 97.7266 50.1863 0.0000 -0.8960 0.0000
# 3 30.2577 50.1863 93.4815 0.0000 -1.8072 0.0000
# 4 0.0000 0.0000 0.0000 34.1513 0.0000 -6.6196
# 5 -8.7493 -0.8960 -1.8072 0.0000 27.6370 0.0000
# 6 0.0000 0.0000 0.0000 -6.6196 0.0000 31.7106
#
#
#
# Elastic Compliance Matrix: (Units=1/GPa)
#
#
# Indices 1 2 3 4 5 6 
#
# 1 0.013117 -0.004373 -0.001823 0.000000 0.003892 0.000000
# 2 -0.004373 0.015585 -0.006978 0.000000 -0.001335 0.000000
# 3 -0.001823 -0.006978 0.015037 0.000000 0.000180 0.000000
# 4 0.000000 0.000000 0.000000 0.030516 0.000000 0.006370
# 5 0.003892 -0.001335 0.000180 0.000000 0.037384 0.000000
# 6 0.000000 0.000000 0.000000 0.006370 0.000000 0.032865
#
#
# Mechanical properties :
#
#
# Convention : Reuss Voigt Hill
#
# Bulk Modulus (GPa) = 57.49484 58.67126 58.08305
# Shear Modulus (GPa) = 28.30485 29.85021 29.07753
#
# Velocity S-wave (km/s) = 3.67023 3.76909 3.71999
# Velocity P-wave (km/s) = 6.73226 6.84571 6.78922
#
# Compressibility (1/GPa) = 0.01739287
#
# Stress axis : x y z
#
# Youngs Moduli (GPa) = 76.23588 64.16348 66.50345
#
# Poissons Ratio (x) = 0.28056 0.12124
# Poissons Ratio (y) = 0.33335 0.46403
# Poissons Ratio (z) = 0.13898 0.44770
#
# Static dielectric constant tensor:
#      x y z
#    x 3.866780 0.000000 -0.068130 
#    y 0.000000 4.122210 0.000000 
#    z -0.068130 0.000000 3.866210 
# 
# 
# High freq. dielectric constant tensor:
#      x y z
#    x 1.834570 0.000000 -0.008070 
#    y 0.000000 1.816560 0.000000 
#    z -0.008070 0.000000 1.828020 
# 
# From -- ./inp_files/123535.got.cif
#   From: 2010.06.25/outbox.cif.g09.slc.cpg/sg15_62_cif.got.tgz:123535.got - 2010.06.28 07:06:18.
