data_PCOD8139688
_publ_section_title
;
Structure prediction by ZEFSAII (Michael W. Deem and Ramdas Pophale) SiO2 
 PCOD8139688
Probable space group: C 2/C
;
_chemical_formula_sum "Si O2"
_cell_formula_units_Z 48
_cell_length_a 21.684606
_cell_length_b 10.745286
_cell_length_c 25.677279
_cell_angle_alpha 90.000000
_cell_angle_beta 21.792021
_cell_angle_gamma 90.000000
_cell_volume 2221.117637
_symmetry_space_group_name_H-M "C 2/C"
_symmetry_group_IT_number 15
_symmetry_cell_setting 'monoclinic'
loop_
_space_group_symop_operation_xyz
x,y,z
-x,y,1/2-z
-x,-y,-z
x,-y,1/2+z
1/2+x,1/2+y,z
1/2-x,1/2+y,1/2-z
1/2-x,1/2-y,-z
1/2+x,1/2-y,1/2+z
loop_
_atom_site_type_symbol
_atom_site_label
_atom_site_fract_x
_atom_site_fract_y
_atom_site_fract_z
Si Si1 0.990876 0.442416 0.101739
Si Si2 0.313526 0.413721 0.793005
Si Si3 0.968137 0.275624 0.920407
Si Si4 0.439807 0.207381 0.854974
Si Si5 0.874352 0.949674 0.142159
Si Si6 0.888617 0.170826 0.789036
O O1 0.801119 0.397997 0.242508
O O2 0.987533 0.588984 0.092796
O O3 0.048216 0.411466 0.115983
O O4 0.121568 0.377396 0.958458
O O5 0.444284 0.312472 0.710289
O O6 0.340795 0.439501 0.710177
O O7 0.347759 0.540130 0.795882
O O8 0.044962 0.172101 0.897038
O O9 0.026281 0.266282 0.816136
O O10 0.773594 0.254037 0.068112
O O11 0.500000 0.170314 0.750000
O O12 0.250000 0.250000 0.000000
O O13 0.000000 0.000000 0.000000
O O14 0.000000 0.138896 0.750000
#
# Coordination Sequence:
#
# PCOD8139688 Si02
#       6
#     8   8   8   8   8   8
#     4  11  25  45  70  98 139 188 225 293 361 424
#     4  10  24  45  68  96 134 184 229 288 360 421
#     4  10  23  42  63 101 131 171 228 276 343 415
#     4  12  26  47  73 104 139 183 243 299 363 440
#     4  11  25  44  72 102 139 181 241 293 350 426
#     4  10  20  39  67  92 130 171 214 274 341 413
#
# _framework density 21.610741999999998
#
# number of rings (size 3 to 8) (size 9 to 14) (size 15 to 20)
#    0.000    1.333    1.667    2.500    7.000    0.667 
#    0.000    0.000    0.000    0.000    0.000    0.000 
#    0.000    0.000    0.000    0.000    0.000    0.000 
#
# Total GULP energy -297530.671729 kJ/mol
# GULP energy per Si atom -12397.111322 kJ/mol
# Density = 2.156155 g / cm^3
# Si number density = 21.610742 Si / 1000 Ang^3
#
#
#
# Elastic Constant Matrix: (Units=GPa)
#
#
# Indices 1 2 3 4 5 6 
#
# 1 122.7953 17.6667 72.4178 -0.0035 11.1594 0.0013
# 2 17.6667 63.5524 33.1476 -0.0169 3.4362 0.0050
# 3 72.4178 33.1476 201.3973 -0.0518 4.0356 0.0103
# 4 -0.0035 -0.0169 -0.0518 31.0426 0.0041 -3.5179
# 5 11.1594 3.4362 4.0356 0.0041 55.6015 0.0018
# 6 0.0013 0.0050 0.0103 -3.5179 0.0018 29.7567
#
#
#
# Elastic Compliance Matrix: (Units=1/GPa)
#
#
# Indices 1 2 3 4 5 6 
#
# 1 0.010573 -0.000960 -0.003608 -0.000005 -0.001801 0.000000
# 2 -0.000960 0.017341 -0.002495 0.000005 -0.000698 -0.000001
# 3 -0.003608 -0.002495 0.006665 0.000009 0.000394 -0.000001
# 4 -0.000005 0.000005 0.000009 0.032651 -0.000002 0.003860
# 5 -0.001801 -0.000698 0.000394 -0.000002 0.018361 -0.000001
# 6 0.000000 -0.000001 -0.000001 0.003860 -0.000001 0.034062
#
#
# Mechanical properties :
#
#
# Convention : Reuss Voigt Hill
#
# Bulk Modulus (GPa) = 48.89046 70.46767 59.67907
# Shear Modulus (GPa) = 35.56258 40.91435 38.23847
#
# Velocity S-wave (km/s) = 4.06100 4.35586 4.21101
# Velocity P-wave (km/s) = 6.68291 7.61423 7.16372
#
# Compressibility (1/GPa) = 0.02045389
#
# Stress axis : x y z
#
# Youngs Moduli (GPa) = 94.58006 57.66696 150.03101
#
# Poissons Ratio (x) = 0.05537 0.54127
# Poissons Ratio (y) = 0.09080 0.37431
# Poissons Ratio (z) = 0.34122 0.14387
#
# Static dielectric constant tensor:
#      x y z
#    x 4.024880 0.000020 0.021680 
#    y 0.000020 3.758880 -0.000040 
#    z 0.021680 -0.000040 4.651780 
# 
# 
# High freq. dielectric constant tensor:
#      x y z
#    x 1.855600 0.000000 -0.002100 
#    y 0.000000 1.840050 0.000000 
#    z -0.002100 0.000000 1.876130 
# 
# From -- ./inp_files/302201.got.cif
#   From: 2010.06.25/outbox.cif.g09.slc.cpg/sg15_152_cif.got.tgz:302201.got - 2010.06.28 07:06:18.
