data_PCOD8139858
_publ_section_title
;
Structure prediction by ZEFSAII (Michael W. Deem and Ramdas Pophale) SiO2 
 PCOD8139858
Probable space group: C 2/C
;
_chemical_formula_sum "Si O2"
_cell_formula_units_Z 48
_cell_length_a 16.297762
_cell_length_b 9.647297
_cell_length_c 15.427975
_cell_angle_alpha 90.000000
_cell_angle_beta 92.953142
_cell_angle_gamma 90.000000
_cell_volume 2422.509124
_symmetry_space_group_name_H-M "C 2/C"
_symmetry_group_IT_number 15
_symmetry_cell_setting 'monoclinic'
loop_
_space_group_symop_operation_xyz
x,y,z
-x,y,1/2-z
-x,-y,-z
x,-y,1/2+z
1/2+x,1/2+y,z
1/2-x,1/2+y,1/2-z
1/2-x,1/2-y,-z
1/2+x,1/2-y,1/2+z
loop_
_atom_site_type_symbol
_atom_site_label
_atom_site_fract_x
_atom_site_fract_y
_atom_site_fract_z
Si Si1 0.698825 0.039423 0.158920
Si Si2 0.011842 0.143756 0.953886
Si Si3 0.799128 0.556466 0.141848
Si Si4 0.840141 0.843496 0.364461
Si Si5 0.416326 0.921873 0.490332
Si Si6 0.653440 0.640556 0.831000
O O1 0.676454 0.008361 0.259060
O O2 0.710184 0.200648 0.136979
O O3 0.788242 0.984586 0.137868
O O4 0.630039 0.960976 0.099942
O O5 0.061055 0.258198 0.012937
O O6 0.065998 0.126175 0.871272
O O7 0.919257 0.188304 0.927136
O O8 0.000000 0.000000 0.000000
O O9 0.716357 0.473981 0.107687
O O10 0.867987 0.527221 0.073554
O O11 0.791386 0.723158 0.143852
O O12 0.871270 0.872072 0.269923
O O13 0.500000 0.000000 0.500000
#
# Coordination Sequence:
#
# PCOD8139858 Si02
#       6
#     8   8   8   8   8   8
#     4  10  21  39  63  87 120 155 201 249 293 358
#     4  11  24  37  59  89 120 156 199 248 300 353
#     4   9  22  38  63  89 116 160 199 243 300 356
#     4  10  20  40  62  86 118 156 200 242 297 359
#     4  11  23  40  60  89 120 159 202 243 300 355
#     4   9  21  40  62  85 116 160 199 242 297 353
#
# _framework density 19.814167000000001
#
# number of rings (size 3 to 8) (size 9 to 14) (size 15 to 20)
#    0.000    2.000    1.667    0.500    4.667    4.000 
#    0.000    0.000    3.667    0.000    0.000    0.000 
#    0.000    0.000    0.000    0.000    0.000    0.000 
#
# Total GULP energy -297403.324518 kJ/mol
# GULP energy per Si atom -12391.805188 kJ/mol
# Density = 1.976907 g / cm^3
# Si number density = 19.814167 Si / 1000 Ang^3
#
#
#
# Elastic Constant Matrix: (Units=GPa)
#
#
# Indices 1 2 3 4 5 6 
#
# 1 98.0147 43.6466 35.1410 0.0000 -3.0927 0.0000
# 2 43.6466 102.9096 33.4221 0.0000 -10.2764 0.0000
# 3 35.1410 33.4221 68.4480 0.0000 -2.4590 0.0000
# 4 0.0000 0.0000 0.0000 28.9733 0.0000 -1.2321
# 5 -3.0927 -10.2764 -2.4590 0.0000 35.2147 0.0000
# 6 0.0000 0.0000 0.0000 -1.2321 0.0000 42.2555
#
#
#
# Elastic Compliance Matrix: (Units=1/GPa)
#
#
# Indices 1 2 3 4 5 6 
#
# 1 0.013919 -0.004298 -0.005061 0.000000 -0.000385 0.000000
# 2 -0.004298 0.013197 -0.004123 0.000000 0.003186 0.000000
# 3 -0.005061 -0.004123 0.019210 0.000000 -0.000306 0.000000
# 4 0.000000 0.000000 0.000000 0.034557 0.000000 0.001008
# 5 -0.000385 0.003186 -0.000306 0.000000 0.029272 0.000000
# 6 0.000000 0.000000 0.000000 0.001008 0.000000 0.023695
#
#
# Mechanical properties :
#
#
# Convention : Reuss Voigt Hill
#
# Bulk Modulus (GPa) = 51.64729 54.86573 53.25651
# Shear Modulus (GPa) = 29.89201 31.76622 30.82911
#
# Velocity S-wave (km/s) = 3.88831 4.00835 3.94879
# Velocity P-wave (km/s) = 6.80301 7.01233 6.90846
#
# Compressibility (1/GPa) = 0.01936210
#
# Stress axis : x y z
#
# Youngs Moduli (GPa) = 71.84463 75.77255 52.05593
#
# Poissons Ratio (x) = 0.32568 0.26346
# Poissons Ratio (y) = 0.30880 0.21462
# Poissons Ratio (z) = 0.36361 0.31241
#
# Static dielectric constant tensor:
#      x y z
#    x 3.700500 0.000000 -0.118790 
#    y 0.000000 3.868650 0.000000 
#    z -0.118790 0.000000 3.165120 
# 
# 
# High freq. dielectric constant tensor:
#      x y z
#    x 1.769720 0.000000 -0.001300 
#    y 0.000000 1.780570 0.000000 
#    z -0.001300 0.000000 1.772030 
# 
# From -- ./inp_files/202983.got.cif
#   From: 2010.06.25/outbox.cif.g09.slc.cpg/sg15_102_cif.got.tgz:202983.got - 2010.06.28 07:06:18.
