data_PCOD8139844
_publ_section_title
;
Structure prediction by ZEFSAII (Michael W. Deem and Ramdas Pophale) SiO2 
 PCOD8139844
Probable space group: C 2/C
;
_chemical_formula_sum "Si O2"
_cell_formula_units_Z 44
_cell_length_a 15.403388
_cell_length_b 17.505280
_cell_length_c 6.870019
_cell_angle_alpha 90.000000
_cell_angle_beta 97.475041
_cell_angle_gamma 90.000000
_cell_volume 1836.693488
_symmetry_space_group_name_H-M "C 2/C"
_symmetry_group_IT_number 15
_symmetry_cell_setting 'monoclinic'
loop_
_space_group_symop_operation_xyz
x,y,z
-x,y,1/2-z
-x,-y,-z
x,-y,1/2+z
1/2+x,1/2+y,z
1/2-x,1/2+y,1/2-z
1/2-x,1/2-y,-z
1/2+x,1/2-y,1/2+z
loop_
_atom_site_type_symbol
_atom_site_label
_atom_site_fract_x
_atom_site_fract_y
_atom_site_fract_z
Si Si1 0.767576 0.403468 0.447418
Si Si2 0.874116 0.264578 0.465829
Si Si3 0.298953 0.676367 0.094225
Si Si4 0.000000 0.365797 0.250000
Si Si5 0.595312 0.637177 0.749099
Si Si6 0.333527 0.065343 0.554381
O O1 0.797205 0.319632 0.531823
O O2 0.662578 0.412500 0.403731
O O3 0.817498 0.474654 0.559065
O O4 0.797238 0.394494 0.234077
O O5 0.844428 0.198003 0.308377
O O6 0.911863 0.222606 0.665781
O O7 0.949417 0.314208 0.388512
O O8 0.250000 0.750000 0.000000
O O9 0.372725 0.644195 0.965546
O O10 0.226194 0.609029 0.126825
O O11 0.062356 0.418396 0.407882
O O12 0.500000 0.597985 0.750000
#
# Coordination Sequence:
#
# PCOD8139844 Si02
#       6
#     8   8   8   4   8   8
#     4  10  23  42  58  92 126 172 208 256 322 390
#     4  11  22  39  68  93 130 166 213 264 324 381
#     4  11  21  42  65  91 131 174 207 263 327 374
#     4  10  20  40  62 100 128 160 214 268 320 384
#     4  11  24  40  66  98 124 163 228 267 309 382
#     4  10  23  38  65  88 133 167 212 259 326 385
#
# _framework density 23.956092000000002
#
# number of rings (size 3 to 8) (size 9 to 14) (size 15 to 20)
#    0.000    1.455    5.455    1.636    2.545    2.909 
#    1.636    3.636    2.000    0.000    0.000    0.000 
#    0.000    0.000    0.000    0.000    0.000    0.000 
#
# Total GULP energy -272586.044895 kJ/mol
# GULP energy per Si atom -12390.274768 kJ/mol
# Density = 2.390157 g / cm^3
# Si number density = 23.956092 Si / 1000 Ang^3
#
#
#
# Elastic Constant Matrix: (Units=GPa)
#
#
# Indices 1 2 3 4 5 6 
#
# 1 155.7526 30.6513 39.6648 0.0000 30.0625 0.0000
# 2 30.6513 112.4674 38.0937 0.0000 18.9369 0.0000
# 3 39.6648 38.0937 41.6815 0.0000 13.0637 0.0000
# 4 0.0000 0.0000 0.0000 41.1392 0.0000 14.2084
# 5 30.0625 18.9369 13.0637 0.0000 37.4671 0.0000
# 6 0.0000 0.0000 0.0000 14.2084 0.0000 31.9178
#
#
#
# Elastic Compliance Matrix: (Units=1/GPa)
#
#
# Indices 1 2 3 4 5 6 
#
# 1 0.009297 0.001134 -0.008270 0.000000 -0.005150 0.000000
# 2 0.001134 0.013264 -0.012143 0.000000 -0.003381 0.000000
# 3 -0.008270 -0.012143 0.043735 0.000000 -0.002476 0.000000
# 4 0.000000 0.000000 0.000000 0.028724 0.000000 -0.012787
# 5 -0.005150 -0.003381 -0.002476 0.000000 0.033394 0.000000
# 6 0.000000 0.000000 0.000000 -0.012787 0.000000 0.037023
#
#
# Mechanical properties :
#
#
# Convention : Reuss Voigt Hill
#
# Bulk Modulus (GPa) = 36.04917 58.52455 47.28686
# Shear Modulus (GPa) = 23.44768 35.53759 29.49263
#
# Velocity S-wave (km/s) = 3.13194 3.85573 3.51253
# Velocity P-wave (km/s) = 5.30654 6.65621 6.01933
#
# Compressibility (1/GPa) = 0.02773989
#
# Stress axis : x y z
#
# Youngs Moduli (GPa) = 107.55824 75.39028 22.86492
#
# Poissons Ratio (x) = -0.08553 0.18910
# Poissons Ratio (y) = -0.12202 0.27764
# Poissons Ratio (z) = 0.88954 0.91543
#
# Static dielectric constant tensor:
#      x y z
#    x 4.802280 0.000000 0.158690 
#    y 0.000000 4.270280 0.000000 
#    z 0.158690 0.000000 4.502990 
# 
# 
# High freq. dielectric constant tensor:
#      x y z
#    x 1.957440 0.000000 -0.003100 
#    y 0.000000 1.935910 0.000000 
#    z -0.003100 0.000000 1.949370 
# 
# From -- ./inp_files/39351.got.cif
#   From: 2010.06.25/outbox.cif.g09.slc.cpg/sg15_20_cif.got.tgz:39351.got - 2010.06.28 07:06:18.
