data_PCOD8139083
_publ_section_title
;
Structure prediction by ZEFSAII (Michael W. Deem and Ramdas Pophale) SiO2 
 PCOD8139083
Probable space group: C 2/C
;
_chemical_formula_sum "Si O2"
_cell_formula_units_Z 52
_cell_length_a 32.077986
_cell_length_b 9.030733
_cell_length_c 15.146766
_cell_angle_alpha 90.000000
_cell_angle_beta 148.652976
_cell_angle_gamma 90.000000
_cell_volume 2282.639000
_symmetry_space_group_name_H-M "C 2/C"
_symmetry_group_IT_number 15
_symmetry_cell_setting 'monoclinic'
loop_
_space_group_symop_operation_xyz
x,y,z
-x,y,1/2-z
-x,-y,-z
x,-y,1/2+z
1/2+x,1/2+y,z
1/2-x,1/2+y,1/2-z
1/2-x,1/2-y,-z
1/2+x,1/2-y,1/2+z
loop_
_atom_site_type_symbol
_atom_site_label
_atom_site_fract_x
_atom_site_fract_y
_atom_site_fract_z
Si Si1 0.115594 0.287082 0.678971
Si Si2 0.607874 0.055523 0.335663
Si Si3 0.349962 0.388859 0.883541
Si Si4 0.035004 0.244301 0.219647
Si Si5 0.000000 0.765870 0.250000
Si Si6 0.256206 0.325489 0.207069
Si Si7 0.409615 0.523730 0.310487
O O1 0.112103 0.428859 0.736789
O O2 0.035448 0.280175 0.476416
O O3 0.192298 0.297367 0.753220
O O4 0.128237 0.140766 0.764240
O O5 0.537879 0.162521 0.243491
O O6 0.693454 0.094764 0.530037
O O7 0.589384 0.888604 0.330379
O O8 0.316128 0.548885 0.852733
O O9 0.288761 0.256412 0.794574
O O10 0.363622 0.383947 0.803160
O O11 0.433923 0.370334 0.085894
O O12 0.000000 0.193254 0.250000
O O13 0.092236 0.113230 0.285107
O O14 0.500000 0.500000 0.500000
#
# Coordination Sequence:
#
# PCOD8139083 Si02
#       7
#     8   8   8   8   4   8   8
#     4  10  22  43  64  93 133 179 216 263 331 401
#     4  11  22  41  67  94 133 170 221 273 326 390
#     4  10  22  42  66  94 132 174 214 279 318 405
#     4  11  23  40  67 101 131 165 225 282 319 379
#     4  10  20  38  64  96 124 174 228 262 334 384
#     4  10  24  42  64  95 138 167 221 262 340 393
#     4   9  20  43  61  92 134 165 221 262 327 387
#
# _framework density 22.780650000000001
#
# number of rings (size 3 to 8) (size 9 to 14) (size 15 to 20)
#    0.000    1.846    0.769    2.769    2.154    1.231 
#   30.462    3.077    0.000    0.000    0.000    0.000 
#    0.000    0.000    0.000    0.000    0.000    0.000 
#
# Total GULP energy -322424.760897 kJ/mol
# GULP energy per Si atom -12400.952342 kJ/mol
# Density = 2.272880 g / cm^3
# Si number density = 22.780650 Si / 1000 Ang^3
#
#
#
# Elastic Constant Matrix: (Units=GPa)
#
#
# Indices 1 2 3 4 5 6 
#
# 1 111.2247 34.9734 14.2842 0.0000 0.9904 0.0000
# 2 34.9734 56.3688 6.6310 0.0000 -2.2633 0.0000
# 3 14.2842 6.6310 44.2686 0.0000 12.3945 0.0000
# 4 0.0000 0.0000 0.0000 32.3018 0.0000 9.6163
# 5 0.9904 -2.2633 12.3945 0.0000 36.8708 0.0000
# 6 0.0000 0.0000 0.0000 9.6163 0.0000 28.5096
#
#
#
# Elastic Compliance Matrix: (Units=1/GPa)
#
#
# Indices 1 2 3 4 5 6 
#
# 1 0.011476 -0.006790 -0.002741 0.000000 0.000196 0.000000
# 2 -0.006790 0.022243 -0.001738 0.000000 0.002132 0.000000
# 3 -0.002741 -0.001738 0.026210 0.000000 -0.008844 0.000000
# 4 0.000000 0.000000 0.000000 0.034414 0.000000 -0.011608
# 5 0.000196 0.002132 -0.008844 0.000000 0.030220 0.000000
# 6 0.000000 0.000000 0.000000 -0.011608 0.000000 0.038991
#
#
# Mechanical properties :
#
#
# Convention : Reuss Voigt Hill
#
# Bulk Modulus (GPa) = 26.74356 35.95992 31.35174
# Shear Modulus (GPa) = 25.18184 29.93469 27.55826
#
# Velocity S-wave (km/s) = 3.32837 3.62890 3.48188
# Velocity P-wave (km/s) = 5.15129 5.77738 5.47330
#
# Compressibility (1/GPa) = 0.03739217
#
# Stress axis : x y z
#
# Youngs Moduli (GPa) = 87.13785 44.95785 38.15306
#
# Poissons Ratio (x) = 0.30526 0.10457
# Poissons Ratio (y) = 0.59166 0.06630
# Poissons Ratio (z) = 0.23884 0.07813
#
# Static dielectric constant tensor:
#      x y z
#    x 5.498660 0.000000 0.278330 
#    y 0.000000 4.438220 0.000000 
#    z 0.278330 0.000000 3.849810 
# 
# 
# High freq. dielectric constant tensor:
#      x y z
#    x 1.915750 0.000000 0.013450 
#    y 0.000000 1.892070 0.000000 
#    z 0.013450 0.000000 1.880880 
# 
# From -- ./inp_files/181252.got.cif
#   From: 2010.06.25/outbox.cif.g09.slc.cpg/sg15_91_cif.got.tgz:181252.got - 2010.06.28 07:06:18.
