data_PCOD8139206
_publ_section_title
;
Structure prediction by ZEFSAII (Michael W. Deem and Ramdas Pophale) SiO2 
 PCOD8139206
Probable space group: C 2/C
;
_chemical_formula_sum "Si O2"
_cell_formula_units_Z 56
_cell_length_a 9.455536
_cell_length_b 17.038172
_cell_length_c 18.010248
_cell_angle_alpha 90.000000
_cell_angle_beta 72.947181
_cell_angle_gamma 90.000000
_cell_volume 2773.975077
_symmetry_space_group_name_H-M "C 2/C"
_symmetry_group_IT_number 15
_symmetry_cell_setting 'monoclinic'
loop_
_space_group_symop_operation_xyz
x,y,z
-x,y,1/2-z
-x,-y,-z
x,-y,1/2+z
1/2+x,1/2+y,z
1/2-x,1/2+y,1/2-z
1/2-x,1/2-y,-z
1/2+x,1/2-y,1/2+z
loop_
_atom_site_type_symbol
_atom_site_label
_atom_site_fract_x
_atom_site_fract_y
_atom_site_fract_z
Si Si1 0.500000 0.540527 0.750000
Si Si2 0.956778 0.128399 0.035784
Si Si3 0.955830 0.275937 0.621574
Si Si4 0.500000 0.117337 0.250000
Si Si5 0.760584 0.140623 0.594568
Si Si6 0.978490 0.307131 0.050790
Si Si7 0.713791 0.479643 0.828836
Si Si8 0.663772 0.358033 0.102404
O O1 0.633146 0.487490 0.761712
O O2 0.431632 0.592838 0.825294
O O3 0.931015 0.216610 0.069252
O O4 0.906657 0.064760 0.102583
O O5 0.865241 0.109081 0.975429
O O6 0.131735 0.121049 0.991280
O O7 0.926509 0.332711 0.694967
O O8 0.826954 0.210626 0.635046
O O9 0.967602 0.323060 0.542018
O O10 0.111410 0.232543 0.612878
O O11 0.633071 0.066350 0.197635
O O12 0.603653 0.168428 0.588904
O O13 0.742342 0.064773 0.647947
O O14 0.837999 0.361517 0.092179
#
# Coordination Sequence:
#
# PCOD8139206 Si02
#       8
#     4   8   8   4   8   8   8   8
#     4  12  25  40  60  87 132 178 206 248 333 392
#     4  10  20  43  66  92 125 169 210 260 316 379
#     4  10  20  43  66  93 123 175 205 260 317 384
#     4  12  27  42  64  91 142 160 220 264 319 376
#     4  10  22  40  70  93 128 158 218 261 321 367
#     4  10  20  38  71  99 118 159 225 268 301 369
#     4  12  26  44  61  97 127 177 206 266 319 384
#     4  10  20  38  67  92 122 168 215 253 313 385
#
# _framework density 20.187635
#
# number of rings (size 3 to 8) (size 9 to 14) (size 15 to 20)
#    0.000    1.714    2.857    6.000    2.000    2.286 
#    0.000    1.429    0.000    0.000    0.000    0.000 
#    0.000    0.000    0.000    0.000    0.000    0.000 
#
# Total GULP energy -347174.235031 kJ/mol
# GULP energy per Si atom -12399.079823 kJ/mol
# Density = 2.014169 g / cm^3
# Si number density = 20.187635 Si / 1000 Ang^3
#
#
#
# Elastic Constant Matrix: (Units=GPa)
#
#
# Indices 1 2 3 4 5 6 
#
# 1 154.0067 50.0046 43.7582 0.0000 6.8995 0.0000
# 2 50.0046 76.9725 47.8891 0.0000 8.6939 0.0000
# 3 43.7582 47.8891 67.6403 0.0000 13.0698 0.0000
# 4 0.0000 0.0000 0.0000 21.6151 0.0000 -0.7794
# 5 6.8995 8.6939 13.0698 0.0000 27.2980 0.0000
# 6 0.0000 0.0000 0.0000 -0.7794 0.0000 15.4097
#
#
#
# Elastic Compliance Matrix: (Units=1/GPa)
#
#
# Indices 1 2 3 4 5 6 
#
# 1 0.008531 -0.003762 -0.002942 0.000000 0.000451 0.000000
# 2 -0.003762 0.024886 -0.015248 0.000000 0.000326 0.000000
# 3 -0.002942 -0.015248 0.029092 0.000000 -0.008329 0.000000
# 4 0.000000 0.000000 0.000000 0.046349 0.000000 0.002344
# 5 0.000451 0.000326 -0.008329 0.000000 0.040403 0.000000
# 6 0.000000 0.000000 0.000000 0.002344 0.000000 0.065013
#
#
# Mechanical properties :
#
#
# Convention : Reuss Voigt Hill
#
# Bulk Modulus (GPa) = 53.75232 64.65817 59.20524
# Shear Modulus (GPa) = 18.91227 23.32907 21.12067
#
# Velocity S-wave (km/s) = 3.06408 3.40312 3.23804
# Velocity P-wave (km/s) = 6.26117 6.89491 6.58567
#
# Compressibility (1/GPa) = 0.01860385
#
# Stress axis : x y z
#
# Youngs Moduli (GPa) = 117.22588 40.18367 34.37339
#
# Poissons Ratio (x) = 0.15118 0.10113
# Poissons Ratio (y) = 0.44104 0.52413
# Poissons Ratio (z) = 0.34488 0.61272
#
# Static dielectric constant tensor:
#      x y z
#    x 3.694970 0.000000 0.090550 
#    y 0.000000 3.564780 0.000000 
#    z 0.090550 0.000000 3.653800 
# 
# 
# High freq. dielectric constant tensor:
#      x y z
#    x 1.794780 0.000000 0.001940 
#    y 0.000000 1.779430 0.000000 
#    z 0.001940 0.000000 1.780110 
# 
# From -- ./inp_files/190960.got.cif
#   From: 2010.06.25/outbox.cif.g09.slc.cpg/sg15_96_cif.got.tgz:190960.got - 2010.06.28 07:06:18.
