data_PCOD8139131
_publ_section_title
;
Structure prediction by ZEFSAII (Michael W. Deem and Ramdas Pophale) SiO2 
 PCOD8139131
Probable space group: C 2/C
;
_chemical_formula_sum "Si O2"
_cell_formula_units_Z 52
_cell_length_a 15.987042
_cell_length_b 18.085454
_cell_length_c 14.319383
_cell_angle_alpha 90.000000
_cell_angle_beta 36.995662
_cell_angle_gamma 90.000000
_cell_volume 2491.387165
_symmetry_space_group_name_H-M "C 2/C"
_symmetry_group_IT_number 15
_symmetry_cell_setting 'monoclinic'
loop_
_space_group_symop_operation_xyz
x,y,z
-x,y,1/2-z
-x,-y,-z
x,-y,1/2+z
1/2+x,1/2+y,z
1/2-x,1/2+y,1/2-z
1/2-x,1/2-y,-z
1/2+x,1/2-y,1/2+z
loop_
_atom_site_type_symbol
_atom_site_label
_atom_site_fract_x
_atom_site_fract_y
_atom_site_fract_z
Si Si1 0.933121 0.768086 0.566939
Si Si2 0.960027 0.008006 0.426599
Si Si3 0.712108 0.595125 0.212447
Si Si4 0.188958 0.822308 0.222571
Si Si5 0.500000 0.616625 0.750000
Si Si6 0.979742 0.642081 0.877448
Si Si7 0.711092 0.955048 0.247044
O O1 0.860065 0.844036 0.658822
O O2 0.828767 0.725646 0.589854
O O3 0.079431 0.780670 0.386681
O O4 0.959691 0.717768 0.634264
O O5 0.809221 0.047264 0.566028
O O6 0.085573 0.055371 0.267691
O O7 0.000000 0.000000 0.500000
O O8 0.943364 0.931022 0.387429
O O9 0.795680 0.537900 0.204733
O O10 0.817214 0.632043 0.045615
O O11 0.125302 0.832229 0.175830
O O12 0.223671 0.903153 0.231451
O O13 0.000000 0.646934 0.750000
O O14 0.060134 0.571552 0.848921
#
# Coordination Sequence:
#
# PCOD8139131 Si02
#       7
#     8   8   8   8   4   8   8
#     4  11  23  44  65  87 133 176 206 263 327 374
#     4  10  20  38  65  97 122 161 213 270 308 367
#     4  11  20  42  66  90 122 175 206 261 332 368
#     4  11  22  42  65  93 127 169 214 260 316 385
#     4  12  22  38  70 100 126 164 228 256 318 386
#     4  11  26  41  61  96 132 168 213 262 326 395
#     4  10  21  42  67  92 128 165 209 270 322 372
#
# _framework density 20.871905999999999
#
# number of rings (size 3 to 8) (size 9 to 14) (size 15 to 20)
#    0.000    1.231    6.154    1.385    2.154    1.231 
#    1.385    0.000    1.692    0.000    0.000    0.000 
#    0.000    0.000    0.000    0.000    0.000    0.000 
#
# Total GULP energy -322336.532600 kJ/mol
# GULP energy per Si atom -12397.558946 kJ/mol
# Density = 2.082440 g / cm^3
# Si number density = 20.871906 Si / 1000 Ang^3
#
#
#
# Elastic Constant Matrix: (Units=GPa)
#
#
# Indices 1 2 3 4 5 6 
#
# 1 91.3359 26.3446 21.7596 0.0002 4.7243 -0.0003
# 2 26.3446 95.2571 11.2153 0.0000 -0.9179 0.0000
# 3 21.7596 11.2153 83.8009 -0.0009 -7.5292 0.0005
# 4 0.0002 0.0000 -0.0009 26.8581 0.0005 0.7982
# 5 4.7243 -0.9179 -7.5292 0.0005 26.8847 -0.0002
# 6 -0.0003 0.0000 0.0005 0.7982 -0.0002 24.7562
#
#
#
# Elastic Compliance Matrix: (Units=1/GPa)
#
#
# Indices 1 2 3 4 5 6 
#
# 1 0.012798 -0.003195 -0.003187 0.000000 -0.003251 0.000000
# 2 -0.003195 0.011464 -0.000635 0.000000 0.000775 0.000000
# 3 -0.003187 -0.000635 0.013227 0.000000 0.004243 0.000000
# 4 0.000000 0.000000 0.000000 0.037268 -0.000001 -0.001202
# 5 -0.003251 0.000775 0.004243 -0.000001 0.038982 0.000000
# 6 0.000000 0.000000 0.000000 -0.001202 0.000000 0.040433
#
#
# Mechanical properties :
#
#
# Convention : Reuss Voigt Hill
#
# Bulk Modulus (GPa) = 42.63854 43.22588 42.93221
# Shear Modulus (GPa) = 28.40514 29.77143 29.08828
#
# Velocity S-wave (km/s) = 3.69308 3.78085 3.73722
# Velocity P-wave (km/s) = 6.21756 6.30990 6.26390
#
# Compressibility (1/GPa) = 0.02345296
#
# Stress axis : x y z
#
# Youngs Moduli (GPa) = 78.13850 87.23064 75.60374
#
# Poissons Ratio (x) = 0.27874 0.24098
# Poissons Ratio (y) = 0.24969 0.04800
# Poissons Ratio (z) = 0.24906 0.05538
#
# Static dielectric constant tensor:
#      x y z
#    x 3.706630 0.000000 -0.369990 
#    y 0.000000 3.909020 0.000000 
#    z -0.369990 0.000000 4.098890 
# 
# 
# High freq. dielectric constant tensor:
#      x y z
#    x 1.801850 0.000000 -0.017420 
#    y 0.000000 1.822390 0.000000 
#    z -0.017420 0.000000 1.819140 
# 
# From -- ./inp_files/155446.got.cif
#   From: 2010.06.25/outbox.cif.g09.slc.cpg/sg15_78_cif.got.tgz:155446.got - 2010.06.28 07:06:18.
