data_PCOD8139816
_publ_section_title
;
Structure prediction by ZEFSAII (Michael W. Deem and Ramdas Pophale) SiO2 
 PCOD8139816
Probable space group: C 2/C
;
_chemical_formula_sum "Si O2"
_cell_formula_units_Z 52
_cell_length_a 26.593076
_cell_length_b 5.174855
_cell_length_c 17.649398
_cell_angle_alpha 90.000000
_cell_angle_beta 118.788747
_cell_angle_gamma 90.000000
_cell_volume 2128.627459
_symmetry_space_group_name_H-M "C 2/C"
_symmetry_group_IT_number 15
_symmetry_cell_setting 'monoclinic'
loop_
_space_group_symop_operation_xyz
x,y,z
-x,y,1/2-z
-x,-y,-z
x,-y,1/2+z
1/2+x,1/2+y,z
1/2-x,1/2+y,1/2-z
1/2-x,1/2-y,-z
1/2+x,1/2-y,1/2+z
loop_
_atom_site_type_symbol
_atom_site_label
_atom_site_fract_x
_atom_site_fract_y
_atom_site_fract_z
Si Si1 0.500000 0.043465 0.750000
Si Si2 0.896336 0.656588 0.588334
Si Si3 0.123948 0.529141 0.631130
Si Si4 0.351395 0.312121 0.706630
Si Si5 0.049846 0.170228 0.665013
Si Si6 0.255258 0.023451 0.800981
Si Si7 0.577172 0.365194 0.476342
O O1 0.458778 0.222295 0.669886
O O2 0.541011 0.877686 0.725025
O O3 0.849474 0.692868 0.620687
O O4 0.897514 0.366014 0.557730
O O5 0.887915 0.870594 0.516036
O O6 0.152300 0.588028 0.733550
O O7 0.082142 0.287329 0.614157
O O8 0.180029 0.466089 0.618998
O O9 0.088043 0.772244 0.570751
O O10 0.412224 0.450083 0.768215
O O11 0.294876 0.493265 0.672562
O O12 0.989433 0.077604 0.587130
O O13 0.244351 0.820236 0.725436
#
# Coordination Sequence:
#
# PCOD8139816 Si02
#       7
#     4   8   8   8   8   8   8
#     4  10  20  40  60  96 122 168 208 266 298 382
#     4  11  23  42  60  93 128 169 207 255 312 376
#     4  11  24  42  62  95 126 166 209 262 318 370
#     4  11  22  40  71  91 121 171 222 261 302 371
#     4  11  21  39  64  93 127 161 211 254 322 371
#     4  10  22  40  64  94 122 159 218 270 304 356
#     4  11  27  39  62  93 139 161 199 258 327 382
#
# _framework density 24.428888000000001
#
# number of rings (size 3 to 8) (size 9 to 14) (size 15 to 20)
#    0.000    1.231    3.077    3.231    4.308    1.231 
#    0.000    1.538    0.000    0.000    0.000    0.000 
#    0.000    0.000    0.000    0.000    0.000    0.000 
#
# Total GULP energy -322245.795390 kJ/mol
# GULP energy per Si atom -12394.069053 kJ/mol
# Density = 2.437329 g / cm^3
# Si number density = 24.428888 Si / 1000 Ang^3
#
#
#
# Elastic Constant Matrix: (Units=GPa)
#
#
# Indices 1 2 3 4 5 6 
#
# 1 128.6886 10.0339 12.5081 0.0001 4.1984 -0.0001
# 2 10.0339 52.5365 -18.1166 0.0029 2.8891 -0.0018
# 3 12.5081 -18.1166 33.0624 -0.0003 -9.6546 -0.0001
# 4 0.0001 0.0029 -0.0003 29.7381 0.0000 -3.1192
# 5 4.1984 2.8891 -9.6546 0.0000 25.9385 -0.0001
# 6 -0.0001 -0.0018 -0.0001 -3.1192 -0.0001 30.5284
#
#
#
# Elastic Compliance Matrix: (Units=1/GPa)
#
#
# Indices 1 2 3 4 5 6 
#
# 1 0.008780 -0.003669 -0.006314 0.000000 -0.003363 0.000000
# 2 -0.003669 0.025141 0.016290 -0.000002 0.003857 0.000001
# 3 -0.006314 0.016290 0.046369 -0.000001 0.016467 0.000001
# 4 0.000000 -0.000002 -0.000001 0.033991 0.000000 0.003473
# 5 -0.003363 0.003857 0.016467 0.000000 0.044797 0.000000
# 6 0.000000 0.000001 0.000001 0.003473 0.000000 0.033111
#
#
# Mechanical properties :
#
#
# Convention : Reuss Voigt Hill
#
# Bulk Modulus (GPa) = 10.76386 24.79315 17.77850
# Shear Modulus (GPa) = 23.74803 31.23181 27.48992
#
# Velocity S-wave (km/s) = 3.12128 3.57946 3.35819
# Velocity P-wave (km/s) = 4.17200 5.22059 4.72547
#
# Compressibility (1/GPa) = 0.09290351
#
# Stress axis : x y z
#
# Youngs Moduli (GPa) = 113.89211 39.77621 21.56595
#
# Poissons Ratio (x) = 0.14596 0.13617
# Poissons Ratio (y) = 0.41792 -0.35132
# Poissons Ratio (z) = 0.71915 -0.64797
#
# Static dielectric constant tensor:
#      x y z
#    x 4.876040 0.000000 -0.108220 
#    y 0.000000 4.126270 0.000000 
#    z -0.108220 0.000000 4.391970 
# 
# 
# High freq. dielectric constant tensor:
#      x y z
#    x 1.978440 0.000000 -0.011960 
#    y 0.000000 1.970990 0.000000 
#    z -0.011960 0.000000 1.945280 
# 
# From -- ./inp_files/220880.got.cif
#   From: 2010.06.25/outbox.cif.g09.slc.cpg/sg15_111_cif.got.tgz:220880.got - 2010.06.28 07:06:18.
