data_PCOD8139946
_publ_section_title
;
Structure prediction by ZEFSAII (Michael W. Deem and Ramdas Pophale) SiO2 
 PCOD8139946
Probable space group: C 2/C
;
_chemical_formula_sum "Si O2"
_cell_formula_units_Z 48
_cell_length_a 15.998113
_cell_length_b 8.676196
_cell_length_c 28.754438
_cell_angle_alpha 90.000000
_cell_angle_beta 143.325826
_cell_angle_gamma 90.000000
_cell_volume 2383.796123
_symmetry_space_group_name_H-M "C 2/C"
_symmetry_group_IT_number 15
_symmetry_cell_setting 'monoclinic'
loop_
_space_group_symop_operation_xyz
x,y,z
-x,y,1/2-z
-x,-y,-z
x,-y,1/2+z
1/2+x,1/2+y,z
1/2-x,1/2+y,1/2-z
1/2-x,1/2-y,-z
1/2+x,1/2-y,1/2+z
loop_
_atom_site_type_symbol
_atom_site_label
_atom_site_fract_x
_atom_site_fract_y
_atom_site_fract_z
Si Si1 0.782100 0.259196 0.302764
Si Si2 0.195847 0.906477 0.454062
Si Si3 0.841034 0.063560 0.669126
Si Si4 0.387168 0.181596 0.425324
Si Si5 0.952347 0.416791 0.051299
Si Si6 0.389047 0.577623 0.851174
O O1 0.716956 0.303038 0.323331
O O2 0.675735 0.302560 0.214458
O O3 0.932115 0.344998 0.362652
O O4 0.799449 0.076795 0.309025
O O5 0.250000 0.750000 0.500000
O O6 0.179744 0.877213 0.392107
O O7 0.049767 0.959098 0.411032
O O8 0.306859 0.046151 0.513084
O O9 0.000000 0.025084 0.750000
O O10 0.761392 0.904300 0.643608
O O11 0.432225 0.202375 0.499278
O O12 0.376542 0.348844 0.396912
O O13 0.503059 0.082392 0.449707
#
# Coordination Sequence:
#
# PCOD8139946 Si02
#       6
#     8   8   8   8   8   8
#     4  11  24  39  63  92 127 163 205 254 309 366
#     4  11  22  38  67  93 119 165 209 253 302 367
#     4  10  20  40  64  86 123 166 204 245 309 371
#     4   9  19  37  62  88 118 162 200 246 307 366
#     4   9  19  39  62  88 123 161 202 245 306 371
#     4  12  24  39  64  93 124 161 208 257 306 360
#
# _framework density 20.135950999999999
#
# number of rings (size 3 to 8) (size 9 to 14) (size 15 to 20)
#    0.000    1.667    3.333    3.000    0.000    1.333 
#    0.000    0.833    0.000    0.000    0.000    0.000 
#    0.000    0.000    0.000    0.000    0.000    0.000 
#
# Total GULP energy -297657.598848 kJ/mol
# GULP energy per Si atom -12402.399952 kJ/mol
# Density = 2.009012 g / cm^3
# Si number density = 20.135951 Si / 1000 Ang^3
#
#
#
# Elastic Constant Matrix: (Units=GPa)
#
#
# Indices 1 2 3 4 5 6 
#
# 1 88.5495 28.2360 37.3148 0.0000 18.3630 0.0000
# 2 28.2360 63.3126 10.1445 0.0000 11.7228 0.0000
# 3 37.3148 10.1445 93.6138 0.0000 23.3310 0.0000
# 4 0.0000 0.0000 0.0000 34.1432 0.0000 -4.5655
# 5 18.3630 11.7228 23.3310 0.0000 32.7307 0.0000
# 6 0.0000 0.0000 0.0000 -4.5655 0.0000 26.6144
#
#
#
# Elastic Compliance Matrix: (Units=1/GPa)
#
#
# Indices 1 2 3 4 5 6 
#
# 1 0.015850 -0.005661 -0.004856 0.000000 -0.003403 0.000000
# 2 -0.005661 0.018950 0.001341 0.000000 -0.004567 0.000000
# 3 -0.004856 0.001341 0.014487 0.000000 -0.008082 0.000000
# 4 0.000000 0.000000 0.000000 0.029976 0.000000 0.005142
# 5 -0.003403 -0.004567 -0.008082 0.000000 0.039859 0.000000
# 6 0.000000 0.000000 0.000000 0.005142 0.000000 0.038456
#
#
# Mechanical properties :
#
#
# Convention : Reuss Voigt Hill
#
# Bulk Modulus (GPa) = 32.32525 44.09628 38.21077
# Shear Modulus (GPa) = 26.84684 30.01636 28.43160
#
# Velocity S-wave (km/s) = 3.65537 3.86513 3.76171
# Velocity P-wave (km/s) = 5.82271 6.47038 6.15507
#
# Compressibility (1/GPa) = 0.03093556
#
# Stress axis : x y z
#
# Youngs Moduli (GPa) = 63.08972 52.77056 69.02756
#
# Poissons Ratio (x) = 0.29872 0.33523
# Poissons Ratio (y) = 0.35713 -0.09258
# Poissons Ratio (z) = 0.30639 -0.07077
#
# Static dielectric constant tensor:
#      x y z
#    x 3.768720 0.000000 0.131700 
#    y 0.000000 3.316750 0.000000 
#    z 0.131700 0.000000 3.950030 
# 
# 
# High freq. dielectric constant tensor:
#      x y z
#    x 1.779480 0.000000 0.011630 
#    y 0.000000 1.761930 0.000000 
#    z 0.011630 0.000000 1.805480 
# 
# From -- ./inp_files/242306.got.cif
#   From: 2010.06.25/outbox.cif.g09.slc.cpg/sg15_122_cif.got.tgz:242306.got - 2010.06.28 07:06:18.
