data_PCOD8139160
_publ_section_title
;
Structure prediction by ZEFSAII (Michael W. Deem and Ramdas Pophale) SiO2 
 PCOD8139160
Probable space group: C 2/C
;
_chemical_formula_sum "Si O2"
_cell_formula_units_Z 48
_cell_length_a 21.697871
_cell_length_b 24.827416
_cell_length_c 8.637742
_cell_angle_alpha 90.000000
_cell_angle_beta 151.734055
_cell_angle_gamma 90.000000
_cell_volume 2203.577254
_symmetry_space_group_name_H-M "C 2/C"
_symmetry_group_IT_number 15
_symmetry_cell_setting 'monoclinic'
loop_
_space_group_symop_operation_xyz
x,y,z
-x,y,1/2-z
-x,-y,-z
x,-y,1/2+z
1/2+x,1/2+y,z
1/2-x,1/2+y,1/2-z
1/2-x,1/2-y,-z
1/2+x,1/2-y,1/2+z
loop_
_atom_site_type_symbol
_atom_site_label
_atom_site_fract_x
_atom_site_fract_y
_atom_site_fract_z
Si Si1 0.500000 0.773513 0.750000
Si Si2 0.685354 0.024188 0.408205
Si Si3 0.180417 0.695792 0.900072
Si Si4 0.000000 0.501876 0.750000
Si Si5 0.216969 0.790304 0.562808
Si Si6 0.176156 0.913731 0.780079
Si Si7 0.888157 0.903485 0.216689
O O1 0.453997 0.808519 0.497508
O O2 0.386622 0.734472 0.550845
O O3 0.611554 0.032901 0.408209
O O4 0.811240 0.061863 0.674935
O O5 0.728504 0.962741 0.467783
O O6 0.576573 0.040030 0.039645
O O7 0.250000 0.750000 0.000000
O O8 0.162832 0.696864 0.050945
O O9 0.261551 0.642921 0.035149
O O10 0.250000 0.750000 0.500000
O O11 0.152538 0.842135 0.340469
O O12 0.151751 0.919608 0.543922
O O13 0.040958 0.915538 0.577107
#
# Coordination Sequence:
#
# PCOD8139160 Si02
#       7
#     4   8   8   4   8   8   8
#     4  10  20  41  64  88 128 168 209 266 318 380
#     4  11  21  43  62  92 121 169 202 256 316 374
#     4   9  19  38  62  91 124 165 211 256 319 369
#     4  10  24  41  62  84 136 154 213 254 302 382
#     4  10  21  40  62  92 124 164 213 260 316 379
#     4  10  20  38  66  91 122 161 211 260 312 376
#     4  10  20  39  65  90 124 163 208 258 314 376
#
# _framework density 21.782762999999999
#
# number of rings (size 3 to 8) (size 9 to 14) (size 15 to 20)
#    0.000    2.000    1.667    3.500    0.000    1.333 
#   12.000    0.000    0.000    0.000    0.000    0.000 
#    0.000    0.000    0.000    0.000    0.000    0.000 
#
# Total GULP energy -297359.241442 kJ/mol
# GULP energy per Si atom -12389.968393 kJ/mol
# Density = 2.173318 g / cm^3
# Si number density = 21.782763 Si / 1000 Ang^3
#
#
#
# Elastic Constant Matrix: (Units=GPa)
#
#
# Indices 1 2 3 4 5 6 
#
# 1 131.5738 53.1054 41.1706 0.0000 15.6182 0.0000
# 2 53.1054 112.0161 44.1112 0.0000 16.7477 0.0000
# 3 41.1706 44.1112 103.7063 0.0000 -7.3270 0.0000
# 4 0.0000 0.0000 0.0000 23.8041 0.0000 8.0752
# 5 15.6182 16.7477 -7.3270 0.0000 36.1239 0.0000
# 6 0.0000 0.0000 0.0000 8.0752 0.0000 30.7422
#
#
#
# Elastic Compliance Matrix: (Units=1/GPa)
#
#
# Indices 1 2 3 4 5 6 
#
# 1 0.010222 -0.003142 -0.002974 0.000000 -0.003566 0.000000
# 2 -0.003142 0.013135 -0.004742 0.000000 -0.005693 0.000000
# 3 -0.002974 -0.004742 0.013277 0.000000 0.006177 0.000000
# 4 0.000000 0.000000 0.000000 0.046119 0.000000 -0.012114
# 5 -0.003566 -0.005693 0.006177 0.000000 0.033117 0.000000
# 6 0.000000 0.000000 0.000000 -0.012114 0.000000 0.035711
#
#
# Mechanical properties :
#
#
# Convention : Reuss Voigt Hill
#
# Bulk Modulus (GPa) = 67.02922 69.34118 68.18520
# Shear Modulus (GPa) = 28.04751 32.06130 30.05440
#
# Velocity S-wave (km/s) = 3.59221 3.84065 3.71851
# Velocity P-wave (km/s) = 6.93136 7.18120 7.05739
#
# Compressibility (1/GPa) = 0.01491887
#
# Stress axis : x y z
#
# Youngs Moduli (GPa) = 97.82558 76.12972 75.32095
#
# Poissons Ratio (x) = 0.23921 0.22398
# Poissons Ratio (y) = 0.30738 0.35717
# Poissons Ratio (z) = 0.29090 0.36101
#
# Static dielectric constant tensor:
#      x y z
#    x 3.928510 0.000000 -0.192570 
#    y 0.000000 3.717880 0.000000 
#    z -0.192570 0.000000 4.400980 
# 
# 
# High freq. dielectric constant tensor:
#      x y z
#    x 1.847850 0.000000 -0.005410 
#    y 0.000000 1.839260 0.000000 
#    z -0.005410 0.000000 1.863000 
# 
# From -- ./inp_files/59171.got.cif
#   From: 2010.06.25/outbox.cif.g09.slc.cpg/sg15_30_cif.got.tgz:59171.got - 2010.06.28 07:06:18.
