data_PCOD8139082
_publ_section_title
;
Structure prediction by ZEFSAII (Michael W. Deem and Ramdas Pophale) SiO2 
 PCOD8139082
Probable space group: C 2/C
;
_chemical_formula_sum "Si O2"
_cell_formula_units_Z 60
_cell_length_a 9.028663
_cell_length_b 21.999687
_cell_length_c 23.420337
_cell_angle_alpha 90.000000
_cell_angle_beta 141.483670
_cell_angle_gamma 90.000000
_cell_volume 2896.931448
_symmetry_space_group_name_H-M "C 2/C"
_symmetry_group_IT_number 15
_symmetry_cell_setting 'monoclinic'
loop_
_space_group_symop_operation_xyz
x,y,z
-x,y,1/2-z
-x,-y,-z
x,-y,1/2+z
1/2+x,1/2+y,z
1/2-x,1/2+y,1/2-z
1/2-x,1/2-y,-z
1/2+x,1/2-y,1/2+z
loop_
_atom_site_type_symbol
_atom_site_label
_atom_site_fract_x
_atom_site_fract_y
_atom_site_fract_z
Si Si1 0.093487 0.132164 0.403441
Si Si2 0.864983 0.342746 0.447005
Si Si3 0.498200 0.852855 0.885643
Si Si4 0.000000 0.154102 0.250000
Si Si5 0.875661 0.016869 0.020209
Si Si6 0.563237 0.544173 0.848969
Si Si7 0.731156 0.785194 0.856022
Si Si8 0.357650 0.991848 0.845108
O O1 0.373578 0.141635 0.497344
O O2 0.007487 0.076066 0.416070
O O3 0.040226 0.116130 0.320991
O O4 0.942834 0.190430 0.379332
O O5 0.852357 0.346476 0.511778
O O6 0.663557 0.389011 0.361951
O O7 0.809744 0.275364 0.410943
O O8 0.253535 0.810838 0.817091
O O9 0.666329 0.834580 0.884560
O O10 0.403072 0.921238 0.844161
O O11 0.910014 0.961592 0.074938
O O12 0.601999 0.028274 0.923271
O O13 0.000000 0.000000 0.000000
O O14 0.729136 0.494030 0.867921
O O15 0.294580 0.530301 0.747447
O O16 0.500000 0.770399 0.750000
#
# Coordination Sequence:
#
# PCOD8139082 Si02
#       8
#     8   8   8   4   8   8   8   8
#     4  11  23  43  68  96 134 175 232 277 345 407
#     4  11  24  43  70  93 137 178 230 271 345 413
#     4  11  21  42  65  96 131 174 229 269 333 409
#     4  10  20  38  64  96 120 172 218 286 312 402
#     4  12  24  40  64  99 138 173 219 285 347 402
#     4  11  23  42  69 101 130 175 227 278 338 407
#     4  12  26  42  66 100 135 174 229 289 338 393
#     4  11  22  40  69  96 130 173 227 278 336 404
#
# _framework density 20.711569999999998
#
# number of rings (size 3 to 8) (size 9 to 14) (size 15 to 20)
#    0.000    0.800    4.000    5.200    1.867    0.533 
#    0.000    0.000    0.000    0.000    0.000    0.000 
#    0.000    0.000    0.000    0.000    0.000    0.000 
#
# Total GULP energy -371765.755914 kJ/mol
# GULP energy per Si atom -12392.191864 kJ/mol
# Density = 2.066443 g / cm^3
# Si number density = 20.711570 Si / 1000 Ang^3
#
#
#
# Elastic Constant Matrix: (Units=GPa)
#
#
# Indices 1 2 3 4 5 6 
#
# 1 115.1956 35.6117 57.3099 0.0001 -21.0989 -0.0004
# 2 35.6117 108.7612 50.4956 0.0001 -5.9898 -0.0001
# 3 57.3099 50.4956 137.1058 -0.0032 -5.4905 -0.0022
# 4 0.0001 0.0001 -0.0032 27.1488 -0.0015 1.4598
# 5 -21.0989 -5.9898 -5.4905 -0.0015 21.3829 -0.0019
# 6 -0.0004 -0.0001 -0.0022 1.4598 -0.0019 20.3878
#
#
#
# Elastic Compliance Matrix: (Units=1/GPa)
#
#
# Indices 1 2 3 4 5 6 
#
# 1 0.013664 -0.001678 -0.004620 0.000000 0.011826 0.000001
# 2 -0.001678 0.011389 -0.003467 0.000000 0.000645 0.000000
# 3 -0.004620 -0.003467 0.010387 0.000001 -0.002863 0.000001
# 4 0.000000 0.000000 0.000001 0.036976 0.000003 -0.002648
# 5 0.011826 0.000645 -0.002863 0.000003 0.057881 0.000005
# 6 0.000001 0.000000 0.000001 -0.002648 0.000005 0.049239
#
#
# Mechanical properties :
#
#
# Convention : Reuss Voigt Hill
#
# Bulk Modulus (GPa) = 62.85381 71.98858 67.42119
# Shear Modulus (GPa) = 24.46537 28.29359 26.37948
#
# Velocity S-wave (km/s) = 3.44065 3.70006 3.57271
# Velocity P-wave (km/s) = 6.79685 7.28608 7.04571
#
# Compressibility (1/GPa) = 0.01590994
#
# Stress axis : x y z
#
# Youngs Moduli (GPa) = 73.18438 87.80260 96.27197
#
# Poissons Ratio (x) = 0.14731 0.44478
# Poissons Ratio (y) = 0.12278 0.33382
# Poissons Ratio (z) = 0.33812 0.30446
#
# Static dielectric constant tensor:
#      x y z
#    x 4.018140 0.000020 0.347550 
#    y 0.000020 3.490430 0.000030 
#    z 0.347550 0.000030 4.411070 
# 
# 
# High freq. dielectric constant tensor:
#      x y z
#    x 1.811870 0.000000 0.000010 
#    y 0.000000 1.782330 0.000000 
#    z 0.000010 0.000000 1.828580 
# 
# From -- ./inp_files/266273.got.cif
#   From: 2010.06.25/outbox.cif.g09.slc.cpg/sg15_134_cif.got.tgz:266273.got - 2010.06.28 07:06:18.
