data_PCOD8139780
_publ_section_title
;
Structure prediction by ZEFSAII (Michael W. Deem and Ramdas Pophale) SiO2 
 PCOD8139780
Probable space group: C 2/C
;
_chemical_formula_sum "Si O2"
_cell_formula_units_Z 64
_cell_length_a 8.944701
_cell_length_b 22.571920
_cell_length_c 15.345733
_cell_angle_alpha 90.000000
_cell_angle_beta 94.351921
_cell_angle_gamma 90.000000
_cell_volume 3089.356251
_symmetry_space_group_name_H-M "C 2/C"
_symmetry_group_IT_number 15
_symmetry_cell_setting 'monoclinic'
loop_
_space_group_symop_operation_xyz
x,y,z
-x,y,1/2-z
-x,-y,-z
x,-y,1/2+z
1/2+x,1/2+y,z
1/2-x,1/2+y,1/2-z
1/2-x,1/2-y,-z
1/2+x,1/2-y,1/2+z
loop_
_atom_site_type_symbol
_atom_site_label
_atom_site_fract_x
_atom_site_fract_y
_atom_site_fract_z
Si Si1 0.337825 0.441879 0.783178
Si Si2 0.354117 0.251364 0.921145
Si Si3 0.339990 0.469113 0.982135
Si Si4 0.178500 0.185585 0.251895
Si Si5 0.652979 0.885148 0.085948
Si Si6 0.822716 0.802244 0.554724
Si Si7 0.177044 0.415614 0.456615
Si Si8 0.829956 0.557058 0.738669
O O1 0.500000 0.440368 0.750000
O O2 0.336145 0.444372 0.885972
O O3 0.254903 0.380504 0.756484
O O4 0.258860 0.498383 0.738284
O O5 0.271254 0.273530 0.828177
O O6 0.394295 0.183062 0.915557
O O7 0.497003 0.294472 0.943153
O O8 0.250000 0.250000 0.000000
O O9 0.220803 0.520659 0.997505
O O10 0.500000 0.500000 0.000000
O O11 0.295843 0.411335 0.038665
O O12 0.237044 0.206924 0.348801
O O13 0.000000 0.184915 0.250000
O O14 0.502040 0.914397 0.041309
O O15 0.696033 0.894866 0.188185
O O16 0.750000 0.750000 0.500000
O O17 0.770037 0.864980 0.511949
O O18 0.220378 0.414165 0.355456
O O19 0.000000 0.536075 0.750000
#
# Coordination Sequence:
#
# PCOD8139780 Si02
#       8
#     8   8   8   8   8   8   8   8
#     4  10  20  40  58  89 124 159 212 255 322 383
#     4  11  24  42  65  93 127 167 217 265 323 381
#     4  11  24  37  65  96 126 164 210 270 326 380
#     4   9  22  38  66  89 120 171 214 258 310 393
#     4  11  22  40  65  89 128 167 210 262 322 387
#     4  11  23  42  67  92 125 172 218 263 318 387
#     4  10  23  40  63  93 127 164 214 260 319 389
#     4   9  21  38  61  90 121 163 206 261 314 383
#
# _framework density 20.716290000000001
#
# number of rings (size 3 to 8) (size 9 to 14) (size 15 to 20)
#    0.000    1.750    1.250    1.875   10.500    1.500 
#    0.000    0.625    0.000    0.000    0.000    0.000 
#    0.000    0.000    0.000    0.000    0.000    0.000 
#
# Total GULP energy -396456.405195 kJ/mol
# GULP energy per Si atom -12389.262662 kJ/mol
# Density = 2.066914 g / cm^3
# Si number density = 20.716290 Si / 1000 Ang^3
#
#
#
# Elastic Constant Matrix: (Units=GPa)
#
#
# Indices 1 2 3 4 5 6 
#
# 1 59.9831 28.3957 37.8036 0.0000 -5.3472 0.0000
# 2 28.3957 103.1150 58.6122 0.0000 -3.0379 0.0000
# 3 37.8036 58.6122 127.4581 0.0000 1.4198 0.0000
# 4 0.0000 0.0000 0.0000 45.3434 0.0000 -1.0626
# 5 -5.3472 -3.0379 1.4198 0.0000 30.3878 0.0000
# 6 0.0000 0.0000 0.0000 -1.0626 0.0000 24.3451
#
#
#
# Elastic Compliance Matrix: (Units=1/GPa)
#
#
# Indices 1 2 3 4 5 6 
#
# 1 0.021612 -0.002943 -0.005098 0.000000 0.003747 0.000000
# 2 -0.002943 0.013608 -0.005397 0.000000 0.001095 0.000000
# 3 -0.005098 -0.005397 0.011862 0.000000 -0.001991 0.000000
# 4 0.000000 0.000000 0.000000 0.022077 0.000000 0.000964
# 5 0.003747 0.001095 -0.001991 0.000000 0.033770 0.000000
# 6 0.000000 0.000000 0.000000 0.000964 0.000000 0.041118
#
#
# Mechanical properties :
#
#
# Convention : Reuss Voigt Hill
#
# Bulk Modulus (GPa) = 49.49268 60.01991 54.75629
# Shear Modulus (GPa) = 28.14383 31.06489 29.60436
#
# Velocity S-wave (km/s) = 3.68983 3.87659 3.78436
# Velocity P-wave (km/s) = 6.48812 7.00518 6.75160
#
# Compressibility (1/GPa) = 0.02020501
#
# Stress axis : x y z
#
# Youngs Moduli (GPa) = 46.27109 73.48359 84.30300
#
# Poissons Ratio (x) = 0.21627 0.42980
# Poissons Ratio (y) = 0.13618 0.45500
# Poissons Ratio (z) = 0.23591 0.39661
#
# Static dielectric constant tensor:
#      x y z
#    x 3.643660 0.000000 0.102340 
#    y 0.000000 3.828710 0.000000 
#    z 0.102340 0.000000 4.140920 
# 
# 
# High freq. dielectric constant tensor:
#      x y z
#    x 1.785790 0.000000 -0.001560 
#    y 0.000000 1.822460 0.000000 
#    z -0.001560 0.000000 1.827020 
# 
# From -- ./inp_files/137823.got.cif
#   From: 2010.06.25/outbox.cif.g09.slc.cpg/sg15_69_cif.got.tgz:137823.got - 2010.06.28 07:06:18.
