data_PCOD8139771
_publ_section_title
;
Structure prediction by ZEFSAII (Michael W. Deem and Ramdas Pophale) SiO2 
 PCOD8139771
Probable space group: C 2/C
;
_chemical_formula_sum "Si O2"
_cell_formula_units_Z 40
_cell_length_a 19.678660
_cell_length_b 15.736670
_cell_length_c 11.639126
_cell_angle_alpha 90.000000
_cell_angle_beta 146.550583
_cell_angle_gamma 90.000000
_cell_volume 1986.727932
_symmetry_space_group_name_H-M "C 2/C"
_symmetry_group_IT_number 15
_symmetry_cell_setting 'monoclinic'
loop_
_space_group_symop_operation_xyz
x,y,z
-x,y,1/2-z
-x,-y,-z
x,-y,1/2+z
1/2+x,1/2+y,z
1/2-x,1/2+y,1/2-z
1/2-x,1/2-y,-z
1/2+x,1/2-y,1/2+z
loop_
_atom_site_type_symbol
_atom_site_label
_atom_site_fract_x
_atom_site_fract_y
_atom_site_fract_z
Si Si1 0.157504 0.658916 0.693445
Si Si2 0.414027 0.242781 0.316717
Si Si3 0.769507 0.619383 0.952046
Si Si4 0.635525 0.220775 0.993398
Si Si5 0.625135 0.053669 0.862599
O O1 0.197210 0.610785 0.634849
O O2 0.274017 0.703778 0.919876
O O3 0.097170 0.590180 0.695103
O O4 0.061361 0.734960 0.528377
O O5 0.367033 0.339201 0.223069
O O6 0.358380 0.216627 0.360781
O O7 0.367634 0.178800 0.153936
O O8 0.778225 0.523792 0.013427
O O9 0.500000 0.238363 0.750000
O O10 0.685226 0.129951 0.020325
O O11 0.500000 0.022640 0.750000
#
# Coordination Sequence:
#
# PCOD8139771 Si02
#       5
#     8   8   8   8   8
#     4  11  21  38  64  81 118 161 195 235 299 355
#     4  10  20  40  57  82 120 156 186 240 294 362
#     4  10  24  36  58  90 119 147 198 245 297 339
#     4  10  21  37  60  86 115 152 198 243 291 350
#     4  11  21  35  59  90 114 145 201 249 283 335
#
# _framework density 20.133607000000001
#
# number of rings (size 3 to 8) (size 9 to 14) (size 15 to 20)
#    0.000    1.600    4.000    2.400    2.800    1.600 
#    0.000    1.000    0.000    0.000    0.000    0.000 
#    0.000    0.000    0.000    0.000    0.000    0.000 
#
# Total GULP energy -247886.598844 kJ/mol
# GULP energy per Si atom -12394.329942 kJ/mol
# Density = 2.008778 g / cm^3
# Si number density = 20.133607 Si / 1000 Ang^3
#
#
#
# Elastic Constant Matrix: (Units=GPa)
#
#
# Indices 1 2 3 4 5 6 
#
# 1 46.8845 27.5414 23.1960 0.0000 -4.7876 0.0000
# 2 27.5414 123.2028 62.1893 0.0000 9.8940 0.0000
# 3 23.1960 62.1893 99.8496 0.0000 5.7305 0.0000
# 4 0.0000 0.0000 0.0000 33.1524 0.0000 0.2723
# 5 -4.7876 9.8940 5.7305 0.0000 32.3775 0.0000
# 6 0.0000 0.0000 0.0000 0.2723 0.0000 13.9567
#
#
#
# Elastic Compliance Matrix: (Units=1/GPa)
#
#
# Indices 1 2 3 4 5 6 
#
# 1 0.026406 -0.004538 -0.003649 0.000000 0.005937 0.000000
# 2 -0.004538 0.012796 -0.006721 0.000000 -0.003392 0.000000
# 3 -0.003649 -0.006721 0.015115 0.000000 -0.001161 0.000000
# 4 0.000000 0.000000 0.000000 0.030169 0.000000 -0.000589
# 5 0.005937 -0.003392 -0.001161 0.000000 0.033005 0.000000
# 6 0.000000 0.000000 0.000000 -0.000589 0.000000 0.071662
#
#
# Mechanical properties :
#
#
# Convention : Reuss Voigt Hill
#
# Bulk Modulus (GPa) = 40.81243 55.08782 47.95012
# Shear Modulus (GPa) = 22.01322 26.36467 24.18894
#
# Velocity S-wave (km/s) = 3.31018 3.62261 3.46991
# Velocity P-wave (km/s) = 5.90970 6.70211 6.31834
#
# Compressibility (1/GPa) = 0.02450234
#
# Stress axis : x y z
#
# Youngs Moduli (GPa) = 37.86979 78.14915 66.15813
#
# Poissons Ratio (x) = 0.35464 0.24139
# Poissons Ratio (y) = 0.17185 0.44464
# Poissons Ratio (z) = 0.13818 0.52523
#
# Static dielectric constant tensor:
#      x y z
#    x 3.738120 0.000000 -0.118230 
#    y 0.000000 3.583790 0.000000 
#    z -0.118230 0.000000 3.726050 
# 
# 
# High freq. dielectric constant tensor:
#      x y z
#    x 1.790590 0.000000 -0.023110 
#    y 0.000000 1.768670 0.000000 
#    z -0.023110 0.000000 1.779550 
# 
# From -- ./inp_files/86664.got.cif
#   From: 2010.06.25/outbox.cif.g09.slc.cpg/sg15_44_cif.got.tgz:86664.got - 2010.06.28 07:06:18.
