data_PCOD8139646
_publ_section_title
;
Structure prediction by ZEFSAII (Michael W. Deem and Ramdas Pophale) SiO2 
 PCOD8139646
Probable space group: C 2/C
;
_chemical_formula_sum "Si O2"
_cell_formula_units_Z 56
_cell_length_a 18.023622
_cell_length_b 14.247634
_cell_length_c 19.946877
_cell_angle_alpha 90.000000
_cell_angle_beta 30.935026
_cell_angle_gamma 90.000000
_cell_volume 2633.166761
_symmetry_space_group_name_H-M "C 2/C"
_symmetry_group_IT_number 15
_symmetry_cell_setting 'monoclinic'
loop_
_space_group_symop_operation_xyz
x,y,z
-x,y,1/2-z
-x,-y,-z
x,-y,1/2+z
1/2+x,1/2+y,z
1/2-x,1/2+y,1/2-z
1/2-x,1/2-y,-z
1/2+x,1/2-y,1/2+z
loop_
_atom_site_type_symbol
_atom_site_label
_atom_site_fract_x
_atom_site_fract_y
_atom_site_fract_z
Si Si1 0.708567 0.711187 0.959830
Si Si2 0.084011 0.835786 0.090796
Si Si3 0.664091 0.586987 0.334627
Si Si4 0.853382 0.555442 0.622218
Si Si5 0.625773 0.516709 0.988104
Si Si6 0.278263 0.306058 0.375613
Si Si7 0.115868 0.728032 0.808221
O O1 0.715224 0.596933 0.957733
O O2 0.821304 0.742180 0.815107
O O3 0.750000 0.750000 0.000000
O O4 0.553512 0.752855 0.061787
O O5 0.180185 0.838617 0.082448
O O6 0.927917 0.785172 0.219941
O O7 0.174119 0.784744 0.961698
O O8 0.055102 0.944306 0.095252
O O9 0.733863 0.524375 0.222622
O O10 0.491754 0.573787 0.463936
O O11 0.719984 0.547585 0.363274
O O12 0.695420 0.697302 0.296817
O O13 0.817331 0.612752 0.583337
O O14 0.853900 0.624673 0.686365
O O15 0.000000 0.500000 0.500000
#
# Coordination Sequence:
#
# PCOD8139646 Si02
#       7
#     8   8   8   8   8   8   8
#     4  11  24  44  66  95 131 175 224 276 337 406
#     4  10  21  42  66  93 130 174 218 273 336 403
#     4  10  21  39  63  92 125 168 221 260 329 390
#     4  12  24  40  64  99 136 168 222 278 335 398
#     4  10  20  39  66  87 125 176 215 262 331 407
#     4  10  23  40  65  97 130 167 222 276 336 400
#     4  11  24  42  66  96 133 173 222 280 335 398
#
# _framework density 21.267167000000001
#
# number of rings (size 3 to 8) (size 9 to 14) (size 15 to 20)
#    0.000    1.429    2.857    2.143    0.000    5.714 
#    2.571    0.000    3.143    0.000    0.000    0.000 
#    0.000    0.000    0.000    0.000    0.000    0.000 
#
# Total GULP energy -347066.050411 kJ/mol
# GULP energy per Si atom -12395.216086 kJ/mol
# Density = 2.121876 g / cm^3
# Si number density = 21.267167 Si / 1000 Ang^3
#
#
#
# Elastic Constant Matrix: (Units=GPa)
#
#
# Indices 1 2 3 4 5 6 
#
# 1 76.1563 37.2585 34.9258 0.0004 4.4512 -0.0003
# 2 37.2585 127.4006 47.2087 0.0014 4.3334 -0.0011
# 3 34.9258 47.2087 103.3797 0.0022 10.0912 -0.0018
# 4 0.0004 0.0014 0.0022 36.0213 0.0009 0.2970
# 5 4.4512 4.3334 10.0912 0.0009 30.0066 0.0000
# 6 -0.0003 -0.0011 -0.0018 0.2970 0.0000 33.9823
#
#
#
# Elastic Compliance Matrix: (Units=1/GPa)
#
#
# Indices 1 2 3 4 5 6 
#
# 1 0.016660 -0.003356 -0.004034 0.000000 -0.000630 0.000000
# 2 -0.003356 0.010124 -0.003511 0.000000 0.000216 0.000000
# 3 -0.004034 -0.003511 0.012957 -0.000001 -0.003252 0.000001
# 4 0.000000 0.000000 -0.000001 0.027763 -0.000001 -0.000243
# 5 -0.000630 0.000216 -0.003252 -0.000001 0.034482 0.000000
# 6 0.000000 0.000000 0.000001 -0.000243 0.000000 0.029429
#
#
# Mechanical properties :
#
#
# Convention : Reuss Voigt Hill
#
# Bulk Modulus (GPa) = 55.74488 60.63586 58.19037
# Shear Modulus (GPa) = 31.40781 32.50495 31.95638
#
# Velocity S-wave (km/s) = 3.84711 3.91373 3.88056
# Velocity P-wave (km/s) = 6.78250 6.99974 6.89198
#
# Compressibility (1/GPa) = 0.01793887
#
# Stress axis : x y z
#
# Youngs Moduli (GPa) = 60.02518 98.77344 77.18057
#
# Poissons Ratio (x) = 0.33146 0.31138
# Poissons Ratio (y) = 0.20143 0.27095
# Poissons Ratio (z) = 0.24216 0.34676
#
# Static dielectric constant tensor:
#      x y z
#    x 3.337530 -0.000020 -1.208250 
#    y -0.000020 4.175200 0.000050 
#    z -1.208250 0.000050 -0.523410 
# 
# 
# High freq. dielectric constant tensor:
#      x y z
#    x 1.823090 0.000000 0.010950 
#    y 0.000000 1.843750 0.000000 
#    z 0.010950 0.000000 1.833930 
# 
# From -- ./inp_files/249225.got.cif
#   From: 2010.06.25/outbox.cif.g09.slc.cpg/sg15_125_cif.got.tgz:249225.got - 2010.06.28 07:06:18.
