data_PCOD8139540
_publ_section_title
;
Structure prediction by ZEFSAII (Michael W. Deem and Ramdas Pophale) SiO2 
 PCOD8139540
Probable space group: C 2/C
;
_chemical_formula_sum "Si O2"
_cell_formula_units_Z 28
_cell_length_a 14.281411
_cell_length_b 11.013936
_cell_length_c 7.757239
_cell_angle_alpha 90.000000
_cell_angle_beta 73.578420
_cell_angle_gamma 90.000000
_cell_volume 1170.397630
_symmetry_space_group_name_H-M "C 2/C"
_symmetry_group_IT_number 15
_symmetry_cell_setting 'monoclinic'
loop_
_space_group_symop_operation_xyz
x,y,z
-x,y,1/2-z
-x,-y,-z
x,-y,1/2+z
1/2+x,1/2+y,z
1/2-x,1/2+y,1/2-z
1/2-x,1/2-y,-z
1/2+x,1/2-y,1/2+z
loop_
_atom_site_type_symbol
_atom_site_label
_atom_site_fract_x
_atom_site_fract_y
_atom_site_fract_z
Si Si1 0.568543 0.916733 0.577533
Si Si2 0.837268 0.637296 0.801060
Si Si3 0.113385 0.856190 0.503709
Si Si4 0.500000 0.555030 0.750000
O O1 0.500000 0.841895 0.750000
O O2 0.633057 0.834952 0.414528
O O3 0.500000 0.000000 0.500000
O O4 0.639181 0.000675 0.655817
O O5 0.722026 0.648764 0.874451
O O6 0.899714 0.731483 0.883847
O O7 0.037450 0.859708 0.385066
O O8 0.090673 0.970343 0.640425
#
# Coordination Sequence:
#
# PCOD8139540 Si02
#       4
#     8   8   8   4
#     4   9  19  35  60  96 126 161 196 265 314 381
#     4  10  20  39  63  97 128 161 212 259 325 372
#     4  10  22  39  66  90 127 171 209 265 308 386
#     4  10  22  42  62  92 126 174 214 256 316 378
#
# _framework density 23.923494000000002
#
# number of rings (size 3 to 8) (size 9 to 14) (size 15 to 20)
#    0.000    2.286    0.000    1.714    6.000    0.000 
#    7.714    0.000    0.000   24.000    0.000    0.000 
#    0.000    0.000    0.000    0.000    0.000    0.000 
#
# Total GULP energy -173503.049871 kJ/mol
# GULP energy per Si atom -12393.074991 kJ/mol
# Density = 2.386904 g / cm^3
# Si number density = 23.923494 Si / 1000 Ang^3
#
#
#
# Elastic Constant Matrix: (Units=GPa)
#
#
# Indices 1 2 3 4 5 6 
#
# 1 74.1307 36.1780 53.9421 0.0000 -7.9363 0.0000
# 2 36.1780 82.0794 63.0352 0.0000 -1.6629 0.0000
# 3 53.9421 63.0352 236.6483 0.0000 -22.8175 0.0000
# 4 0.0000 0.0000 0.0000 10.5407 0.0000 0.9843
# 5 -7.9363 -1.6629 -22.8175 0.0000 40.2292 0.0000
# 6 0.0000 0.0000 0.0000 0.9843 0.0000 32.4834
#
#
#
# Elastic Compliance Matrix: (Units=1/GPa)
#
#
# Indices 1 2 3 4 5 6 
#
# 1 0.018491 -0.006316 -0.002333 0.000000 0.002063 0.000000
# 2 -0.006316 0.017595 -0.003488 0.000000 -0.002497 0.000000
# 3 -0.002333 -0.003488 0.005954 0.000000 0.002772 0.000000
# 4 0.000000 0.000000 0.000000 0.095140 0.000000 -0.002883
# 5 0.002063 -0.002497 0.002772 0.000000 0.026734 0.000000
# 6 0.000000 0.000000 0.000000 -0.002883 0.000000 0.030872
#
#
# Mechanical properties :
#
#
# Convention : Reuss Voigt Hill
#
# Bulk Modulus (GPa) = 56.29039 77.68546 66.98792
# Shear Modulus (GPa) = 22.22385 32.63086 27.42736
#
# Velocity S-wave (km/s) = 3.05118 3.69720 3.38962
# Velocity P-wave (km/s) = 5.99945 7.12521 6.58643
#
# Compressibility (1/GPa) = 0.01776502
#
# Stress axis : x y z
#
# Youngs Moduli (GPa) = 54.07983 56.83307 167.95615
#
# Poissons Ratio (x) = 0.35898 0.39192
# Poissons Ratio (y) = 0.34159 0.58580
# Poissons Ratio (z) = 0.12619 0.19822
#
# Static dielectric constant tensor:
#      x y z
#    x 3.979540 0.000000 -0.165760 
#    y 0.000000 3.430220 0.000000 
#    z -0.165760 0.000000 5.431120 
# 
# 
# High freq. dielectric constant tensor:
#      x y z
#    x 1.938710 0.000000 -0.008940 
#    y 0.000000 1.922850 0.000000 
#    z -0.008940 0.000000 1.980460 
# 
# From -- ./inp_files/36400.got.cif
#   From: 2010.06.25/outbox.cif.g09.slc.cpg/sg15_19_cif.got.tgz:36400.got - 2010.06.28 07:06:18.
