data_PCOD8139779
_publ_section_title
;
Structure prediction by ZEFSAII (Michael W. Deem and Ramdas Pophale) SiO2 
 PCOD8139779
Probable space group: C 2/C
;
_chemical_formula_sum "Si O2"
_cell_formula_units_Z 60
_cell_length_a 16.093430
_cell_length_b 25.341142
_cell_length_c 9.450183
_cell_angle_alpha 90.000000
_cell_angle_beta 130.617726
_cell_angle_gamma 90.000000
_cell_volume 2925.477805
_symmetry_space_group_name_H-M "C 2/C"
_symmetry_group_IT_number 15
_symmetry_cell_setting 'monoclinic'
loop_
_space_group_symop_operation_xyz
x,y,z
-x,y,1/2-z
-x,-y,-z
x,-y,1/2+z
1/2+x,1/2+y,z
1/2-x,1/2+y,1/2-z
1/2-x,1/2-y,-z
1/2+x,1/2-y,1/2+z
loop_
_atom_site_type_symbol
_atom_site_label
_atom_site_fract_x
_atom_site_fract_y
_atom_site_fract_z
Si Si1 0.694219 0.025940 0.025861
Si Si2 0.634198 0.892938 0.669110
Si Si3 0.344530 0.513512 0.939124
Si Si4 0.965860 0.879192 0.555567
Si Si5 0.661294 0.321160 0.301580
Si Si6 0.886897 0.297224 0.693573
Si Si7 0.500000 0.949758 0.750000
Si Si8 0.377236 0.598035 0.511369
O O1 0.638822 0.081553 0.017524
O O2 0.789787 0.003617 0.231332
O O3 0.748355 0.035334 0.934132
O O4 0.598590 0.984104 0.916659
O O5 0.626258 0.828876 0.671024
O O6 0.536240 0.915536 0.655585
O O7 0.747475 0.909226 0.865776
O O8 0.414158 0.462951 0.075349
O O9 0.430187 0.560160 0.012648
O O10 0.867819 0.840663 0.389894
O O11 0.000000 0.860423 0.750000
O O12 0.073534 0.875066 0.575406
O O13 0.790496 0.315687 0.478062
O O14 0.609067 0.264291 0.270567
O O15 0.596953 0.364798 0.325517
O O16 0.000000 0.314765 0.750000
#
# Coordination Sequence:
#
# PCOD8139779 Si02
#       8
#     8   8   8   8   8   8   4   8
#     4  11  22  38  56  86 124 162 200 254 304 372
#     4  10  21  34  60  87 120 150 201 256 306 358
#     4  11  23  37  59  87 126 160 210 244 302 378
#     4  12  24  37  60  89 129 168 196 247 320 371
#     4  10  23  40  67  93 118 159 212 262 301 361
#     4  10  20  40  68  94 115 152 216 267 301 345
#     4  12  20  38  58  86 120 164 194 248 316 362
#     4  10  20  40  58  88 121 161 211 254 298 356
#
# _framework density 20.50947
#
# number of rings (size 3 to 8) (size 9 to 14) (size 15 to 20)
#    0.000    1.333    3.333    4.400    1.867    1.067 
#    0.000    0.000    1.467   16.800    0.000    0.000 
#    0.000    0.000    0.000    0.000    0.000    0.000 
#
# Total GULP energy -371736.580108 kJ/mol
# GULP energy per Si atom -12391.219337 kJ/mol
# Density = 2.046279 g / cm^3
# Si number density = 20.509470 Si / 1000 Ang^3
#
#
#
# Elastic Constant Matrix: (Units=GPa)
#
#
# Indices 1 2 3 4 5 6 
#
# 1 86.6510 12.3500 24.7615 0.0000 -1.5124 0.0000
# 2 12.3500 121.9593 48.6669 0.0000 -0.9679 0.0000
# 3 24.7615 48.6669 78.7576 0.0000 -1.9266 0.0000
# 4 0.0000 0.0000 0.0000 12.9298 0.0000 -3.7013
# 5 -1.5124 -0.9679 -1.9266 0.0000 22.9446 0.0000
# 6 0.0000 0.0000 0.0000 -3.7013 0.0000 22.6252
#
#
#
# Elastic Compliance Matrix: (Units=1/GPa)
#
#
# Indices 1 2 3 4 5 6 
#
# 1 0.012701 0.000407 -0.004232 0.000000 0.000499 0.000000
# 2 0.000407 0.010896 -0.006863 0.000000 -0.000090 0.000000
# 3 -0.004232 -0.006863 0.018292 0.000000 0.000967 0.000000
# 4 0.000000 0.000000 0.000000 0.081140 0.000000 0.013274
# 5 0.000499 -0.000090 0.000967 0.000000 0.043694 0.000000
# 6 0.000000 0.000000 0.000000 0.013274 0.000000 0.046370
#
#
# Mechanical properties :
#
#
# Convention : Reuss Voigt Hill
#
# Bulk Modulus (GPa) = 48.75208 50.99162 49.87185
# Shear Modulus (GPa) = 20.72042 25.13924 22.92983
#
# Velocity S-wave (km/s) = 3.18195 3.50485 3.34730
# Velocity P-wave (km/s) = 6.10916 6.42613 6.26965
#
# Compressibility (1/GPa) = 0.02051194
#
# Stress axis : x y z
#
# Youngs Moduli (GPa) = 78.73583 91.77451 54.66731
#
# Poissons Ratio (x) = -0.03732 0.23136
# Poissons Ratio (y) = -0.03202 0.37519
# Poissons Ratio (z) = 0.33323 0.62987
#
# Static dielectric constant tensor:
#      x y z
#    x 3.895270 0.000000 0.040210 
#    y 0.000000 3.993840 0.000000 
#    z 0.040210 0.000000 3.661040 
# 
# 
# High freq. dielectric constant tensor:
#      x y z
#    x 1.812020 0.000000 0.016450 
#    y 0.000000 1.799270 0.000000 
#    z 0.016450 0.000000 1.781280 
# 
# From -- ./inp_files/52196.got.cif
#   From: 2010.06.25/outbox.cif.g09.slc.cpg/sg15_27_cif.got.tgz:52196.got - 2010.06.28 07:06:18.
