data_PCOD8139306
_publ_section_title
;
Structure prediction by ZEFSAII (Michael W. Deem and Ramdas Pophale) SiO2 
 PCOD8139306
Probable space group: C 2/C
;
_chemical_formula_sum "Si O2"
_cell_formula_units_Z 64
_cell_length_a 23.317566
_cell_length_b 8.332771
_cell_length_c 16.133910
_cell_angle_alpha 90.000000
_cell_angle_beta 90.383357
_cell_angle_gamma 90.000000
_cell_volume 3134.747540
_symmetry_space_group_name_H-M "C 2/C"
_symmetry_group_IT_number 15
_symmetry_cell_setting 'monoclinic'
loop_
_space_group_symop_operation_xyz
x,y,z
-x,y,1/2-z
-x,-y,-z
x,-y,1/2+z
1/2+x,1/2+y,z
1/2-x,1/2+y,1/2-z
1/2-x,1/2-y,-z
1/2+x,1/2-y,1/2+z
loop_
_atom_site_type_symbol
_atom_site_label
_atom_site_fract_x
_atom_site_fract_y
_atom_site_fract_z
Si Si1 0.133473 0.946238 0.266609
Si Si2 0.864336 0.434665 0.210404
Si Si3 0.886950 0.843777 0.007056
Si Si4 0.198561 0.286257 0.877119
Si Si5 0.590887 0.345618 0.900207
Si Si6 0.056333 0.320913 0.703646
Si Si7 0.493008 0.182955 0.476750
Si Si8 0.826559 0.794253 0.847193
O O1 0.179416 0.872945 0.329358
O O2 0.104454 0.813408 0.210174
O O3 0.083566 0.045057 0.316941
O O4 0.174400 0.054065 0.212151
O O5 0.818526 0.557549 0.174396
O O6 0.875331 0.310506 0.134229
O O7 0.922218 0.518809 0.247152
O O8 0.835284 0.361447 0.291461
O O9 0.880780 0.823514 0.908547
O O10 0.947437 0.774279 0.041312
O O11 0.836898 0.724010 0.038149
O O12 0.878537 0.031434 0.033818
O O13 0.266325 0.285156 0.895013
O O14 0.534675 0.281256 0.946658
O O15 0.045951 0.330605 0.605392
O O16 0.000000 0.262937 0.750000
O O17 0.500000 0.000000 0.500000
#
# Coordination Sequence:
#
# PCOD8139306 Si02
#       8
#     8   8   8   8   8   8   8   8
#     4   9  21  37  58  85 114 148 192 233 280 338
#     4  10  22  38  60  85 112 146 193 235 279 339
#     4  11  23  38  57  85 117 151 189 231 282 341
#     4  10  20  39  59  81 114 151 188 238 285 325
#     4  10  21  39  58  83 118 149 181 231 287 341
#     4  11  21  38  59  84 115 151 188 233 282 338
#     4  12  23  38  59  84 116 152 185 231 288 339
#     4  11  21  37  59  85 112 150 194 236 278 331
#
# _framework density 20.416315999999998
#
# number of rings (size 3 to 8) (size 9 to 14) (size 15 to 20)
#    0.000    1.500    0.000    6.750    0.000    1.000 
#    0.000    5.625    0.000    0.000    0.000    0.000 
#    0.000    0.000    0.000    0.000    0.000    0.000 
#
# Total GULP energy -396422.485766 kJ/mol
# GULP energy per Si atom -12388.202680 kJ/mol
# Density = 2.036985 g / cm^3
# Si number density = 20.416316 Si / 1000 Ang^3
#
#
#
# Elastic Constant Matrix: (Units=GPa)
#
#
# Indices 1 2 3 4 5 6 
#
# 1 90.8913 31.2057 25.1864 0.0000 -7.7824 0.0000
# 2 31.2057 112.7722 35.3981 0.0000 -1.6051 0.0000
# 3 25.1864 35.3981 84.0780 0.0000 -1.3918 0.0000
# 4 0.0000 0.0000 0.0000 21.1390 0.0000 -4.2704
# 5 -7.7824 -1.6051 -1.3918 0.0000 37.6115 0.0000
# 6 0.0000 0.0000 0.0000 -4.2704 0.0000 18.1240
#
#
#
# Elastic Compliance Matrix: (Units=1/GPa)
#
#
# Indices 1 2 3 4 5 6 
#
# 1 0.012878 -0.002685 -0.002687 0.000000 0.002451 0.000000
# 2 -0.002685 0.010781 -0.003738 0.000000 -0.000234 0.000000
# 3 -0.002687 -0.003738 0.014269 0.000000 -0.000187 0.000000
# 4 0.000000 0.000000 0.000000 0.049670 0.000000 0.011703
# 5 0.002451 -0.000234 -0.000187 0.000000 0.027078 0.000000
# 6 0.000000 0.000000 0.000000 0.011703 0.000000 0.057933
#
#
# Mechanical properties :
#
#
# Convention : Reuss Voigt Hill
#
# Bulk Modulus (GPa) = 50.74172 52.36910 51.55541
# Shear Modulus (GPa) = 25.32933 28.43830 26.88382
#
# Velocity S-wave (km/s) = 3.52610 3.73623 3.63268
# Velocity P-wave (km/s) = 6.44091 6.65724 6.54997
#
# Compressibility (1/GPa) = 0.01970765
#
# Stress axis : x y z
#
# Youngs Moduli (GPa) = 77.64882 92.75928 70.08060
#
# Poissons Ratio (x) = 0.24910 0.18829
# Poissons Ratio (y) = 0.20852 0.26198
# Poissons Ratio (z) = 0.20862 0.34675
#
# Static dielectric constant tensor:
#      x y z
#    x 3.464650 0.000000 -0.105710 
#    y 0.000000 3.985430 0.000000 
#    z -0.105710 0.000000 3.874330 
# 
# 
# High freq. dielectric constant tensor:
#      x y z
#    x 1.775620 0.000000 -0.010130 
#    y 0.000000 1.811610 0.000000 
#    z -0.010130 0.000000 1.810630 
# 
# From -- ./inp_files/172403.got.cif
#   From: 2010.06.25/outbox.cif.g09.slc.cpg/sg15_87_cif.got.tgz:172403.got - 2010.06.28 07:06:18.
