data_PCOD8139427
_publ_section_title
;
Structure prediction by ZEFSAII (Michael W. Deem and Ramdas Pophale) SiO2 
 PCOD8139427
Probable space group: C 2/C
;
_chemical_formula_sum "Si O2"
_cell_formula_units_Z 52
_cell_length_a 8.436828
_cell_length_b 11.380988
_cell_length_c 26.293983
_cell_angle_alpha 90.000000
_cell_angle_beta 95.847961
_cell_angle_gamma 90.000000
_cell_volume 2511.594179
_symmetry_space_group_name_H-M "C 2/C"
_symmetry_group_IT_number 15
_symmetry_cell_setting 'monoclinic'
loop_
_space_group_symop_operation_xyz
x,y,z
-x,y,1/2-z
-x,-y,-z
x,-y,1/2+z
1/2+x,1/2+y,z
1/2-x,1/2+y,1/2-z
1/2-x,1/2-y,-z
1/2+x,1/2-y,1/2+z
loop_
_atom_site_type_symbol
_atom_site_label
_atom_site_fract_x
_atom_site_fract_y
_atom_site_fract_z
Si Si1 0.000000 0.637434 0.750000
Si Si2 0.969128 0.820483 0.836719
Si Si3 0.278670 0.452950 0.319090
Si Si4 0.046061 0.265803 0.959230
Si Si5 0.547961 0.976403 0.896230
Si Si6 0.332991 0.781601 0.864669
Si Si7 0.366500 0.198278 0.929832
O O1 0.942473 0.718504 0.794679
O O2 0.853118 0.553156 0.729766
O O3 0.869077 0.792900 0.884279
O O4 0.153586 0.828874 0.857512
O O5 0.905092 0.944082 0.811833
O O6 0.363531 0.325248 0.326107
O O7 0.194880 0.468084 0.371172
O O8 0.185970 0.179471 0.943589
O O9 0.104362 0.399447 0.946679
O O10 0.880658 0.238420 0.923983
O O11 0.025205 0.255785 0.019220
O O12 0.449596 0.890031 0.854258
O O13 0.429961 0.076297 0.911257
#
# Coordination Sequence:
#
# PCOD8139427 Si02
#       7
#     4   8   8   8   8   8   8
#     4  10  24  42  60  90 116 156 208 262 314 372
#     4  11  22  42  63  89 123 161 205 263 311 362
#     4  11  22  44  65  87 123 159 205 262 313 367
#     4   9  22  36  59  99 126 166 208 237 313 375
#     4  10  20  39  62  86 128 164 199 252 304 355
#     4   9  22  37  60  95 122 157 207 244 304 374
#     4  11  19  39  64  89 130 169 204 251 302 371
#
# _framework density 20.703982
#
# number of rings (size 3 to 8) (size 9 to 14) (size 15 to 20)
#    0.923    0.923    4.615    0.462    2.154    3.077 
#    0.000    0.769    0.000    0.000    0.000    0.000 
#    0.000    0.000    0.000    0.000    0.000    0.000 
#
# Total GULP energy -322194.048499 kJ/mol
# GULP energy per Si atom -12392.078788 kJ/mol
# Density = 2.065686 g / cm^3
# Si number density = 20.703982 Si / 1000 Ang^3
#
#
#
# Elastic Constant Matrix: (Units=GPa)
#
#
# Indices 1 2 3 4 5 6 
#
# 1 63.0901 29.8122 25.6515 0.0000 19.0027 0.0000
# 2 29.8122 64.5009 9.0985 0.0000 11.7881 0.0000
# 3 25.6515 9.0985 95.2889 0.0000 26.8030 0.0000
# 4 0.0000 0.0000 0.0000 24.4158 0.0000 7.5940
# 5 19.0027 11.7881 26.8030 0.0000 37.3568 0.0000
# 6 0.0000 0.0000 0.0000 7.5940 0.0000 32.6765
#
#
#
# Elastic Compliance Matrix: (Units=1/GPa)
#
#
# Indices 1 2 3 4 5 6 
#
# 1 0.023657 -0.009231 -0.003660 0.000000 -0.006495 0.000000
# 2 -0.009231 0.020056 0.001290 0.000000 -0.002558 0.000000
# 3 -0.003660 0.001290 0.013715 0.000000 -0.008386 0.000000
# 4 0.000000 0.000000 0.000000 0.044148 0.000000 -0.010260
# 5 -0.006495 -0.002558 -0.008386 0.000000 0.036897 0.000000
# 6 0.000000 0.000000 0.000000 -0.010260 0.000000 0.032988
#
#
# Mechanical properties :
#
#
# Convention : Reuss Voigt Hill
#
# Bulk Modulus (GPa) = 29.21834 39.11158 34.16496
# Shear Modulus (GPa) = 24.26351 29.44433 26.85392
#
# Velocity S-wave (km/s) = 3.42705 3.77524 3.60535
# Velocity P-wave (km/s) = 5.45918 6.15915 5.81970
#
# Compressibility (1/GPa) = 0.03422508
#
# Stress axis : x y z
#
# Youngs Moduli (GPa) = 42.27165 49.86103 72.91140
#
# Poissons Ratio (x) = 0.46025 0.26686
# Poissons Ratio (y) = 0.39020 -0.09402
# Poissons Ratio (z) = 0.15472 -0.06430
#
# Static dielectric constant tensor:
#      x y z
#    x 3.435510 0.000000 0.177440 
#    y 0.000000 3.718180 0.000000 
#    z 0.177440 0.000000 3.801620 
# 
# 
# High freq. dielectric constant tensor:
#      x y z
#    x 1.790010 0.000000 0.015570 
#    y 0.000000 1.808270 0.000000 
#    z 0.015570 0.000000 1.805910 
# 
# From -- ./inp_files/287758.got.cif
#   From: 2010.06.25/outbox.cif.g09.slc.cpg/sg15_144_cif.got.tgz:287758.got - 2010.06.28 07:06:18.
