data_PCOD8139787
_publ_section_title
;
Structure prediction by ZEFSAII (Michael W. Deem and Ramdas Pophale) SiO2 
 PCOD8139787
Probable space group: C 2/C
;
_chemical_formula_sum "Si O2"
_cell_formula_units_Z 36
_cell_length_a 4.868304
_cell_length_b 21.386247
_cell_length_c 14.832724
_cell_angle_alpha 90.000000
_cell_angle_beta 87.039589
_cell_angle_gamma 90.000000
_cell_volume 1542.244438
_symmetry_space_group_name_H-M "C 2/C"
_symmetry_group_IT_number 15
_symmetry_cell_setting 'monoclinic'
loop_
_space_group_symop_operation_xyz
x,y,z
-x,y,1/2-z
-x,-y,-z
x,-y,1/2+z
1/2+x,1/2+y,z
1/2-x,1/2+y,1/2-z
1/2-x,1/2-y,-z
1/2+x,1/2-y,1/2+z
loop_
_atom_site_type_symbol
_atom_site_label
_atom_site_fract_x
_atom_site_fract_y
_atom_site_fract_z
Si Si1 0.259466 0.517073 0.119415
Si Si2 0.514533 0.813316 0.920283
Si Si3 0.224363 0.558380 0.923445
Si Si4 0.000000 0.392117 0.750000
Si Si5 0.513393 0.675784 0.961890
O O1 0.575028 0.497790 0.109374
O O2 0.058205 0.455504 0.125960
O O3 0.234165 0.562022 0.206112
O O4 0.172193 0.556975 0.032292
O O5 0.608334 0.847614 0.827581
O O6 0.576492 0.739406 0.906711
O O7 0.192277 0.815866 0.949599
O O8 0.693622 0.844307 0.999125
O O9 0.378306 0.623816 0.897421
#
# Coordination Sequence:
#
# PCOD8139787 Si02
#       5
#     8   8   8   4   8
#     4  10  23  34  61  88 125 156 204 244 320 350
#     4  10  23  36  64  90 124 157 208 254 318 353
#     4  10  20  40  59  88 116 170 202 245 290 397
#     4  12  24  42  58 102 124 158 196 288 300 372
#     4  10  20  42  62  89 116 170 208 247 296 398
#
# _framework density 23.342600999999998
#
# number of rings (size 3 to 8) (size 9 to 14) (size 15 to 20)
#    0.000    1.778    2.222    1.333    6.222    3.556 
#    0.000    2.222    0.000    0.000    0.000    0.000 
#    0.000    0.000    0.000    0.000    0.000    0.000 
#
# Total GULP energy -223099.729363 kJ/mol
# GULP energy per Si atom -12394.429409 kJ/mol
# Density = 2.328947 g / cm^3
# Si number density = 23.342601 Si / 1000 Ang^3
#
#
#
# Elastic Constant Matrix: (Units=GPa)
#
#
# Indices 1 2 3 4 5 6 
#
# 1 76.0274 -3.2483 8.6275 0.0000 -4.7654 0.0000
# 2 -3.2483 105.5300 44.3557 0.0000 -0.2202 0.0000
# 3 8.6275 44.3557 94.9593 0.0000 -17.0719 0.0000
# 4 0.0000 0.0000 0.0000 52.9233 0.0000 0.3408
# 5 -4.7654 -0.2202 -17.0719 0.0000 20.6592 0.0000
# 6 0.0000 0.0000 0.0000 0.3408 0.0000 22.6411
#
#
#
# Elastic Compliance Matrix: (Units=1/GPa)
#
#
# Indices 1 2 3 4 5 6 
#
# 1 0.013471 0.000970 -0.001311 0.000000 0.002034 0.000000
# 2 0.000970 0.012356 -0.006807 0.000000 -0.005269 0.000000
# 3 -0.001311 -0.006807 0.016163 0.000000 0.012982 0.000000
# 4 0.000000 0.000000 0.000000 0.018897 0.000000 -0.000284
# 5 0.002034 -0.005269 0.012982 0.000000 0.059545 0.000000
# 6 0.000000 0.000000 0.000000 -0.000284 0.000000 0.044172
#
#
# Mechanical properties :
#
#
# Convention : Reuss Voigt Hill
#
# Bulk Modulus (GPa) = 36.10929 41.77627 38.94278
# Shear Modulus (GPa) = 26.57715 34.36353 30.47034
#
# Velocity S-wave (km/s) = 3.37793 3.84101 3.61689
# Velocity P-wave (km/s) = 5.54227 6.13245 5.84481
#
# Compressibility (1/GPa) = 0.02769371
#
# Stress axis : x y z
#
# Youngs Moduli (GPa) = 74.23412 80.93300 61.86832
#
# Poissons Ratio (x) = -0.07851 0.08113
# Poissons Ratio (y) = -0.07201 0.42113
# Poissons Ratio (z) = 0.09735 0.55091
#
# Static dielectric constant tensor:
#      x y z
#    x 4.099100 0.000000 -0.165450 
#    y 0.000000 4.499540 0.000000 
#    z -0.165450 0.000000 3.718490 
# 
# 
# High freq. dielectric constant tensor:
#      x y z
#    x 1.929800 0.000000 -0.014220 
#    y 0.000000 1.940130 0.000000 
#    z -0.014220 0.000000 1.863830 
# 
# From -- ./inp_files/128898.got.cif
#   From: 2010.06.25/outbox.cif.g09.slc.cpg/sg15_65_cif.got.tgz:128898.got - 2010.06.28 07:06:18.
