data_PCOD8139672
_publ_section_title
;
Structure prediction by ZEFSAII (Michael W. Deem and Ramdas Pophale) SiO2 
 PCOD8139672
Probable space group: C 2/C
;
_chemical_formula_sum "Si O2"
_cell_formula_units_Z 60
_cell_length_a 21.637767
_cell_length_b 8.028376
_cell_length_c 22.954714
_cell_angle_alpha 90.000000
_cell_angle_beta 42.655682
_cell_angle_gamma 90.000000
_cell_volume 2701.964683
_symmetry_space_group_name_H-M "C 2/C"
_symmetry_group_IT_number 15
_symmetry_cell_setting 'monoclinic'
loop_
_space_group_symop_operation_xyz
x,y,z
-x,y,1/2-z
-x,-y,-z
x,-y,1/2+z
1/2+x,1/2+y,z
1/2-x,1/2+y,1/2-z
1/2-x,1/2-y,-z
1/2+x,1/2-y,1/2+z
loop_
_atom_site_type_symbol
_atom_site_label
_atom_site_fract_x
_atom_site_fract_y
_atom_site_fract_z
Si Si1 0.000000 0.162434 0.750000
Si Si2 0.715702 0.345976 0.713253
Si Si3 0.064853 0.784371 0.983287
Si Si4 0.336309 0.418524 0.877124
Si Si5 0.507520 0.129086 0.357342
Si Si6 0.641987 0.145316 0.548301
Si Si7 0.877576 0.139938 0.551179
Si Si8 0.353251 0.927824 0.165332
O O1 0.964023 0.278506 0.722055
O O2 0.084752 0.054592 0.665376
O O3 0.662530 0.401188 0.693048
O O4 0.800858 0.225565 0.642830
O O5 0.644590 0.247457 0.802513
O O6 0.751194 0.506215 0.724026
O O7 0.105686 0.613641 0.927235
O O8 0.135158 0.939999 0.935708
O O9 0.044065 0.757887 0.065388
O O10 0.976153 0.818719 0.007015
O O11 0.357088 0.237881 0.890188
O O12 0.234404 0.463985 0.971811
O O13 0.443124 0.974599 0.388298
O O14 0.594909 0.065036 0.332472
O O15 0.630044 0.290882 0.508987
#
# Coordination Sequence:
#
# PCOD8139672 Si02
#       8
#     4   8   8   8   8   8   8   8
#     4  12  30  44  68 102 142 180 224 290 340 414
#     4  11  25  42  65  99 137 172 223 281 341 402
#     4  11  21  40  69  97 133 174 220 272 333 406
#     4  10  25  46  70  96 135 183 231 279 342 405
#     4  12  26  44  68 100 135 177 227 280 340 406
#     4  10  22  46  72  97 132 185 233 277 335 417
#     4  10  20  39  66  99 133 173 218 272 334 399
#     4  12  25  42  68 100 136 178 219 285 336 404
#
# _framework density 22.206064999999999
#
# number of rings (size 3 to 8) (size 9 to 14) (size 15 to 20)
#    0.000    1.067    2.667    3.600    5.600    2.667 
#    2.400    0.000    0.000    0.000    0.000    0.000 
#    0.000    0.000    0.000    0.000    0.000    0.000 
#
# Total GULP energy -371959.247919 kJ/mol
# GULP energy per Si atom -12398.641597 kJ/mol
# Density = 2.215552 g / cm^3
# Si number density = 22.206065 Si / 1000 Ang^3
#
#
#
# Elastic Constant Matrix: (Units=GPa)
#
#
# Indices 1 2 3 4 5 6 
#
# 1 89.7983 30.4735 20.0389 0.0016 11.6231 -0.0016
# 2 30.4735 81.0166 23.1878 0.0044 7.5697 -0.0056
# 3 20.0389 23.1878 67.7829 0.0004 14.2756 -0.0006
# 4 0.0016 0.0044 0.0004 42.9694 -0.0015 -0.4444
# 5 11.6231 7.5697 14.2756 -0.0015 26.6945 0.0008
# 6 -0.0016 -0.0056 -0.0006 -0.4444 0.0008 38.4692
#
#
#
# Elastic Compliance Matrix: (Units=1/GPa)
#
#
# Indices 1 2 3 4 5 6 
#
# 1 0.013435 -0.004205 -0.001750 0.000000 -0.003722 0.000000
# 2 -0.004205 0.015056 -0.003825 -0.000001 -0.000393 0.000002
# 3 -0.001750 -0.003825 0.018245 0.000000 -0.007910 0.000000
# 4 0.000000 -0.000001 0.000000 0.023275 0.000002 0.000269
# 5 -0.003722 -0.000393 -0.007910 0.000002 0.043423 -0.000001
# 6 0.000000 0.000002 0.000000 0.000269 -0.000001 0.025998
#
#
# Mechanical properties :
#
#
# Convention : Reuss Voigt Hill
#
# Bulk Modulus (GPa) = 36.79499 42.88871 39.84185
# Shear Modulus (GPa) = 29.75306 32.61980 31.18643
#
# Velocity S-wave (km/s) = 3.66438 3.83686 3.75161
# Velocity P-wave (km/s) = 5.87447 6.24376 6.06193
#
# Compressibility (1/GPa) = 0.02717761
#
# Stress axis : x y z
#
# Youngs Moduli (GPa) = 74.43118 66.41776 54.81080
#
# Poissons Ratio (x) = 0.27929 0.09589
# Poissons Ratio (y) = 0.31299 0.20963
# Poissons Ratio (z) = 0.13022 0.25402
#
# Static dielectric constant tensor:
#      x y z
#    x 4.095390 0.000000 0.080000 
#    y 0.000000 4.082550 0.000000 
#    z 0.080000 0.000000 3.930300 
# 
# 
# High freq. dielectric constant tensor:
#      x y z
#    x 1.882420 0.000000 0.009560 
#    y 0.000000 1.872660 0.000000 
#    z 0.009560 0.000000 1.869650 
# 
# From -- ./inp_files/252088.got.cif
#   From: 2010.06.25/outbox.cif.g09.slc.cpg/sg15_127_cif.got.tgz:252088.got - 2010.06.28 07:06:18.
