data_PCOD8139285
_publ_section_title
;
Structure prediction by ZEFSAII (Michael W. Deem and Ramdas Pophale) SiO2 
 PCOD8139285
Probable space group: C 2/C
;
_chemical_formula_sum "Si O2"
_cell_formula_units_Z 40
_cell_length_a 13.464028
_cell_length_b 5.149332
_cell_length_c 29.799729
_cell_angle_alpha 90.000000
_cell_angle_beta 79.915381
_cell_angle_gamma 90.000000
_cell_volume 2034.117745
_symmetry_space_group_name_H-M "C 2/C"
_symmetry_group_IT_number 15
_symmetry_cell_setting 'monoclinic'
loop_
_space_group_symop_operation_xyz
x,y,z
-x,y,1/2-z
-x,-y,-z
x,-y,1/2+z
1/2+x,1/2+y,z
1/2-x,1/2+y,1/2-z
1/2-x,1/2-y,-z
1/2+x,1/2-y,1/2+z
loop_
_atom_site_type_symbol
_atom_site_label
_atom_site_fract_x
_atom_site_fract_y
_atom_site_fract_z
Si Si1 0.389218 0.667116 0.259137
Si Si2 0.887936 0.489181 0.988710
Si Si3 0.785866 0.060615 0.688422
Si Si4 0.217602 0.947825 0.153790
Si Si5 0.684109 0.484612 0.554712
O O1 0.500000 0.787809 0.250000
O O2 0.310059 0.905969 0.269648
O O3 0.378387 0.510482 0.213193
O O4 0.373271 0.474352 0.302928
O O5 0.874206 0.214723 0.965604
O O6 0.871071 0.718374 0.954337
O O7 0.803639 0.519133 0.034233
O O8 0.000000 0.500000 0.000000
O O9 0.800877 0.325947 0.658625
O O10 0.768431 0.832905 0.653697
O O11 0.171053 0.982588 0.108611
#
# Coordination Sequence:
#
# PCOD8139285 Si02
#       5
#     8   8   8   8   8
#     4  10  21  39  59  79 116 157 187 231 288 328
#     4  10  21  40  62  84 116 153 181 231 295 347
#     4  10  20  39  54  81 118 148 192 232 278 330
#     4  10  20  39  57  84 118 146 191 243 269 334
#     4  10  21  39  60  86 118 146 188 238 281 334
#
# _framework density 19.664545
#
# number of rings (size 3 to 8) (size 9 to 14) (size 15 to 20)
#    1.200    0.800    2.000    1.800    0.000    0.800 
#    7.200    0.000    0.000    0.000    0.000    0.000 
#    0.000    0.000    0.000    0.000    0.000    0.000 
#
# Total GULP energy -247861.485921 kJ/mol
# GULP energy per Si atom -12393.074296 kJ/mol
# Density = 1.961979 g / cm^3
# Si number density = 19.664545 Si / 1000 Ang^3
#
#
#
# Elastic Constant Matrix: (Units=GPa)
#
#
# Indices 1 2 3 4 5 6 
#
# 1 119.1263 15.2120 17.9392 0.0005 11.6942 0.0004
# 2 15.2120 89.1539 -4.9808 0.0018 -2.0287 0.0011
# 3 17.9392 -4.9808 65.8518 0.0007 18.0969 0.0002
# 4 0.0005 0.0018 0.0007 22.7846 0.0004 5.9239
# 5 11.6942 -2.0287 18.0969 0.0004 14.3195 0.0002
# 6 0.0004 0.0011 0.0002 5.9239 0.0002 19.2892
#
#
#
# Elastic Compliance Matrix: (Units=1/GPa)
#
#
# Indices 1 2 3 4 5 6 
#
# 1 0.009428 -0.001811 -0.000795 0.000000 -0.006951 0.000000
# 2 -0.001811 0.011618 0.000786 -0.000001 0.002131 0.000000
# 3 -0.000795 0.000786 0.023369 0.000000 -0.028773 0.000000
# 4 0.000000 -0.000001 0.000000 0.047698 -0.000001 -0.014648
# 5 -0.006951 0.002131 -0.028773 -0.000001 0.112176 -0.000001
# 6 0.000000 0.000000 0.000000 -0.014648 -0.000001 0.056341
#
#
# Mechanical properties :
#
#
# Convention : Reuss Voigt Hill
#
# Bulk Modulus (GPa) = 24.52476 36.71919 30.62198
# Shear Modulus (GPa) = 17.99464 27.67611 22.83537
#
# Velocity S-wave (km/s) = 3.02831 3.75562 3.41140
# Velocity P-wave (km/s) = 4.97254 6.12532 5.57879
#
# Compressibility (1/GPa) = 0.04077511
#
# Stress axis : x y z
#
# Youngs Moduli (GPa) = 106.06883 86.07304 42.79224
#
# Poissons Ratio (x) = 0.15590 0.03402
# Poissons Ratio (y) = 0.19211 -0.03366
# Poissons Ratio (z) = 0.08433 -0.06770
#
# Static dielectric constant tensor:
#      x y z
#    x 3.226510 0.000000 0.062310 
#    y 0.000000 3.652990 0.000000 
#    z 0.062310 0.000000 3.389100 
# 
# 
# High freq. dielectric constant tensor:
#      x y z
#    x 1.738600 0.000000 0.021980 
#    y 0.000000 1.778700 0.000000 
#    z 0.021980 0.000000 1.755740 
# 
# From -- ./inp_files/309300.got.cif
#   From: 2010.06.25/outbox.cif.g09.slc.cpg/sg15_155_cif.got.tgz:309300.got - 2010.06.28 07:06:18.
