data_PCOD8139442
_publ_section_title
;
Structure prediction by ZEFSAII (Michael W. Deem and Ramdas Pophale) SiO2 
 PCOD8139442
Probable space group: C 2/C
;
_chemical_formula_sum "Si O2"
_cell_formula_units_Z 64
_cell_length_a 12.310857
_cell_length_b 14.587979
_cell_length_c 29.280001
_cell_angle_alpha 90.000000
_cell_angle_beta 140.789218
_cell_angle_gamma 90.000000
_cell_volume 3324.236427
_symmetry_space_group_name_H-M "C 2/C"
_symmetry_group_IT_number 15
_symmetry_cell_setting 'monoclinic'
loop_
_space_group_symop_operation_xyz
x,y,z
-x,y,1/2-z
-x,-y,-z
x,-y,1/2+z
1/2+x,1/2+y,z
1/2-x,1/2+y,1/2-z
1/2-x,1/2-y,-z
1/2+x,1/2-y,1/2+z
loop_
_atom_site_type_symbol
_atom_site_label
_atom_site_fract_x
_atom_site_fract_y
_atom_site_fract_z
Si Si1 0.698389 0.108946 0.913804
Si Si2 0.035295 0.898732 0.077283
Si Si3 0.168452 0.410015 0.939212
Si Si4 0.453518 0.255961 0.337130
Si Si5 0.120541 0.732323 0.671005
Si Si6 0.846240 0.858761 0.169853
Si Si7 0.069863 0.097904 0.428140
Si Si8 0.812828 0.516965 0.955913
O O1 0.793393 0.115035 0.896224
O O2 0.538777 0.177733 0.859471
O O3 0.629227 0.006464 0.901732
O O4 0.833213 0.140321 0.996453
O O5 0.040500 0.834065 0.122894
O O6 0.028889 0.004200 0.091473
O O7 0.863860 0.877100 0.990659
O O8 0.016682 0.340844 0.877513
O O9 0.176152 0.417417 0.996596
O O10 0.259462 0.249979 0.255756
O O11 0.581112 0.275108 0.336602
O O12 0.192042 0.675335 0.651474
O O13 0.066463 0.831545 0.635568
O O14 0.788450 0.939452 0.118633
O O15 0.000000 0.900425 0.250000
O O16 0.215538 0.077028 0.437410
O O17 0.000000 0.500000 0.000000
#
# Coordination Sequence:
#
# PCOD8139442 Si02
#       8
#     8   8   8   8   8   8   8   8
#     4  10  22  40  62  92 118 156 196 255 306 349
#     4  10  21  39  65  86 123 151 200 255 298 354
#     4  10  21  38  64  92 116 154 210 249 295 362
#     4  11  23  40  59  90 119 164 200 245 302 356
#     4  11  25  39  59  88 127 158 201 244 304 362
#     4  10  21  39  60  83 122 162 201 244 297 359
#     4  10  21  40  61  92 118 156 203 249 297 361
#     4  10  20  39  62  90 118 156 205 250 302 352
#
# _framework density 19.252541999999998
#
# number of rings (size 3 to 8) (size 9 to 14) (size 15 to 20)
#    0.000    2.000    2.500    3.750    3.500    2.500 
#    2.250    0.000    0.000    0.000    0.000    0.000 
#    0.000    0.000    0.000    0.000    0.000    0.000 
#
# Total GULP energy -396751.987296 kJ/mol
# GULP energy per Si atom -12398.499603 kJ/mol
# Density = 1.920872 g / cm^3
# Si number density = 19.252542 Si / 1000 Ang^3
#
#
#
# Elastic Constant Matrix: (Units=GPa)
#
#
# Indices 1 2 3 4 5 6 
#
# 1 127.5302 37.7886 36.3957 0.0000 11.5207 0.0000
# 2 37.7886 75.2983 63.1317 0.0000 9.5975 0.0000
# 3 36.3957 63.1317 114.3030 0.0000 5.3104 0.0000
# 4 0.0000 0.0000 0.0000 16.8628 0.0000 4.5028
# 5 11.5207 9.5975 5.3104 0.0000 27.5778 0.0000
# 6 0.0000 0.0000 0.0000 4.5028 0.0000 14.2127
#
#
#
# Elastic Compliance Matrix: (Units=1/GPa)
#
#
# Indices 1 2 3 4 5 6 
#
# 1 0.009400 -0.003704 -0.000832 0.000000 -0.002478 0.000000
# 2 -0.003704 0.027230 -0.013614 0.000000 -0.005308 0.000000
# 3 -0.000832 -0.013614 0.016444 0.000000 0.001919 0.000000
# 4 0.000000 0.000000 0.000000 0.064782 0.000000 -0.020524
# 5 -0.002478 -0.005308 0.001919 0.000000 0.038774 0.000000
# 6 0.000000 0.000000 0.000000 -0.020524 0.000000 0.076862
#
#
# Mechanical properties :
#
#
# Convention : Reuss Voigt Hill
#
# Bulk Modulus (GPa) = 59.61615 65.75151 62.68383
# Shear Modulus (GPa) = 18.15661 23.71836 20.93749
#
# Velocity S-wave (km/s) = 3.07429 3.51374 3.30133
# Velocity P-wave (km/s) = 6.60562 7.11955 6.86740
#
# Compressibility (1/GPa) = 0.01677398
#
# Stress axis : x y z
#
# Youngs Moduli (GPa) = 106.38149 36.72467 60.81417
#
# Poissons Ratio (x) = 0.13602 0.05062
# Poissons Ratio (y) = 0.39402 0.82789
# Poissons Ratio (z) = 0.08854 0.49995
#
# Static dielectric constant tensor:
#      x y z
#    x 3.832570 0.000000 0.131270 
#    y 0.000000 3.467960 0.000000 
#    z 0.131270 0.000000 3.626360 
# 
# 
# High freq. dielectric constant tensor:
#      x y z
#    x 1.760130 0.000000 0.001870 
#    y 0.000000 1.736480 0.000000 
#    z 0.001870 0.000000 1.748430 
# 
# From -- ./inp_files/293078.got.cif
#   From: 2010.06.25/outbox.cif.g09.slc.cpg/sg15_147_cif.got.tgz:293078.got - 2010.06.28 07:06:18.
