data_PCOD8139260
_publ_section_title
;
Structure prediction by ZEFSAII (Michael W. Deem and Ramdas Pophale) SiO2 
 PCOD8139260
Probable space group: C 2/C
;
_chemical_formula_sum "Si O2"
_cell_formula_units_Z 60
_cell_length_a 23.584912
_cell_length_b 9.400934
_cell_length_c 18.138757
_cell_angle_alpha 90.000000
_cell_angle_beta 42.123974
_cell_angle_gamma 90.000000
_cell_volume 2697.522431
_symmetry_space_group_name_H-M "C 2/C"
_symmetry_group_IT_number 15
_symmetry_cell_setting 'monoclinic'
loop_
_space_group_symop_operation_xyz
x,y,z
-x,y,1/2-z
-x,-y,-z
x,-y,1/2+z
1/2+x,1/2+y,z
1/2-x,1/2+y,1/2-z
1/2-x,1/2-y,-z
1/2+x,1/2-y,1/2+z
loop_
_atom_site_type_symbol
_atom_site_label
_atom_site_fract_x
_atom_site_fract_y
_atom_site_fract_z
Si Si1 0.591735 0.280316 0.247667
Si Si2 0.244286 0.282896 0.311013
Si Si3 0.935186 0.159867 0.004967
Si Si4 0.601560 0.410000 0.705837
Si Si5 0.621870 0.175715 0.563713
Si Si6 0.972609 0.150591 0.443243
Si Si7 0.500000 0.953734 0.750000
Si Si8 0.246363 0.900801 0.669047
O O1 0.677360 0.248839 0.210245
O O2 0.509582 0.299897 0.377639
O O3 0.604141 0.420534 0.182641
O O4 0.571859 0.141389 0.219209
O O5 0.156293 0.221189 0.429352
O O6 0.264379 0.221269 0.211104
O O7 0.231581 0.450670 0.313360
O O8 0.927151 0.989640 0.017799
O O9 0.961706 0.214329 0.060779
O O10 0.634076 0.299372 0.613154
O O11 0.507381 0.370862 0.824659
O O12 0.648746 0.395627 0.739326
O O13 0.599023 0.234688 0.504021
O O14 0.711359 0.108998 0.453953
O O15 0.553384 0.055124 0.645760
#
# Coordination Sequence:
#
# PCOD8139260 Si02
#       8
#     8   8   8   8   8   8   4   8
#     4  10  25  43  68  99 134 180 223 274 343 400
#     4  11  24  46  68 101 137 174 225 286 334 399
#     4  10  21  41  72  98 131 169 229 277 333 394
#     4  10  21  44  65  95 131 178 227 267 324 419
#     4  12  24  42  66  96 133 178 223 272 339 402
#     4  10  20  38  69  99 124 171 224 274 330 395
#     4  12  26  44  64  98 142 170 222 284 336 402
#     4  11  25  42  66  99 136 173 225 278 339 394
#
# _framework density 22.242633999999999
#
# number of rings (size 3 to 8) (size 9 to 14) (size 15 to 20)
#    0.000    1.333    2.667    2.000    7.467    2.133 
#    2.400    4.667    0.000    0.000    0.000    0.000 
#    0.000    0.000    0.000    0.000    0.000    0.000 
#
# Total GULP energy -371720.474449 kJ/mol
# GULP energy per Si atom -12390.682482 kJ/mol
# Density = 2.219201 g / cm^3
# Si number density = 22.242634 Si / 1000 Ang^3
#
#
#
# Elastic Constant Matrix: (Units=GPa)
#
#
# Indices 1 2 3 4 5 6 
#
# 1 98.3006 59.0761 21.1205 -0.0005 -9.1901 0.0004
# 2 59.0761 132.3818 36.8826 -0.0021 11.0996 0.0015
# 3 21.1205 36.8826 95.1437 -0.0014 -4.7994 0.0009
# 4 -0.0005 -0.0021 -0.0014 28.0013 0.0010 2.4563
# 5 -9.1901 11.0996 -4.7994 0.0010 30.1168 -0.0007
# 6 0.0004 0.0015 0.0009 2.4563 -0.0007 32.5957
#
#
#
# Elastic Compliance Matrix: (Units=1/GPa)
#
#
# Indices 1 2 3 4 5 6 
#
# 1 0.015367 -0.007435 -0.000155 -0.000001 0.007405 0.000000
# 2 -0.007435 0.012489 -0.003566 0.000001 -0.007440 -0.000001
# 3 -0.000155 -0.003566 0.012088 0.000000 0.003193 0.000000
# 4 -0.000001 0.000001 0.000000 0.035950 -0.000002 -0.002709
# 5 0.007405 -0.007440 0.003193 -0.000002 0.038714 0.000001
# 6 0.000000 -0.000001 0.000000 -0.002709 0.000001 0.030883
#
#
# Mechanical properties :
#
#
# Convention : Reuss Voigt Hill
#
# Bulk Modulus (GPa) = 56.71865 62.22051 59.46958
# Shear Modulus (GPa) = 28.78809 32.05924 30.42366
#
# Velocity S-wave (km/s) = 3.60151 3.80062 3.70240
# Velocity P-wave (km/s) = 6.54598 6.87705 6.71356
#
# Compressibility (1/GPa) = 0.01763088
#
# Stress axis : x y z
#
# Youngs Moduli (GPa) = 65.07539 80.06889 82.72327
#
# Poissons Ratio (x) = 0.59531 0.01286
# Poissons Ratio (y) = 0.48384 0.29502
# Poissons Ratio (z) = 0.01012 0.28555
#
# Static dielectric constant tensor:
#      x y z
#    x 4.015560 0.000000 -0.212330 
#    y 0.000000 4.118910 0.000000 
#    z -0.212330 0.000000 3.882290 
# 
# 
# High freq. dielectric constant tensor:
#      x y z
#    x 1.882640 0.000000 -0.011070 
#    y 0.000000 1.872270 0.000000 
#    z -0.011070 0.000000 1.882320 
# 
# From -- ./inp_files/257195.got.cif
#   From: 2010.06.25/outbox.cif.g09.slc.cpg/sg15_129_cif.got.tgz:257195.got - 2010.06.28 07:06:18.
