data_PCOD8139145
_publ_section_title
;
Structure prediction by ZEFSAII (Michael W. Deem and Ramdas Pophale) SiO2 
 PCOD8139145
Probable space group: C 2/C
;
_chemical_formula_sum "Si O2"
_cell_formula_units_Z 40
_cell_length_a 16.226098
_cell_length_b 9.425904
_cell_length_c 15.235062
_cell_angle_alpha 90.000000
_cell_angle_beta 123.067550
_cell_angle_gamma 90.000000
_cell_volume 1952.719198
_symmetry_space_group_name_H-M "C 2/C"
_symmetry_group_IT_number 15
_symmetry_cell_setting 'monoclinic'
loop_
_space_group_symop_operation_xyz
x,y,z
-x,y,1/2-z
-x,-y,-z
x,-y,1/2+z
1/2+x,1/2+y,z
1/2-x,1/2+y,1/2-z
1/2-x,1/2-y,-z
1/2+x,1/2-y,1/2+z
loop_
_atom_site_type_symbol
_atom_site_label
_atom_site_fract_x
_atom_site_fract_y
_atom_site_fract_z
Si Si1 0.595227 0.455344 0.107416
Si Si2 0.803505 0.547454 0.654322
Si Si3 0.939845 0.787148 0.799370
Si Si4 0.586218 0.064398 0.957343
Si Si5 0.089238 0.362353 0.648301
O O1 0.686339 0.449120 0.093227
O O2 0.611765 0.576950 0.188682
O O3 0.582710 0.306759 0.149612
O O4 0.500000 0.500000 0.000000
O O5 0.848878 0.686457 0.724475
O O6 0.829106 0.548143 0.566069
O O7 0.846550 0.411797 0.731209
O O8 0.000000 0.837596 0.750000
O O9 0.016775 0.703164 0.906100
O O10 0.521275 0.922860 0.910110
O O11 0.635103 0.080638 0.082132
#
# Coordination Sequence:
#
# PCOD8139145 Si02
#       5
#     8   8   8   8   8
#     4  12  23  38  57  92 125 148 192 256 296 335
#     4  10  22  40  64  85 116 161 204 232 291 361
#     4   9  19  39  61  85 117 156 197 240 292 352
#     4   9  19  40  65  86 112 160 201 235 288 363
#     4  10  20  38  66  86 118 155 198 243 295 345
#
# _framework density 20.484255000000001
#
# number of rings (size 3 to 8) (size 9 to 14) (size 15 to 20)
#    0.000    2.000    2.000    3.000    0.000    2.400 
#    3.600    1.000    0.000    0.000    0.000    0.000 
#    0.000    0.000    0.000    0.000    0.000    0.000 
#
# Total GULP energy -247995.646577 kJ/mol
# GULP energy per Si atom -12399.782329 kJ/mol
# Density = 2.043763 g / cm^3
# Si number density = 20.484255 Si / 1000 Ang^3
#
#
#
# Elastic Constant Matrix: (Units=GPa)
#
#
# Indices 1 2 3 4 5 6 
#
# 1 133.2490 54.0850 22.7911 0.0000 -2.2746 0.0000
# 2 54.0850 138.8633 10.7278 0.0000 -9.5611 0.0000
# 3 22.7911 10.7278 48.9663 0.0000 -5.4925 0.0000
# 4 0.0000 0.0000 0.0000 10.1600 0.0000 -4.5682
# 5 -2.2746 -9.5611 -5.4925 0.0000 30.5708 0.0000
# 6 0.0000 0.0000 0.0000 -4.5682 0.0000 20.5657
#
#
#
# Elastic Compliance Matrix: (Units=1/GPa)
#
#
# Indices 1 2 3 4 5 6 
#
# 1 0.009558 -0.003503 -0.003801 0.000000 -0.001067 0.000000
# 2 -0.003503 0.008736 -0.000007 0.000000 0.002470 0.000000
# 3 -0.003801 -0.000007 0.022617 0.000000 0.003779 0.000000
# 4 0.000000 0.000000 0.000000 0.109345 0.000000 0.024289
# 5 -0.001067 0.002470 0.003779 0.000000 0.034083 0.000000
# 6 0.000000 0.000000 0.000000 0.024289 0.000000 0.054020
#
#
# Mechanical properties :
#
#
# Convention : Reuss Voigt Hill
#
# Bulk Modulus (GPa) = 38.03671 55.14293 46.58982
# Shear Modulus (GPa) = 19.10263 27.82429 23.46346
#
# Velocity S-wave (km/s) = 3.05708 3.68955 3.38810
# Velocity P-wave (km/s) = 5.57405 6.71777 6.17246
#
# Compressibility (1/GPa) = 0.02629039
#
# Stress axis : x y z
#
# Youngs Moduli (GPa) = 104.61989 114.46675 44.21502
#
# Poissons Ratio (x) = 0.40094 0.16807
# Poissons Ratio (y) = 0.36645 0.00029
# Poissons Ratio (z) = 0.39769 0.00075
#
# Static dielectric constant tensor:
#      x y z
#    x 3.721920 0.000000 -0.218100 
#    y 0.000000 3.898710 0.000000 
#    z -0.218100 0.000000 3.650080 
# 
# 
# High freq. dielectric constant tensor:
#      x y z
#    x 1.796340 0.000000 -0.010540 
#    y 0.000000 1.802820 0.000000 
#    z -0.010540 0.000000 1.792250 
# 
# From -- ./inp_files/150765.got.cif
#   From: 2010.06.25/outbox.cif.g09.slc.cpg/sg15_76_cif.got.tgz:150765.got - 2010.06.28 07:06:18.
