data_PCOD8139899
_publ_section_title
;
Structure prediction by ZEFSAII (Michael W. Deem and Ramdas Pophale) SiO2 
 PCOD8139899
Probable space group: C 2/C
;
_chemical_formula_sum "Si O2"
_cell_formula_units_Z 40
_cell_length_a 21.519018
_cell_length_b 14.272096
_cell_length_c 9.575853
_cell_angle_alpha 90.000000
_cell_angle_beta 136.648839
_cell_angle_gamma 90.000000
_cell_volume 2018.868023
_symmetry_space_group_name_H-M "C 2/C"
_symmetry_group_IT_number 15
_symmetry_cell_setting 'monoclinic'
loop_
_space_group_symop_operation_xyz
x,y,z
-x,y,1/2-z
-x,-y,-z
x,-y,1/2+z
1/2+x,1/2+y,z
1/2-x,1/2+y,1/2-z
1/2-x,1/2-y,-z
1/2+x,1/2-y,1/2+z
loop_
_atom_site_type_symbol
_atom_site_label
_atom_site_fract_x
_atom_site_fract_y
_atom_site_fract_z
Si Si1 0.084633 0.566224 0.120391
Si Si2 0.125342 0.935813 0.053588
Si Si3 0.514440 0.259481 0.933160
Si Si4 0.701659 0.987832 0.556860
Si Si5 0.874665 0.900179 0.761760
O O1 0.158680 0.543503 0.357819
O O2 0.125517 0.553742 0.032846
O O3 0.050349 0.672590 0.082052
O O4 0.000000 0.500000 0.000000
O O5 0.234281 0.938141 0.256170
O O6 0.081414 0.027737 0.054830
O O7 0.087503 0.842332 0.063496
O O8 0.099579 0.938544 0.849537
O O9 0.500000 0.226930 0.750000
O O10 0.419653 0.296942 0.847307
O O11 0.765011 0.901033 0.604214
#
# Coordination Sequence:
#
# PCOD8139899 Si02
#       5
#     8   8   8   8   8
#     4  12  24  42  59  84 122 163 200 246 305 356
#     4   9  18  37  64  89 120 154 199 244 303 350
#     4  10  21  38  61  91 122 158 196 248 299 364
#     4  10  20  40  63  85 118 158 201 245 294 356
#     4   9  18  38  62  93 117 154 198 248 297 354
#
# _framework density 19.813082999999999
#
# number of rings (size 3 to 8) (size 9 to 14) (size 15 to 20)
#    1.200    0.800    2.000    2.400    0.000    0.800 
#    3.600    7.000    0.000    0.000    0.000    0.000 
#    0.000    0.000    0.000    0.000    0.000    0.000 
#
# Total GULP energy -247835.713737 kJ/mol
# GULP energy per Si atom -12391.785687 kJ/mol
# Density = 1.976799 g / cm^3
# Si number density = 19.813083 Si / 1000 Ang^3
#
#
#
# Elastic Constant Matrix: (Units=GPa)
#
#
# Indices 1 2 3 4 5 6 
#
# 1 132.6448 60.9093 24.1772 0.0000 5.8490 0.0000
# 2 60.9093 117.7107 38.3539 0.0000 8.5189 0.0000
# 3 24.1772 38.3539 63.7168 0.0000 3.4806 0.0000
# 4 0.0000 0.0000 0.0000 24.8185 0.0000 6.2881
# 5 5.8490 8.5189 3.4806 0.0000 32.3769 0.0000
# 6 0.0000 0.0000 0.0000 6.2881 0.0000 18.5806
#
#
#
# Elastic Compliance Matrix: (Units=1/GPa)
#
#
# Indices 1 2 3 4 5 6 
#
# 1 0.009930 -0.004836 -0.000834 0.000000 -0.000432 0.000000
# 2 -0.004836 0.013068 -0.005926 0.000000 -0.001928 0.000000
# 3 -0.000834 -0.005926 0.019600 0.000000 -0.000397 0.000000
# 4 0.000000 0.000000 0.000000 0.044071 0.000000 -0.014915
# 5 -0.000432 -0.001928 -0.000397 0.000000 0.031514 0.000000
# 6 0.000000 0.000000 0.000000 -0.014915 0.000000 0.058867
#
#
# Mechanical properties :
#
#
# Convention : Reuss Voigt Hill
#
# Bulk Modulus (GPa) = 51.52686 62.32813 56.92750
# Shear Modulus (GPa) = 24.18843 27.86400 26.02622
#
# Velocity S-wave (km/s) = 3.49783 3.75419 3.62828
# Velocity P-wave (km/s) = 6.50969 7.09354 6.80788
#
# Compressibility (1/GPa) = 0.01940735
#
# Stress axis : x y z
#
# Youngs Moduli (GPa) = 100.70111 76.52315 51.02137
#
# Poissons Ratio (x) = 0.37003 0.04254
# Poissons Ratio (y) = 0.48694 0.30235
# Poissons Ratio (z) = 0.08396 0.45348
#
# Static dielectric constant tensor:
#      x y z
#    x 3.694950 0.000000 0.109190 
#    y 0.000000 3.394460 0.000000 
#    z 0.109190 0.000000 3.615820 
# 
# 
# High freq. dielectric constant tensor:
#      x y z
#    x 1.779410 0.000000 0.008340 
#    y 0.000000 1.747000 0.000000 
#    z 0.008340 0.000000 1.771830 
# 
# From -- ./inp_files/55499.got.cif
#   From: 2010.06.25/outbox.cif.g09.slc.cpg/sg15_28_cif.got.tgz:55499.got - 2010.06.28 07:06:18.
