data_PCOD8139299
_publ_section_title
;
Structure prediction by ZEFSAII (Michael W. Deem and Ramdas Pophale) SiO2 
 PCOD8139299
Probable space group: C 2/C
;
_chemical_formula_sum "Si O2"
_cell_formula_units_Z 56
_cell_length_a 9.151985
_cell_length_b 22.423688
_cell_length_c 18.340984
_cell_angle_alpha 90.000000
_cell_angle_beta 130.437158
_cell_angle_gamma 90.000000
_cell_volume 2864.816870
_symmetry_space_group_name_H-M "C 2/C"
_symmetry_group_IT_number 15
_symmetry_cell_setting 'monoclinic'
loop_
_space_group_symop_operation_xyz
x,y,z
-x,y,1/2-z
-x,-y,-z
x,-y,1/2+z
1/2+x,1/2+y,z
1/2-x,1/2+y,1/2-z
1/2-x,1/2-y,-z
1/2+x,1/2-y,1/2+z
loop_
_atom_site_type_symbol
_atom_site_label
_atom_site_fract_x
_atom_site_fract_y
_atom_site_fract_z
Si Si1 0.668552 0.979233 0.860642
Si Si2 0.100534 0.246437 0.710459
Si Si3 0.923061 0.926592 0.519147
Si Si4 0.500165 0.243377 0.892504
Si Si5 0.061510 0.818001 0.481615
Si Si6 0.778498 0.659138 0.448167
Si Si7 0.026981 0.638371 0.390216
O O1 0.500000 0.001820 0.750000
O O2 0.561094 0.927065 0.869698
O O3 0.744557 0.030592 0.939739
O O4 0.872605 0.957030 0.892267
O O5 0.323135 0.231309 0.783465
O O6 0.000000 0.219116 0.750000
O O7 0.032267 0.218169 0.613496
O O8 0.072072 0.318268 0.701243
O O9 0.860886 0.893744 0.572566
O O10 0.954328 0.880581 0.462332
O O11 0.656408 0.279990 0.895196
O O12 0.434793 0.279327 0.943628
O O13 0.578191 0.178058 0.939949
O O14 0.274949 0.830774 0.522688
O O15 0.888254 0.634539 0.414253
#
# Coordination Sequence:
#
# PCOD8139299 Si02
#       7
#     8   8   8   8   8   8   8
#     4  10  22  41  63  84 108 154 206 246 293 352
#     4  12  21  32  59  88 119 159 196 235 287 362
#     4   9  22  42  62  81 115 156 197 249 297 343
#     4  10  21  37  53  84 124 155 191 227 297 354
#     4  10  20  39  58  82 119 157 192 236 291 353
#     4  10  21  38  55  83 124 152 186 246 290 349
#     4  11  21  35  59  86 117 152 192 244 289 344
#
# _framework density 19.547495999999999
#
# number of rings (size 3 to 8) (size 9 to 14) (size 15 to 20)
#    0.000    1.714    2.857    1.714    4.000    2.286 
#    0.000    0.000    0.000    0.000    0.000    0.000 
#    0.000    0.000    0.000    0.000    0.000    0.000 
#
# Total GULP energy -346986.889367 kJ/mol
# GULP energy per Si atom -12392.388906 kJ/mol
# Density = 1.950301 g / cm^3
# Si number density = 19.547496 Si / 1000 Ang^3
#
#
#
# Elastic Constant Matrix: (Units=GPa)
#
#
# Indices 1 2 3 4 5 6 
#
# 1 99.4709 -4.7694 16.2391 0.0000 8.4134 0.0000
# 2 -4.7694 24.1213 -5.6835 0.0000 11.3416 0.0000
# 3 16.2391 -5.6835 80.4121 0.0000 26.3908 0.0000
# 4 0.0000 0.0000 0.0000 14.6435 0.0000 1.4842
# 5 8.4134 11.3416 26.3908 0.0000 19.2833 0.0000
# 6 0.0000 0.0000 0.0000 1.4842 0.0000 21.4209
#
#
#
# Elastic Compliance Matrix: (Units=1/GPa)
#
#
# Indices 1 2 3 4 5 6 
#
# 1 0.011405 0.011650 0.004361 0.000000 -0.017797 0.000000
# 2 0.011650 0.148910 0.070046 0.000000 -0.188529 0.000000
# 3 0.004361 0.070046 0.055645 0.000000 -0.119256 0.000000
# 4 0.000000 0.000000 0.000000 0.068773 0.000000 -0.004765
# 5 -0.017797 -0.188529 -0.119256 0.000000 0.333718 0.000000
# 6 0.000000 0.000000 0.000000 -0.004765 0.000000 0.047014
#
#
# Mechanical properties :
#
#
# Convention : Reuss Voigt Hill
#
# Bulk Modulus (GPa) = 2.57682 23.95297 13.26489
# Shear Modulus (GPa) = 8.02945 24.28408 16.15676
#
# Velocity S-wave (km/s) = 2.02894 3.52847 2.87808
# Velocity P-wave (km/s) = 2.60957 5.37405 4.22435
#
# Compressibility (1/GPa) = 0.38807564
#
# Stress axis : x y z
#
# Youngs Moduli (GPa) = 87.67993 6.71548 17.97101
#
# Poissons Ratio (x) = -0.07824 -0.07837
# Poissons Ratio (y) = -1.02151 -1.25880
# Poissons Ratio (z) = -0.38237 -0.47039
#
# Static dielectric constant tensor:
#      x y z
#    x 3.695930 0.000000 0.297910 
#    y 0.000000 3.597290 0.000000 
#    z 0.297910 0.000000 3.502360 
# 
# 
# High freq. dielectric constant tensor:
#      x y z
#    x 1.773930 0.000000 0.019530 
#    y 0.000000 1.746060 0.000000 
#    z 0.019530 0.000000 1.749860 
# 
# From -- ./inp_files/193312.got.cif
#   From: 2010.06.25/outbox.cif.g09.slc.cpg/sg15_97_cif.got.tgz:193312.got - 2010.06.28 07:06:18.
