data_PCOD8139250
_publ_section_title
;
Structure prediction by ZEFSAII (Michael W. Deem and Ramdas Pophale) SiO2 
 PCOD8139250
Probable space group: C 2/C
;
_chemical_formula_sum "Si O2"
_cell_formula_units_Z 56
_cell_length_a 9.379348
_cell_length_b 15.739001
_cell_length_c 18.623212
_cell_angle_alpha 90.000000
_cell_angle_beta 96.136571
_cell_angle_gamma 90.000000
_cell_volume 2733.434669
_symmetry_space_group_name_H-M "C 2/C"
_symmetry_group_IT_number 15
_symmetry_cell_setting 'monoclinic'
loop_
_space_group_symop_operation_xyz
x,y,z
-x,y,1/2-z
-x,-y,-z
x,-y,1/2+z
1/2+x,1/2+y,z
1/2-x,1/2+y,1/2-z
1/2-x,1/2-y,-z
1/2+x,1/2-y,1/2+z
loop_
_atom_site_type_symbol
_atom_site_label
_atom_site_fract_x
_atom_site_fract_y
_atom_site_fract_z
Si Si1 0.733049 0.551824 0.394627
Si Si2 0.843396 0.333357 0.017911
Si Si3 0.570271 0.387732 0.603672
Si Si4 0.681875 0.431519 0.133262
Si Si5 0.855329 0.441333 0.280501
Si Si6 0.391434 0.614418 0.557488
Si Si7 0.136001 0.704547 0.605222
O O1 0.840881 0.612370 0.444197
O O2 0.584268 0.599276 0.367573
O O3 0.804308 0.521821 0.324422
O O4 0.700537 0.471757 0.444028
O O5 0.750000 0.250000 0.000000
O O6 0.786525 0.389133 0.081174
O O7 0.006873 0.307595 0.041726
O O8 0.676605 0.466421 0.622118
O O9 0.541817 0.375677 0.517277
O O10 0.637551 0.300314 0.637053
O O11 0.736641 0.414263 0.216224
O O12 0.523520 0.390852 0.120140
O O13 0.883417 0.359167 0.330121
O O14 0.000000 0.470898 0.250000
O O15 0.287276 0.691841 0.572574
#
# Coordination Sequence:
#
# PCOD8139250 Si02
#       7
#     8   8   8   8   8   8   8
#     4  10  21  38  66  97 126 173 225 263 339 408
#     4  12  21  40  70 104 125 175 226 287 331 391
#     4  11  20  41  67 102 124 175 222 277 330 405
#     4  11  22  43  69  86 140 178 217 278 336 400
#     4  11  25  44  62  96 136 179 221 283 344 401
#     4  10  20  38  68  99 130 166 223 275 332 391
#     4  11  24  38  67  98 137 169 224 277 342 394
#
# _framework density 20.487044999999998
#
# number of rings (size 3 to 8) (size 9 to 14) (size 15 to 20)
#    0.000    1.143    5.714    1.286    0.000    8.571 
#    5.143    0.000    0.000    0.000    0.000    0.000 
#    0.000    0.000    0.000    0.000    0.000    0.000 
#
# Total GULP energy -347262.997330 kJ/mol
# GULP energy per Si atom -12402.249905 kJ/mol
# Density = 2.044042 g / cm^3
# Si number density = 20.487045 Si / 1000 Ang^3
#
#
#
# Elastic Constant Matrix: (Units=GPa)
#
#
# Indices 1 2 3 4 5 6 
#
# 1 114.3826 45.9592 43.6639 0.0000 -0.8995 0.0000
# 2 45.9592 117.1753 31.7654 0.0000 -1.6863 0.0000
# 3 43.6639 31.7654 108.4938 0.0000 3.2104 0.0000
# 4 0.0000 0.0000 0.0000 14.1376 0.0000 0.0260
# 5 -0.8995 -1.6863 3.2104 0.0000 40.4501 0.0000
# 6 0.0000 0.0000 0.0000 0.0260 0.0000 36.0815
#
#
#
# Elastic Compliance Matrix: (Units=1/GPa)
#
#
# Indices 1 2 3 4 5 6 
#
# 1 0.011553 -0.003543 -0.003624 0.000000 0.000397 0.000000
# 2 -0.003543 0.010371 -0.001625 0.000000 0.000483 0.000000
# 3 -0.003624 -0.001625 0.011182 0.000000 -0.001036 0.000000
# 4 0.000000 0.000000 0.000000 0.070733 0.000000 -0.000051
# 5 0.000397 0.000483 -0.001036 0.000000 0.024833 0.000000
# 6 0.000000 0.000000 0.000000 -0.000051 0.000000 0.027715
#
#
# Mechanical properties :
#
#
# Convention : Reuss Voigt Hill
#
# Bulk Modulus (GPa) = 64.42355 64.75875 64.59115
# Shear Modulus (GPa) = 27.91031 32.71140 30.31086
#
# Velocity S-wave (km/s) = 3.69499 4.00019 3.85062
# Velocity P-wave (km/s) = 7.05111 7.28104 7.16700
#
# Compressibility (1/GPa) = 0.01552228
#
# Stress axis : x y z
#
# Youngs Moduli (GPa) = 86.55986 96.41914 89.42995
#
# Poissons Ratio (x) = 0.34163 0.32408
# Poissons Ratio (y) = 0.30670 0.14532
# Poissons Ratio (z) = 0.31368 0.15667
#
# Static dielectric constant tensor:
#      x y z
#    x 3.793110 0.000000 -0.001280 
#    y 0.000000 3.911600 0.000000 
#    z -0.001280 0.000000 3.631140 
# 
# 
# High freq. dielectric constant tensor:
#      x y z
#    x 1.803850 0.000000 0.000480 
#    y 0.000000 1.805510 0.000000 
#    z 0.000480 0.000000 1.785670 
# 
# From -- ./inp_files/231585.got.cif
#   From: 2010.06.25/outbox.cif.g09.slc.cpg/sg15_116_cif.got.tgz:231585.got - 2010.06.28 07:06:18.
