data_PCOD8139812
_publ_section_title
;
Structure prediction by ZEFSAII (Michael W. Deem and Ramdas Pophale) SiO2 
 PCOD8139812
Probable space group: C 2/C
;
_chemical_formula_sum "Si O2"
_cell_formula_units_Z 44
_cell_length_a 10.366204
_cell_length_b 24.593453
_cell_length_c 7.934523
_cell_angle_alpha 90.000000
_cell_angle_beta 104.374462
_cell_angle_gamma 90.000000
_cell_volume 1959.506255
_symmetry_space_group_name_H-M "C 2/C"
_symmetry_group_IT_number 15
_symmetry_cell_setting 'monoclinic'
loop_
_space_group_symop_operation_xyz
x,y,z
-x,y,1/2-z
-x,-y,-z
x,-y,1/2+z
1/2+x,1/2+y,z
1/2-x,1/2+y,1/2-z
1/2-x,1/2-y,-z
1/2+x,1/2-y,1/2+z
loop_
_atom_site_type_symbol
_atom_site_label
_atom_site_fract_x
_atom_site_fract_y
_atom_site_fract_z
Si Si1 0.126679 0.759027 0.080947
Si Si2 0.000000 0.292715 0.250000
Si Si3 0.746787 0.147610 0.710040
Si Si4 0.351123 0.460955 0.142621
Si Si5 0.148673 0.073837 0.240460
Si Si6 0.149126 0.656148 0.301636
O O1 0.126436 0.818247 0.172686
O O2 0.134186 0.717454 0.236588
O O3 0.250000 0.750000 0.000000
O O4 0.000432 0.746014 0.917728
O O5 0.876012 0.333761 0.214679
O O6 0.777111 0.083301 0.738193
O O7 0.715043 0.159797 0.505954
O O8 0.500000 0.468061 0.250000
O O9 0.291270 0.521800 0.139144
O O10 0.350291 0.441751 0.953380
O O11 0.253350 0.123247 0.295177
O O12 0.000000 0.091813 0.250000
O O13 0.000000 0.629252 0.250000
#
# Coordination Sequence:
#
# PCOD8139812 Si02
#       6
#     8   4   8   8   8   8
#     4  10  22  39  62  90 129 166 212 254 320 387
#     4  10  20  40  60  92 130 164 210 266 314 382
#     4  10  22  41  63  93 126 172 204 266 324 380
#     4  10  21  40  63  93 123 164 214 259 320 377
#     4  10  22  41  66  93 127 167 213 265 317 383
#     4  11  22  43  65  95 133 168 215 265 321 380
#
# _framework density 22.454637000000002
#
# number of rings (size 3 to 8) (size 9 to 14) (size 15 to 20)
#    0.000    1.818    1.818    2.727    0.000    6.545 
#   21.273    1.818    2.000    0.000    0.000    0.000 
#    0.000    0.000    0.000    0.000    0.000    0.000 
#
# Total GULP energy -272591.449249 kJ/mol
# GULP energy per Si atom -12390.520420 kJ/mol
# Density = 2.240353 g / cm^3
# Si number density = 22.454637 Si / 1000 Ang^3
#
#
#
# Elastic Constant Matrix: (Units=GPa)
#
#
# Indices 1 2 3 4 5 6 
#
# 1 95.3143 45.7957 2.4481 0.0000 -7.6696 0.0000
# 2 45.7957 94.6808 20.2046 0.0000 -4.7213 0.0000
# 3 2.4481 20.2046 68.3967 0.0000 -0.2929 0.0000
# 4 0.0000 0.0000 0.0000 24.6696 0.0000 -7.3128
# 5 -7.6696 -4.7213 -0.2929 0.0000 20.9069 0.0000
# 6 0.0000 0.0000 0.0000 -7.3128 0.0000 34.7005
#
#
#
# Elastic Compliance Matrix: (Units=1/GPa)
#
#
# Indices 1 2 3 4 5 6 
#
# 1 0.014091 -0.006971 0.001570 0.000000 0.003617 0.000000
# 2 -0.006971 0.014853 -0.004135 0.000000 0.000739 0.000000
# 3 0.001570 -0.004135 0.015785 0.000000 -0.000137 0.000000
# 4 0.000000 0.000000 0.000000 0.043237 0.000000 0.009112
# 5 0.003617 0.000739 -0.000137 0.000000 0.049323 0.000000
# 6 0.000000 0.000000 0.000000 0.009112 0.000000 0.030738
#
#
# Mechanical properties :
#
#
# Convention : Reuss Voigt Hill
#
# Bulk Modulus (GPa) = 38.97264 43.92094 41.44679
# Shear Modulus (GPa) = 25.55577 28.71830 27.13704
#
# Velocity S-wave (km/s) = 3.37724 3.58012 3.48016
# Velocity P-wave (km/s) = 5.70978 6.05739 5.88615
#
# Compressibility (1/GPa) = 0.02565902
#
# Stress axis : x y z
#
# Youngs Moduli (GPa) = 70.96477 67.32836 63.35031
#
# Poissons Ratio (x) = 0.46932 -0.09948
# Poissons Ratio (y) = 0.49466 0.26194
# Poissons Ratio (z) = -0.11143 0.27839
#
# Static dielectric constant tensor:
#      x y z
#    x 4.362400 0.000000 0.327960 
#    y 0.000000 5.009440 0.000000 
#    z 0.327960 0.000000 4.604850 
# 
# 
# High freq. dielectric constant tensor:
#      x y z
#    x 1.870390 0.000000 -0.009620 
#    y 0.000000 1.881760 0.000000 
#    z -0.009620 0.000000 1.897350 
# 
# From -- ./inp_files/31057.got.cif
#   From: 2010.06.25/outbox.cif.g09.slc.cpg/sg15_16_cif.got.tgz:31057.got - 2010.06.28 07:06:18.
