data_PCOD8139188
_publ_section_title
;
Structure prediction by ZEFSAII (Michael W. Deem and Ramdas Pophale) SiO2 
 PCOD8139188
Probable space group: C 2/C
;
_chemical_formula_sum "Si O2"
_cell_formula_units_Z 56
_cell_length_a 13.767339
_cell_length_b 27.387646
_cell_length_c 9.495400
_cell_angle_alpha 90.000000
_cell_angle_beta 130.138137
_cell_angle_gamma 90.000000
_cell_volume 2737.103382
_symmetry_space_group_name_H-M "C 2/C"
_symmetry_group_IT_number 15
_symmetry_cell_setting 'monoclinic'
loop_
_space_group_symop_operation_xyz
x,y,z
-x,y,1/2-z
-x,-y,-z
x,-y,1/2+z
1/2+x,1/2+y,z
1/2-x,1/2+y,1/2-z
1/2-x,1/2-y,-z
1/2+x,1/2-y,1/2+z
loop_
_atom_site_type_symbol
_atom_site_label
_atom_site_fract_x
_atom_site_fract_y
_atom_site_fract_z
Si Si1 0.889813 0.301885 0.035632
Si Si2 0.673310 0.400852 0.138714
Si Si3 0.573705 0.893785 0.603003
Si Si4 0.307141 0.955234 0.010001
Si Si5 0.953778 0.040380 0.354462
Si Si6 0.328044 0.930957 0.531051
Si Si7 0.872222 0.192454 0.050222
O O1 0.902032 0.244759 0.007189
O O2 0.000000 0.315452 0.250000
O O3 0.912717 0.336397 0.921294
O O4 0.745335 0.308544 0.951555
O O5 0.766933 0.430368 0.119467
O O6 0.701215 0.418012 0.324659
O O7 0.526310 0.410438 0.964345
O O8 0.677911 0.342780 0.121698
O O9 0.582634 0.924685 0.465151
O O10 0.438275 0.906193 0.542349
O O11 0.678906 0.907398 0.820123
O O12 0.195942 0.951467 0.789104
O O13 0.349675 0.011068 0.071796
O O14 0.000000 0.019725 0.250000
O O15 0.000000 0.000000 0.500000
O O16 0.000000 0.174142 0.250000
#
# Coordination Sequence:
#
# PCOD8139188 Si02
#       7
#     8   8   8   8   8   8   8
#     4  10  21  40  66  91 118 157 200 255 312 361
#     4  11  21  37  61  88 120 155 201 252 302 357
#     4  11  24  39  57  85 121 161 205 252 299 356
#     4  11  21  37  58  84 120 160 210 247 286 354
#     4  10  21  34  55  82 114 155 192 240 296 355
#     4  11  24  38  55  86 124 167 197 242 304 370
#     4  10  20  38  66  97 117 146 207 262 303 353
#
# _framework density 20.459585000000001
#
# number of rings (size 3 to 8) (size 9 to 14) (size 15 to 20)
#    0.000    1.429    2.857    3.429    2.000    1.143 
#    0.000    0.714    0.000    0.000    0.000    0.000 
#    0.000    0.000    0.000    0.000    0.000    0.000 
#
# Total GULP energy -346977.295345 kJ/mol
# GULP energy per Si atom -12392.046262 kJ/mol
# Density = 2.041302 g / cm^3
# Si number density = 20.459585 Si / 1000 Ang^3
#
#
#
# Elastic Constant Matrix: (Units=GPa)
#
#
# Indices 1 2 3 4 5 6 
#
# 1 57.4587 25.9499 15.7474 0.0000 9.8826 0.0000
# 2 25.9499 154.1504 41.5829 0.0000 -18.9453 0.0000
# 3 15.7474 41.5829 100.3741 0.0000 -8.7164 0.0000
# 4 0.0000 0.0000 0.0000 26.9042 0.0000 0.6894
# 5 9.8826 -18.9453 -8.7164 0.0000 26.9714 0.0000
# 6 0.0000 0.0000 0.0000 0.6894 0.0000 26.6706
#
#
#
# Elastic Compliance Matrix: (Units=1/GPa)
#
#
# Indices 1 2 3 4 5 6 
#
# 1 0.022285 -0.004529 -0.002680 0.000000 -0.012213 0.000000
# 2 -0.004529 0.008736 -0.002296 0.000000 0.007054 0.000000
# 3 -0.002680 -0.002296 0.011605 0.000000 0.003120 0.000000
# 4 0.000000 0.000000 0.000000 0.037194 0.000000 -0.000961
# 5 -0.012213 0.007054 0.003120 0.000000 0.047514 0.000000
# 6 0.000000 0.000000 0.000000 -0.000961 0.000000 0.037519
#
#
# Mechanical properties :
#
#
# Convention : Reuss Voigt Hill
#
# Bulk Modulus (GPa) = 42.34680 53.17151 47.75915
# Shear Modulus (GPa) = 26.07754 31.35611 28.71683
#
# Velocity S-wave (km/s) = 3.57401 3.91907 3.75051
# Velocity P-wave (km/s) = 6.14607 6.82084 6.49222
#
# Compressibility (1/GPa) = 0.02361454
#
# Stress axis : x y z
#
# Youngs Moduli (GPa) = 44.87420 114.46965 86.16740
#
# Poissons Ratio (x) = 0.51848 0.23095
# Poissons Ratio (y) = 0.20325 0.19784
# Poissons Ratio (z) = 0.12028 0.26282
#
# Static dielectric constant tensor:
#      x y z
#    x 3.546090 0.000000 0.203410 
#    y 0.000000 3.236720 0.000000 
#    z 0.203410 0.000000 4.104820 
# 
# 
# High freq. dielectric constant tensor:
#      x y z
#    x 1.786660 0.000000 0.018340 
#    y 0.000000 1.799850 0.000000 
#    z 0.018340 0.000000 1.803270 
# 
# From -- ./inp_files/44595.got.cif
#   From: 2010.06.25/outbox.cif.g09.slc.cpg/sg15_23_cif.got.tgz:44595.got - 2010.06.28 07:06:18.
