data_PCOD8139907
_publ_section_title
;
Structure prediction by ZEFSAII (Michael W. Deem and Ramdas Pophale) SiO2 
 PCOD8139907
Probable space group: C 2/C
;
_chemical_formula_sum "Si O2"
_cell_formula_units_Z 64
_cell_length_a 15.103733
_cell_length_b 13.527638
_cell_length_c 17.634029
_cell_angle_alpha 90.000000
_cell_angle_beta 118.429447
_cell_angle_gamma 90.000000
_cell_volume 3168.445677
_symmetry_space_group_name_H-M "C 2/C"
_symmetry_group_IT_number 15
_symmetry_cell_setting 'monoclinic'
loop_
_space_group_symop_operation_xyz
x,y,z
-x,y,1/2-z
-x,-y,-z
x,-y,1/2+z
1/2+x,1/2+y,z
1/2-x,1/2+y,1/2-z
1/2-x,1/2-y,-z
1/2+x,1/2-y,1/2+z
loop_
_atom_site_type_symbol
_atom_site_label
_atom_site_fract_x
_atom_site_fract_y
_atom_site_fract_z
Si Si1 0.849677 0.797568 0.692471
Si Si2 0.484186 0.760422 0.120753
Si Si3 0.615647 0.662934 0.819151
Si Si4 0.855246 0.220890 0.830421
Si Si5 0.431113 0.967184 0.039539
Si Si6 0.927051 0.089909 0.989762
Si Si7 0.200646 0.972178 0.922300
Si Si8 0.532738 0.849209 0.846647
O O1 0.884219 0.737777 0.631996
O O2 0.736865 0.771613 0.665869
O O3 0.855030 0.911918 0.667941
O O4 0.920198 0.774454 0.791952
O O5 0.491004 0.872387 0.095509
O O6 0.481600 0.684294 0.049838
O O7 0.500000 0.633756 0.750000
O O8 0.675511 0.680850 0.765212
O O9 0.675693 0.585292 0.894160
O O10 0.615471 0.762405 0.870060
O O11 0.885650 0.125853 0.892204
O O12 0.941083 0.304710 0.858824
O O13 0.420551 0.054960 0.095884
O O14 0.318190 0.944280 0.966570
O O15 0.500000 0.000000 0.000000
O O16 0.839496 0.052924 0.010216
O O17 0.000000 0.000000 0.000000
O O18 0.500000 0.883929 0.750000
#
# Coordination Sequence:
#
# PCOD8139907 Si02
#       8
#     8   8   8   8   8   8   8   8
#     4  10  22  40  62  88 120 165 209 255 309 378
#     4  10  24  40  60  89 126 163 204 265 308 369
#     4   9  21  40  65  90 126 164 207 263 312 375
#     4  10  20  40  63  87 121 164 211 256 309 377
#     4  12  25  41  63  93 131 167 210 259 312 382
#     4  11  22  40  63  92 121 158 207 265 320 366
#     4  11  24  39  65  95 125 166 203 262 325 372
#     4   9  21  42  63  88 128 170 202 255 313 375
#
# _framework density 20.199178
#
# number of rings (size 3 to 8) (size 9 to 14) (size 15 to 20)
#    0.000    2.000    0.000    4.500    8.750    2.500 
#    4.500    0.000    0.000    0.000    0.000    0.000 
#    0.000    0.000    0.000    0.000    0.000    0.000 
#
# Total GULP energy -396693.348501 kJ/mol
# GULP energy per Si atom -12396.667141 kJ/mol
# Density = 2.015320 g / cm^3
# Si number density = 20.199178 Si / 1000 Ang^3
#
#
#
# Elastic Constant Matrix: (Units=GPa)
#
#
# Indices 1 2 3 4 5 6 
#
# 1 117.7225 44.1394 37.4883 0.0000 -14.9613 0.0000
# 2 44.1394 143.3884 66.6511 0.0000 -10.2696 0.0000
# 3 37.4883 66.6511 80.8856 0.0000 -8.8188 0.0000
# 4 0.0000 0.0000 0.0000 42.5325 0.0000 -1.0694
# 5 -14.9613 -10.2696 -8.8188 0.0000 24.8840 0.0000
# 6 0.0000 0.0000 0.0000 -1.0694 0.0000 25.8153
#
#
#
# Elastic Compliance Matrix: (Units=1/GPa)
#
#
# Indices 1 2 3 4 5 6 
#
# 1 0.010661 -0.001438 -0.003247 0.000000 0.004665 0.000000
# 2 -0.001438 0.011546 -0.008761 0.000000 0.000796 0.000000
# 3 -0.003247 -0.008761 0.021303 0.000000 0.001982 0.000000
# 4 0.000000 0.000000 0.000000 0.023536 0.000000 0.000975
# 5 0.004665 0.000796 0.001982 0.000000 0.044022 0.000000
# 6 0.000000 0.000000 0.000000 0.000975 0.000000 0.038777
#
#
# Mechanical properties :
#
#
# Convention : Reuss Voigt Hill
#
# Bulk Modulus (GPa) = 60.17711 70.95044 65.56377
# Shear Modulus (GPa) = 27.43076 31.56087 29.49581
#
# Velocity S-wave (km/s) = 3.68912 3.95711 3.82546
# Velocity P-wave (km/s) = 6.92840 7.48866 7.21397
#
# Compressibility (1/GPa) = 0.01661761
#
# Stress axis : x y z
#
# Youngs Moduli (GPa) = 93.80181 86.60967 46.94104
#
# Poissons Ratio (x) = 0.12456 0.15243
# Poissons Ratio (y) = 0.13490 0.41124
# Poissons Ratio (z) = 0.30460 0.75877
#
# Static dielectric constant tensor:
#      x y z
#    x 3.851170 0.000000 -0.089110 
#    y 0.000000 3.388280 0.000000 
#    z -0.089110 0.000000 3.755690 
# 
# 
# High freq. dielectric constant tensor:
#      x y z
#    x 1.793120 0.000000 -0.020590 
#    y 0.000000 1.795950 0.000000 
#    z -0.020590 0.000000 1.783180 
# 
# From -- ./inp_files/205449.got.cif
#   From: 2010.06.25/outbox.cif.g09.slc.cpg/sg15_103_cif.got.tgz:205449.got - 2010.06.28 07:06:18.
