data_PCOD8139236
_publ_section_title
;
Structure prediction by ZEFSAII (Michael W. Deem and Ramdas Pophale) SiO2 
 PCOD8139236
Probable space group: C 2/C
;
_chemical_formula_sum "Si O2"
_cell_formula_units_Z 52
_cell_length_a 10.837994
_cell_length_b 15.100201
_cell_length_c 14.776819
_cell_angle_alpha 90.000000
_cell_angle_beta 74.307595
_cell_angle_gamma 90.000000
_cell_volume 2328.177107
_symmetry_space_group_name_H-M "C 2/C"
_symmetry_group_IT_number 15
_symmetry_cell_setting 'monoclinic'
loop_
_space_group_symop_operation_xyz
x,y,z
-x,y,1/2-z
-x,-y,-z
x,-y,1/2+z
1/2+x,1/2+y,z
1/2-x,1/2+y,1/2-z
1/2-x,1/2-y,-z
1/2+x,1/2-y,1/2+z
loop_
_atom_site_type_symbol
_atom_site_label
_atom_site_fract_x
_atom_site_fract_y
_atom_site_fract_z
Si Si1 0.500000 0.284725 0.250000
Si Si2 0.846461 0.905831 0.870381
Si Si3 0.364951 0.602805 0.929164
Si Si4 0.050150 0.199544 0.413184
Si Si5 0.390828 0.062031 0.424146
Si Si6 0.596731 0.873258 0.006572
Si Si7 0.294157 0.153712 0.272680
O O1 0.590738 0.339909 0.165399
O O2 0.401133 0.221989 0.212810
O O3 0.781075 0.906035 0.784928
O O4 0.976741 0.851071 0.847282
O O5 0.889128 0.001873 0.897061
O O6 0.745982 0.855382 0.956558
O O7 0.450336 0.638629 0.996028
O O8 0.214196 0.606799 0.986387
O O9 0.194258 0.214096 0.349977
O O10 0.977420 0.291726 0.436619
O O11 0.528366 0.100566 0.425476
O O12 0.362108 0.084822 0.326569
O O13 0.402642 0.956206 0.425260
#
# Coordination Sequence:
#
# PCOD8139236 Si02
#       7
#     4   8   8   8   8   8   8
#     4  12  24  40  64  96 118 166 214 262 308 372
#     4  11  23  40  60  92 130 168 202 261 312 373
#     4  10  23  40  63  91 123 166 213 255 311 373
#     4  11  22  40  64  90 126 166 209 259 308 372
#     4   9  20  41  65  91 122 166 204 261 315 368
#     4  10  20  38  68  91 120 163 216 253 310 374
#     4  11  23  39  62  90 130 164 206 262 314 366
#
# _framework density 22.335070000000002
#
# number of rings (size 3 to 8) (size 9 to 14) (size 15 to 20)
#    0.000    1.538    0.000    5.077    2.154    2.462 
#    2.769    0.000    6.769    0.000    0.000    0.000 
#    0.000    0.000    0.000    0.000    0.000    0.000 
#
# Total GULP energy -322168.726046 kJ/mol
# GULP energy per Si atom -12391.104848 kJ/mol
# Density = 2.228423 g / cm^3
# Si number density = 22.335070 Si / 1000 Ang^3
#
#
#
# Elastic Constant Matrix: (Units=GPa)
#
#
# Indices 1 2 3 4 5 6 
#
# 1 100.1581 54.2852 19.8211 0.0000 2.7193 0.0000
# 2 54.2852 118.1004 42.8512 0.0000 -8.3358 0.0000
# 3 19.8211 42.8512 56.8453 0.0000 4.5386 0.0000
# 4 0.0000 0.0000 0.0000 16.2161 0.0000 -6.7425
# 5 2.7193 -8.3358 4.5386 0.0000 31.6406 0.0000
# 6 0.0000 0.0000 0.0000 -6.7425 0.0000 41.3647
#
#
#
# Elastic Compliance Matrix: (Units=1/GPa)
#
#
# Indices 1 2 3 4 5 6 
#
# 1 0.013556 -0.006625 0.000505 0.000000 -0.002983 0.000000
# 2 -0.006625 0.015526 -0.009879 0.000000 0.006077 0.000000
# 3 0.000505 -0.009879 0.025364 0.000000 -0.006284 0.000000
# 4 0.000000 0.000000 0.000000 0.066150 0.000000 0.010783
# 5 -0.002983 0.006077 -0.006284 0.000000 0.034364 0.000000
# 6 0.000000 0.000000 0.000000 0.010783 0.000000 0.025933
#
#
# Mechanical properties :
#
#
# Convention : Reuss Voigt Hill
#
# Bulk Modulus (GPa) = 44.54537 56.55764 50.55151
# Shear Modulus (GPa) = 22.68886 28.38738 25.53812
#
# Velocity S-wave (km/s) = 3.19068 3.56895 3.38510
# Velocity P-wave (km/s) = 5.79322 6.50849 6.16124
#
# Compressibility (1/GPa) = 0.02244902
#
# Stress axis : x y z
#
# Youngs Moduli (GPa) = 73.76890 64.40855 39.42585
#
# Poissons Ratio (x) = 0.42670 -0.01993
# Poissons Ratio (y) = 0.48871 0.38949
# Poissons Ratio (z) = -0.03729 0.63629
#
# Static dielectric constant tensor:
#      x y z
#    x 4.335220 0.000000 -0.181780 
#    y 0.000000 3.934160 0.000000 
#    z -0.181780 0.000000 3.836670 
# 
# 
# High freq. dielectric constant tensor:
#      x y z
#    x 1.900200 0.000000 -0.013450 
#    y 0.000000 1.873760 0.000000 
#    z -0.013450 0.000000 1.868880 
# 
# From -- ./inp_files/144158.got.cif
#   From: 2010.06.25/outbox.cif.g09.slc.cpg/sg15_73_cif.got.tgz:144158.got - 2010.06.28 07:06:18.
