data_PCOD8139618
_publ_section_title
;
Structure prediction by ZEFSAII (Michael W. Deem and Ramdas Pophale) SiO2 
 PCOD8139618
Probable space group: C 2/C
;
_chemical_formula_sum "Si O2"
_cell_formula_units_Z 64
_cell_length_a 11.293780
_cell_length_b 23.077991
_cell_length_c 11.377481
_cell_angle_alpha 90.000000
_cell_angle_beta 96.626990
_cell_angle_gamma 90.000000
_cell_volume 2945.587795
_symmetry_space_group_name_H-M "C 2/C"
_symmetry_group_IT_number 15
_symmetry_cell_setting 'monoclinic'
loop_
_space_group_symop_operation_xyz
x,y,z
-x,y,1/2-z
-x,-y,-z
x,-y,1/2+z
1/2+x,1/2+y,z
1/2-x,1/2+y,1/2-z
1/2-x,1/2-y,-z
1/2+x,1/2-y,1/2+z
loop_
_atom_site_type_symbol
_atom_site_label
_atom_site_fract_x
_atom_site_fract_y
_atom_site_fract_z
Si Si1 0.818689 0.614284 0.469699
Si Si2 0.064645 0.836809 0.879297
Si Si3 0.824740 0.620363 0.916456
Si Si4 0.671839 0.958628 0.296847
Si Si5 0.526125 0.046524 0.406081
Si Si6 0.513083 0.796396 0.385857
Si Si7 0.074642 0.087702 0.961894
Si Si8 0.914212 0.003135 0.330552
O O1 0.699566 0.638019 0.392763
O O2 0.792743 0.569071 0.572914
O O3 0.902925 0.584143 0.378752
O O4 0.885887 0.667486 0.537080
O O5 0.000000 0.851830 0.750000
O O6 0.055247 0.769019 0.905224
O O7 0.997102 0.862969 0.981210
O O8 0.875833 0.586637 0.806055
O O9 0.882022 0.685291 0.922876
O O10 0.869963 0.588980 0.038952
O O11 0.681768 0.620046 0.905139
O O12 0.791634 0.985586 0.253487
O O13 0.576309 0.011348 0.298049
O O14 0.500000 0.000000 0.500000
O O15 0.500000 0.813619 0.250000
O O16 0.120159 0.039397 0.058861
O O17 0.987671 0.055766 0.862499
O O18 0.000000 0.039379 0.250000
#
# Coordination Sequence:
#
# PCOD8139618 Si02
#       8
#     8   8   8   8   8   8   8   8
#     4  10  20  39  65  92 125 162 213 258 318 386
#     4  11  24  42  62  89 123 169 219 267 317 374
#     4  11  21  37  61  91 125 163 206 261 316 377
#     4  11  19  36  61  94 129 160 208 257 315 385
#     4   9  21  35  56  92 126 159 196 247 318 378
#     4  10  21  39  66  94 120 160 215 269 322 374
#     4  11  23  37  57  87 125 165 211 249 316 374
#     4  11  21  35  57  89 125 168 205 255 306 389
#
# _framework density 21.727412000000001
#
# number of rings (size 3 to 8) (size 9 to 14) (size 15 to 20)
#    0.000    1.500    5.000    0.750    0.000    0.500 
#    4.500    1.250    0.000    2.250    0.000    0.000 
#    0.000    0.000    0.000    0.000    0.000    0.000 
#
# Total GULP energy -396465.746024 kJ/mol
# GULP energy per Si atom -12389.554563 kJ/mol
# Density = 2.167796 g / cm^3
# Si number density = 21.727412 Si / 1000 Ang^3
#
#
#
# Elastic Constant Matrix: (Units=GPa)
#
#
# Indices 1 2 3 4 5 6 
#
# 1 165.9243 69.3884 39.3055 0.0000 0.0901 0.0000
# 2 69.3884 100.2216 24.0057 0.0000 -1.0875 0.0000
# 3 39.3055 24.0057 66.6909 0.0000 3.2302 0.0000
# 4 0.0000 0.0000 0.0000 35.6545 0.0000 4.3501
# 5 0.0901 -1.0875 3.2302 0.0000 37.3187 0.0000
# 6 0.0000 0.0000 0.0000 4.3501 0.0000 36.3973
#
#
#
# Elastic Compliance Matrix: (Units=1/GPa)
#
#
# Indices 1 2 3 4 5 6 
#
# 1 0.009138 -0.005509 -0.003408 0.000000 0.000112 0.000000
# 2 -0.005509 0.014257 -0.001914 0.000000 0.000594 0.000000
# 3 -0.003408 -0.001914 0.017769 0.000000 -0.001586 0.000000
# 4 0.000000 0.000000 0.000000 0.028462 0.000000 -0.003402
# 5 0.000112 0.000594 -0.001586 0.000000 0.026951 0.000000
# 6 0.000000 0.000000 0.000000 -0.003402 0.000000 0.027881
#
#
# Mechanical properties :
#
#
# Convention : Reuss Voigt Hill
#
# Bulk Modulus (GPa) = 51.27701 66.47065 58.87383
# Shear Modulus (GPa) = 32.76110 35.21656 33.98883
#
# Velocity S-wave (km/s) = 3.88728 4.03033 3.95945
# Velocity P-wave (km/s) = 6.61811 7.23308 6.93242
#
# Compressibility (1/GPa) = 0.01950192
#
# Stress axis : x y z
#
# Youngs Moduli (GPa) = 109.43318 70.14097 56.27838
#
# Poissons Ratio (x) = 0.38642 0.19180
# Poissons Ratio (y) = 0.60288 0.10770
# Poissons Ratio (z) = 0.37295 0.13423
#
# Static dielectric constant tensor:
#      x y z
#    x 4.127400 0.000000 -0.155180 
#    y 0.000000 3.911440 0.000000 
#    z -0.155180 0.000000 3.604570 
# 
# 
# High freq. dielectric constant tensor:
#      x y z
#    x 1.871890 0.000000 0.003690 
#    y 0.000000 1.837710 0.000000 
#    z 0.003690 0.000000 1.847580 
# 
# From -- ./inp_files/90820.got.cif
#   From: 2010.06.25/outbox.cif.g09.slc.cpg/sg15_46_cif.got.tgz:90820.got - 2010.06.28 07:06:18.
