data_PCOD8139123
_publ_section_title
;
Structure prediction by ZEFSAII (Michael W. Deem and Ramdas Pophale) SiO2 
 PCOD8139123
Probable space group: C 2/C
;
_chemical_formula_sum "Si O2"
_cell_formula_units_Z 64
_cell_length_a 17.430336
_cell_length_b 11.711455
_cell_length_c 29.462678
_cell_angle_alpha 90.000000
_cell_angle_beta 31.280448
_cell_angle_gamma 90.000000
_cell_volume 3122.816883
_symmetry_space_group_name_H-M "C 2/C"
_symmetry_group_IT_number 15
_symmetry_cell_setting 'monoclinic'
loop_
_space_group_symop_operation_xyz
x,y,z
-x,y,1/2-z
-x,-y,-z
x,-y,1/2+z
1/2+x,1/2+y,z
1/2-x,1/2+y,1/2-z
1/2-x,1/2-y,-z
1/2+x,1/2-y,1/2+z
loop_
_atom_site_type_symbol
_atom_site_label
_atom_site_fract_x
_atom_site_fract_y
_atom_site_fract_z
Si Si1 0.080196 0.348432 0.987737
Si Si2 0.557577 0.147714 0.316580
Si Si3 0.396916 0.718603 0.145170
Si Si4 0.843609 0.406579 0.233877
Si Si5 0.085001 0.845460 0.160810
Si Si6 0.094175 0.977090 0.800532
Si Si7 0.084335 0.590539 0.017392
Si Si8 0.152421 0.218980 0.198055
O O1 0.242018 0.297693 0.898573
O O2 0.033102 0.386854 0.961961
O O3 0.093711 0.453147 0.016575
O O4 0.965621 0.250630 0.062039
O O5 0.718714 0.206745 0.235605
O O6 0.454055 0.217375 0.334734
O O7 0.479526 0.148330 0.405100
O O8 0.569330 0.017937 0.292281
O O9 0.447444 0.819356 0.153749
O O10 0.469743 0.601542 0.126467
O O11 0.724363 0.447630 0.256609
O O12 0.788499 0.331641 0.304704
O O13 0.000000 0.875161 0.250000
O O14 0.260385 0.854557 0.076456
O O15 0.034250 0.938188 0.149584
O O16 0.150637 0.894344 0.731212
O O17 0.000000 0.243630 0.250000
#
# Coordination Sequence:
#
# PCOD8139123 Si02
#       8
#     8   8   8   8   8   8   8   8
#     4  11  22  39  66  98 124 165 225 265 331 390
#     4  11  22  40  62  92 132 173 217 261 336 389
#     4  10  20  38  65  92 122 170 216 270 316 398
#     4  10  20  40  67  90 126 175 213 260 337 396
#     4  12  24  39  64  97 133 168 221 275 324 388
#     4  10  21  39  65  92 126 173 217 262 332 389
#     4  11  23  38  65  97 131 168 217 276 320 398
#     4  11  24  43  67  96 131 168 219 283 327 388
#
# _framework density 20.494316999999999
#
# number of rings (size 3 to 8) (size 9 to 14) (size 15 to 20)
#    0.000    1.250    2.500    5.250    1.750    0.500 
#    2.250    4.375    2.750    0.000    0.000    0.000 
#    0.000    0.000    0.000    0.000    0.000    0.000 
#
# Total GULP energy -396577.357931 kJ/mol
# GULP energy per Si atom -12393.042435 kJ/mol
# Density = 2.044767 g / cm^3
# Si number density = 20.494317 Si / 1000 Ang^3
#
#
#
# Elastic Constant Matrix: (Units=GPa)
#
#
# Indices 1 2 3 4 5 6 
#
# 1 65.1908 26.8158 18.0067 0.0001 -5.0559 -0.0001
# 2 26.8158 111.7711 20.9167 0.0000 -3.4269 -0.0002
# 3 18.0067 20.9167 124.7780 0.0007 -0.3748 -0.0001
# 4 0.0001 0.0000 0.0007 25.3568 -0.0001 0.7353
# 5 -5.0559 -3.4269 -0.3748 -0.0001 28.5483 0.0000
# 6 -0.0001 -0.0002 -0.0001 0.7353 0.0000 33.8532
#
#
#
# Elastic Compliance Matrix: (Units=1/GPa)
#
#
# Indices 1 2 3 4 5 6 
#
# 1 0.017630 -0.003793 -0.001900 0.000000 0.002642 0.000000
# 2 -0.003793 0.010087 -0.001142 0.000000 0.000524 0.000000
# 3 -0.001900 -0.001142 0.008479 0.000000 -0.000362 0.000000
# 4 0.000000 0.000000 0.000000 0.039462 0.000000 -0.000857
# 5 0.002642 0.000524 -0.000362 0.000000 0.035554 0.000000
# 6 0.000000 0.000000 0.000000 -0.000857 0.000000 0.029558
#
#
# Mechanical properties :
#
#
# Convention : Reuss Voigt Hill
#
# Bulk Modulus (GPa) = 44.39608 48.13537 46.26572
# Shear Modulus (GPa) = 30.87410 33.28504 32.07957
#
# Velocity S-wave (km/s) = 3.88554 4.03440 3.96067
# Velocity P-wave (km/s) = 6.46835 6.72607 6.59847
#
# Compressibility (1/GPa) = 0.02252451
#
# Stress axis : x y z
#
# Youngs Moduli (GPa) = 56.72271 99.14119 117.94113
#
# Poissons Ratio (x) = 0.37604 0.22413
# Poissons Ratio (y) = 0.21515 0.13468
# Poissons Ratio (z) = 0.10779 0.11321
#
# Static dielectric constant tensor:
#      x y z
#    x 3.638250 0.000000 0.086280 
#    y 0.000000 4.081540 0.000000 
#    z 0.086280 0.000000 3.576160 
# 
# 
# High freq. dielectric constant tensor:
#      x y z
#    x 1.789230 0.000000 0.003940 
#    y 0.000000 1.814490 0.000000 
#    z 0.003940 0.000000 1.786910 
# 
# From -- ./inp_files/316184.got.cif
#   From: 2010.06.25/outbox.cif.g09.slc.cpg/sg15_159_cif.got.tgz:316184.got - 2010.06.28 07:06:18.
