data_PCOD8139781
_publ_section_title
;
Structure prediction by ZEFSAII (Michael W. Deem and Ramdas Pophale) SiO2 
 PCOD8139781
Probable space group: C 2/C
;
_chemical_formula_sum "Si O2"
_cell_formula_units_Z 36
_cell_length_a 25.764026
_cell_length_b 14.453107
_cell_length_c 9.122709
_cell_angle_alpha 90.000000
_cell_angle_beta 151.607159
_cell_angle_gamma 90.000000
_cell_volume 1615.334042
_symmetry_space_group_name_H-M "C 2/C"
_symmetry_group_IT_number 15
_symmetry_cell_setting 'monoclinic'
loop_
_space_group_symop_operation_xyz
x,y,z
-x,y,1/2-z
-x,-y,-z
x,-y,1/2+z
1/2+x,1/2+y,z
1/2-x,1/2+y,1/2-z
1/2-x,1/2-y,-z
1/2+x,1/2-y,1/2+z
loop_
_atom_site_type_symbol
_atom_site_label
_atom_site_fract_x
_atom_site_fract_y
_atom_site_fract_z
Si Si1 0.440769 0.883909 0.303368
Si Si2 0.014694 0.903300 0.614522
Si Si3 0.000000 0.540584 0.250000
Si Si4 0.859760 0.736915 0.182507
Si Si5 0.713154 0.722176 0.565860
O O1 0.422748 0.976877 0.163458
O O2 0.560446 0.842794 0.558178
O O3 0.351911 0.810056 0.029201
O O4 0.431593 0.899907 0.459020
O O5 0.135729 0.867335 0.876770
O O6 0.000000 0.916128 0.750000
O O7 0.924068 0.833092 0.328748
O O8 0.000000 0.000000 0.500000
O O9 0.750000 0.750000 0.000000
O O10 0.822780 0.703628 0.929833
O O11 0.750000 0.750000 0.500000
#
# Coordination Sequence:
#
# PCOD8139781 Si02
#       5
#     8   8   4   8   8
#     4  10  22  40  63  89 134 160 209 270 322 374
#     4  11  26  48  68  99 139 177 227 287 332 402
#     4  10  20  40  58  90 122 164 204 264 322 362
#     4  11  22  44  69  92 129 182 220 262 340 396
#     4  11  24  44  68  98 131 178 223 265 337 399
#
# _framework density 22.28641
#
# number of rings (size 3 to 8) (size 9 to 14) (size 15 to 20)
#    0.000    1.333    2.222    2.667    6.222    1.778 
#   24.000    0.000    0.000    0.000    0.000    0.000 
#    0.000    0.000    0.000    0.000    0.000    0.000 
#
# Total GULP energy -223158.060649 kJ/mol
# GULP energy per Si atom -12397.670036 kJ/mol
# Density = 2.223569 g / cm^3
# Si number density = 22.286410 Si / 1000 Ang^3
#
#
#
# Elastic Constant Matrix: (Units=GPa)
#
#
# Indices 1 2 3 4 5 6 
#
# 1 111.9428 12.9344 20.2396 0.0000 -5.3676 0.0000
# 2 12.9344 116.3809 29.0472 0.0000 7.6272 0.0000
# 3 20.2396 29.0472 98.7954 0.0000 10.3230 0.0000
# 4 0.0000 0.0000 0.0000 23.0074 0.0000 -15.2014
# 5 -5.3676 7.6272 10.3230 0.0000 30.2597 0.0000
# 6 0.0000 0.0000 0.0000 -15.2014 0.0000 32.5269
#
#
#
# Elastic Compliance Matrix: (Units=1/GPa)
#
#
# Indices 1 2 3 4 5 6 
#
# 1 0.009501 -0.000724 -0.002000 0.000000 0.002550 0.000000
# 2 -0.000724 0.009391 -0.002439 0.000000 -0.001663 0.000000
# 3 -0.002000 -0.002439 0.011636 0.000000 -0.003710 0.000000
# 4 0.000000 0.000000 0.000000 0.062881 0.000000 0.029387
# 5 0.002550 -0.001663 -0.003710 0.000000 0.035184 0.000000
# 6 0.000000 0.000000 0.000000 0.029387 0.000000 0.044478
#
#
# Mechanical properties :
#
#
# Convention : Reuss Voigt Hill
#
# Bulk Modulus (GPa) = 49.49945 50.17349 49.83647
# Shear Modulus (GPa) = 26.29775 34.81867 30.55821
#
# Velocity S-wave (km/s) = 3.43883 3.95692 3.70693
# Velocity P-wave (km/s) = 6.16654 6.59076 6.38218
#
# Compressibility (1/GPa) = 0.02020225
#
# Stress axis : x y z
#
# Youngs Moduli (GPa) = 105.25604 106.48891 85.93770
#
# Poissons Ratio (x) = 0.07708 0.17187
# Poissons Ratio (y) = 0.07619 0.20959
# Poissons Ratio (z) = 0.21051 0.25971
#
# Static dielectric constant tensor:
#      x y z
#    x 4.029390 0.000000 0.484800 
#    y 0.000000 4.139670 0.000000 
#    z 0.484800 0.000000 2.265080 
# 
# 
# High freq. dielectric constant tensor:
#      x y z
#    x 1.887930 0.000000 -0.015760 
#    y 0.000000 1.880060 0.000000 
#    z -0.015760 0.000000 1.877950 
# 
# From -- ./inp_files/37657.got.cif
#   From: 2010.06.25/outbox.cif.g09.slc.cpg/sg15_19_cif.got.tgz:37657.got - 2010.06.28 07:06:18.
