data_PCOD8139243
_publ_section_title
;
Structure prediction by ZEFSAII (Michael W. Deem and Ramdas Pophale) SiO2 
 PCOD8139243
Probable space group: C 2/C
;
_chemical_formula_sum "Si O2"
_cell_formula_units_Z 52
_cell_length_a 27.563374
_cell_length_b 14.873331
_cell_length_c 20.502361
_cell_angle_alpha 90.000000
_cell_angle_beta 162.776550
_cell_angle_gamma 90.000000
_cell_volume 2488.750956
_symmetry_space_group_name_H-M "C 2/C"
_symmetry_group_IT_number 15
_symmetry_cell_setting 'monoclinic'
loop_
_space_group_symop_operation_xyz
x,y,z
-x,y,1/2-z
-x,-y,-z
x,-y,1/2+z
1/2+x,1/2+y,z
1/2-x,1/2+y,1/2-z
1/2-x,1/2-y,-z
1/2+x,1/2-y,1/2+z
loop_
_atom_site_type_symbol
_atom_site_label
_atom_site_fract_x
_atom_site_fract_y
_atom_site_fract_z
Si Si1 0.960047 0.251972 0.826622
Si Si2 0.824510 0.483170 0.494037
Si Si3 0.705979 0.393525 0.464314
Si Si4 0.797128 0.831517 0.244212
Si Si5 0.488037 0.322400 0.615898
Si Si6 0.000000 0.039012 0.250000
Si Si7 0.673848 0.811947 0.507713
O O1 0.876677 0.349398 0.705874
O O2 0.921471 0.187886 0.714662
O O3 0.896710 0.211853 0.812890
O O4 0.154990 0.262162 0.082490
O O5 0.703223 0.452449 0.394881
O O6 0.792792 0.423861 0.389907
O O7 0.796130 0.585046 0.435368
O O8 0.000000 0.466605 0.750000
O O9 0.652354 0.468452 0.448693
O O10 0.921243 0.858148 0.461232
O O11 0.496865 0.399955 0.681586
O O12 0.351525 0.247969 0.460475
O O13 0.670897 0.280843 0.837481
O O14 0.500000 0.795815 0.250000
#
# Coordination Sequence:
#
# PCOD8139243 Si02
#       7
#     8   8   8   8   8   4   8
#     4  10  21  40  67  96 132 163 209 257 325 383
#     4  10  20  39  67  89 125 161 212 248 316 380
#     4  10  20  38  68  94 124 167 209 258 313 380
#     4  11  23  41  62  99 130 168 204 264 322 384
#     4  12  26  43  66  91 131 166 218 265 321 370
#     4  12  24  42  62  96 126 166 224 268 310 370
#     4  11  24  45  67  89 118 174 218 266 308 379
#
# _framework density 20.894013999999999
#
# number of rings (size 3 to 8) (size 9 to 14) (size 15 to 20)
#    0.000    1.231    3.846    2.308    0.000    0.615 
#    5.538    0.769    0.000    0.000    0.000    0.000 
#    0.000    0.000    0.000    0.000    0.000    0.000 
#
# Total GULP energy -322178.969902 kJ/mol
# GULP energy per Si atom -12391.498842 kJ/mol
# Density = 2.084646 g / cm^3
# Si number density = 20.894014 Si / 1000 Ang^3
#
#
#
# Elastic Constant Matrix: (Units=GPa)
#
#
# Indices 1 2 3 4 5 6 
#
# 1 109.9851 53.1231 45.4736 0.0062 6.3655 0.0002
# 2 53.1231 111.5675 20.2324 0.0168 8.1451 0.0026
# 3 45.4736 20.2324 81.4873 0.0250 8.3835 0.0029
# 4 0.0062 0.0168 0.0250 18.6145 0.0076 12.1333
# 5 6.3655 8.1451 8.3835 0.0076 42.2285 0.0005
# 6 0.0002 0.0026 0.0029 12.1333 0.0005 30.9834
#
#
#
# Elastic Compliance Matrix: (Units=1/GPa)
#
#
# Indices 1 2 3 4 5 6 
#
# 1 0.014669 -0.005774 -0.006778 0.000012 0.000248 -0.000004
# 2 -0.005774 0.011737 0.000460 -0.000011 -0.001485 0.000003
# 3 -0.006778 0.000460 0.016174 -0.000024 -0.002278 0.000008
# 4 0.000012 -0.000011 -0.000024 0.072134 -0.000008 -0.028248
# 5 0.000248 -0.001485 -0.002278 -0.000008 0.024382 0.000003
# 6 -0.000004 0.000003 0.000008 -0.028248 0.000003 0.043337
#
#
# Mechanical properties :
#
#
# Convention : Reuss Voigt Hill
#
# Bulk Modulus (GPa) = 54.35267 60.07755 57.21511
# Shear Modulus (GPa) = 23.50195 30.64602 27.07398
#
# Velocity S-wave (km/s) = 3.35747 3.83395 3.60360
# Velocity P-wave (km/s) = 6.41094 6.95808 6.69010
#
# Compressibility (1/GPa) = 0.01839836
#
# Stress axis : x y z
#
# Youngs Moduli (GPa) = 68.17232 85.19948 61.82669
#
# Poissons Ratio (x) = 0.49190 0.41905
# Poissons Ratio (y) = 0.39359 -0.02847
# Poissons Ratio (z) = 0.46206 -0.03923
#
# Static dielectric constant tensor:
#      x y z
#    x 3.814010 0.000000 0.232150 
#    y 0.000000 3.910060 -0.000010 
#    z 0.232150 -0.000010 3.735190 
# 
# 
# High freq. dielectric constant tensor:
#      x y z
#    x 1.814950 0.000000 0.017180 
#    y 0.000000 1.822150 0.000000 
#    z 0.017180 0.000000 1.811140 
# 
# From -- ./inp_files/257826.got.cif
#   From: 2010.06.25/outbox.cif.g09.slc.cpg/sg15_129_cif.got.tgz:257826.got - 2010.06.28 07:06:18.
