data_PCOD8139143
_publ_section_title
;
Structure prediction by ZEFSAII (Michael W. Deem and Ramdas Pophale) SiO2 
 PCOD8139143
Probable space group: C 2/C
;
_chemical_formula_sum "Si O2"
_cell_formula_units_Z 44
_cell_length_a 16.756737
_cell_length_b 17.874771
_cell_length_c 9.677793
_cell_angle_alpha 90.000000
_cell_angle_beta 45.743183
_cell_angle_gamma 90.000000
_cell_volume 2076.118104
_symmetry_space_group_name_H-M "C 2/C"
_symmetry_group_IT_number 15
_symmetry_cell_setting 'monoclinic'
loop_
_space_group_symop_operation_xyz
x,y,z
-x,y,1/2-z
-x,-y,-z
x,-y,1/2+z
1/2+x,1/2+y,z
1/2-x,1/2+y,1/2-z
1/2-x,1/2-y,-z
1/2+x,1/2-y,1/2+z
loop_
_atom_site_type_symbol
_atom_site_label
_atom_site_fract_x
_atom_site_fract_y
_atom_site_fract_z
Si Si1 0.643193 0.899114 0.202082
Si Si2 0.919074 0.247808 0.714314
Si Si3 0.803273 0.675203 0.584949
Si Si4 0.500000 0.610550 0.750000
Si Si5 0.741602 0.446417 0.944713
Si Si6 0.407976 0.124318 0.032858
O O1 0.685244 0.842311 0.267990
O O2 0.517507 0.929407 0.388517
O O3 0.728580 0.967052 0.077939
O O4 0.637492 0.854047 0.063894
O O5 0.792337 0.236171 0.817922
O O6 0.963437 0.304610 0.545193
O O7 0.978596 0.166652 0.645532
O O8 0.911872 0.284350 0.882041
O O9 0.779403 0.596921 0.536214
O O10 0.607746 0.560077 0.586257
O O11 0.806389 0.413031 0.735981
#
# Coordination Sequence:
#
# PCOD8139143 Si02
#       6
#     8   8   8   4   8   8
#     4  11  21  36  55  86 121 153 188 234 295 347
#     4   9  18  37  59  87 110 148 201 238 289 333
#     4   9  19  35  61  84 113 151 193 242 281 342
#     4  10  20  38  66  84 112 152 200 246 272 344
#     4  10  21  38  58  85 115 155 197 234 284 344
#     4  10  22  35  57  85 119 151 186 244 290 340
#
# _framework density 21.1934
#
# number of rings (size 3 to 8) (size 9 to 14) (size 15 to 20)
#    0.000    2.182    0.000    3.818    0.000    4.364 
#    0.000   10.000    0.000    0.000    0.000    0.000 
#    0.000    0.000    0.000    0.000    0.000    0.000 
#
# Total GULP energy -272623.668029 kJ/mol
# GULP energy per Si atom -12391.984910 kJ/mol
# Density = 2.114516 g / cm^3
# Si number density = 21.193400 Si / 1000 Ang^3
#
#
#
# Elastic Constant Matrix: (Units=GPa)
#
#
# Indices 1 2 3 4 5 6 
#
# 1 86.6675 27.5335 55.5762 0.0000 9.8525 0.0000
# 2 27.5335 77.5011 31.3790 0.0000 1.6376 0.0000
# 3 55.5762 31.3790 93.6947 0.0000 4.2934 0.0000
# 4 0.0000 0.0000 0.0000 20.4163 0.0000 -9.7423
# 5 9.8525 1.6376 4.2934 0.0000 57.1760 0.0000
# 6 0.0000 0.0000 0.0000 -9.7423 0.0000 30.9511
#
#
#
# Elastic Compliance Matrix: (Units=1/GPa)
#
#
# Indices 1 2 3 4 5 6 
#
# 1 0.019386 -0.002574 -0.010523 0.000000 -0.002477 0.000000
# 2 -0.002574 0.015269 -0.003600 0.000000 0.000277 0.000000
# 3 -0.010523 -0.003600 0.018095 0.000000 0.000558 0.000000
# 4 0.000000 0.000000 0.000000 0.057638 0.000000 0.018142
# 5 -0.002477 0.000277 0.000558 0.000000 0.017867 0.000000
# 6 0.000000 0.000000 0.000000 0.018142 0.000000 0.038020
#
#
# Mechanical properties :
#
#
# Convention : Reuss Voigt Hill
#
# Bulk Modulus (GPa) = 51.66377 54.09339 52.87858
# Shear Modulus (GPa) = 24.25772 31.26700 27.76236
#
# Velocity S-wave (km/s) = 3.38685 3.84515 3.62325
# Velocity P-wave (km/s) = 6.30274 6.72999 6.51986
#
# Compressibility (1/GPa) = 0.01935592
#
# Stress axis : x y z
#
# Youngs Moduli (GPa) = 51.58399 65.49183 55.26381
#
# Poissons Ratio (x) = 0.16858 0.58156
# Poissons Ratio (y) = 0.13278 0.19893
# Poissons Ratio (z) = 0.54284 0.23574
#
# Static dielectric constant tensor:
#      x y z
#    x 4.096670 0.000000 -0.123100 
#    y 0.000000 3.557190 0.000000 
#    z -0.123100 0.000000 3.923400 
# 
# 
# High freq. dielectric constant tensor:
#      x y z
#    x 1.853860 0.000000 -0.011580 
#    y 0.000000 1.803660 0.000000 
#    z -0.011580 0.000000 1.824810 
# 
# From -- ./inp_files/48885.got.cif
#   From: 2010.06.25/outbox.cif.g09.slc.cpg/sg15_25_cif.got.tgz:48885.got - 2010.06.28 07:06:18.
