data_PCOD8139328
_publ_section_title
;
Structure prediction by ZEFSAII (Michael W. Deem and Ramdas Pophale) SiO2 
 PCOD8139328
Probable space group: C 2/C
;
_chemical_formula_sum "Si O2"
_cell_formula_units_Z 64
_cell_length_a 8.815715
_cell_length_b 11.438295
_cell_length_c 29.497317
_cell_angle_alpha 90.000000
_cell_angle_beta 89.709267
_cell_angle_gamma 90.000000
_cell_volume 2974.375252
_symmetry_space_group_name_H-M "C 2/C"
_symmetry_group_IT_number 15
_symmetry_cell_setting 'monoclinic'
loop_
_space_group_symop_operation_xyz
x,y,z
-x,y,1/2-z
-x,-y,-z
x,-y,1/2+z
1/2+x,1/2+y,z
1/2-x,1/2+y,1/2-z
1/2-x,1/2-y,-z
1/2+x,1/2-y,1/2+z
loop_
_atom_site_type_symbol
_atom_site_label
_atom_site_fract_x
_atom_site_fract_y
_atom_site_fract_z
Si Si1 0.043728 0.344742 0.102200
Si Si2 0.621593 0.372632 0.061995
Si Si3 0.482277 0.516049 0.140189
Si Si4 0.734809 0.724544 0.365361
Si Si5 0.997035 0.209578 0.803463
Si Si6 0.428327 0.764523 0.493977
Si Si7 0.900492 0.540719 0.058448
Si Si8 0.261574 0.181775 0.138373
O O1 0.198661 0.313225 0.127773
O O2 0.901896 0.318924 0.135357
O O3 0.039670 0.478142 0.085018
O O4 0.026775 0.257655 0.058698
O O5 0.513868 0.454075 0.092368
O O6 0.663921 0.254768 0.090204
O O7 0.526323 0.335978 0.018061
O O8 0.771976 0.443674 0.046688
O O9 0.329506 0.592727 0.135313
O O10 0.462859 0.420601 0.179594
O O11 0.625342 0.597282 0.153767
O O12 0.831710 0.748931 0.320205
O O13 0.118368 0.304656 0.821555
O O14 0.000000 0.211262 0.750000
O O15 0.250000 0.750000 0.500000
O O16 0.464713 0.894613 0.513635
O O17 0.837952 0.639723 0.091936
#
# Coordination Sequence:
#
# PCOD8139328 Si02
#       8
#     8   8   8   8   8   8   8   8
#     4  10  22  40  60  87 121 163 207 246 295 349
#     4   9  21  39  58  86 124 159 205 253 284 343
#     4   9  20  41  66  88 117 163 197 237 304 360
#     4   9  20  41  63  88 118 158 201 240 298 359
#     4  11  24  41  65  95 120 147 192 247 304 370
#     4  12  23  37  54  89 127 158 210 255 287 335
#     4  10  20  39  60  84 119 164 205 249 291 342
#     4  10  21  42  62  88 124 154 196 251 292 359
#
# _framework density 21.517125
#
# number of rings (size 3 to 8) (size 9 to 14) (size 15 to 20)
#    0.000    2.000    1.250    2.625    0.000    5.500 
#    2.250    1.875    0.000    0.000    0.000    0.000 
#    0.000    0.000    0.000    0.000    0.000    0.000 
#
# Total GULP energy -396746.548571 kJ/mol
# GULP energy per Si atom -12398.329643 kJ/mol
# Density = 2.146815 g / cm^3
# Si number density = 21.517125 Si / 1000 Ang^3
#
#
#
# Elastic Constant Matrix: (Units=GPa)
#
#
# Indices 1 2 3 4 5 6 
#
# 1 83.0552 39.3026 37.8247 0.0000 -2.9833 0.0000
# 2 39.3026 91.9055 11.9255 0.0000 4.2709 0.0000
# 3 37.8247 11.9255 84.6648 0.0000 -5.9254 0.0000
# 4 0.0000 0.0000 0.0000 19.0335 0.0000 2.6345
# 5 -2.9833 4.2709 -5.9254 0.0000 23.0305 0.0000
# 6 0.0000 0.0000 0.0000 2.6345 0.0000 38.1363
#
#
#
# Elastic Compliance Matrix: (Units=1/GPa)
#
#
# Indices 1 2 3 4 5 6 
#
# 1 0.018820 -0.007194 -0.007261 0.000000 0.001904 0.000000
# 2 -0.007194 0.013977 0.001017 0.000000 -0.003262 0.000000
# 3 -0.007261 0.001017 0.015105 0.000000 0.002757 0.000000
# 4 0.000000 0.000000 0.000000 0.053046 0.000000 -0.003664
# 5 0.001904 -0.003262 0.002757 0.000000 0.044982 0.000000
# 6 0.000000 0.000000 0.000000 -0.003664 0.000000 0.026475
#
#
# Mechanical properties :
#
#
# Convention : Reuss Voigt Hill
#
# Bulk Modulus (GPa) = 47.56317 48.63677 48.09997
# Shear Modulus (GPa) = 24.23770 27.41159 25.82465
#
# Velocity S-wave (km/s) = 3.35989 3.57311 3.46813
# Velocity P-wave (km/s) = 6.09955 6.29886 6.20001
#
# Compressibility (1/GPa) = 0.02102467
#
# Stress axis : x y z
#
# Youngs Moduli (GPa) = 53.13495 71.54607 66.20310
#
# Poissons Ratio (x) = 0.51474 0.48072
# Poissons Ratio (y) = 0.38228 -0.06734
# Poissons Ratio (z) = 0.38583 -0.07277
#
# Static dielectric constant tensor:
#      x y z
#    x 4.044960 0.000000 -0.047130 
#    y 0.000000 4.009790 0.000000 
#    z -0.047130 0.000000 3.467030 
# 
# 
# High freq. dielectric constant tensor:
#      x y z
#    x 1.856370 0.000000 -0.006570 
#    y 0.000000 1.851660 0.000000 
#    z -0.006570 0.000000 1.802920 
# 
# From -- ./inp_files/307496.got.cif
#   From: 2010.06.25/outbox.cif.g09.slc.cpg/sg15_154_cif.got.tgz:307496.got - 2010.06.28 07:06:18.
