data_PCOD8139052
_publ_section_title
;
Structure prediction by ZEFSAII (Michael W. Deem and Ramdas Pophale) SiO2 
 PCOD8139052
Probable space group: C 2/C
;
_chemical_formula_sum "Si O2"
_cell_formula_units_Z 56
_cell_length_a 21.172163
_cell_length_b 17.362077
_cell_length_c 9.357750
_cell_angle_alpha 90.000000
_cell_angle_beta 124.177766
_cell_angle_gamma 90.000000
_cell_volume 2845.775601
_symmetry_space_group_name_H-M "C 2/C"
_symmetry_group_IT_number 15
_symmetry_cell_setting 'monoclinic'
loop_
_space_group_symop_operation_xyz
x,y,z
-x,y,1/2-z
-x,-y,-z
x,-y,1/2+z
1/2+x,1/2+y,z
1/2-x,1/2+y,1/2-z
1/2-x,1/2-y,-z
1/2+x,1/2-y,1/2+z
loop_
_atom_site_type_symbol
_atom_site_label
_atom_site_fract_x
_atom_site_fract_y
_atom_site_fract_z
Si Si1 0.018447 0.422046 0.939439
Si Si2 0.826690 0.945567 0.558184
Si Si3 0.658426 0.333685 0.153405
Si Si4 0.233342 0.464623 0.699631
Si Si5 0.875308 0.336816 0.818092
Si Si6 0.823524 0.618744 0.950113
Si Si7 0.453129 0.450375 0.322391
O O1 0.000000 0.437790 0.750000
O O2 0.964307 0.356819 0.936946
O O3 0.104243 0.387441 0.068077
O O4 0.000000 0.500000 0.000000
O O5 0.847883 0.863799 0.515870
O O6 0.796626 0.926423 0.678608
O O7 0.768993 0.994663 0.384047
O O8 0.904806 0.989890 0.670150
O O9 0.632680 0.246157 0.122079
O O10 0.748509 0.336902 0.303034
O O11 0.603891 0.386561 0.183424
O O12 0.172147 0.400319 0.657275
O O13 0.196018 0.529087 0.548561
O O14 0.847394 0.335120 0.620325
O O15 0.500000 0.410811 0.250000
O O16 0.500000 0.500000 0.500000
#
# Coordination Sequence:
#
# PCOD8139052 Si02
#       7
#     8   8   8   8   8   8   8
#     4  10  21  36  63  91 121 164 210 251 303 377
#     4  11  21  39  63  95 116 169 212 250 303 381
#     4  11  24  39  63  93 131 155 207 269 314 362
#     4  11  19  36  66  90 123 162 214 249 303 384
#     4  11  22  38  61  95 130 156 204 271 316 353
#     4  10  20  38  64  91 120 170 211 245 312 387
#     4  12  22  39  67  89 120 166 212 252 307 378
#
# _framework density 19.678290000000001
#
# number of rings (size 3 to 8) (size 9 to 14) (size 15 to 20)
#    0.000    1.143    7.143    0.429    0.000    2.286 
#    0.000    1.429    3.143    0.000    0.000    0.000 
#    0.000    0.000    0.000    0.000    0.000    0.000 
#
# Total GULP energy -346889.209694 kJ/mol
# GULP energy per Si atom -12388.900346 kJ/mol
# Density = 1.963350 g / cm^3
# Si number density = 19.678290 Si / 1000 Ang^3
#
#
#
# Elastic Constant Matrix: (Units=GPa)
#
#
# Indices 1 2 3 4 5 6 
#
# 1 131.8008 34.7341 28.6263 0.0000 3.8108 0.0000
# 2 34.7341 115.6437 25.1575 0.0000 2.9612 0.0000
# 3 28.6263 25.1575 45.4089 0.0000 1.8075 0.0000
# 4 0.0000 0.0000 0.0000 9.7197 0.0000 -3.2496
# 5 3.8108 2.9612 1.8075 0.0000 34.7693 0.0000
# 6 0.0000 0.0000 0.0000 -3.2496 0.0000 35.0757
#
#
#
# Elastic Compliance Matrix: (Units=1/GPa)
#
#
# Indices 1 2 3 4 5 6 
#
# 1 0.009083 -0.001674 -0.004774 0.000000 -0.000605 0.000000
# 2 -0.001674 0.010151 -0.004551 0.000000 -0.000445 0.000000
# 3 -0.004774 -0.004551 0.027574 0.000000 -0.000523 0.000000
# 4 0.000000 0.000000 0.000000 0.106173 0.000000 0.009836
# 5 -0.000605 -0.000445 -0.000523 0.000000 0.028892 0.000000
# 6 0.000000 0.000000 0.000000 0.009836 0.000000 0.029421
#
#
# Mechanical properties :
#
#
# Convention : Reuss Voigt Hill
#
# Bulk Modulus (GPa) = 40.30728 52.20993 46.25860
# Shear Modulus (GPa) = 20.69847 29.53529 25.11688
#
# Velocity S-wave (km/s) = 3.24673 3.87836 3.57652
# Velocity P-wave (km/s) = 5.88070 6.82971 6.37289
#
# Compressibility (1/GPa) = 0.02480941
#
# Stress axis : x y z
#
# Youngs Moduli (GPa) = 110.09807 98.50778 36.26569
#
# Poissons Ratio (x) = 0.16489 0.17315
# Poissons Ratio (y) = 0.18430 0.16505
# Poissons Ratio (z) = 0.52566 0.44833
#
# Static dielectric constant tensor:
#      x y z
#    x 4.063270 0.000000 0.072300 
#    y 0.000000 3.276820 0.000000 
#    z 0.072300 0.000000 3.654690 
# 
# 
# High freq. dielectric constant tensor:
#      x y z
#    x 1.797160 0.000000 0.003180 
#    y 0.000000 1.741490 0.000000 
#    z 0.003180 0.000000 1.756650 
# 
# From -- ./inp_files/56707.got.cif
#   From: 2010.06.25/outbox.cif.g09.slc.cpg/sg15_29_cif.got.tgz:56707.got - 2010.06.28 07:06:18.
