data_PCOD8139545
_publ_section_title
;
Structure prediction by ZEFSAII (Michael W. Deem and Ramdas Pophale) SiO2 
 PCOD8139545
Probable space group: C 2/C
;
_chemical_formula_sum "Si O2"
_cell_formula_units_Z 48
_cell_length_a 13.948220
_cell_length_b 29.031013
_cell_length_c 8.218716
_cell_angle_alpha 90.000000
_cell_angle_beta 142.427754
_cell_angle_gamma 90.000000
_cell_volume 2029.293273
_symmetry_space_group_name_H-M "C 2/C"
_symmetry_group_IT_number 15
_symmetry_cell_setting 'monoclinic'
loop_
_space_group_symop_operation_xyz
x,y,z
-x,y,1/2-z
-x,-y,-z
x,-y,1/2+z
1/2+x,1/2+y,z
1/2-x,1/2+y,1/2-z
1/2-x,1/2-y,-z
1/2+x,1/2-y,1/2+z
loop_
_atom_site_type_symbol
_atom_site_label
_atom_site_fract_x
_atom_site_fract_y
_atom_site_fract_z
Si Si1 0.807318 0.144030 0.630576
Si Si2 0.605073 0.791120 0.045946
Si Si3 0.301214 0.798418 0.819124
Si Si4 0.816805 0.450497 0.480713
Si Si5 0.673945 0.539690 0.443103
Si Si6 0.102259 0.863216 0.729971
O O1 0.697164 0.161126 0.633837
O O2 0.777672 0.178450 0.444136
O O3 0.759677 0.091626 0.521872
O O4 0.990794 0.144388 0.923278
O O5 0.500000 0.775975 0.750000
O O6 0.490260 0.796636 0.048817
O O7 0.735304 0.752597 0.256366
O O8 0.251576 0.829024 0.910125
O O9 0.762597 0.499873 0.469052
O O10 0.769351 0.445049 0.229715
O O11 0.000000 0.447100 0.750000
O O12 0.500000 0.521552 0.250000
O O13 0.662455 0.584354 0.312428
O O14 0.000000 0.850931 0.750000
#
# Coordination Sequence:
#
# PCOD8139545 Si02
#       6
#     8   8   8   8   8   8
#     4  11  22  41  69  98 139 176 232 277 342 406
#     4  10  20  39  64 105 135 170 231 292 331 408
#     4  11  22  39  71 100 134 183 230 281 346 405
#     4  12  25  45  71 103 138 178 226 285 347 407
#     4  11  25  46  67  99 139 177 230 284 336 412
#     4  11  23  44  63  95 137 180 224 287 329 409
#
# _framework density 23.653556999999999
#
# number of rings (size 3 to 8) (size 9 to 14) (size 15 to 20)
#    0.000    1.000    3.333    7.000    2.333    0.000 
#    3.000    4.167    0.000    0.000    0.000    0.000 
#    0.000    0.000    0.000    0.000    0.000    0.000 
#
# Total GULP energy -297673.788630 kJ/mol
# GULP energy per Si atom -12403.074526 kJ/mol
# Density = 2.359972 g / cm^3
# Si number density = 23.653557 Si / 1000 Ang^3
#
#
#
# Elastic Constant Matrix: (Units=GPa)
#
#
# Indices 1 2 3 4 5 6 
#
# 1 94.5474 28.3600 0.5669 0.0000 22.5878 0.0000
# 2 28.3600 92.0630 10.2535 0.0000 6.5917 0.0000
# 3 0.5669 10.2535 79.4160 0.0000 21.1317 0.0000
# 4 0.0000 0.0000 0.0000 27.5766 0.0000 17.1320
# 5 22.5878 6.5917 21.1317 0.0000 34.8393 0.0000
# 6 0.0000 0.0000 0.0000 17.1320 0.0000 18.7081
#
#
#
# Elastic Compliance Matrix: (Units=1/GPa)
#
#
# Indices 1 2 3 4 5 6 
#
# 1 0.014244 -0.003997 0.003184 0.000000 -0.010410 0.000000
# 2 -0.003997 0.012205 -0.001935 0.000000 0.001456 0.000000
# 3 0.003184 -0.001935 0.015825 0.000000 -0.011297 0.000000
# 4 0.000000 0.000000 0.000000 0.084119 0.000000 -0.077032
# 5 -0.010410 0.001456 -0.011297 0.000000 0.042029 0.000000
# 6 0.000000 0.000000 0.000000 -0.077032 0.000000 0.123995
#
#
# Mechanical properties :
#
#
# Convention : Reuss Voigt Hill
#
# Bulk Modulus (GPa) = 27.18969 38.26525 32.72747
# Shear Modulus (GPa) = 16.12018 31.34786 23.73402
#
# Velocity S-wave (km/s) = 2.61341 3.64441 3.17109
# Velocity P-wave (km/s) = 4.54164 5.82421 5.22245
#
# Compressibility (1/GPa) = 0.03677865
#
# Stress axis : x y z
#
# Youngs Moduli (GPa) = 70.20741 81.93598 63.19113
#
# Poissons Ratio (x) = 0.32750 -0.20122
# Poissons Ratio (y) = 0.28062 0.12225
# Poissons Ratio (z) = -0.22356 0.15851
#
# Static dielectric constant tensor:
#      x y z
#    x 4.458290 0.000000 0.179660 
#    y 0.000000 4.300370 0.000000 
#    z 0.179660 0.000000 4.218810 
# 
# 
# High freq. dielectric constant tensor:
#      x y z
#    x 1.937240 0.000000 0.011340 
#    y 0.000000 1.946050 0.000000 
#    z 0.011340 0.000000 1.937370 
# 
# From -- ./inp_files/43928.got.cif
#   From: 2010.06.25/outbox.cif.g09.slc.cpg/sg15_22_cif.got.tgz:43928.got - 2010.06.28 07:06:18.
