data_PCOD8139334
_publ_section_title
;
Structure prediction by ZEFSAII (Michael W. Deem and Ramdas Pophale) SiO2 
 PCOD8139334
Probable space group: C 2/C
;
_chemical_formula_sum "Si O2"
_cell_formula_units_Z 52
_cell_length_a 8.058112
_cell_length_b 25.200329
_cell_length_c 14.466972
_cell_angle_alpha 90.000000
_cell_angle_beta 63.660590
_cell_angle_gamma 90.000000
_cell_volume 2632.771121
_symmetry_space_group_name_H-M "C 2/C"
_symmetry_group_IT_number 15
_symmetry_cell_setting 'monoclinic'
loop_
_space_group_symop_operation_xyz
x,y,z
-x,y,1/2-z
-x,-y,-z
x,-y,1/2+z
1/2+x,1/2+y,z
1/2-x,1/2+y,1/2-z
1/2-x,1/2-y,-z
1/2+x,1/2-y,1/2+z
loop_
_atom_site_type_symbol
_atom_site_label
_atom_site_fract_x
_atom_site_fract_y
_atom_site_fract_z
Si Si1 0.300183 0.522363 0.063615
Si Si2 0.808173 0.311684 0.849011
Si Si3 0.149185 0.615232 0.989085
Si Si4 0.216520 0.197227 0.681957
Si Si5 0.500000 0.158590 0.750000
Si Si6 0.055440 0.100639 0.341960
Si Si7 0.681847 0.087934 0.546636
O O1 0.298985 0.554069 0.162215
O O2 0.161553 0.472296 0.091390
O O3 0.500000 0.500000 0.000000
O O4 0.260986 0.563403 0.990942
O O5 0.729544 0.251948 0.884526
O O6 0.658081 0.343155 0.824514
O O7 0.000000 0.307581 0.750000
O O8 0.853672 0.340009 0.932871
O O9 0.246902 0.642189 0.878493
O O10 0.944299 0.596448 0.012436
O O11 0.342946 0.195692 0.742786
O O12 0.000000 0.197773 0.750000
O O13 0.615909 0.124872 0.646567
O O14 0.000000 0.089660 0.250000
O O15 0.887116 0.100937 0.457712
#
# Coordination Sequence:
#
# PCOD8139334 Si02
#       7
#     8   8   8   8   4   8   8
#     4   9  20  37  59  86 120 156 204 248 304 365
#     4  10  21  38  60  89 119 157 201 251 307 368
#     4  10  20  39  60  86 119 156 203 252 304 361
#     4  10  23  39  63  87 125 164 205 252 310 366
#     4  10  24  42  60  94 122 168 210 250 306 376
#     4  10  21  38  62  89 122 158 201 258 304 363
#     4  10  21  42  59  90 124 160 206 251 307 364
#
# _framework density 19.751052999999999
#
# number of rings (size 3 to 8) (size 9 to 14) (size 15 to 20)
#    0.000    2.154    0.000    1.846    7.538    0.000 
#   19.385    1.538    0.000    0.000    0.000    0.000 
#    0.000    0.000    0.000    0.000    0.000    0.000 
#
# Total GULP energy -322173.252928 kJ/mol
# GULP energy per Si atom -12391.278959 kJ/mol
# Density = 1.970610 g / cm^3
# Si number density = 19.751053 Si / 1000 Ang^3
#
#
#
# Elastic Constant Matrix: (Units=GPa)
#
#
# Indices 1 2 3 4 5 6 
#
# 1 136.0302 71.7387 33.5750 0.0000 20.5987 0.0000
# 2 71.7387 134.4809 22.1607 0.0000 3.3388 0.0000
# 3 33.5750 22.1607 66.0478 0.0000 5.7373 0.0000
# 4 0.0000 0.0000 0.0000 20.3415 0.0000 3.5699
# 5 20.5987 3.3388 5.7373 0.0000 31.9458 0.0000
# 6 0.0000 0.0000 0.0000 3.5699 0.0000 28.2002
#
#
#
# Elastic Compliance Matrix: (Units=1/GPa)
#
#
# Indices 1 2 3 4 5 6 
#
# 1 0.012350 -0.005804 -0.003750 0.000000 -0.006683 0.000000
# 2 -0.005804 0.010603 -0.000849 0.000000 0.002787 0.000000
# 3 -0.003750 -0.000849 0.017385 0.000000 -0.000616 0.000000
# 4 0.000000 0.000000 0.000000 0.050277 0.000000 -0.006365
# 5 -0.006683 0.002787 -0.000616 0.000000 0.035432 0.000000
# 6 0.000000 0.000000 0.000000 -0.006365 0.000000 0.036267
#
#
# Mechanical properties :
#
#
# Convention : Reuss Voigt Hill
#
# Bulk Modulus (GPa) = 51.19946 65.72308 58.46127
# Shear Modulus (GPa) = 26.36704 30.03645 28.20175
#
# Velocity S-wave (km/s) = 3.65769 3.90391 3.78280
# Velocity P-wave (km/s) = 6.61943 7.32589 6.98160
#
# Compressibility (1/GPa) = 0.01953145
#
# Stress axis : x y z
#
# Youngs Moduli (GPa) = 80.97270 94.31334 57.52012
#
# Poissons Ratio (x) = 0.54741 0.21570
# Poissons Ratio (y) = 0.46998 0.04884
# Poissons Ratio (z) = 0.30365 0.08009
#
# Static dielectric constant tensor:
#      x y z
#    x 4.013890 0.000000 0.238900 
#    y 0.000000 4.316810 0.000000 
#    z 0.238900 0.000000 3.376890 
# 
# 
# High freq. dielectric constant tensor:
#      x y z
#    x 1.788570 0.000000 0.010610 
#    y 0.000000 1.785670 0.000000 
#    z 0.010610 0.000000 1.747020 
# 
# From -- ./inp_files/137191.got.cif
#   From: 2010.06.25/outbox.cif.g09.slc.cpg/sg15_69_cif.got.tgz:137191.got - 2010.06.28 07:06:18.
