data_PCOD8139323
_publ_section_title
;
Structure prediction by ZEFSAII (Michael W. Deem and Ramdas Pophale) SiO2 
 PCOD8139323
Probable space group: C 2/C
;
_chemical_formula_sum "Si O2"
_cell_formula_units_Z 56
_cell_length_a 13.249753
_cell_length_b 21.278122
_cell_length_c 14.469654
_cell_angle_alpha 90.000000
_cell_angle_beta 143.083211
_cell_angle_gamma 90.000000
_cell_volume 2450.326613
_symmetry_space_group_name_H-M "C 2/C"
_symmetry_group_IT_number 15
_symmetry_cell_setting 'monoclinic'
loop_
_space_group_symop_operation_xyz
x,y,z
-x,y,1/2-z
-x,-y,-z
x,-y,1/2+z
1/2+x,1/2+y,z
1/2-x,1/2+y,1/2-z
1/2-x,1/2-y,-z
1/2+x,1/2-y,1/2+z
loop_
_atom_site_type_symbol
_atom_site_label
_atom_site_fract_x
_atom_site_fract_y
_atom_site_fract_z
Si Si1 0.838805 0.677474 0.939680
Si Si2 0.713092 0.053385 0.694298
Si Si3 0.690168 0.900319 0.897561
Si Si4 0.896718 0.129082 0.261158
Si Si5 0.145134 0.543956 0.998219
Si Si6 0.206716 0.700822 0.258297
Si Si7 0.145439 0.025844 0.514963
O O1 0.799375 0.627639 0.830146
O O2 0.721982 0.736801 0.830837
O O3 0.788603 0.646349 0.000203
O O4 0.028765 0.702810 0.075795
O O5 0.549814 0.031454 0.631447
O O6 0.856094 0.035774 0.874422
O O7 0.733814 0.017834 0.611284
O O8 0.500000 0.930086 0.750000
O O9 0.712481 0.860594 0.823279
O O10 0.841056 0.951889 0.003530
O O11 0.708813 0.106056 0.097583
O O12 0.865275 0.188822 0.305051
O O13 0.000000 0.155807 0.250000
O O14 0.985139 0.065367 0.363681
O O15 0.194594 0.552152 0.926772
#
# Coordination Sequence:
#
# PCOD8139323 Si02
#       7
#     8   8   8   8   8   8   8
#     4  11  24  43  66  94 129 173 224 274 317 395
#     4  11  21  35  66  92 123 167 212 269 327 394
#     4  10  21  41  66  98 130 168 212 278 339 392
#     4  10  23  42  61  92 136 174 208 278 327 381
#     4  10  20  39  59  92 129 159 206 270 335 389
#     4  11  24  44  65  88 132 178 224 268 324 382
#     4  11  22  36  65  99 130 163 215 263 340 399
#
# _framework density 22.854096999999999
#
# number of rings (size 3 to 8) (size 9 to 14) (size 15 to 20)
#    0.000    1.429    2.857    2.571    6.000    2.286 
#    0.000    2.143    0.000    0.000    0.000    0.000 
#    0.000    0.000    0.000    0.000    0.000    0.000 
#
# Total GULP energy -346877.054080 kJ/mol
# GULP energy per Si atom -12388.466217 kJ/mol
# Density = 2.280208 g / cm^3
# Si number density = 22.854097 Si / 1000 Ang^3
#
#
#
# Elastic Constant Matrix: (Units=GPa)
#
#
# Indices 1 2 3 4 5 6 
#
# 1 65.8275 8.5372 7.5010 0.0000 -9.9736 0.0000
# 2 8.5372 66.6150 27.7988 0.0000 3.4154 0.0000
# 3 7.5010 27.7988 47.6498 0.0000 -7.5768 0.0000
# 4 0.0000 0.0000 0.0000 35.7220 0.0000 -2.9600
# 5 -9.9736 3.4154 -7.5768 0.0000 24.3711 0.0000
# 6 0.0000 0.0000 0.0000 -2.9600 0.0000 18.6940
#
#
#
# Elastic Compliance Matrix: (Units=1/GPa)
#
#
# Indices 1 2 3 4 5 6 
#
# 1 0.016597 -0.002479 -0.000033 0.000000 0.007129 0.000000
# 2 -0.002479 0.021314 -0.013340 0.000000 -0.008149 0.000000
# 3 -0.000033 -0.013340 0.030581 0.000000 0.011363 0.000000
# 4 0.000000 0.000000 0.000000 0.028366 0.000000 0.004491
# 5 0.007129 -0.008149 0.011363 0.000000 0.048624 0.000000
# 6 0.000000 0.000000 0.000000 0.004491 0.000000 0.054204
#
#
# Mechanical properties :
#
#
# Convention : Reuss Voigt Hill
#
# Bulk Modulus (GPa) = 27.18261 29.75181 28.46721
# Shear Modulus (GPa) = 20.52103 24.84112 22.68107
#
# Velocity S-wave (km/s) = 2.99977 3.30046 3.15370
# Velocity P-wave (km/s) = 4.89060 5.25076 5.07388
#
# Compressibility (1/GPa) = 0.03678822
#
# Stress axis : x y z
#
# Youngs Moduli (GPa) = 60.25331 46.91762 32.69993
#
# Poissons Ratio (x) = 0.11630 0.00108
# Poissons Ratio (y) = 0.14935 0.43622
# Poissons Ratio (z) = 0.00198 0.62588
#
# Static dielectric constant tensor:
#      x y z
#    x 4.263920 0.000000 -0.081320 
#    y 0.000000 3.855980 0.000000 
#    z -0.081320 0.000000 4.178280 
# 
# 
# High freq. dielectric constant tensor:
#      x y z
#    x 1.914290 0.000000 -0.008040 
#    y 0.000000 1.882180 0.000000 
#    z -0.008040 0.000000 1.894200 
# 
# From -- ./inp_files/156236.got.cif
#   From: 2010.06.25/outbox.cif.g09.slc.cpg/sg15_79_cif.got.tgz:156236.got - 2010.06.28 07:06:18.
