data_PCOD8139138
_publ_section_title
;
Structure prediction by ZEFSAII (Michael W. Deem and Ramdas Pophale) SiO2 
 PCOD8139138
Probable space group: C 2/C
;
_chemical_formula_sum "Si O2"
_cell_formula_units_Z 44
_cell_length_a 8.881085
_cell_length_b 15.708510
_cell_length_c 14.788767
_cell_angle_alpha 90.000000
_cell_angle_beta 73.345821
_cell_angle_gamma 90.000000
_cell_volume 1976.614911
_symmetry_space_group_name_H-M "C 2/C"
_symmetry_group_IT_number 15
_symmetry_cell_setting 'monoclinic'
loop_
_space_group_symop_operation_xyz
x,y,z
-x,y,1/2-z
-x,-y,-z
x,-y,1/2+z
1/2+x,1/2+y,z
1/2-x,1/2+y,1/2-z
1/2-x,1/2-y,-z
1/2+x,1/2-y,1/2+z
loop_
_atom_site_type_symbol
_atom_site_label
_atom_site_fract_x
_atom_site_fract_y
_atom_site_fract_z
Si Si1 0.210010 0.257813 0.867274
Si Si2 0.852685 0.440348 0.047415
Si Si3 0.684972 0.559517 0.209405
Si Si4 0.500834 0.765939 0.075070
Si Si5 0.244977 0.377852 0.621629
Si Si6 0.000000 0.268596 0.750000
O O1 0.237480 0.358170 0.850114
O O2 0.379959 0.217216 0.861228
O O3 0.131763 0.218084 0.787586
O O4 0.095177 0.239700 0.969737
O O5 0.736028 0.479525 0.141058
O O6 0.901641 0.350367 0.079133
O O7 0.749906 0.424998 0.974950
O O8 0.000000 0.500000 0.000000
O O9 0.500000 0.564747 0.250000
O O10 0.751464 0.551117 0.300109
O O11 0.389356 0.686137 0.114624
O O12 0.083143 0.325031 0.657765
#
# Coordination Sequence:
#
# PCOD8139138 Si02
#       6
#     8   8   8   8   8   4
#     4  10  21  41  73  99 131 184 236 282 351 415
#     4  12  24  44  73 103 140 188 237 287 354 425
#     4  11  23  46  68 102 144 183 227 294 359 403
#     4  11  22  43  73 103 132 186 238 287 348 423
#     4  11  23  44  72  99 144 187 234 290 348 416
#     4  10  20  38  66 104 138 176 226 296 336 396
#
# _framework density 22.260280000000002
#
# number of rings (size 3 to 8) (size 9 to 14) (size 15 to 20)
#    0.000    1.091    5.455    1.636    0.000    0.727 
#    1.636    7.273    0.000    0.000    0.000    0.000 
#    0.000    0.000    0.000    0.000    0.000    0.000 
#
# Total GULP energy -272704.464455 kJ/mol
# GULP energy per Si atom -12395.657475 kJ/mol
# Density = 2.220961 g / cm^3
# Si number density = 22.260280 Si / 1000 Ang^3
#
#
#
# Elastic Constant Matrix: (Units=GPa)
#
#
# Indices 1 2 3 4 5 6 
#
# 1 121.0255 14.6755 65.3975 0.0000 19.5772 0.0000
# 2 14.6755 47.6976 45.1499 0.0000 5.1644 0.0000
# 3 65.3975 45.1499 132.8632 0.0000 25.9198 0.0000
# 4 0.0000 0.0000 0.0000 37.3127 0.0000 -2.4312
# 5 19.5772 5.1644 25.9198 0.0000 56.3543 0.0000
# 6 0.0000 0.0000 0.0000 -2.4312 0.0000 17.4138
#
#
#
# Elastic Compliance Matrix: (Units=1/GPa)
#
#
# Indices 1 2 3 4 5 6 
#
# 1 0.011577 0.002548 -0.006300 0.000000 -0.001358 0.000000
# 2 0.002548 0.031717 -0.012406 0.000000 0.001914 0.000000
# 3 -0.006300 -0.012406 0.015594 0.000000 -0.003847 0.000000
# 4 0.000000 0.000000 0.000000 0.027047 0.000000 0.003776
# 5 -0.001358 0.001914 -0.003847 0.000000 0.019811 0.000000
# 6 0.000000 0.000000 0.000000 0.003776 0.000000 0.057953
#
#
# Mechanical properties :
#
#
# Convention : Reuss Voigt Hill
#
# Bulk Modulus (GPa) = 37.63149 61.33692 49.48421
# Shear Modulus (GPa) = 24.40556 33.97371 29.18963
#
# Velocity S-wave (km/s) = 3.31474 3.91090 3.62510
# Velocity P-wave (km/s) = 5.62067 6.92877 6.30871
#
# Compressibility (1/GPa) = 0.02657349
#
# Stress axis : x y z
#
# Youngs Moduli (GPa) = 86.37473 31.52839 64.12904
#
# Poissons Ratio (x) = -0.08033 0.40398
# Poissons Ratio (y) = -0.22008 0.79558
# Poissons Ratio (z) = 0.54412 0.39114
#
# Static dielectric constant tensor:
#      x y z
#    x 4.307470 0.000000 0.122290 
#    y 0.000000 3.687790 0.000000 
#    z 0.122290 0.000000 4.275520 
# 
# 
# High freq. dielectric constant tensor:
#      x y z
#    x 1.901190 0.000000 0.003380 
#    y 0.000000 1.829900 0.000000 
#    z 0.003380 0.000000 1.894600 
# 
# From -- ./inp_files/134363.got.cif
#   From: 2010.06.25/outbox.cif.g09.slc.cpg/sg15_68_cif.got.tgz:134363.got - 2010.06.28 07:06:18.
