data_PCOD8139399
_publ_section_title
;
Structure prediction by ZEFSAII (Michael W. Deem and Ramdas Pophale) SiO2 
 PCOD8139399
Probable space group: C 2/C
;
_chemical_formula_sum "Si O2"
_cell_formula_units_Z 48
_cell_length_a 15.441243
_cell_length_b 29.670791
_cell_length_c 9.215901
_cell_angle_alpha 90.000000
_cell_angle_beta 143.462865
_cell_angle_gamma 90.000000
_cell_volume 2513.720105
_symmetry_space_group_name_H-M "C 2/C"
_symmetry_group_IT_number 15
_symmetry_cell_setting 'monoclinic'
loop_
_space_group_symop_operation_xyz
x,y,z
-x,y,1/2-z
-x,-y,-z
x,-y,1/2+z
1/2+x,1/2+y,z
1/2-x,1/2+y,1/2-z
1/2-x,1/2-y,-z
1/2+x,1/2-y,1/2+z
loop_
_atom_site_type_symbol
_atom_site_label
_atom_site_fract_x
_atom_site_fract_y
_atom_site_fract_z
Si Si1 0.600866 0.131499 0.702813
Si Si2 0.205348 0.609858 0.157623
Si Si3 0.943811 0.815244 0.012159
Si Si4 0.400946 0.380678 0.472777
Si Si5 0.594557 0.236643 0.740279
Si Si6 0.964733 0.045407 0.536310
O O1 0.443787 0.109773 0.446782
O O2 0.727764 0.119385 0.761531
O O3 0.574901 0.184547 0.678904
O O4 0.655345 0.110767 0.925528
O O5 0.296481 0.655271 0.311782
O O6 0.298616 0.564095 0.305069
O O7 0.000000 0.816570 0.250000
O O8 0.057156 0.834059 0.046397
O O9 0.929429 0.763709 0.942296
O O10 0.428381 0.418531 0.390132
O O11 0.500000 0.388505 0.750000
O O12 0.500000 0.251858 0.750000
O O13 0.750000 0.250000 0.000000
O O14 0.000000 0.037217 0.750000
O O15 0.000000 0.000000 0.500000
#
# Coordination Sequence:
#
# PCOD8139399 Si02
#       6
#     8   8   8   8   8   8
#     4  11  20  36  64  91 121 167 204 257 312 368
#     4  10  20  39  61  89 127 158 201 258 320 359
#     4  11  22  37  56  86 128 169 221 267 301 358
#     4  11  19  38  65  91 118 165 211 247 308 373
#     4  12  20  36  58  87 118 169 227 259 297 366
#     4  11  24  43  69  96 120 152 202 252 305 384
#
# _framework density 19.095205
#
# number of rings (size 3 to 8) (size 9 to 14) (size 15 to 20)
#    0.000    1.000    6.667    4.000    0.000    0.000 
#    0.000   13.333    0.000    0.000    0.000    0.000 
#    0.000    0.000    0.000    0.000    0.000    0.000 
#
# Total GULP energy -297393.052234 kJ/mol
# GULP energy per Si atom -12391.377176 kJ/mol
# Density = 1.905174 g / cm^3
# Si number density = 19.095205 Si / 1000 Ang^3
#
#
#
# Elastic Constant Matrix: (Units=GPa)
#
#
# Indices 1 2 3 4 5 6 
#
# 1 140.5673 33.6355 77.3156 0.0000 24.1383 0.0000
# 2 33.6355 97.7546 50.9097 0.0000 2.1957 0.0000
# 3 77.3156 50.9097 108.3358 0.0000 16.7003 0.0000
# 4 0.0000 0.0000 0.0000 22.8875 0.0000 -5.0504
# 5 24.1383 2.1957 16.7003 0.0000 51.9368 0.0000
# 6 0.0000 0.0000 0.0000 -5.0504 0.0000 26.1384
#
#
#
# Elastic Compliance Matrix: (Units=1/GPa)
#
#
# Indices 1 2 3 4 5 6 
#
# 1 0.012145 0.000215 -0.008309 0.000000 -0.002982 0.000000
# 2 0.000215 0.013668 -0.006810 0.000000 0.001512 0.000000
# 3 -0.008309 -0.006810 0.018645 0.000000 -0.001846 0.000000
# 4 0.000000 0.000000 0.000000 0.045638 0.000000 0.008818
# 5 -0.002982 0.001512 -0.001846 0.000000 0.021170 0.000000
# 6 0.000000 0.000000 0.000000 0.008818 0.000000 0.039962
#
#
# Mechanical properties :
#
#
# Convention : Reuss Voigt Hill
#
# Bulk Modulus (GPa) = 68.25332 74.48659 71.36996
# Shear Modulus (GPa) = 26.89382 32.51233 29.70307
#
# Velocity S-wave (km/s) = 3.75695 4.13079 3.94829
# Velocity P-wave (km/s) = 7.39194 7.86409 7.63167
#
# Compressibility (1/GPa) = 0.01465130
#
# Stress axis : x y z
#
# Youngs Moduli (GPa) = 82.34162 73.16317 53.63426
#
# Poissons Ratio (x) = -0.01576 0.44563
# Poissons Ratio (y) = -0.01773 0.36523
# Poissons Ratio (z) = 0.68415 0.49822
#
# Static dielectric constant tensor:
#      x y z
#    x 4.174820 0.000000 0.906800 
#    y 0.000000 3.382260 0.000000 
#    z 0.906800 0.000000 3.704260 
# 
# 
# High freq. dielectric constant tensor:
#      x y z
#    x 1.755260 0.000000 0.011470 
#    y 0.000000 1.730660 0.000000 
#    z 0.011470 0.000000 1.734630 
# 
# From -- ./inp_files/43903.got.cif
#   From: 2010.06.25/outbox.cif.g09.slc.cpg/sg15_22_cif.got.tgz:43903.got - 2010.06.28 07:06:18.
