data_PCOD8139621
_publ_section_title
;
Structure prediction by ZEFSAII (Michael W. Deem and Ramdas Pophale) SiO2 
 PCOD8139621
Probable space group: C 2/C
;
_chemical_formula_sum "Si O2"
_cell_formula_units_Z 56
_cell_length_a 15.205596
_cell_length_b 9.066419
_cell_length_c 24.895823
_cell_angle_alpha 90.000000
_cell_angle_beta 131.470748
_cell_angle_gamma 90.000000
_cell_volume 2571.685934
_symmetry_space_group_name_H-M "C 2/C"
_symmetry_group_IT_number 15
_symmetry_cell_setting 'monoclinic'
loop_
_space_group_symop_operation_xyz
x,y,z
-x,y,1/2-z
-x,-y,-z
x,-y,1/2+z
1/2+x,1/2+y,z
1/2-x,1/2+y,1/2-z
1/2-x,1/2-y,-z
1/2+x,1/2-y,1/2+z
loop_
_atom_site_type_symbol
_atom_site_label
_atom_site_fract_x
_atom_site_fract_y
_atom_site_fract_z
Si Si1 0.588461 0.953999 0.963751
Si Si2 0.659551 0.721621 0.262779
Si Si3 0.720656 0.022808 0.417630
Si Si4 0.356716 0.239242 0.913054
Si Si5 0.836465 0.479156 0.315580
Si Si6 0.102079 0.212190 0.473275
Si Si7 0.603833 0.253058 0.854231
O O1 0.689503 0.903176 0.962441
O O2 0.463402 0.955200 0.882332
O O3 0.617984 0.117577 0.998129
O O4 0.587530 0.839366 0.012126
O O5 0.745397 0.610246 0.267224
O O6 0.668758 0.884956 0.241475
O O7 0.523848 0.676425 0.202940
O O8 0.688376 0.707242 0.338227
O O9 0.826685 0.903238 0.462488
O O10 0.604683 0.927923 0.354142
O O11 0.756154 0.145807 0.389166
O O12 0.294135 0.123565 0.848102
O O13 0.462347 0.320921 0.923244
O O14 0.150389 0.194007 0.431298
#
# Coordination Sequence:
#
# PCOD8139621 Si02
#       7
#     8   8   8   8   8   8   8
#     4  10  21  42  61  94 130 165 204 269 328 366
#     4  11  24  43  66  86 124 174 215 259 316 381
#     4  11  22  38  68  95 128 165 207 263 315 389
#     4  11  23  39  63 103 131 158 210 271 327 367
#     4  11  24  44  64  92 126 169 216 264 318 383
#     4  10  20  39  65  93 125 166 213 251 313 389
#     4  10  22  41  65  88 125 168 215 255 311 382
#
# _framework density 21.775597999999999
#
# number of rings (size 3 to 8) (size 9 to 14) (size 15 to 20)
#    0.000    1.429    4.286    4.286    8.000    0.000 
#    2.571    1.429    0.000    0.000    0.000    0.000 
#    0.000    0.000    0.000    0.000    0.000    0.000 
#
# Total GULP energy -346881.267936 kJ/mol
# GULP energy per Si atom -12388.616712 kJ/mol
# Density = 2.172604 g / cm^3
# Si number density = 21.775598 Si / 1000 Ang^3
#
#
#
# Elastic Constant Matrix: (Units=GPa)
#
#
# Indices 1 2 3 4 5 6 
#
# 1 93.0632 28.2288 15.7260 0.0000 -7.1786 0.0000
# 2 28.2288 52.6170 22.1169 0.0000 10.4682 0.0000
# 3 15.7260 22.1169 61.3209 0.0000 3.4500 0.0000
# 4 0.0000 0.0000 0.0000 31.9697 0.0000 -0.2562
# 5 -7.1786 10.4682 3.4500 0.0000 31.5610 0.0000
# 6 0.0000 0.0000 0.0000 -0.2562 0.0000 47.7932
#
#
#
# Elastic Compliance Matrix: (Units=1/GPa)
#
#
# Indices 1 2 3 4 5 6 
#
# 1 0.013863 -0.008242 -0.000919 0.000000 0.005987 0.000000
# 2 -0.008242 0.028751 -0.007661 0.000000 -0.010573 0.000000
# 3 -0.000919 -0.007661 0.019294 0.000000 0.000223 0.000000
# 4 0.000000 0.000000 0.000000 0.031281 0.000000 0.000168
# 5 0.005987 -0.010573 0.000223 0.000000 0.036529 0.000000
# 6 0.000000 0.000000 0.000000 0.000168 0.000000 0.020924
#
#
# Mechanical properties :
#
#
# Convention : Reuss Voigt Hill
#
# Bulk Modulus (GPa) = 35.38237 37.68274 36.53256
# Shear Modulus (GPa) = 25.81206 31.66006 28.73606
#
# Velocity S-wave (km/s) = 3.44665 3.81717 3.63663
# Velocity P-wave (km/s) = 5.66772 6.06385 5.86913
#
# Compressibility (1/GPa) = 0.02826266
#
# Stress axis : x y z
#
# Youngs Moduli (GPa) = 72.13648 34.78145 51.82940
#
# Poissons Ratio (x) = 0.28667 0.04765
# Poissons Ratio (y) = 0.59455 0.39707
# Poissons Ratio (z) = 0.06631 0.26647
#
# Static dielectric constant tensor:
#      x y z
#    x 4.310650 0.000000 -0.287380 
#    y 0.000000 3.627140 0.000000 
#    z -0.287380 0.000000 3.823030 
# 
# 
# High freq. dielectric constant tensor:
#      x y z
#    x 1.876780 0.000000 -0.013950 
#    y 0.000000 1.821480 0.000000 
#    z -0.013950 0.000000 1.842140 
# 
# From -- ./inp_files/295246.got.cif
#   From: 2010.06.25/outbox.cif.g09.slc.cpg/sg15_148_cif.got.tgz:295246.got - 2010.06.28 07:06:18.
