data_PCOD8139040
_publ_section_title
;
Structure prediction by ZEFSAII (Michael W. Deem and Ramdas Pophale) SiO2 
 PCOD8139040
Probable space group: C 2/C
;
_chemical_formula_sum "Si O2"
_cell_formula_units_Z 64
_cell_length_a 19.934663
_cell_length_b 29.185291
_cell_length_c 14.132179
_cell_angle_alpha 90.000000
_cell_angle_beta 157.606656
_cell_angle_gamma 90.000000
_cell_volume 3132.310597
_symmetry_space_group_name_H-M "C 2/C"
_symmetry_group_IT_number 15
_symmetry_cell_setting 'monoclinic'
loop_
_space_group_symop_operation_xyz
x,y,z
-x,y,1/2-z
-x,-y,-z
x,-y,1/2+z
1/2+x,1/2+y,z
1/2-x,1/2+y,1/2-z
1/2-x,1/2-y,-z
1/2+x,1/2-y,1/2+z
loop_
_atom_site_type_symbol
_atom_site_label
_atom_site_fract_x
_atom_site_fract_y
_atom_site_fract_z
Si Si1 0.192725 0.598214 0.048530
Si Si2 0.564720 0.990659 0.436421
Si Si3 0.536233 0.627980 0.398182
Si Si4 0.423747 0.151247 0.435109
Si Si5 0.131863 0.218498 0.007452
Si Si6 0.574955 0.223264 0.749739
Si Si7 0.357726 0.065426 0.816294
Si Si8 0.894113 0.209059 0.880500
O O1 0.343380 0.609858 0.171922
O O2 0.202417 0.635153 0.144525
O O3 0.220223 0.546898 0.126419
O O4 0.000000 0.598343 0.750000
O O5 0.500000 0.007994 0.250000
O O6 0.639214 0.034897 0.585980
O O7 0.407765 0.965585 0.290897
O O8 0.500000 0.653552 0.250000
O O9 0.662104 0.584472 0.546702
O O10 0.619718 0.658908 0.590817
O O11 0.589172 0.180537 0.694967
O O12 0.505413 0.107663 0.488088
O O13 0.296992 0.183540 0.206413
O O14 0.000000 0.210065 0.750000
O O15 0.037052 0.209688 0.983579
O O16 0.206241 0.270932 0.099084
O O17 0.500000 0.203181 0.750000
O O18 0.439625 0.258565 0.527953
O O19 0.750000 0.250000 0.000000
#
# Coordination Sequence:
#
# PCOD8139040 Si02
#       8
#     8   8   8   8   8   8   8   8
#     4  10  20  38  64  89 128 168 199 253 322 393
#     4   9  19  43  67  91 126 169 209 250 334 380
#     4  12  24  37  61  99 132 160 210 260 320 382
#     4  10  21  39  59  87 124 164 214 251 323 373
#     4  11  24  46  64  80 121 176 219 270 316 365
#     4  11  23  34  56  87 126 164 192 250 311 373
#     4  10  23  39  65  97 128 162 209 270 309 396
#     4  11  25  40  59  92 122 163 221 261 308 380
#
# _framework density 20.432200000000002
#
# number of rings (size 3 to 8) (size 9 to 14) (size 15 to 20)
#    0.000    1.500    1.250    4.875    8.750    1.000 
#    2.250    0.000    0.000    5.250    0.000    0.000 
#    0.000    0.000    0.000    0.000    0.000    0.000 
#
# Total GULP energy -396614.967240 kJ/mol
# GULP energy per Si atom -12394.217726 kJ/mol
# Density = 2.038570 g / cm^3
# Si number density = 20.432200 Si / 1000 Ang^3
#
#
#
# Elastic Constant Matrix: (Units=GPa)
#
#
# Indices 1 2 3 4 5 6 
#
# 1 86.9127 38.2343 35.5626 0.0000 -3.8136 0.0000
# 2 38.2343 104.9835 45.9167 0.0000 -9.7699 0.0000
# 3 35.5626 45.9167 105.8778 0.0001 -5.4829 0.0000
# 4 0.0000 0.0000 0.0001 26.3108 0.0000 -5.0857
# 5 -3.8136 -9.7699 -5.4829 0.0000 31.8769 0.0000
# 6 0.0000 0.0000 0.0000 -5.0857 0.0000 31.6685
#
#
#
# Elastic Compliance Matrix: (Units=1/GPa)
#
#
# Indices 1 2 3 4 5 6 
#
# 1 0.014524 -0.003895 -0.003189 0.000000 -0.000005 0.000000
# 2 -0.003895 0.013043 -0.004203 0.000000 0.002809 0.000000
# 3 -0.003189 -0.004203 0.012362 0.000000 0.000457 0.000000
# 4 0.000000 0.000000 0.000000 0.039225 0.000000 0.006299
# 5 -0.000005 0.002809 0.000457 0.000000 0.032309 0.000000
# 6 0.000000 0.000000 0.000000 0.006299 0.000000 0.032589
#
#
# Mechanical properties :
#
#
# Convention : Reuss Voigt Hill
#
# Bulk Modulus (GPa) = 57.61953 59.68903 58.65428
# Shear Modulus (GPa) = 29.00012 29.84194 29.42103
#
# Velocity S-wave (km/s) = 3.77149 3.82584 3.79876
# Velocity P-wave (km/s) = 6.87220 6.98518 6.92892
#
# Compressibility (1/GPa) = 0.01735523
#
# Stress axis : x y z
#
# Youngs Moduli (GPa) = 68.85088 76.66661 80.88981
#
# Poissons Ratio (x) = 0.29862 0.25800
# Poissons Ratio (y) = 0.26818 0.33997
# Poissons Ratio (z) = 0.21960 0.32222
#
# Static dielectric constant tensor:
#      x y z
#    x 3.767050 0.000000 0.051390 
#    y 0.000000 3.737490 0.000000 
#    z 0.051390 0.000000 3.588570 
# 
# 
# High freq. dielectric constant tensor:
#      x y z
#    x 1.803170 0.000000 0.007550 
#    y 0.000000 1.799340 0.000000 
#    z 0.007550 0.000000 1.776590 
# 
# From -- ./inp_files/170102.got.cif
#   From: 2010.06.25/outbox.cif.g09.slc.cpg/sg15_86_cif.got.tgz:170102.got - 2010.06.28 07:06:18.
