data_PCOD8139208
_publ_section_title
;
Structure prediction by ZEFSAII (Michael W. Deem and Ramdas Pophale) SiO2 
 PCOD8139208
Probable space group: C 2/C
;
_chemical_formula_sum "Si O2"
_cell_formula_units_Z 44
_cell_length_a 9.433016
_cell_length_b 12.485001
_cell_length_c 18.031539
_cell_angle_alpha 90.000000
_cell_angle_beta 52.915776
_cell_angle_gamma 90.000000
_cell_volume 1694.098876
_symmetry_space_group_name_H-M "C 2/C"
_symmetry_group_IT_number 15
_symmetry_cell_setting 'monoclinic'
loop_
_space_group_symop_operation_xyz
x,y,z
-x,y,1/2-z
-x,-y,-z
x,-y,1/2+z
1/2+x,1/2+y,z
1/2-x,1/2+y,1/2-z
1/2-x,1/2-y,-z
1/2+x,1/2-y,1/2+z
loop_
_atom_site_type_symbol
_atom_site_label
_atom_site_fract_x
_atom_site_fract_y
_atom_site_fract_z
Si Si1 0.697315 0.374509 0.466833
Si Si2 0.000000 0.277376 0.750000
Si Si3 0.532614 0.115797 0.958609
Si Si4 0.680916 0.427524 0.880667
Si Si5 0.304184 0.498874 0.781360
Si Si6 0.111937 0.272925 0.870616
O O1 0.853033 0.341318 0.474215
O O2 0.500722 0.356988 0.564372
O O3 0.702305 0.502048 0.448388
O O4 0.728426 0.311705 0.379814
O O5 0.158052 0.347265 0.668505
O O6 0.059717 0.216930 0.807509
O O7 0.699294 0.102294 0.849915
O O8 0.557148 0.196182 0.021433
O O9 0.500000 0.000000 0.000000
O O10 0.691687 0.509365 0.808252
O O11 0.500000 0.507459 0.750000
O O12 0.220907 0.382683 0.825211
#
# Coordination Sequence:
#
# PCOD8139208 Si02
#       6
#     8   4   8   8   8   8
#     4  11  22  39  64  99 129 179 232 279 333 406
#     4  10  22  44  64  92 140 184 224 280 346 396
#     4  10  20  38  67  93 130 174 219 275 342 407
#     4  10  21  39  63  89 133 181 223 274 340 411
#     4  10  21  41  64  96 135 175 224 281 342 409
#     4  10  22  41  65  97 133 178 227 289 330 396
#
# _framework density 25.97251
#
# number of rings (size 3 to 8) (size 9 to 14) (size 15 to 20)
#    0.000    1.818    0.000    6.000    0.000    2.182 
#   13.091    0.000    0.000    0.000    0.000    0.000 
#    0.000    0.000    0.000    0.000    0.000    0.000 
#
# Total GULP energy -272589.114697 kJ/mol
# GULP energy per Si atom -12390.414304 kJ/mol
# Density = 2.591340 g / cm^3
# Si number density = 25.972510 Si / 1000 Ang^3
#
#
#
# Elastic Constant Matrix: (Units=GPa)
#
#
# Indices 1 2 3 4 5 6 
#
# 1 126.1272 13.7875 62.0094 0.0000 8.1312 0.0000
# 2 13.7875 27.2109 5.6503 0.0000 8.1343 0.0000
# 3 62.0094 5.6503 133.3756 0.0000 3.9435 0.0000
# 4 0.0000 0.0000 0.0000 28.7179 0.0000 18.4218
# 5 8.1312 8.1343 3.9435 0.0000 56.5207 0.0000
# 6 0.0000 0.0000 0.0000 18.4218 0.0000 47.1936
#
#
#
# Elastic Compliance Matrix: (Units=1/GPa)
#
#
# Indices 1 2 3 4 5 6 
#
# 1 0.010809 -0.004295 -0.004826 0.000000 -0.000600 0.000000
# 2 -0.004295 0.040397 0.000440 0.000000 -0.005227 0.000000
# 3 -0.004826 0.000440 0.009724 0.000000 -0.000048 0.000000
# 4 0.000000 0.000000 0.000000 0.046453 0.000000 -0.018133
# 5 -0.000600 -0.005227 -0.000048 0.000000 0.018535 0.000000
# 6 0.000000 0.000000 0.000000 -0.018133 0.000000 0.028267
#
#
# Mechanical properties :
#
#
# Convention : Reuss Voigt Hill
#
# Bulk Modulus (GPa) = 22.95229 49.95648 36.45438
# Shear Modulus (GPa) = 26.87147 40.17087 33.52117
#
# Velocity S-wave (km/s) = 3.22003 3.93704 3.59645
# Velocity P-wave (km/s) = 4.76247 6.32006 5.59572
#
# Compressibility (1/GPa) = 0.04356864
#
# Stress axis : x y z
#
# Youngs Moduli (GPa) = 92.51286 24.75404 102.83832
#
# Poissons Ratio (x) = 0.10633 0.49628
# Poissons Ratio (y) = 0.39739 -0.04527
# Poissons Ratio (z) = 0.44645 -0.01090
#
# Static dielectric constant tensor:
#      x y z
#    x 4.818470 0.000000 0.075630 
#    y 0.000000 4.781230 0.000000 
#    z 0.075630 0.000000 5.530160 
# 
# 
# High freq. dielectric constant tensor:
#      x y z
#    x 2.023770 0.000000 0.013470 
#    y 0.000000 2.049110 0.000000 
#    z 0.013470 0.000000 2.056230 
# 
# From -- ./inp_files/189157.got.cif
#   From: 2010.06.25/outbox.cif.g09.slc.cpg/sg15_95_cif.got.tgz:189157.got - 2010.06.28 07:06:18.
