data_PCOD8139301
_publ_section_title
;
Structure prediction by ZEFSAII (Michael W. Deem and Ramdas Pophale) SiO2 
 PCOD8139301
Probable space group: C 2/C
;
_chemical_formula_sum "Si O2"
_cell_formula_units_Z 56
_cell_length_a 6.797146
_cell_length_b 21.528086
_cell_length_c 22.733305
_cell_angle_alpha 90.000000
_cell_angle_beta 116.706260
_cell_angle_gamma 90.000000
_cell_volume 2971.684973
_symmetry_space_group_name_H-M "C 2/C"
_symmetry_group_IT_number 15
_symmetry_cell_setting 'monoclinic'
loop_
_space_group_symop_operation_xyz
x,y,z
-x,y,1/2-z
-x,-y,-z
x,-y,1/2+z
1/2+x,1/2+y,z
1/2-x,1/2+y,1/2-z
1/2-x,1/2-y,-z
1/2+x,1/2-y,1/2+z
loop_
_atom_site_type_symbol
_atom_site_label
_atom_site_fract_x
_atom_site_fract_y
_atom_site_fract_z
Si Si1 0.567398 0.363956 0.082914
Si Si2 0.382457 0.810846 0.031137
Si Si3 0.124177 0.356358 0.957359
Si Si4 0.500000 0.511559 0.250000
Si Si5 0.160552 0.760033 0.379771
Si Si6 0.000000 0.314058 0.750000
Si Si7 0.205961 0.537315 0.808515
Si Si8 0.935855 0.577216 0.324213
O O1 0.740553 0.350967 0.055677
O O2 0.534254 0.307904 0.126246
O O3 0.678556 0.424502 0.125265
O O4 0.335639 0.380615 0.021533
O O5 0.613722 0.797282 0.093408
O O6 0.250000 0.750000 0.000000
O O7 0.422540 0.846952 0.975331
O O8 0.182535 0.291790 0.933166
O O9 0.052529 0.407385 0.901003
O O10 0.599991 0.470138 0.212169
O O11 0.696359 0.550491 0.305967
O O12 0.136637 0.731292 0.311244
O O13 0.876041 0.361193 0.777708
O O14 0.000000 0.573612 0.750000
O O15 0.104982 0.470605 0.815530
#
# Coordination Sequence:
#
# PCOD8139301 Si02
#       8
#     8   8   8   4   8   4   8   8
#     4  11  22  38  59  84 121 159 190 240 294 349
#     4  11  19  36  58  83 114 158 189 227 299 355
#     4  10  21  36  59  88 119 148 193 245 289 350
#     4  10  20  41  62  78 113 156 190 246 294 334
#     4  10  21  36  56  87 120 146 193 239 294 347
#     4  10  20  39  58  86 119 146 190 260 288 342
#     4  10  23  41  60  83 118 156 201 242 288 354
#     4  10  21  40  60  88 114 150 200 246 296 343
#
# _framework density 18.844529000000001
#
# number of rings (size 3 to 8) (size 9 to 14) (size 15 to 20)
#    0.000    1.714    5.000    0.857    0.000    9.143 
#    0.000    1.429    0.000    0.000    0.000    0.000 
#    0.000    0.000    0.000    0.000    0.000    0.000 
#
# Total GULP energy -346940.600914 kJ/mol
# GULP energy per Si atom -12390.735747 kJ/mol
# Density = 1.880164 g / cm^3
# Si number density = 18.844529 Si / 1000 Ang^3
#
#
#
# Elastic Constant Matrix: (Units=GPa)
#
#
# Indices 1 2 3 4 5 6 
#
# 1 128.2017 28.9850 51.2798 0.0000 -15.2289 0.0000
# 2 28.9850 64.0377 55.2253 0.0000 -4.2919 0.0000
# 3 51.2798 55.2253 140.0653 0.0000 -6.1894 0.0000
# 4 0.0000 0.0000 0.0000 43.0682 0.0000 9.5701
# 5 -15.2289 -4.2919 -6.1894 0.0000 26.2449 0.0000
# 6 0.0000 0.0000 0.0000 9.5701 0.0000 4.7787
#
#
#
# Elastic Compliance Matrix: (Units=1/GPa)
#
#
# Indices 1 2 3 4 5 6 
#
# 1 0.009852 -0.001834 -0.002673 0.000000 0.004787 0.000000
# 2 -0.001834 0.024077 -0.008786 0.000000 0.000801 0.000000
# 3 -0.002673 -0.008786 0.011571 0.000000 -0.000259 0.000000
# 4 0.000000 0.000000 0.000000 0.041837 0.000000 -0.083785
# 5 0.004787 0.000801 -0.000259 0.000000 0.040950 0.000000
# 6 0.000000 0.000000 0.000000 -0.083785 0.000000 0.377057
#
#
# Mechanical properties :
#
#
# Convention : Reuss Voigt Hill
#
# Bulk Modulus (GPa) = 52.86902 67.03168 59.95035
# Shear Modulus (GPa) = 9.28963 27.93933 18.61448
#
# Velocity S-wave (km/s) = 2.22268 3.85466 3.14633
# Velocity P-wave (km/s) = 5.89096 7.44710 6.71426
#
# Compressibility (1/GPa) = 0.01891467
#
# Stress axis : x y z
#
# Youngs Moduli (GPa) = 101.49771 41.53401 86.42457
#
# Poissons Ratio (x) = 0.07617 0.23097
# Poissons Ratio (y) = 0.18614 0.75934
# Poissons Ratio (z) = 0.27125 0.36493
#
# Static dielectric constant tensor:
#      x y z
#    x 3.515410 0.000000 0.001960 
#    y 0.000000 3.150460 0.000000 
#    z 0.001960 0.000000 3.579340 
# 
# 
# High freq. dielectric constant tensor:
#      x y z
#    x 1.736870 0.000000 -0.006160 
#    y 0.000000 1.716920 0.000000 
#    z -0.006160 0.000000 1.741750 
# 
# From -- ./inp_files/228187.got.cif
#   From: 2010.06.25/outbox.cif.g09.slc.cpg/sg15_115_cif.got.tgz:228187.got - 2010.06.28 07:06:18.
