data_PCOD8139789
_publ_section_title
;
Structure prediction by ZEFSAII (Michael W. Deem and Ramdas Pophale) SiO2 
 PCOD8139789
Probable space group: C 2/C
;
_chemical_formula_sum "Si O2"
_cell_formula_units_Z 48
_cell_length_a 10.904138
_cell_length_b 26.434073
_cell_length_c 6.796128
_cell_angle_alpha 90.000000
_cell_angle_beta 65.624108
_cell_angle_gamma 90.000000
_cell_volume 1784.297902
_symmetry_space_group_name_H-M "C 2/C"
_symmetry_group_IT_number 15
_symmetry_cell_setting 'monoclinic'
loop_
_space_group_symop_operation_xyz
x,y,z
-x,y,1/2-z
-x,-y,-z
x,-y,1/2+z
1/2+x,1/2+y,z
1/2-x,1/2+y,1/2-z
1/2-x,1/2-y,-z
1/2+x,1/2-y,1/2+z
loop_
_atom_site_type_symbol
_atom_site_label
_atom_site_fract_x
_atom_site_fract_y
_atom_site_fract_z
Si Si1 0.454399 0.300258 0.554765
Si Si2 0.321882 0.771419 0.641282
Si Si3 0.208907 0.567722 0.779011
Si Si4 0.496104 0.415009 0.036072
Si Si5 0.240002 0.453651 0.706619
Si Si6 0.460521 0.876077 0.547198
O O1 0.500000 0.294983 0.750000
O O2 0.564811 0.268196 0.353954
O O3 0.299965 0.280917 0.622606
O O4 0.452844 0.357770 0.490133
O O5 0.250000 0.750000 0.500000
O O6 0.401060 0.822249 0.525840
O O7 0.341188 0.583848 0.565624
O O8 0.179080 0.509784 0.740032
O O9 0.232988 0.571002 0.996316
O O10 0.087197 0.607702 0.822425
O O11 0.500000 0.439075 0.250000
O O12 0.600911 0.448756 0.835271
O O13 0.150219 0.420419 0.915881
O O14 0.500000 0.874596 0.750000
#
# Coordination Sequence:
#
# PCOD8139789 Si02
#       6
#     8   8   8   8   8   8
#     4  10  22  40  62  87 122 158 205 259 317 379
#     4  10  22  42  63  90 125 160 208 265 320 381
#     4  10  22  36  62  93 125 166 215 259 313 380
#     4  10  21  38  60  87 125 165 208 255 312 376
#     4  10  20  40  59  90 128 167 211 262 315 374
#     4  10  21  40  64  90 128 169 210 262 320 379
#
# _framework density 26.901337999999999
#
# number of rings (size 3 to 8) (size 9 to 14) (size 15 to 20)
#    0.000    2.000    1.667    1.000    2.333    2.000 
#    0.000    1.667    0.000    0.000    0.000    0.000 
#    0.000    0.000    0.000    0.000    0.000    0.000 
#
# Total GULP energy -297461.731485 kJ/mol
# GULP energy per Si atom -12394.238812 kJ/mol
# Density = 2.684011 g / cm^3
# Si number density = 26.901338 Si / 1000 Ang^3
#
#
#
# Elastic Constant Matrix: (Units=GPa)
#
#
# Indices 1 2 3 4 5 6 
#
# 1 120.9059 46.8365 41.0747 0.0000 -50.2531 0.0000
# 2 46.8365 145.1875 7.5727 0.0000 -32.9918 0.0000
# 3 41.0747 7.5727 84.0755 0.0000 -45.1455 0.0000
# 4 0.0000 0.0000 0.0000 43.0662 0.0000 -18.4675
# 5 -50.2531 -32.9918 -45.1455 0.0000 40.1873 0.0000
# 6 0.0000 0.0000 0.0000 -18.4675 0.0000 48.1410
#
#
#
# Elastic Compliance Matrix: (Units=1/GPa)
#
#
# Indices 1 2 3 4 5 6 
#
# 1 0.019889 0.001732 0.010699 0.000000 0.038312 0.000000
# 2 0.001732 0.011016 0.010536 0.000000 0.023046 0.000000
# 3 0.010699 0.010536 0.044222 0.000000 0.071707 0.000000
# 4 0.000000 0.000000 0.000000 0.027792 0.000000 0.010661
# 5 0.038312 0.023046 0.071707 0.000000 0.172265 0.000000
# 6 0.000000 0.000000 0.000000 0.010661 0.000000 0.024862
#
#
# Mechanical properties :
#
#
# Convention : Reuss Voigt Hill
#
# Bulk Modulus (GPa) = 8.26020 60.12629 34.19325
# Shear Modulus (GPa) = 16.97990 43.25790 30.11890
#
# Velocity S-wave (km/s) = 2.51508 4.01436 3.34968
# Velocity P-wave (km/s) = 3.39284 6.62465 5.26295
#
# Compressibility (1/GPa) = 0.12106244
#
# Stress axis : x y z
#
# Youngs Moduli (GPa) = 50.27883 90.77515 22.61305
#
# Poissons Ratio (x) = -0.15719 -0.24195
# Poissons Ratio (y) = -0.08707 -0.23826
# Poissons Ratio (z) = -0.53795 -0.95644
#
# Static dielectric constant tensor:
#      x y z
#    x 5.364080 0.000000 -0.772970 
#    y 0.000000 4.632680 0.000000 
#    z -0.772970 0.000000 5.086230 
# 
# 
# High freq. dielectric constant tensor:
#      x y z
#    x 2.095520 0.000000 -0.016890 
#    y 0.000000 2.069310 0.000000 
#    z -0.016890 0.000000 2.093760 
# 
# From -- ./inp_files/33394.got.cif
#   From: 2010.06.25/outbox.cif.g09.slc.cpg/sg15_17_cif.got.tgz:33394.got - 2010.06.28 07:06:18.
