data_PCOD8139254
_publ_section_title
;
Structure prediction by ZEFSAII (Michael W. Deem and Ramdas Pophale) SiO2 
 PCOD8139254
Probable space group: C 2/C
;
_chemical_formula_sum "Si O2"
_cell_formula_units_Z 60
_cell_length_a 17.697538
_cell_length_b 17.722436
_cell_length_c 12.685231
_cell_angle_alpha 90.000000
_cell_angle_beta 43.334295
_cell_angle_gamma 90.000000
_cell_volume 2730.357039
_symmetry_space_group_name_H-M "C 2/C"
_symmetry_group_IT_number 15
_symmetry_cell_setting 'monoclinic'
loop_
_space_group_symop_operation_xyz
x,y,z
-x,y,1/2-z
-x,-y,-z
x,-y,1/2+z
1/2+x,1/2+y,z
1/2-x,1/2+y,1/2-z
1/2-x,1/2-y,-z
1/2+x,1/2-y,1/2+z
loop_
_atom_site_type_symbol
_atom_site_label
_atom_site_fract_x
_atom_site_fract_y
_atom_site_fract_z
Si Si1 0.321611 0.449274 0.038051
Si Si2 0.938393 0.224825 0.112973
Si Si3 0.431142 0.985236 0.222507
Si Si4 0.000000 0.948436 0.250000
Si Si5 0.364714 0.287907 0.911117
Si Si6 0.516901 0.879351 0.954965
Si Si7 0.692122 0.224015 0.318480
Si Si8 0.107059 0.869368 0.332868
O O1 0.419671 0.505596 0.908313
O O2 0.340884 0.376193 0.946657
O O3 0.201439 0.483920 0.131014
O O4 0.328790 0.429351 0.156401
O O5 0.955323 0.227655 0.225448
O O6 0.810169 0.208264 0.241468
O O7 0.955133 0.298759 0.021118
O O8 0.991923 0.151259 0.006132
O O9 0.500000 0.952683 0.250000
O O10 0.481144 0.069613 0.152266
O O11 0.462056 0.929052 0.099148
O O12 0.081312 0.900047 0.242572
O O13 0.250000 0.250000 0.000000
O O14 0.393482 0.253653 0.000498
O O15 0.646387 0.857868 0.833284
O O16 0.681702 0.292402 0.243838
#
# Coordination Sequence:
#
# PCOD8139254 Si02
#       8
#     8   8   8   4   8   8   8   8
#     4  11  24  43  65  96 135 171 219 282 336 399
#     4  10  20  38  69  94 129 168 218 281 339 385
#     4  11  26  42  64  93 136 181 219 267 336 411
#     4  12  26  42  66  96 126 182 222 266 338 410
#     4   9  18  34  64  99 119 158 210 271 337 382
#     4  10  23  40  59  97 126 172 219 267 332 399
#     4   9  20  37  66  92 128 167 216 279 326 386
#     4  10  23  43  62  96 129 166 221 276 326 395
#
# _framework density 21.975148999999998
#
# number of rings (size 3 to 8) (size 9 to 14) (size 15 to 20)
#    0.000    1.867    0.000    3.600    7.467    6.933 
#    4.800    0.667    0.000    0.000    0.000    0.000 
#    0.000    0.000    0.000    0.000    0.000    0.000 
#
# Total GULP energy -371649.236094 kJ/mol
# GULP energy per Si atom -12388.307870 kJ/mol
# Density = 2.192513 g / cm^3
# Si number density = 21.975149 Si / 1000 Ang^3
#
#
#
# Elastic Constant Matrix: (Units=GPa)
#
#
# Indices 1 2 3 4 5 6 
#
# 1 90.3901 5.1198 25.2217 0.0000 -6.2886 0.0000
# 2 5.1198 54.0014 17.3904 0.0000 -4.3926 0.0000
# 3 25.2217 17.3904 56.1348 0.0000 -5.6907 0.0000
# 4 0.0000 0.0000 0.0000 24.7178 0.0000 -16.0246
# 5 -6.2886 -4.3926 -5.6907 0.0000 23.2823 0.0000
# 6 0.0000 0.0000 0.0000 -16.0246 0.0000 4.0221
#
#
#
# Elastic Compliance Matrix: (Units=1/GPa)
#
#
# Indices 1 2 3 4 5 6 
#
# 1 0.012781 0.000827 -0.005776 0.000000 0.002196 0.000000
# 2 0.000827 0.020753 -0.006544 0.000000 0.002539 0.000000
# 3 -0.005776 -0.006544 0.022716 0.000000 0.002758 0.000000
# 4 0.000000 0.000000 0.000000 -0.025559 0.000000 -0.101828
# 5 0.002196 0.002539 0.002758 0.000000 0.044698 0.000000
# 6 0.000000 0.000000 0.000000 -0.101828 0.000000 -0.157070
#
#
# Mechanical properties :
#
#
# Convention : Reuss Voigt Hill
#
# Bulk Modulus (GPa) = 30.06128 32.88780 31.47454
# Shear Modulus (GPa) = -105.02691 20.59073 -42.21809
#
# Velocity S-wave (km/s) = -6.92078 3.06437 -4.38788
# Velocity P-wave (km/s) = 7.08192 5.24584 3.36413
#
# Compressibility (1/GPa) = 0.03326539
#
# Stress axis : x y z
#
# Youngs Moduli (GPa) = 78.24222 48.18477 44.02144
#
# Poissons Ratio (x) = -0.03985 0.25427
# Poissons Ratio (y) = -0.06471 0.28805
# Poissons Ratio (z) = 0.45193 0.31530
#
# Static dielectric constant tensor:
#      x y z
#    x 4.252900 0.000000 -0.096220 
#    y 0.000000 4.096430 0.000000 
#    z -0.096220 0.000000 4.122170 
# 
# 
# High freq. dielectric constant tensor:
#      x y z
#    x 1.879870 0.000000 -0.026990 
#    y 0.000000 1.859270 0.000000 
#    z -0.026990 0.000000 1.863250 
# 
# From -- ./inp_files/113788.got.cif
#   From: 2010.06.25/outbox.cif.g09.slc.cpg/sg15_57_cif.got.tgz:113788.got - 2010.06.28 07:06:18.
