data_PCOD8139159
_publ_section_title
;
Structure prediction by ZEFSAII (Michael W. Deem and Ramdas Pophale) SiO2 
 PCOD8139159
Probable space group: C 2/C
;
_chemical_formula_sum "Si O2"
_cell_formula_units_Z 48
_cell_length_a 11.243988
_cell_length_b 16.447490
_cell_length_c 25.120883
_cell_angle_alpha 90.000000
_cell_angle_beta 33.114967
_cell_angle_gamma 90.000000
_cell_volume 2538.064300
_symmetry_space_group_name_H-M "C 2/C"
_symmetry_group_IT_number 15
_symmetry_cell_setting 'monoclinic'
loop_
_space_group_symop_operation_xyz
x,y,z
-x,y,1/2-z
-x,-y,-z
x,-y,1/2+z
1/2+x,1/2+y,z
1/2-x,1/2+y,1/2-z
1/2-x,1/2-y,-z
1/2+x,1/2-y,1/2+z
loop_
_atom_site_type_symbol
_atom_site_label
_atom_site_fract_x
_atom_site_fract_y
_atom_site_fract_z
Si Si1 0.001563 0.000121 0.081651
Si Si2 0.776953 0.538437 0.722432
Si Si3 0.000000 0.937318 0.750000
Si Si4 0.500000 0.795007 0.750000
Si Si5 0.332998 0.061443 0.377906
Si Si6 0.835986 0.849253 0.915740
Si Si7 0.922073 0.295797 0.124479
O O1 0.790539 0.020479 0.125316
O O2 0.119189 0.083839 0.055105
O O3 0.929293 0.951491 0.161142
O O4 0.166944 0.939422 0.989768
O O5 0.694149 0.493491 0.700030
O O6 0.882235 0.624472 0.673431
O O7 0.951669 0.485611 0.687802
O O8 0.890041 0.881686 0.836706
O O9 0.581317 0.849145 0.669662
O O10 0.304434 0.734834 0.812256
O O11 0.984518 0.771300 0.870666
O O12 0.586012 0.819145 0.014646
#
# Coordination Sequence:
#
# PCOD8139159 Si02
#       7
#     8   8   4   4   8   8   8
#     4  10  20  38  66  91 113 158 211 250 294 355
#     4  11  21  40  61  91 117 159 205 247 295 359
#     4  10  23  42  63  84 126 164 204 242 289 376
#     4  12  21  40  59  90 124 160 190 254 313 348
#     4  11  20  38  67  88 115 158 208 255 289 361
#     4  10  21  43  61  90 122 166 196 244 311 363
#     4  11  23  39  62  89 126 158 197 248 314 355
#
# _framework density 18.912050000000001
#
# number of rings (size 3 to 8) (size 9 to 14) (size 15 to 20)
#    0.000    1.333    5.000    1.500    0.000    0.667 
#    9.000    0.833    0.000    0.000    0.000    0.000 
#    0.000    0.000    0.000    0.000    0.000    0.000 
#
# Total GULP energy -297541.697176 kJ/mol
# GULP energy per Si atom -12397.570716 kJ/mol
# Density = 1.886901 g / cm^3
# Si number density = 18.912050 Si / 1000 Ang^3
#
#
#
# Elastic Constant Matrix: (Units=GPa)
#
#
# Indices 1 2 3 4 5 6 
#
# 1 123.4474 117.1543 93.1721 0.1086 -8.6996 -0.0577
# 2 117.1543 268.7543 107.7042 0.1654 -26.2665 -0.0800
# 3 93.1721 107.7042 131.0288 0.0082 -16.1934 -0.1011
# 4 0.1086 0.1654 0.0082 25.7360 -0.0797 -6.5571
# 5 -8.6996 -26.2665 -16.1934 -0.0797 36.6717 0.0586
# 6 -0.0577 -0.0800 -0.1011 -6.5571 0.0586 59.8990
#
#
#
# Elastic Compliance Matrix: (Units=1/GPa)
#
#
# Indices 1 2 3 4 5 6 
#
# 1 0.021237 -0.005040 -0.011404 -0.000067 -0.003608 -0.000009
# 2 -0.005040 0.006898 -0.001717 -0.000014 0.002987 -0.000003
# 3 -0.011404 -0.001717 0.017629 0.000071 0.003849 0.000020
# 4 -0.000067 -0.000014 0.000071 0.039971 0.000085 0.004376
# 5 -0.003608 0.002987 0.003849 0.000085 0.030252 -0.000013
# 6 -0.000009 -0.000003 0.000020 0.004376 -0.000013 0.017174
#
#
# Mechanical properties :
#
#
# Convention : Reuss Voigt Hill
#
# Bulk Modulus (GPa) = 105.92496 128.81021 117.36758
# Shear Modulus (GPa) = 28.96377 38.14135 33.55256
#
# Velocity S-wave (km/s) = 3.91768 4.49572 4.21662
# Velocity P-wave (km/s) = 8.75186 9.75739 9.26827
#
# Compressibility (1/GPa) = 0.00944065
#
# Stress axis : x y z
#
# Youngs Moduli (GPa) = 47.08873 144.97328 56.72626
#
# Poissons Ratio (x) = 0.73061 0.64692
# Poissons Ratio (y) = 0.23731 0.09741
# Poissons Ratio (z) = 0.53701 0.24895
#
# Static dielectric constant tensor:
#      x y z
#    x 3.513450 -0.000300 -0.109350 
#    y -0.000300 3.238140 0.000320 
#    z -0.109350 0.000320 3.850850 
# 
# 
# High freq. dielectric constant tensor:
#      x y z
#    x 1.729550 0.000000 -0.010140 
#    y 0.000000 1.728590 0.000000 
#    z -0.010140 0.000000 1.755480 
# 
# From -- ./inp_files/143572.got.cif
#   From: 2010.06.25/outbox.cif.g09.slc.cpg/sg15_72_cif.got.tgz:143572.got - 2010.06.28 07:06:18.
