data_PCOD8139201
_publ_section_title
;
Structure prediction by ZEFSAII (Michael W. Deem and Ramdas Pophale) SiO2 
 PCOD8139201
Probable space group: C 2/C
;
_chemical_formula_sum "Si O2"
_cell_formula_units_Z 48
_cell_length_a 20.819994
_cell_length_b 18.779996
_cell_length_c 10.042103
_cell_angle_alpha 90.000000
_cell_angle_beta 35.945190
_cell_angle_gamma 90.000000
_cell_volume 2304.873290
_symmetry_space_group_name_H-M "C 2/C"
_symmetry_group_IT_number 15
_symmetry_cell_setting 'monoclinic'
loop_
_space_group_symop_operation_xyz
x,y,z
-x,y,1/2-z
-x,-y,-z
x,-y,1/2+z
1/2+x,1/2+y,z
1/2-x,1/2+y,1/2-z
1/2-x,1/2-y,-z
1/2+x,1/2-y,1/2+z
loop_
_atom_site_type_symbol
_atom_site_label
_atom_site_fract_x
_atom_site_fract_y
_atom_site_fract_z
Si Si1 0.771318 0.207557 0.597814
Si Si2 0.623174 0.051205 0.556088
Si Si3 0.735500 0.335494 0.833024
Si Si4 0.500000 0.297608 0.250000
Si Si5 0.054658 0.316329 0.881903
Si Si6 0.376475 0.926717 0.150103
Si Si7 0.000000 0.247403 0.250000
O O1 0.750000 0.250000 0.500000
O O2 0.729387 0.255194 0.789408
O O3 0.716101 0.132162 0.701118
O O4 0.900009 0.194176 0.395613
O O5 0.500000 0.081096 0.750000
O O6 0.711037 0.110739 0.363851
O O7 0.639593 0.031701 0.683659
O O8 0.640461 0.980408 0.441837
O O9 0.813668 0.332483 0.834304
O O10 0.605965 0.351024 0.071935
O O11 0.483007 0.247695 0.149598
O O12 0.016383 0.298563 0.095696
O O13 0.995446 0.389596 0.938030
#
# Coordination Sequence:
#
# PCOD8139201 Si02
#       7
#     8   8   8   4   8   8   4
#     4  11  19  39  70  95 130 175 225 272 326 395
#     4  12  26  43  66  99 136 175 219 278 341 401
#     4  11  23  40  66 100 136 176 224 277 337 395
#     4  12  24  40  65 103 138 172 220 290 330 392
#     4  11  22  39  65 100 132 170 225 279 339 388
#     4  12  24  42  69  99 139 172 220 281 344 398
#     4  10  20  38  67 103 128 166 222 282 330 396
#
# _framework density 20.825441999999999
#
# number of rings (size 3 to 8) (size 9 to 14) (size 15 to 20)
#    0.000    0.667    6.667    2.000    2.333    0.000 
#    6.000    0.833    0.000    2.000    0.000    0.000 
#    0.000    0.000    0.000    0.000    0.000    0.000 
#
# Total GULP energy -297442.091831 kJ/mol
# GULP energy per Si atom -12393.420493 kJ/mol
# Density = 2.077804 g / cm^3
# Si number density = 20.825442 Si / 1000 Ang^3
#
#
#
# Elastic Constant Matrix: (Units=GPa)
#
#
# Indices 1 2 3 4 5 6 
#
# 1 87.8151 42.0763 49.1286 0.0000 -14.5249 0.0000
# 2 42.0763 96.6006 51.0352 0.0000 -0.6920 0.0000
# 3 49.1286 51.0352 126.9489 0.0000 -32.8869 0.0000
# 4 0.0000 0.0000 0.0000 26.2690 0.0000 6.1921
# 5 -14.5249 -0.6920 -32.8869 0.0000 49.6327 0.0000
# 6 0.0000 0.0000 0.0000 6.1921 0.0000 36.3818
#
#
#
# Elastic Compliance Matrix: (Units=1/GPa)
#
#
# Indices 1 2 3 4 5 6 
#
# 1 0.016264 -0.005148 -0.003634 0.000000 0.002280 0.000000
# 2 -0.005148 0.015467 -0.005505 0.000000 -0.004939 0.000000
# 3 -0.003634 -0.005505 0.013522 0.000000 0.007820 0.000000
# 4 0.000000 0.000000 0.000000 0.039659 0.000000 -0.006750
# 5 0.002280 -0.004939 0.007820 0.000000 0.025928 0.000000
# 6 0.000000 0.000000 0.000000 -0.006750 0.000000 0.028635
#
#
# Mechanical properties :
#
#
# Convention : Reuss Voigt Hill
#
# Bulk Modulus (GPa) = 59.95316 66.20497 63.07907
# Shear Modulus (GPa) = 28.80014 33.73168 31.26591
#
# Velocity S-wave (km/s) = 3.72281 4.02896 3.87891
# Velocity P-wave (km/s) = 6.87968 7.31456 7.10045
#
# Compressibility (1/GPa) = 0.01667969
#
# Stress axis : x y z
#
# Youngs Moduli (GPa) = 61.48386 64.65238 73.95108
#
# Poissons Ratio (x) = 0.33284 0.26874
# Poissons Ratio (y) = 0.31652 0.40712
# Poissons Ratio (z) = 0.22343 0.35592
#
# Static dielectric constant tensor:
#      x y z
#    x 4.586940 0.000000 -1.444790 
#    y 0.000000 3.780010 0.000000 
#    z -1.444790 0.000000 8.004790 
# 
# 
# High freq. dielectric constant tensor:
#      x y z
#    x 1.832080 0.000000 -0.001910 
#    y 0.000000 1.787750 0.000000 
#    z -0.001910 0.000000 1.815180 
# 
# From -- ./inp_files/119415.got.cif
#   From: 2010.06.25/outbox.cif.g09.slc.cpg/sg15_60_cif.got.tgz:119415.got - 2010.06.28 07:06:18.
