data_PCOD8139412
_publ_section_title
;
Structure prediction by ZEFSAII (Michael W. Deem and Ramdas Pophale) SiO2 
 PCOD8139412
Probable space group: C 2/C
;
_chemical_formula_sum "Si O2"
_cell_formula_units_Z 44
_cell_length_a 21.709401
_cell_length_b 6.279062
_cell_length_c 14.086000
_cell_angle_alpha 90.000000
_cell_angle_beta 85.501402
_cell_angle_gamma 90.000000
_cell_volume 1914.213081
_symmetry_space_group_name_H-M "C 2/C"
_symmetry_group_IT_number 15
_symmetry_cell_setting 'monoclinic'
loop_
_space_group_symop_operation_xyz
x,y,z
-x,y,1/2-z
-x,-y,-z
x,-y,1/2+z
1/2+x,1/2+y,z
1/2-x,1/2+y,1/2-z
1/2-x,1/2-y,-z
1/2+x,1/2-y,1/2+z
loop_
_atom_site_type_symbol
_atom_site_label
_atom_site_fract_x
_atom_site_fract_y
_atom_site_fract_z
Si Si1 0.649701 0.693515 0.997018
Si Si2 0.100735 0.353697 0.185300
Si Si3 0.260476 0.009083 0.097846
Si Si4 0.796240 0.673617 0.286461
Si Si5 0.398749 0.540241 0.687165
Si Si6 0.500000 0.826833 0.750000
O O1 0.599478 0.727177 0.085837
O O2 0.709390 0.575344 0.029154
O O3 0.671671 0.924030 0.950166
O O4 0.620695 0.540973 0.920597
O O5 0.168389 0.461049 0.185624
O O6 0.046725 0.526540 0.184841
O O7 0.089256 0.198779 0.276606
O O8 0.253480 0.129072 0.200406
O O9 0.249541 0.757358 0.123290
O O10 0.846216 0.857447 0.259725
O O11 0.461635 0.677413 0.683446
#
# Coordination Sequence:
#
# PCOD8139412 Si02
#       6
#     8   8   8   8   8   4
#     4  10  22  40  67 102 135 171 220 261 324 390
#     4  11  22  44  67  95 130 171 221 280 326 390
#     4  10  20  39  62 102 137 179 213 251 319 390
#     4  10  21  38  65  94 140 177 210 254 321 388
#     4  10  22  44  64  93 129 171 217 272 326 395
#     4  10  24  44  70  88 122 174 218 280 356 374
#
# _framework density 22.985946999999999
#
# number of rings (size 3 to 8) (size 9 to 14) (size 15 to 20)
#    0.000    1.818    1.818    1.636    0.000    1.455 
#    9.818    3.636    0.000    0.000    0.000    0.000 
#    0.000    0.000    0.000    0.000    0.000    0.000 
#
# Total GULP energy -272729.036444 kJ/mol
# GULP energy per Si atom -12396.774384 kJ/mol
# Density = 2.293363 g / cm^3
# Si number density = 22.985947 Si / 1000 Ang^3
#
#
#
# Elastic Constant Matrix: (Units=GPa)
#
#
# Indices 1 2 3 4 5 6 
#
# 1 92.2877 44.3026 45.7963 0.0000 14.5395 0.0000
# 2 44.3026 111.6613 47.8037 0.0000 6.1344 0.0000
# 3 45.7963 47.8037 131.5290 0.0000 15.1603 0.0000
# 4 0.0000 0.0000 0.0000 28.0931 0.0000 -10.2898
# 5 14.5395 6.1344 15.1603 0.0000 23.7779 0.0000
# 6 0.0000 0.0000 0.0000 -10.2898 0.0000 40.5107
#
#
#
# Elastic Compliance Matrix: (Units=1/GPa)
#
#
# Indices 1 2 3 4 5 6 
#
# 1 0.015507 -0.004506 -0.003025 0.000000 -0.006391 0.000000
# 2 -0.004506 0.011917 -0.002942 0.000000 0.001557 0.000000
# 3 -0.003025 -0.002942 0.010172 0.000000 -0.003877 0.000000
# 4 0.000000 0.000000 0.000000 0.039247 0.000000 0.009969
# 5 -0.006391 0.001557 -0.003877 0.000000 0.048034 0.000000
# 6 0.000000 0.000000 0.000000 0.009969 0.000000 0.027217
#
#
# Mechanical properties :
#
#
# Convention : Reuss Voigt Hill
#
# Bulk Modulus (GPa) = 60.05792 67.92036 63.98914
# Shear Modulus (GPa) = 27.99702 31.64805 29.82254
#
# Velocity S-wave (km/s) = 3.49378 3.71461 3.60589
# Velocity P-wave (km/s) = 6.51615 6.92897 6.72572
#
# Compressibility (1/GPa) = 0.01665059
#
# Stress axis : x y z
#
# Youngs Moduli (GPa) = 64.48776 83.91027 98.30821
#
# Poissons Ratio (x) = 0.37814 0.29736
# Poissons Ratio (y) = 0.29061 0.28919
# Poissons Ratio (z) = 0.19506 0.24684
#
# Static dielectric constant tensor:
#      x y z
#    x 4.127440 0.000000 0.039660 
#    y 0.000000 4.224630 0.000000 
#    z 0.039660 0.000000 4.122030 
# 
# 
# High freq. dielectric constant tensor:
#      x y z
#    x 1.894440 0.000000 0.011260 
#    y 0.000000 1.906550 0.000000 
#    z 0.011260 0.000000 1.898780 
# 
# From -- ./inp_files/170798.got.cif
#   From: 2010.06.25/outbox.cif.g09.slc.cpg/sg15_86_cif.got.tgz:170798.got - 2010.06.28 07:06:18.
