data_PCOD8139841
_publ_section_title
;
Structure prediction by ZEFSAII (Michael W. Deem and Ramdas Pophale) SiO2 
 PCOD8139841
Probable space group: C 2/C
;
_chemical_formula_sum "Si O2"
_cell_formula_units_Z 56
_cell_length_a 17.669744
_cell_length_b 11.793195
_cell_length_c 13.085777
_cell_angle_alpha 90.000000
_cell_angle_beta 97.038877
_cell_angle_gamma 90.000000
_cell_volume 2706.298383
_symmetry_space_group_name_H-M "C 2/C"
_symmetry_group_IT_number 15
_symmetry_cell_setting 'monoclinic'
loop_
_space_group_symop_operation_xyz
x,y,z
-x,y,1/2-z
-x,-y,-z
x,-y,1/2+z
1/2+x,1/2+y,z
1/2-x,1/2+y,1/2-z
1/2-x,1/2-y,-z
1/2+x,1/2-y,1/2+z
loop_
_atom_site_type_symbol
_atom_site_label
_atom_site_fract_x
_atom_site_fract_y
_atom_site_fract_z
Si Si1 0.294306 0.424146 0.754338
Si Si2 0.360708 0.297068 0.936203
Si Si3 0.985263 0.454737 0.634379
Si Si4 0.765229 0.114514 0.594935
Si Si5 0.181110 0.262037 0.410776
Si Si6 0.182991 0.482185 0.895903
Si Si7 0.020951 0.686050 0.958283
O O1 0.355558 0.404986 0.856799
O O2 0.299281 0.546081 0.697936
O O3 0.304022 0.324655 0.676432
O O4 0.213754 0.415712 0.801327
O O5 0.302924 0.199783 0.882960
O O6 0.449574 0.268987 0.953784
O O7 0.334444 0.320772 0.048865
O O8 0.898089 0.428484 0.589170
O O9 0.000228 0.589872 0.629114
O O10 0.000000 0.411907 0.750000
O O11 0.037745 0.381899 0.566706
O O12 0.733827 0.025823 0.505952
O O13 0.250000 0.250000 0.500000
O O14 0.178567 0.387096 0.362965
O O15 0.097182 0.241426 0.446861
#
# Coordination Sequence:
#
# PCOD8139841 Si02
#       7
#     8   8   8   8   8   8   8
#     4  11  23  36  63  91 124 169 208 252 303 390
#     4  10  22  40  66  91 124 169 206 260 319 373
#     4  10  22  35  62  94 126 163 196 275 333 369
#     4  10  20  40  61  91 127 163 210 256 312 375
#     4  11  23  39  63  90 124 166 206 265 316 370
#     4  10  21  38  60  91 122 160 210 260 324 371
#     4  10  23  40  59  94 131 159 209 268 317 371
#
# _framework density 20.692471000000001
#
# number of rings (size 3 to 8) (size 9 to 14) (size 15 to 20)
#    0.000    1.714    2.857    0.857    8.000    0.000 
#    0.000    0.714    3.143    0.000    0.000    0.000 
#    0.000    0.000    0.000    0.000    0.000    0.000 
#
# Total GULP energy -346974.357734 kJ/mol
# GULP energy per Si atom -12391.941348 kJ/mol
# Density = 2.064537 g / cm^3
# Si number density = 20.692471 Si / 1000 Ang^3
#
#
#
# Elastic Constant Matrix: (Units=GPa)
#
#
# Indices 1 2 3 4 5 6 
#
# 1 135.1690 32.1489 33.8255 0.0000 -12.8401 0.0000
# 2 32.1489 58.5927 19.9975 0.0000 -5.6621 0.0000
# 3 33.8255 19.9975 100.2549 0.0000 -10.2056 0.0000
# 4 0.0000 0.0000 0.0000 39.7551 0.0000 -9.4830
# 5 -12.8401 -5.6621 -10.2056 0.0000 24.9154 0.0000
# 6 0.0000 0.0000 0.0000 -9.4830 0.0000 30.0680
#
#
#
# Elastic Compliance Matrix: (Units=1/GPa)
#
#
# Indices 1 2 3 4 5 6 
#
# 1 0.009139 -0.004053 -0.001971 0.000000 0.002981 0.000000
# 2 -0.004053 0.020298 -0.002530 0.000000 0.001488 0.000000
# 3 -0.001971 -0.002530 0.011460 0.000000 0.003103 0.000000
# 4 0.000000 0.000000 0.000000 0.027200 0.000000 0.008579
# 5 0.002981 0.001488 0.003103 0.000000 0.043281 0.000000
# 6 0.000000 0.000000 0.000000 0.008579 0.000000 0.035964
#
#
# Mechanical properties :
#
#
# Convention : Reuss Voigt Hill
#
# Bulk Modulus (GPa) = 42.03797 51.77338 46.90568
# Shear Modulus (GPa) = 29.00558 32.81735 30.91146
#
# Velocity S-wave (km/s) = 3.74805 3.98673 3.86923
# Velocity P-wave (km/s) = 6.25222 6.80196 6.53287
#
# Compressibility (1/GPa) = 0.02378802
#
# Stress axis : x y z
#
# Youngs Moduli (GPa) = 109.42465 49.26560 87.25826
#
# Poissons Ratio (x) = 0.19969 0.17202
# Poissons Ratio (y) = 0.44354 0.22074
# Poissons Ratio (z) = 0.21572 0.12463
#
# Static dielectric constant tensor:
#      x y z
#    x 3.716750 0.000000 -0.210880 
#    y 0.000000 3.732120 0.000000 
#    z -0.210880 0.000000 3.936230 
# 
# 
# High freq. dielectric constant tensor:
#      x y z
#    x 1.796810 0.000000 -0.022560 
#    y 0.000000 1.793930 0.000000 
#    z -0.022560 0.000000 1.813770 
# 
# From -- ./inp_files/97036.got.cif
#   From: 2010.06.25/outbox.cif.g09.slc.cpg/sg15_49_cif.got.tgz:97036.got - 2010.06.28 07:06:18.
