data_PCOD8139641
_publ_section_title
;
Structure prediction by ZEFSAII (Michael W. Deem and Ramdas Pophale) SiO2 
 PCOD8139641
Probable space group: C 2/C
;
_chemical_formula_sum "Si O2"
_cell_formula_units_Z 36
_cell_length_a 7.001461
_cell_length_b 13.203977
_cell_length_c 23.929683
_cell_angle_alpha 90.000000
_cell_angle_beta 47.337046
_cell_angle_gamma 90.000000
_cell_volume 1626.770174
_symmetry_space_group_name_H-M "C 2/C"
_symmetry_group_IT_number 15
_symmetry_cell_setting 'monoclinic'
loop_
_space_group_symop_operation_xyz
x,y,z
-x,y,1/2-z
-x,-y,-z
x,-y,1/2+z
1/2+x,1/2+y,z
1/2-x,1/2+y,1/2-z
1/2-x,1/2-y,-z
1/2+x,1/2-y,1/2+z
loop_
_atom_site_type_symbol
_atom_site_label
_atom_site_fract_x
_atom_site_fract_y
_atom_site_fract_z
Si Si1 0.500000 0.651885 0.250000
Si Si2 0.490919 0.273753 0.187370
Si Si3 0.423518 0.268771 0.519538
Si Si4 0.837199 0.009342 0.870820
Si Si5 0.712942 0.917329 0.006363
O O1 0.547753 0.584149 0.185965
O O2 0.741149 0.725490 0.208983
O O3 0.500000 0.245869 0.250000
O O4 0.745650 0.225290 0.109535
O O5 0.484763 0.394346 0.178719
O O6 0.250000 0.250000 0.500000
O O7 0.622008 0.175955 0.485141
O O8 0.584888 0.375245 0.486788
O O9 0.533531 0.030089 0.914331
O O10 0.851089 0.993337 0.935232
#
# Coordination Sequence:
#
# PCOD8139641 Si02
#       5
#     4   8   8   8   8
#     4  12  24  44  64  92 138 178 216 280 334 402
#     4  11  24  43  64  96 136 175 226 275 339 409
#     4  10  20  39  66 100 129 175 227 279 344 403
#     4  10  21  43  67  95 130 181 224 278 351 400
#     4   9  20  40  66  92 134 168 220 291 334 401
#
# _framework density 22.129740000000002
#
# number of rings (size 3 to 8) (size 9 to 14) (size 15 to 20)
#    0.000    1.778    1.111    2.667    0.000    3.556 
#    6.000   17.778    0.000    0.000    0.000    0.000 
#    0.000    0.000    0.000    0.000    0.000    0.000 
#
# Total GULP energy -223203.251389 kJ/mol
# GULP energy per Si atom -12400.180633 kJ/mol
# Density = 2.207937 g / cm^3
# Si number density = 22.129740 Si / 1000 Ang^3
#
#
#
# Elastic Constant Matrix: (Units=GPa)
#
#
# Indices 1 2 3 4 5 6 
#
# 1 101.5093 44.0547 15.4086 -0.0075 -3.0661 0.0065
# 2 44.0547 84.1540 36.9814 -0.0028 -10.0678 0.0015
# 3 15.4086 36.9814 96.8867 -0.0110 -1.9981 0.0080
# 4 -0.0075 -0.0028 -0.0110 59.2912 0.0030 -25.4307
# 5 -3.0661 -10.0678 -1.9981 0.0030 25.6833 -0.0012
# 6 0.0065 0.0015 0.0080 -25.4307 -0.0012 57.5912
#
#
#
# Elastic Compliance Matrix: (Units=1/GPa)
#
#
# Indices 1 2 3 4 5 6 
#
# 1 0.012815 -0.007147 0.000665 0.000001 -0.001220 -0.000001
# 2 -0.007147 0.018987 -0.005984 -0.000001 0.006124 0.000001
# 3 0.000665 -0.005984 0.012473 0.000002 -0.001296 -0.000001
# 4 0.000001 -0.000001 0.000002 0.020807 -0.000002 0.009188
# 5 -0.001220 0.006124 -0.001296 -0.000002 0.041090 0.000000
# 6 -0.000001 0.000001 -0.000001 0.009188 0.000000 0.021421
#
#
# Mechanical properties :
#
#
# Convention : Reuss Voigt Hill
#
# Bulk Modulus (GPa) = 51.70040 52.82660 52.26350
# Shear Modulus (GPa) = 31.45189 40.92015 36.18602
#
# Velocity S-wave (km/s) = 3.77404 4.30478 4.04812
# Velocity P-wave (km/s) = 6.51186 6.97362 6.74669
#
# Compressibility (1/GPa) = 0.01934221
#
# Stress axis : x y z
#
# Youngs Moduli (GPa) = 78.03179 52.66812 80.17254
#
# Poissons Ratio (x) = 0.37641 -0.05329
# Poissons Ratio (y) = 0.55768 0.47978
# Poissons Ratio (z) = -0.05187 0.31518
#
# Static dielectric constant tensor:
#      x y z
#    x 6.230280 0.001150 0.783020 
#    y 0.001150 4.191870 0.000470 
#    z 0.783020 0.000470 4.474510 
# 
# 
# High freq. dielectric constant tensor:
#      x y z
#    x 1.853330 0.000000 -0.007160 
#    y 0.000000 1.881430 0.000000 
#    z -0.007160 0.000000 1.875430 
# 
# From -- ./inp_files/260065.got.cif
#   From: 2010.06.25/outbox.cif.g09.slc.cpg/sg15_131_cif.got.tgz:260065.got - 2010.06.28 07:06:18.
