data_PCOD8139606
_publ_section_title
;
Structure prediction by ZEFSAII (Michael W. Deem and Ramdas Pophale) SiO2 
 PCOD8139606
Probable space group: C 2/C
;
_chemical_formula_sum "Si O2"
_cell_formula_units_Z 48
_cell_length_a 17.549213
_cell_length_b 29.400839
_cell_length_c 9.361763
_cell_angle_alpha 90.000000
_cell_angle_beta 30.343662
_cell_angle_gamma 90.000000
_cell_volume 2440.202249
_symmetry_space_group_name_H-M "C 2/C"
_symmetry_group_IT_number 15
_symmetry_cell_setting 'monoclinic'
loop_
_space_group_symop_operation_xyz
x,y,z
-x,y,1/2-z
-x,-y,-z
x,-y,1/2+z
1/2+x,1/2+y,z
1/2-x,1/2+y,1/2-z
1/2-x,1/2-y,-z
1/2+x,1/2-y,1/2+z
loop_
_atom_site_type_symbol
_atom_site_label
_atom_site_fract_x
_atom_site_fract_y
_atom_site_fract_z
Si Si1 0.588824 0.719310 0.460302
Si Si2 0.074341 0.961652 0.783961
Si Si3 0.069168 0.460543 0.294820
Si Si4 0.852770 0.273917 0.714071
Si Si5 0.419115 0.129473 0.021887
Si Si6 0.593934 0.615829 0.458454
O O1 0.764890 0.731895 0.204650
O O2 0.516886 0.749949 0.450441
O O3 0.571411 0.667313 0.443535
O O4 0.500000 0.728757 0.750000
O O5 0.252948 0.968141 0.486029
O O6 0.036453 0.913794 0.919436
O O7 0.000000 0.962510 0.750000
O O8 0.000000 0.000000 0.000000
O O9 0.000000 0.464898 0.250000
O O10 0.000000 0.500000 0.500000
O O11 0.022355 0.409787 0.428904
O O12 0.879951 0.328506 0.692847
O O13 0.750000 0.250000 0.000000
O O14 0.266798 0.104665 0.216299
O O15 0.500000 0.149951 0.750000
O O16 0.500000 0.603561 0.750000
#
# Coordination Sequence:
#
# PCOD8139606 Si02
#       6
#     8   8   8   8   8   8
#     4   8  16  32  56  82 113 150 201 248 298 369
#     4  12  25  41  63  95 127 160 212 270 322 382
#     4  11  23  44  65  91 126 169 215 261 323 390
#     4   9  17  34  57  87 116 158 204 250 306 376
#     4  10  20  40  66  85 124 171 214 257 325 389
#     4  10  20  39  65  90 122 172 211 254 323 390
#
# _framework density 19.670501999999999
#
# number of rings (size 3 to 8) (size 9 to 14) (size 15 to 20)
#    0.000    2.000    3.333    2.500    2.333    0.000 
#    3.000    6.667    0.000    0.000    0.000    0.000 
#    0.000    0.000    0.000    0.000    0.000    0.000 
#
# Total GULP energy -297393.309118 kJ/mol
# GULP energy per Si atom -12391.387880 kJ/mol
# Density = 1.962573 g / cm^3
# Si number density = 19.670502 Si / 1000 Ang^3
#
#
#
# Elastic Constant Matrix: (Units=GPa)
#
#
# Indices 1 2 3 4 5 6 
#
# 1 149.9704 81.7186 58.8009 -0.0003 -24.9015 0.0000
# 2 81.7186 148.5441 60.3938 0.0000 -4.7841 0.0000
# 3 58.8009 60.3938 93.3575 -0.0002 -17.5347 -0.0001
# 4 -0.0003 0.0000 -0.0002 -0.6049 0.0002 -0.9856
# 5 -24.9015 -4.7841 -17.5347 0.0002 36.1745 0.0001
# 6 0.0000 0.0000 -0.0001 -0.9856 0.0001 23.3806
#
#
#
# Elastic Compliance Matrix: (Units=1/GPa)
#
#
# Indices 1 2 3 4 5 6 
#
# 1 0.011474 -0.004927 -0.002947 -0.000002 0.005818 0.000000
# 2 -0.004927 0.011360 -0.005062 0.000002 -0.004343 0.000000
# 3 -0.002947 -0.005062 0.016871 -0.000003 0.005480 0.000000
# 4 -0.000002 0.000002 -0.000003 -1.546898 0.000008 -0.065211
# 5 0.005818 -0.004343 0.005480 0.000008 0.033731 0.000000
# 6 0.000000 0.000000 0.000000 -0.065211 0.000000 0.040022
#
#
# Mechanical properties :
#
#
# Convention : Reuss Voigt Hill
#
# Bulk Modulus (GPa) = 72.27972 88.18873 80.23423
# Shear Modulus (GPa) = -3.56390 24.52061 10.47835
#
# Velocity S-wave (km/s) = -1.34749 3.53451 2.31052
# Velocity P-wave (km/s) = 5.86549 7.84776 6.92789
#
# Compressibility (1/GPa) = 0.01383514
#
# Stress axis : x y z
#
# Youngs Moduli (GPa) = 87.15275 88.02474 59.27193
#
# Poissons Ratio (x) = 0.43367 0.17467
# Poissons Ratio (y) = 0.42938 0.30002
# Poissons Ratio (z) = 0.25684 0.44556
#
# Static dielectric constant tensor:
#      x y z
#    x 3.959580 0.000000 -0.567240 
#    y 0.000000 3.847040 0.000000 
#    z -0.567240 0.000000 3.897220 
# 
# 
# High freq. dielectric constant tensor:
#      x y z
#    x 1.748080 0.000000 -0.028180 
#    y 0.000000 1.775560 0.000000 
#    z -0.028180 0.000000 1.767640 
# 
# From -- ./inp_files/52733.got.cif
#   From: 2010.06.25/outbox.cif.g09.slc.cpg/sg15_27_cif.got.tgz:52733.got - 2010.06.28 07:06:18.
