data_PCOD8139280
_publ_section_title
;
Structure prediction by ZEFSAII (Michael W. Deem and Ramdas Pophale) SiO2 
 PCOD8139280
Probable space group: C 2/C
;
_chemical_formula_sum "Si O2"
_cell_formula_units_Z 44
_cell_length_a 11.650360
_cell_length_b 14.608991
_cell_length_c 11.708523
_cell_angle_alpha 90.000000
_cell_angle_beta 88.040892
_cell_angle_gamma 90.000000
_cell_volume 1991.625840
_symmetry_space_group_name_H-M "C 2/C"
_symmetry_group_IT_number 15
_symmetry_cell_setting 'monoclinic'
loop_
_space_group_symop_operation_xyz
x,y,z
-x,y,1/2-z
-x,-y,-z
x,-y,1/2+z
1/2+x,1/2+y,z
1/2-x,1/2+y,1/2-z
1/2-x,1/2-y,-z
1/2+x,1/2-y,1/2+z
loop_
_atom_site_type_symbol
_atom_site_label
_atom_site_fract_x
_atom_site_fract_y
_atom_site_fract_z
Si Si1 0.000000 0.140207 0.250000
Si Si2 0.557614 0.264719 0.515920
Si Si3 0.747332 0.116736 0.254921
Si Si4 0.247272 0.817749 0.365337
Si Si5 0.657717 0.827099 0.527077
Si Si6 0.124917 0.443237 0.304217
O O1 0.002652 0.200534 0.365594
O O2 0.881150 0.083123 0.254976
O O3 0.650745 0.187263 0.545348
O O4 0.628418 0.339852 0.437782
O O5 0.460641 0.224096 0.436147
O O6 0.737419 0.219927 0.300784
O O7 0.667059 0.046755 0.327937
O O8 0.701134 0.109458 0.127420
O O9 0.275914 0.898268 0.277491
O O10 0.750000 0.750000 0.500000
O O11 0.624306 0.890499 0.422434
O O12 0.000000 0.438850 0.250000
#
# Coordination Sequence:
#
# PCOD8139280 Si02
#       6
#     4   8   8   8   8   8
#     4  10  20  46  64  92 144 190 230 284 354 422
#     4  10  20  38  73  94 130 188 233 276 349 413
#     4  11  26  42  70 105 139 184 240 293 348 420
#     4  10  22  43  67  99 139 184 231 289 351 407
#     4  12  22  43  73 102 136 191 237 283 350 421
#     4  12  26  47  71 103 143 185 233 293 358 417
#
# _framework density 22.092502
#
# number of rings (size 3 to 8) (size 9 to 14) (size 15 to 20)
#    0.000    1.091    5.455    1.091    3.818    5.091 
#    3.273    1.818    0.000    0.000    0.000    0.000 
#    0.000    0.000    0.000    0.000    0.000    0.000 
#
# Total GULP energy -272656.551021 kJ/mol
# GULP energy per Si atom -12393.479592 kJ/mol
# Density = 2.204222 g / cm^3
# Si number density = 22.092502 Si / 1000 Ang^3
#
#
#
# Elastic Constant Matrix: (Units=GPa)
#
#
# Indices 1 2 3 4 5 6 
#
# 1 144.3384 37.1570 46.4943 0.0000 15.5936 0.0000
# 2 37.1570 76.5491 9.5202 0.0000 7.8612 0.0000
# 3 46.4943 9.5202 72.8853 0.0000 12.6115 0.0000
# 4 0.0000 0.0000 0.0000 23.8986 0.0000 -1.8431
# 5 15.5936 7.8612 12.6115 0.0000 49.4326 0.0000
# 6 0.0000 0.0000 0.0000 -1.8431 0.0000 29.3383
#
#
#
# Elastic Compliance Matrix: (Units=1/GPa)
#
#
# Indices 1 2 3 4 5 6 
#
# 1 0.009870 -0.003987 -0.005593 0.000000 -0.001052 0.000000
# 2 -0.003987 0.015036 0.000811 0.000000 -0.001340 0.000000
# 3 -0.005593 0.000811 0.017680 0.000000 -0.002875 0.000000
# 4 0.000000 0.000000 0.000000 0.042047 0.000000 0.002641
# 5 -0.001052 -0.001340 -0.002875 0.000000 0.021508 0.000000
# 6 0.000000 0.000000 0.000000 0.002641 0.000000 0.034251
#
#
# Mechanical properties :
#
#
# Convention : Reuss Voigt Hill
#
# Bulk Modulus (GPa) = 39.92444 53.34619 46.63532
# Shear Modulus (GPa) = 30.06996 33.90731 31.98864
#
# Velocity S-wave (km/s) = 3.69330 3.92189 3.80931
# Velocity P-wave (km/s) = 6.02478 6.68636 6.36418
#
# Compressibility (1/GPa) = 0.02504731
#
# Stress axis : x y z
#
# Youngs Moduli (GPa) = 101.31726 66.50875 56.56212
#
# Poissons Ratio (x) = 0.26518 0.31637
# Poissons Ratio (y) = 0.40397 -0.04590
# Poissons Ratio (z) = 0.56669 -0.05397
#
# Static dielectric constant tensor:
#      x y z
#    x 4.465610 0.000000 -0.027800 
#    y 0.000000 3.754350 0.000000 
#    z -0.027800 0.000000 4.317100 
# 
# 
# High freq. dielectric constant tensor:
#      x y z
#    x 1.891290 0.000000 0.001110 
#    y 0.000000 1.829150 0.000000 
#    z 0.001110 0.000000 1.875230 
# 
# From -- ./inp_files/86156.got.cif
#   From: 2010.06.25/outbox.cif.g09.slc.cpg/sg15_44_cif.got.tgz:86156.got - 2010.06.28 07:06:18.
