data_PCOD8139202
_publ_section_title
;
Structure prediction by ZEFSAII (Michael W. Deem and Ramdas Pophale) SiO2 
 PCOD8139202
Probable space group: C 2/C
;
_chemical_formula_sum "Si O2"
_cell_formula_units_Z 60
_cell_length_a 5.669537
_cell_length_b 25.978485
_cell_length_c 21.584527
_cell_angle_alpha 90.000000
_cell_angle_beta 119.146206
_cell_angle_gamma 90.000000
_cell_volume 2776.559991
_symmetry_space_group_name_H-M "C 2/C"
_symmetry_group_IT_number 15
_symmetry_cell_setting 'monoclinic'
loop_
_space_group_symop_operation_xyz
x,y,z
-x,y,1/2-z
-x,-y,-z
x,-y,1/2+z
1/2+x,1/2+y,z
1/2-x,1/2+y,1/2-z
1/2-x,1/2-y,-z
1/2+x,1/2-y,1/2+z
loop_
_atom_site_type_symbol
_atom_site_label
_atom_site_fract_x
_atom_site_fract_y
_atom_site_fract_z
Si Si1 0.389889 0.968122 0.542358
Si Si2 0.469652 0.768656 0.353897
Si Si3 0.378288 0.347516 0.363423
Si Si4 0.253687 0.118997 0.430159
Si Si5 0.500000 0.663019 0.750000
Si Si6 0.111899 0.705588 0.522359
Si Si7 0.311887 0.568601 0.945873
Si Si8 0.327784 0.656976 0.290329
O O1 0.587640 0.922996 0.592424
O O2 0.128860 0.939120 0.484123
O O3 0.500000 0.000000 0.500000
O O4 0.327344 0.012780 0.585124
O O5 0.718427 0.793463 0.348225
O O6 0.206552 0.802709 0.314178
O O7 0.530434 0.767549 0.435807
O O8 0.399339 0.715182 0.314049
O O9 0.370710 0.368369 0.290900
O O10 0.674020 0.338051 0.429863
O O11 0.222196 0.391981 0.380996
O O12 0.392494 0.175828 0.451017
O O13 0.261656 0.095219 0.499090
O O14 0.954611 0.123520 0.362872
O O15 0.250000 0.750000 0.500000
O O16 0.500000 0.642373 0.250000
O O17 0.000000 0.647854 0.250000
#
# Coordination Sequence:
#
# PCOD8139202 Si02
#       8
#     8   8   8   8   4   8   8   8
#     4   9  20  38  65 103 126 164 206 285 352 412
#     4  11  23  41  59  90 135 186 228 273 333 406
#     4  11  21  36  61  93 132 174 222 271 342 414
#     4  11  23  41  66  97 137 172 226 289 350 401
#     4  10  22  36  56  84 130 184 220 264 324 410
#     4  11  24  35  61  99 137 170 219 289 342 401
#     4  10  20  38  67 104 128 161 220 280 354 414
#     4  12  29  45  66  98 137 195 243 272 330 422
#
# _framework density 21.609472
#
# number of rings (size 3 to 8) (size 9 to 14) (size 15 to 20)
#    0.000    1.333    3.333    2.000    7.467    1.067 
#    0.000    0.000    0.000    0.000   41.600    0.000 
#    0.000    0.000    0.000    0.000    0.000    0.000 
#
# Total GULP energy -371685.152204 kJ/mol
# GULP energy per Si atom -12389.505073 kJ/mol
# Density = 2.156029 g / cm^3
# Si number density = 21.609472 Si / 1000 Ang^3
#
#
#
# Elastic Constant Matrix: (Units=GPa)
#
#
# Indices 1 2 3 4 5 6 
#
# 1 108.5619 32.5652 43.5592 0.0000 -0.8201 0.0000
# 2 32.5652 95.9463 44.0776 0.0000 -3.1018 0.0000
# 3 43.5592 44.0776 106.7867 0.0000 -5.7359 0.0000
# 4 0.0000 0.0000 0.0000 -6.9444 0.0000 114.1195
# 5 -0.8201 -3.1018 -5.7359 0.0000 44.5522 0.0000
# 6 0.0000 0.0000 0.0000 114.1195 0.0000 -540.8838
#
#
#
# Elastic Compliance Matrix: (Units=1/GPa)
#
#
# Indices 1 2 3 4 5 6 
#
# 1 0.011364 -0.002136 -0.003777 0.000000 -0.000426 0.000000
# 2 -0.002136 0.013265 -0.004588 0.000000 0.000293 0.000000
# 3 -0.003777 -0.004588 0.012867 0.000000 0.001268 0.000000
# 4 0.000000 0.000000 0.000000 0.058366 0.000000 0.012314
# 5 -0.000426 0.000293 0.001268 0.000000 0.022621 0.000000
# 6 0.000000 0.000000 0.000000 0.012314 0.000000 0.000749
#
#
# Mechanical properties :
#
#
# Convention : Reuss Voigt Hill
#
# Bulk Modulus (GPa) = 60.62740 61.29990 60.96365
# Shear Modulus (GPa) = 34.30951 -87.91568 -26.80309
#
# Velocity S-wave (km/s) = 3.98893 -6.38531 -3.52567
# Velocity P-wave (km/s) = 7.02369 5.09256 3.42038
#
# Compressibility (1/GPa) = 0.01649419
#
# Stress axis : x y z
#
# Youngs Moduli (GPa) = 87.99555 75.38792 77.71823
#
# Poissons Ratio (x) = 0.16102 0.29353
# Poissons Ratio (y) = 0.18794 0.35659
# Poissons Ratio (z) = 0.33234 0.34589
#
# Static dielectric constant tensor:
#      x y z
#    x 5.220870 0.000000 -0.860420 
#    y 0.000000 4.046760 0.000000 
#    z -0.860420 0.000000 4.596650 
# 
# 
# High freq. dielectric constant tensor:
#      x y z
#    x 1.866310 0.000000 0.000840 
#    y 0.000000 1.839650 0.000000 
#    z 0.000840 0.000000 1.825930 
# 
# From -- ./inp_files/228622.got.cif
#   From: 2010.06.25/outbox.cif.g09.slc.cpg/sg15_115_cif.got.tgz:228622.got - 2010.06.28 07:06:18.
