data_PCOD8139350
_publ_section_title
;
Structure prediction by ZEFSAII (Michael W. Deem and Ramdas Pophale) SiO2 
 PCOD8139350
Probable space group: C 2/C
;
_chemical_formula_sum "Si O2"
_cell_formula_units_Z 60
_cell_length_a 8.899228
_cell_length_b 16.908882
_cell_length_c 19.120031
_cell_angle_alpha 90.000000
_cell_angle_beta 104.040009
_cell_angle_gamma 90.000000
_cell_volume 2791.156662
_symmetry_space_group_name_H-M "C 2/C"
_symmetry_group_IT_number 15
_symmetry_cell_setting 'monoclinic'
loop_
_space_group_symop_operation_xyz
x,y,z
-x,y,1/2-z
-x,-y,-z
x,-y,1/2+z
1/2+x,1/2+y,z
1/2-x,1/2+y,1/2-z
1/2-x,1/2-y,-z
1/2+x,1/2-y,1/2+z
loop_
_atom_site_type_symbol
_atom_site_label
_atom_site_fract_x
_atom_site_fract_y
_atom_site_fract_z
Si Si1 0.379899 0.921655 0.869926
Si Si2 0.989700 0.756602 0.361369
Si Si3 0.250700 0.734078 0.716130
Si Si4 0.657433 0.020162 0.873945
Si Si5 0.189266 0.913534 0.713971
Si Si6 0.454324 0.397391 0.456050
Si Si7 0.000000 0.629708 0.750000
Si Si8 0.078530 0.045730 0.403531
O O1 0.457491 0.835233 0.874299
O O2 0.508310 0.989129 0.899777
O O3 0.286138 0.948936 0.789707
O O4 0.256172 0.926478 0.918210
O O5 0.868409 0.789186 0.291228
O O6 0.969292 0.808035 0.429649
O O7 0.162189 0.769563 0.349059
O O8 0.187846 0.820712 0.722482
O O9 0.099718 0.679234 0.704372
O O10 0.727437 0.940945 0.847680
O O11 0.780441 0.066045 0.935626
O O12 0.619290 0.078763 0.806958
O O13 0.009153 0.940038 0.681350
O O14 0.567149 0.452958 0.422318
O O15 0.499785 0.401066 0.543233
#
# Coordination Sequence:
#
# PCOD8139350 Si02
#       8
#     8   8   8   8   8   8   4   8
#     4  11  21  37  64  94 116 158 205 249 308 355
#     4  10  21  39  61  87 121 159 195 252 304 361
#     4  10  22  36  59  91 125 150 190 256 311 350
#     4  11  21  38  61  89 121 155 196 254 299 365
#     4  10  20  39  60  89 122 153 200 247 303 364
#     4  10  23  44  58  87 127 163 205 247 302 362
#     4  12  22  34  58  98 120 146 192 250 308 352
#     4  10  24  39  64  84 124 169 205 245 299 366
#
# _framework density 21.496465000000001
#
# number of rings (size 3 to 8) (size 9 to 14) (size 15 to 20)
#    0.000    1.600    4.000    0.400    5.600    1.067 
#    2.400    0.667    0.000    0.000    0.000    0.000 
#    0.000    0.000    0.000    0.000    0.000    0.000 
#
# Total GULP energy -371830.320749 kJ/mol
# GULP energy per Si atom -12394.344025 kJ/mol
# Density = 2.144754 g / cm^3
# Si number density = 21.496465 Si / 1000 Ang^3
#
#
#
# Elastic Constant Matrix: (Units=GPa)
#
#
# Indices 1 2 3 4 5 6 
#
# 1 127.6286 46.4071 10.6097 0.0000 -9.7581 0.0000
# 2 46.4071 71.2830 18.2035 0.0000 -2.5374 0.0000
# 3 10.6097 18.2035 50.6607 0.0000 0.1109 0.0000
# 4 0.0000 0.0000 0.0000 25.6427 0.0000 0.1274
# 5 -9.7581 -2.5374 0.1109 0.0000 18.6716 0.0000
# 6 0.0000 0.0000 0.0000 0.1274 0.0000 15.9176
#
#
#
# Elastic Compliance Matrix: (Units=1/GPa)
#
#
# Indices 1 2 3 4 5 6 
#
# 1 0.010654 -0.006825 0.000211 0.000000 0.004639 0.000000
# 2 -0.006825 0.019903 -0.005721 0.000000 -0.000828 0.000000
# 3 0.000211 -0.005721 0.021752 0.000000 -0.000796 0.000000
# 4 0.000000 0.000000 0.000000 0.038999 0.000000 -0.000312
# 5 0.004639 -0.000828 -0.000796 0.000000 0.055874 0.000000
# 6 0.000000 0.000000 0.000000 -0.000312 0.000000 0.062826
#
#
# Mechanical properties :
#
#
# Convention : Reuss Voigt Hill
#
# Bulk Modulus (GPa) = 36.17870 44.44587 40.31229
# Shear Modulus (GPa) = 20.50100 23.66984 22.08542
#
# Velocity S-wave (km/s) = 3.09154 3.32189 3.20878
# Velocity P-wave (km/s) = 5.44152 5.95265 5.70281
#
# Compressibility (1/GPa) = 0.02764057
#
# Stress axis : x y z
#
# Youngs Moduli (GPa) = 93.86194 50.24362 45.97226
#
# Poissons Ratio (x) = 0.34290 -0.00970
# Poissons Ratio (y) = 0.64058 0.26298
# Poissons Ratio (z) = -0.01980 0.28742
#
# Static dielectric constant tensor:
#      x y z
#    x 4.047000 0.000000 0.098260 
#    y 0.000000 3.669780 0.000000 
#    z 0.098260 0.000000 3.723640 
# 
# 
# High freq. dielectric constant tensor:
#      x y z
#    x 1.852500 0.000000 0.000410 
#    y 0.000000 1.833820 0.000000 
#    z 0.000410 0.000000 1.820580 
# 
# From -- ./inp_files/232719.got.cif
#   From: 2010.06.25/outbox.cif.g09.slc.cpg/sg15_117_cif.got.tgz:232719.got - 2010.06.28 07:06:18.
