data_PCOD8139978
_publ_section_title
;
Structure prediction by ZEFSAII (Michael W. Deem and Ramdas Pophale) SiO2 
 PCOD8139978
Probable space group: C 2/C
;
_chemical_formula_sum "Si O2"
_cell_formula_units_Z 52
_cell_length_a 12.005220
_cell_length_b 12.354288
_cell_length_c 21.157179
_cell_angle_alpha 90.000000
_cell_angle_beta 123.304001
_cell_angle_gamma 90.000000
_cell_volume 2622.598895
_symmetry_space_group_name_H-M "C 2/C"
_symmetry_group_IT_number 15
_symmetry_cell_setting 'monoclinic'
loop_
_space_group_symop_operation_xyz
x,y,z
-x,y,1/2-z
-x,-y,-z
x,-y,1/2+z
1/2+x,1/2+y,z
1/2-x,1/2+y,1/2-z
1/2-x,1/2-y,-z
1/2+x,1/2-y,1/2+z
loop_
_atom_site_type_symbol
_atom_site_label
_atom_site_fract_x
_atom_site_fract_y
_atom_site_fract_z
Si Si1 0.616123 0.837817 0.025978
Si Si2 0.500000 0.252220 0.250000
Si Si3 0.911237 0.951366 0.297315
Si Si4 0.298304 0.522627 0.139557
Si Si5 0.182242 0.356321 0.906097
Si Si6 0.172343 0.723516 0.039340
Si Si7 0.135712 0.040897 0.573893
O O1 0.695572 0.726704 0.057648
O O2 0.689184 0.937493 0.081794
O O3 0.599061 0.856427 0.945376
O O4 0.473791 0.828583 0.016519
O O5 0.414226 0.328043 0.271254
O O6 0.410376 0.172172 0.181367
O O7 0.854105 0.971815 0.348046
O O8 0.816542 0.020203 0.221030
O O9 0.062222 0.992718 0.348848
O O10 0.260841 0.643401 0.108719
O O11 0.241176 0.476584 0.917844
O O12 0.153096 0.832852 0.070890
O O13 0.250000 0.750000 0.000000
O O14 0.000000 0.000000 0.500000
#
# Coordination Sequence:
#
# PCOD8139978 Si02
#       7
#     8   4   8   8   8   8   8
#     4  11  21  40  68  92 123 160 216 264 304 373
#     4  10  20  40  64  92 126 156 218 260 312 374
#     4  10  21  41  65  90 127 170 212 257 318 379
#     4  10  22  42  63  96 127 169 212 258 318 379
#     4  11  22  38  67  98 117 161 215 266 307 361
#     4  12  25  40  63  95 131 167 204 261 325 383
#     4  12  24  39  62  92 127 168 213 260 310 380
#
# _framework density 19.827660999999999
#
# number of rings (size 3 to 8) (size 9 to 14) (size 15 to 20)
#    0.000    1.231    4.615    4.154    0.000    2.462 
#    0.000    1.538    0.000    0.000    0.000    0.000 
#    0.000    0.000    0.000    0.000    0.000    0.000 
#
# Total GULP energy -322373.592520 kJ/mol
# GULP energy per Si atom -12398.984328 kJ/mol
# Density = 1.978253 g / cm^3
# Si number density = 19.827661 Si / 1000 Ang^3
#
#
#
# Elastic Constant Matrix: (Units=GPa)
#
#
# Indices 1 2 3 4 5 6 
#
# 1 113.8775 29.7433 65.9404 0.0000 -5.7779 0.0000
# 2 29.7433 124.9422 59.4034 0.0000 10.8977 0.0000
# 3 65.9404 59.4034 136.9680 0.0000 0.9672 0.0000
# 4 0.0000 0.0000 0.0000 35.2629 0.0000 2.8939
# 5 -5.7779 10.8977 0.9672 0.0000 29.8359 0.0000
# 6 0.0000 0.0000 0.0000 2.8939 0.0000 16.9419
#
#
#
# Elastic Compliance Matrix: (Units=1/GPa)
#
#
# Indices 1 2 3 4 5 6 
#
# 1 0.012390 -0.000433 -0.005797 0.000000 0.002746 0.000000
# 2 -0.000433 0.010487 -0.004313 0.000000 -0.003774 0.000000
# 3 -0.005797 -0.004313 0.011962 0.000000 0.000065 0.000000
# 4 0.000000 0.000000 0.000000 0.028762 0.000000 -0.004913
# 5 0.002746 -0.003774 0.000065 0.000000 0.035425 0.000000
# 6 0.000000 0.000000 0.000000 -0.004913 0.000000 0.059865
#
#
# Mechanical properties :
#
#
# Convention : Reuss Voigt Hill
#
# Bulk Modulus (GPa) = 72.70947 76.21798 74.46373
# Shear Modulus (GPa) = 27.09156 31.12149 29.10653
#
# Velocity S-wave (km/s) = 3.70043 3.96612 3.83557
# Velocity P-wave (km/s) = 7.41673 7.71344 7.56654
#
# Compressibility (1/GPa) = 0.01375337
#
# Stress axis : x y z
#
# Youngs Moduli (GPa) = 80.70836 95.36015 83.60017
#
# Poissons Ratio (x) = 0.04130 0.48460
# Poissons Ratio (y) = 0.03495 0.36056
# Poissons Ratio (z) = 0.46783 0.41128
#
# Static dielectric constant tensor:
#      x y z
#    x 3.647340 0.000000 -0.045670 
#    y 0.000000 3.715970 0.000000 
#    z -0.045670 0.000000 3.724680 
# 
# 
# High freq. dielectric constant tensor:
#      x y z
#    x 1.764290 0.000000 -0.005620 
#    y 0.000000 1.778640 0.000000 
#    z -0.005620 0.000000 1.781880 
# 
# From -- ./inp_files/269319.got.cif
#   From: 2010.06.25/outbox.cif.g09.slc.cpg/sg15_135_cif.got.tgz:269319.got - 2010.06.28 07:06:18.
