data_PCOD8139965
_publ_section_title
;
Structure prediction by ZEFSAII (Michael W. Deem and Ramdas Pophale) SiO2 
 PCOD8139965
Probable space group: C 2/C
;
_chemical_formula_sum "Si O2"
_cell_formula_units_Z 44
_cell_length_a 11.239618
_cell_length_b 17.077453
_cell_length_c 14.524186
_cell_angle_alpha 90.000000
_cell_angle_beta 132.495338
_cell_angle_gamma 90.000000
_cell_volume 2055.557900
_symmetry_space_group_name_H-M "C 2/C"
_symmetry_group_IT_number 15
_symmetry_cell_setting 'monoclinic'
loop_
_space_group_symop_operation_xyz
x,y,z
-x,y,1/2-z
-x,-y,-z
x,-y,1/2+z
1/2+x,1/2+y,z
1/2-x,1/2+y,1/2-z
1/2-x,1/2-y,-z
1/2+x,1/2-y,1/2+z
loop_
_atom_site_type_symbol
_atom_site_label
_atom_site_fract_x
_atom_site_fract_y
_atom_site_fract_z
Si Si1 0.500000 0.894030 0.250000
Si Si2 0.913877 0.378793 0.398817
Si Si3 0.308941 0.465263 0.488974
Si Si4 0.805788 0.245797 0.633457
Si Si5 0.618202 0.604709 0.097778
Si Si6 0.698095 0.049424 0.132085
O O1 0.449019 0.843451 0.314134
O O2 0.638125 0.951956 0.354322
O O3 0.757906 0.336158 0.359117
O O4 0.888977 0.471662 0.376540
O O5 0.073151 0.377358 0.548144
O O6 0.360377 0.551376 0.481510
O O7 0.425321 0.394353 0.514623
O O8 0.301243 0.468182 0.594848
O O9 0.750000 0.250000 0.500000
O O10 0.703966 0.312373 0.631497
O O11 0.000000 0.253667 0.750000
O O12 0.681335 0.568717 0.224483
#
# Coordination Sequence:
#
# PCOD8139965 Si02
#       6
#     4   8   8   8   8   8
#     4  10  20  40  64  90 124 172 220 274 324 388
#     4  10  22  41  66  97 130 177 225 266 339 401
#     4  10  22  37  67  96 127 169 221 274 326 393
#     4  12  28  44  68 100 141 182 221 282 347 406
#     4  11  23  41  63  99 136 169 225 274 332 400
#     4  10  20  41  68  94 129 174 223 276 326 392
#
# _framework density 21.405380999999998
#
# number of rings (size 3 to 8) (size 9 to 14) (size 15 to 20)
#    0.000    1.455    1.818    2.727    3.818    1.455 
#    3.273    1.818    0.000    0.000    0.000    0.000 
#    0.000    0.000    0.000    0.000    0.000    0.000 
#
# Total GULP energy -272586.325037 kJ/mol
# GULP energy per Si atom -12390.287502 kJ/mol
# Density = 2.135666 g / cm^3
# Si number density = 21.405381 Si / 1000 Ang^3
#
#
#
# Elastic Constant Matrix: (Units=GPa)
#
#
# Indices 1 2 3 4 5 6 
#
# 1 133.2333 33.8496 54.6744 0.0002 1.0958 0.0001
# 2 33.8496 62.4105 26.2741 0.0001 5.9278 0.0001
# 3 54.6744 26.2741 108.1890 0.0003 -13.1242 0.0003
# 4 0.0002 0.0001 0.0003 16.9375 0.0002 5.8851
# 5 1.0958 5.9278 -13.1242 0.0002 34.2910 0.0001
# 6 0.0001 0.0001 0.0003 5.8851 0.0001 37.2170
#
#
#
# Elastic Compliance Matrix: (Units=1/GPa)
#
#
# Indices 1 2 3 4 5 6 
#
# 1 0.010263 -0.003534 -0.004503 0.000000 -0.001441 0.000000
# 2 -0.003534 0.019912 -0.003622 0.000000 -0.004715 0.000000
# 3 -0.004503 -0.003622 0.013100 0.000000 0.005784 0.000000
# 4 0.000000 0.000000 0.000000 0.062473 0.000000 -0.009879
# 5 -0.001441 -0.004715 0.005784 0.000000 0.032237 0.000000
# 6 0.000000 0.000000 0.000000 -0.009879 0.000000 0.028432
#
#
# Mechanical properties :
#
#
# Convention : Reuss Voigt Hill
#
# Bulk Modulus (GPa) = 50.10617 59.26990 54.68803
# Shear Modulus (GPa) = 25.45987 30.29143 27.87565
#
# Velocity S-wave (km/s) = 3.45253 3.76590 3.61262
# Velocity P-wave (km/s) = 6.27314 6.83072 6.55786
#
# Compressibility (1/GPa) = 0.01995762
#
# Stress axis : x y z
#
# Youngs Moduli (GPa) = 97.43497 50.22028 76.33570
#
# Poissons Ratio (x) = 0.17747 0.34375
# Poissons Ratio (y) = 0.34432 0.27648
# Poissons Ratio (z) = 0.43877 0.18189
#
# Static dielectric constant tensor:
#      x y z
#    x 4.376160 0.000000 -0.038120 
#    y 0.000000 3.572080 0.000000 
#    z -0.038120 0.000000 4.241290 
# 
# 
# High freq. dielectric constant tensor:
#      x y z
#    x 1.862220 0.000000 -0.004900 
#    y 0.000000 1.796150 0.000000 
#    z -0.004900 0.000000 1.861210 
# 
# From -- ./inp_files/145853.got.cif
#   From: 2010.06.25/outbox.cif.g09.slc.cpg/sg15_73_cif.got.tgz:145853.got - 2010.06.28 07:06:18.
