data_PCOD8139343
_publ_section_title
;
Structure prediction by ZEFSAII (Michael W. Deem and Ramdas Pophale) SiO2 
 PCOD8139343
Probable space group: C 2/C
;
_chemical_formula_sum "Si O2"
_cell_formula_units_Z 44
_cell_length_a 12.748990
_cell_length_b 21.947737
_cell_length_c 8.685300
_cell_angle_alpha 90.000000
_cell_angle_beta 65.820538
_cell_angle_gamma 90.000000
_cell_volume 2217.033807
_symmetry_space_group_name_H-M "C 2/C"
_symmetry_group_IT_number 15
_symmetry_cell_setting 'monoclinic'
loop_
_space_group_symop_operation_xyz
x,y,z
-x,y,1/2-z
-x,-y,-z
x,-y,1/2+z
1/2+x,1/2+y,z
1/2-x,1/2+y,1/2-z
1/2-x,1/2-y,-z
1/2+x,1/2-y,1/2+z
loop_
_atom_site_type_symbol
_atom_site_label
_atom_site_fract_x
_atom_site_fract_y
_atom_site_fract_z
Si Si1 0.281541 0.751143 0.224492
Si Si2 0.159162 0.328074 0.024884
Si Si3 0.628268 0.455950 0.164370
Si Si4 0.000000 0.413114 0.250000
Si Si5 0.247419 0.556726 0.596691
Si Si6 0.619536 0.679339 0.602408
O O1 0.183827 0.705264 0.349841
O O2 0.348111 0.780511 0.328244
O O3 0.223197 0.802087 0.153239
O O4 0.370807 0.712530 0.068208
O O5 0.259591 0.378034 0.002956
O O6 0.039752 0.366882 0.086934
O O7 0.500000 0.484346 0.250000
O O8 0.667848 0.441762 0.312020
O O9 0.625388 0.393159 0.069843
O O10 0.717662 0.502248 0.036164
O O11 0.887894 0.452899 0.269525
O O12 0.500000 0.699081 0.750000
#
# Coordination Sequence:
#
# PCOD8139343 Si02
#       6
#     8   8   8   4   8   8
#     4  10  20  39  60  87 123 159 191 249 300 366
#     4   9  20  39  61  90 120 155 202 242 302 365
#     4  11  23  41  60  85 124 158 210 255 295 367
#     4   8  20  38  64  92 124 150 200 262 292 368
#     4  10  22  40  61  87 121 158 205 253 308 355
#     4  10  22  36  60  87 119 155 198 246 301 354
#
# _framework density 19.846336999999998
#
# number of rings (size 3 to 8) (size 9 to 14) (size 15 to 20)
#    1.091    1.091    1.818    0.545    5.091    0.727 
#    0.000    0.000    2.000    0.000    0.000    0.000 
#    0.000    0.000    0.000    0.000    0.000    0.000 
#
# Total GULP energy -272601.088768 kJ/mol
# GULP energy per Si atom -12390.958580 kJ/mol
# Density = 1.980117 g / cm^3
# Si number density = 19.846337 Si / 1000 Ang^3
#
#
#
# Elastic Constant Matrix: (Units=GPa)
#
#
# Indices 1 2 3 4 5 6 
#
# 1 71.3275 14.7115 20.5756 0.0000 -15.3479 0.0000
# 2 14.7115 97.0169 51.6144 0.0000 -11.8731 0.0000
# 3 20.5756 51.6144 106.3778 0.0000 -14.6054 0.0000
# 4 0.0000 0.0000 0.0000 34.4838 0.0000 -10.9055
# 5 -15.3479 -11.8731 -14.6054 0.0000 30.2594 0.0000
# 6 0.0000 0.0000 0.0000 -10.9055 0.0000 23.1174
#
#
#
# Elastic Compliance Matrix: (Units=1/GPa)
#
#
# Indices 1 2 3 4 5 6 
#
# 1 0.016207 -0.000594 -0.001874 0.000000 0.007083 0.000000
# 2 -0.000594 0.014074 -0.006423 0.000000 0.002121 0.000000
# 3 -0.001874 -0.006423 0.013283 0.000000 0.002941 0.000000
# 4 0.000000 0.000000 0.000000 0.034084 0.000000 0.016079
# 5 0.007083 0.002121 0.002941 0.000000 0.038892 0.000000
# 6 0.000000 0.000000 0.000000 0.016079 0.000000 0.050842
#
#
# Mechanical properties :
#
#
# Convention : Reuss Voigt Hill
#
# Bulk Modulus (GPa) = 38.78550 49.83614 44.31082
# Shear Modulus (GPa) = 25.80544 30.09351 27.94947
#
# Velocity S-wave (km/s) = 3.60983 3.89823 3.75680
# Velocity P-wave (km/s) = 6.07946 6.73996 6.41821
#
# Compressibility (1/GPa) = 0.02578283
#
# Stress axis : x y z
#
# Youngs Moduli (GPa) = 61.70181 71.05277 75.28432
#
# Poissons Ratio (x) = 0.04218 0.14110
# Poissons Ratio (y) = 0.03663 0.48353
# Poissons Ratio (z) = 0.11565 0.45635
#
# Static dielectric constant tensor:
#      x y z
#    x 3.346870 0.000000 -0.160350 
#    y 0.000000 3.712010 0.000000 
#    z -0.160350 0.000000 3.503490 
# 
# 
# High freq. dielectric constant tensor:
#      x y z
#    x 1.756910 0.000000 -0.010860 
#    y 0.000000 1.777680 0.000000 
#    z -0.010860 0.000000 1.762480 
# 
# From -- ./inp_files/41633.got.cif
#   From: 2010.06.25/outbox.cif.g09.slc.cpg/sg15_21_cif.got.tgz:41633.got - 2010.06.28 07:06:18.
