data_PCOD8139484
_publ_section_title
;
Structure prediction by ZEFSAII (Michael W. Deem and Ramdas Pophale) SiO2 
 PCOD8139484
Probable space group: C 2/C
;
_chemical_formula_sum "Si O2"
_cell_formula_units_Z 28
_cell_length_a 24.295480
_cell_length_b 5.088107
_cell_length_c 17.632353
_cell_angle_alpha 90.000000
_cell_angle_beta 138.331525
_cell_angle_gamma 90.000000
_cell_volume 1449.091146
_symmetry_space_group_name_H-M "C 2/C"
_symmetry_group_IT_number 15
_symmetry_cell_setting 'monoclinic'
loop_
_space_group_symop_operation_xyz
x,y,z
-x,y,1/2-z
-x,-y,-z
x,-y,1/2+z
1/2+x,1/2+y,z
1/2-x,1/2+y,1/2-z
1/2-x,1/2-y,-z
1/2+x,1/2-y,1/2+z
loop_
_atom_site_type_symbol
_atom_site_label
_atom_site_fract_x
_atom_site_fract_y
_atom_site_fract_z
Si Si1 0.000000 0.388116 0.750000
Si Si2 0.042847 0.377400 0.441866
Si Si3 0.303996 0.747125 0.800679
Si Si4 0.057675 0.858575 0.167212
O O1 0.054314 0.569616 0.862862
O O2 0.059998 0.203209 0.760082
O O3 0.132309 0.318319 0.567162
O O4 0.999996 0.638178 0.434418
O O5 0.980033 0.139321 0.390509
O O6 0.250000 0.502675 0.773983
O O7 0.350170 0.659293 0.771237
#
# Coordination Sequence:
#
# PCOD8139484 Si02
#       4
#     4   8   8   8
#     4   8  22  34  70  84 106 154 212 232 274 330
#     4  10  20  39  63  87 111 154 205 235 278 342
#     4  12  24  38  58  92 124 150 184 244 304 342
#     4  10  20  39  63  87 111 154 205 235 278 342
#
# _framework density 19.322454
#
# number of rings (size 3 to 8) (size 9 to 14) (size 15 to 20)
#    1.714    0.000    0.000    6.000    0.000    0.000 
#    0.000    2.857    0.000    0.000    0.000    0.000 
#    0.000    0.000    0.000    0.000    0.000    0.000 
#
# Total GULP energy -173497.302516 kJ/mol
# GULP energy per Si atom -12392.664465 kJ/mol
# Density = 1.927848 g / cm^3
# Si number density = 19.322454 Si / 1000 Ang^3
#
#
#
# Elastic Constant Matrix: (Units=GPa)
#
#
# Indices 1 2 3 4 5 6 
#
# 1 92.5574 28.1677 47.6986 0.0000 4.6399 0.0001
# 2 28.1677 123.3017 21.1233 -0.0004 11.7726 0.0007
# 3 47.6986 21.1233 56.9240 0.0001 9.2640 0.0001
# 4 0.0000 -0.0004 0.0001 28.1561 0.0001 5.1344
# 5 4.6399 11.7726 9.2640 0.0001 26.2017 0.0000
# 6 0.0001 0.0007 0.0001 5.1344 0.0000 21.8269
#
#
#
# Elastic Compliance Matrix: (Units=1/GPa)
#
#
# Indices 1 2 3 4 5 6 
#
# 1 0.019602 -0.002005 -0.016195 0.000000 0.003156 0.000000
# 2 -0.002005 0.009082 -0.001150 0.000000 -0.003319 0.000000
# 3 -0.016195 -0.001150 0.032907 0.000000 -0.008250 0.000000
# 4 0.000000 0.000000 0.000000 0.037108 0.000000 -0.008729
# 5 0.003156 -0.003319 -0.008250 0.000000 0.042015 0.000000
# 6 0.000000 0.000000 0.000000 -0.008729 0.000000 0.047868
#
#
# Mechanical properties :
#
#
# Convention : Reuss Voigt Hill
#
# Bulk Modulus (GPa) = 43.68425 51.86246 47.77335
# Shear Modulus (GPa) = 21.28460 26.95649 24.12055
#
# Velocity S-wave (km/s) = 3.32256 3.73914 3.53699
# Velocity P-wave (km/s) = 6.11361 6.74836 6.43881
#
# Compressibility (1/GPa) = 0.02289155
#
# Stress axis : x y z
#
# Youngs Moduli (GPa) = 51.01574 110.10661 30.38889
#
# Poissons Ratio (x) = 0.22075 0.49214
# Poissons Ratio (y) = 0.10228 0.03495
# Poissons Ratio (z) = 0.82618 0.12663
#
# Static dielectric constant tensor:
#      x y z
#    x 3.448230 0.000000 -0.155860 
#    y 0.000000 3.643170 0.000000 
#    z -0.155860 0.000000 3.392840 
# 
# 
# High freq. dielectric constant tensor:
#      x y z
#    x 1.745760 0.000000 -0.017530 
#    y 0.000000 1.774190 0.000000 
#    z -0.017530 0.000000 1.727560 
# 
# From -- ./inp_files/165209.got.cif
#   From: 2010.06.25/outbox.cif.g09.slc.cpg/sg15_83_cif.got.tgz:165209.got - 2010.06.28 07:06:18.
