data_PCOD8139915
_publ_section_title
;
Structure prediction by ZEFSAII (Michael W. Deem and Ramdas Pophale) SiO2 
 PCOD8139915
Probable space group: C 2/C
;
_chemical_formula_sum "Si O2"
_cell_formula_units_Z 64
_cell_length_a 9.535434
_cell_length_b 19.444142
_cell_length_c 22.679426
_cell_angle_alpha 90.000000
_cell_angle_beta 52.715043
_cell_angle_gamma 90.000000
_cell_volume 3345.598744
_symmetry_space_group_name_H-M "C 2/C"
_symmetry_group_IT_number 15
_symmetry_cell_setting 'monoclinic'
loop_
_space_group_symop_operation_xyz
x,y,z
-x,y,1/2-z
-x,-y,-z
x,-y,1/2+z
1/2+x,1/2+y,z
1/2-x,1/2+y,1/2-z
1/2-x,1/2-y,-z
1/2+x,1/2-y,1/2+z
loop_
_atom_site_type_symbol
_atom_site_label
_atom_site_fract_x
_atom_site_fract_y
_atom_site_fract_z
Si Si1 0.994429 0.581046 0.185825
Si Si2 0.405432 0.586469 0.212866
Si Si3 0.722689 0.805923 0.585986
Si Si4 0.084862 0.656206 0.549620
Si Si5 0.267971 0.968706 0.429640
Si Si6 0.475885 0.473633 0.409315
Si Si7 0.256400 0.153277 0.552507
Si Si8 0.464910 0.693273 0.410389
O O1 0.795768 0.584919 0.215426
O O2 0.000000 0.550484 0.250000
O O3 0.079783 0.657235 0.163938
O O4 0.109746 0.533724 0.113860
O O5 0.500000 0.581947 0.250000
O O6 0.454058 0.521634 0.160384
O O7 0.448902 0.657523 0.168320
O O8 0.702935 0.837745 0.526491
O O9 0.680086 0.724777 0.597627
O O10 0.919056 0.822984 0.560540
O O11 0.105519 0.596357 0.592404
O O12 0.267241 0.666624 0.468341
O O13 0.033291 0.724506 0.599180
O O14 0.937051 0.634341 0.539909
O O15 0.138775 0.950955 0.408653
O O16 0.162102 0.983421 0.516637
O O17 0.386924 0.406765 0.402228
#
# Coordination Sequence:
#
# PCOD8139915 Si02
#       8
#     8   8   8   8   8   8   8   8
#     4  12  23  42  65  90 123 172 211 252 310 387
#     4  12  27  42  63  92 131 165 209 262 322 370
#     4  10  20  40  63  90 122 162 210 254 307 379
#     4  10  22  36  65  94 124 156 209 265 306 361
#     4  11  22  39  67  91 122 169 212 255 309 376
#     4  11  22  41  63  92 125 167 210 259 310 374
#     4  10  22  36  63  97 123 155 209 264 309 355
#     4  10  20  42  61  89 124 164 205 257 313 371
#
# _framework density 19.129608999999999
#
# number of rings (size 3 to 8) (size 9 to 14) (size 15 to 20)
#    0.000    1.250    5.000    0.750    3.500    1.500 
#    0.000    2.500    0.000    0.000    0.000    0.000 
#    0.000    0.000    0.000    0.000    0.000    0.000 
#
# Total GULP energy -396869.602252 kJ/mol
# GULP energy per Si atom -12402.175070 kJ/mol
# Density = 1.908607 g / cm^3
# Si number density = 19.129609 Si / 1000 Ang^3
#
#
#
# Elastic Constant Matrix: (Units=GPa)
#
#
# Indices 1 2 3 4 5 6 
#
# 1 157.8618 71.0582 48.7356 0.0020 -8.0625 0.0000
# 2 71.0582 122.4517 41.8182 0.0005 -4.1700 0.0000
# 3 48.7356 41.8182 63.0378 0.0010 -2.9126 0.0001
# 4 0.0020 0.0005 0.0010 62.5890 -0.0010 5.7407
# 5 -8.0625 -4.1700 -2.9126 -0.0010 32.1789 -0.0002
# 6 0.0000 0.0000 0.0001 5.7407 -0.0002 35.7372
#
#
#
# Elastic Compliance Matrix: (Units=1/GPa)
#
#
# Indices 1 2 3 4 5 6 
#
# 1 0.009653 -0.003912 -0.004799 0.000000 0.001477 0.000000
# 2 -0.003912 0.012162 -0.005037 0.000000 0.000140 0.000000
# 3 -0.004799 -0.005037 0.022925 0.000000 0.000220 0.000000
# 4 0.000000 0.000000 0.000000 0.016216 0.000000 -0.002605
# 5 0.001477 0.000140 0.000220 0.000000 0.031484 0.000000
# 6 0.000000 0.000000 0.000000 -0.002605 0.000000 0.028400
#
#
# Mechanical properties :
#
#
# Convention : Reuss Voigt Hill
#
# Bulk Modulus (GPa) = 57.99326 74.06394 66.02860
# Shear Modulus (GPa) = 32.44976 38.21698 35.33337
#
# Velocity S-wave (km/s) = 4.12310 4.47452 4.30240
# Velocity P-wave (km/s) = 7.28343 8.09296 7.69884
#
# Compressibility (1/GPa) = 0.01724338
#
# Stress axis : x y z
#
# Youngs Moduli (GPa) = 103.59818 82.22634 43.62006
#
# Poissons Ratio (x) = 0.32168 0.20934
# Poissons Ratio (y) = 0.40529 0.21970
# Poissons Ratio (z) = 0.49718 0.41415
#
# Static dielectric constant tensor:
#      x y z
#    x 3.656020 0.000000 0.231700 
#    y 0.000000 3.699030 0.000000 
#    z 0.231700 0.000000 1.552460 
# 
# 
# High freq. dielectric constant tensor:
#      x y z
#    x 1.761200 0.000000 -0.001390 
#    y 0.000000 1.753590 0.000000 
#    z -0.001390 0.000000 1.717780 
# 
# From -- ./inp_files/233828.got.cif
#   From: 2010.06.25/outbox.cif.g09.slc.cpg/sg15_117_cif.got.tgz:233828.got - 2010.06.28 07:06:18.
