data_PCOD8139264
_publ_section_title
;
Structure prediction by ZEFSAII (Michael W. Deem and Ramdas Pophale) SiO2 
 PCOD8139264
Probable space group: C 2/C
;
_chemical_formula_sum "Si O2"
_cell_formula_units_Z 44
_cell_length_a 27.068577
_cell_length_b 9.154160
_cell_length_c 8.627500
_cell_angle_alpha 90.000000
_cell_angle_beta 73.926369
_cell_angle_gamma 90.000000
_cell_volume 2054.234907
_symmetry_space_group_name_H-M "C 2/C"
_symmetry_group_IT_number 15
_symmetry_cell_setting 'monoclinic'
loop_
_space_group_symop_operation_xyz
x,y,z
-x,y,1/2-z
-x,-y,-z
x,-y,1/2+z
1/2+x,1/2+y,z
1/2-x,1/2+y,1/2-z
1/2-x,1/2-y,-z
1/2+x,1/2-y,1/2+z
loop_
_atom_site_type_symbol
_atom_site_label
_atom_site_fract_x
_atom_site_fract_y
_atom_site_fract_z
Si Si1 0.000000 0.995432 0.750000
Si Si2 0.844708 0.141902 0.575139
Si Si3 0.177482 0.566539 0.572747
Si Si4 0.338816 0.195651 0.581735
Si Si5 0.072762 0.079090 0.433744
Si Si6 0.787163 0.925582 0.429580
O O1 0.956073 0.898008 0.705008
O O2 0.028865 0.097206 0.601272
O O3 0.845278 0.307912 0.517672
O O4 0.801715 0.128568 0.745857
O O5 0.900138 0.081991 0.585487
O O6 0.830014 0.044146 0.439410
O O7 0.180133 0.611121 0.748836
O O8 0.142957 0.422962 0.563974
O O9 0.233656 0.510858 0.470327
O O10 0.386544 0.293870 0.583089
O O11 0.291104 0.290778 0.551187
#
# Coordination Sequence:
#
# PCOD8139264 Si02
#       6
#     4   8   8   8   8   8
#     4  10  20  38  70  90 110 142 198 244 304 372
#     4  11  22  39  62  88 125 157 202 247 291 344
#     4  12  24  39  61  88 124 169 201 241 290 344
#     4  11  24  41  60  87 126 158 204 248 294 347
#     4  10  21  40  64  92 113 148 191 250 302 358
#     4  11  23  39  57  87 124 168 208 239 276 340
#
# _framework density 21.419167999999999
#
# number of rings (size 3 to 8) (size 9 to 14) (size 15 to 20)
#    0.000    1.091    0.000    8.727    0.000    4.364 
#    0.000    0.000    0.000   18.545    0.000    0.000 
#    0.000    0.000    0.000    0.000    0.000    0.000 
#
# Total GULP energy -272704.989817 kJ/mol
# GULP energy per Si atom -12395.681355 kJ/mol
# Density = 2.137042 g / cm^3
# Si number density = 21.419168 Si / 1000 Ang^3
#
#
#
# Elastic Constant Matrix: (Units=GPa)
#
#
# Indices 1 2 3 4 5 6 
#
# 1 108.5414 53.5358 42.7804 0.0000 25.3153 0.0000
# 2 53.5358 136.9841 28.7422 0.0000 18.2014 0.0000
# 3 42.7804 28.7422 78.7705 0.0000 13.3684 0.0000
# 4 0.0000 0.0000 0.0000 33.8640 0.0000 2.9202
# 5 25.3153 18.2014 13.3684 0.0000 37.5638 0.0000
# 6 0.0000 0.0000 0.0000 2.9202 0.0000 19.2207
#
#
#
# Elastic Compliance Matrix: (Units=1/GPa)
#
#
# Indices 1 2 3 4 5 6 
#
# 1 0.014684 -0.003761 -0.005569 0.000000 -0.006092 0.000000
# 2 -0.003761 0.009196 -0.001050 0.000000 -0.001548 0.000000
# 3 -0.005569 -0.001050 0.016368 0.000000 -0.001563 0.000000
# 4 0.000000 0.000000 0.000000 0.029922 0.000000 -0.004546
# 5 -0.006092 -0.001548 -0.001563 0.000000 0.032033 0.000000
# 6 0.000000 0.000000 0.000000 -0.004546 0.000000 0.052718
#
#
# Mechanical properties :
#
#
# Convention : Reuss Voigt Hill
#
# Bulk Modulus (GPa) = 51.31341 63.82365 57.56853
# Shear Modulus (GPa) = 27.44603 31.41218 29.42911
#
# Velocity S-wave (km/s) = 3.58352 3.83370 3.71072
# Velocity P-wave (km/s) = 6.41334 7.03268 6.73013
#
# Compressibility (1/GPa) = 0.01948808
#
# Stress axis : x y z
#
# Youngs Moduli (GPa) = 68.10338 108.74407 61.09481
#
# Poissons Ratio (x) = 0.40896 0.34021
# Poissons Ratio (y) = 0.25612 0.06417
# Poissons Ratio (z) = 0.37924 0.11422
#
# Static dielectric constant tensor:
#      x y z
#    x 3.975990 0.000000 0.406650 
#    y 0.000000 4.151200 0.000000 
#    z 0.406650 0.000000 4.195890 
# 
# 
# High freq. dielectric constant tensor:
#      x y z
#    x 1.830110 0.000000 0.023400 
#    y 0.000000 1.832560 0.000000 
#    z 0.023400 0.000000 1.858420 
# 
# From -- ./inp_files/68291.got.cif
#   From: 2010.06.25/outbox.cif.g09.slc.cpg/sg15_35_cif.got.tgz:68291.got - 2010.06.28 07:06:18.
