data_PCOD8139390
_publ_section_title
;
Structure prediction by ZEFSAII (Michael W. Deem and Ramdas Pophale) SiO2 
 PCOD8139390
Probable space group: C 2/C
;
_chemical_formula_sum "Si O2"
_cell_formula_units_Z 56
_cell_length_a 29.018031
_cell_length_b 9.280840
_cell_length_c 13.467116
_cell_angle_alpha 90.000000
_cell_angle_beta 127.941611
_cell_angle_gamma 90.000000
_cell_volume 2860.272365
_symmetry_space_group_name_H-M "C 2/C"
_symmetry_group_IT_number 15
_symmetry_cell_setting 'monoclinic'
loop_
_space_group_symop_operation_xyz
x,y,z
-x,y,1/2-z
-x,-y,-z
x,-y,1/2+z
1/2+x,1/2+y,z
1/2-x,1/2+y,1/2-z
1/2-x,1/2-y,-z
1/2+x,1/2-y,1/2+z
loop_
_atom_site_type_symbol
_atom_site_label
_atom_site_fract_x
_atom_site_fract_y
_atom_site_fract_z
Si Si1 0.473724 0.148379 0.502057
Si Si2 0.309226 0.374214 0.017369
Si Si3 0.630985 0.165167 0.986696
Si Si4 0.175770 0.929021 0.143864
Si Si5 0.726243 0.063593 0.573335
Si Si6 0.550301 0.670752 0.237677
Si Si7 0.091678 0.119551 0.701828
O O1 0.423235 0.116446 0.516319
O O2 0.529242 0.230919 0.619694
O O3 0.449592 0.245053 0.378937
O O4 0.500000 0.000000 0.500000
O O5 0.260172 0.464357 0.014190
O O6 0.358382 0.320725 0.159283
O O7 0.335384 0.473055 0.966455
O O8 0.283946 0.233587 0.931558
O O9 0.608147 0.257262 0.861891
O O10 0.676647 0.262598 0.109316
O O11 0.666196 0.025774 0.995235
O O12 0.234548 0.975212 0.278707
O O13 0.119259 0.948074 0.138578
O O14 0.500000 0.660763 0.250000
O O15 0.558334 0.508720 0.211332
#
# Coordination Sequence:
#
# PCOD8139390 Si02
#       7
#     8   8   8   8   8   8   8
#     4  10  23  40  61  89 119 154 204 252 300 353
#     4  10  21  39  59  88 122 155 201 242 296 368
#     4  10  21  40  61  85 124 158 193 250 301 351
#     4  10  20  39  61  88 119 157 199 239 299 365
#     4  10  22  37  59  89 123 158 194 246 300 351
#     4  10  21  41  61  85 120 161 201 246 296 354
#     4  10  21  40  64  85 120 158 195 250 302 353
#
# _framework density 19.578557
#
# number of rings (size 3 to 8) (size 9 to 14) (size 15 to 20)
#    0.000    2.000    1.429    1.286    2.000    2.857 
#    5.143    0.000    0.000    0.000    0.000    0.000 
#    0.000    0.000    0.000    0.000    0.000    0.000 
#
# Total GULP energy -347179.530979 kJ/mol
# GULP energy per Si atom -12399.268964 kJ/mol
# Density = 1.953399 g / cm^3
# Si number density = 19.578557 Si / 1000 Ang^3
#
#
#
# Elastic Constant Matrix: (Units=GPa)
#
#
# Indices 1 2 3 4 5 6 
#
# 1 38.3541 36.2147 37.3807 0.0000 11.8733 0.0000
# 2 36.2147 92.9934 48.3472 0.0000 5.4031 0.0000
# 3 37.3807 48.3472 91.1321 0.0000 2.6392 0.0000
# 4 0.0000 0.0000 0.0000 30.7483 0.0000 1.9789
# 5 11.8733 5.4031 2.6392 0.0000 25.1953 0.0000
# 6 0.0000 0.0000 0.0000 1.9789 0.0000 40.1229
#
#
#
# Elastic Compliance Matrix: (Units=1/GPa)
#
#
# Indices 1 2 3 4 5 6 
#
# 1 0.065954 -0.014499 -0.018608 0.000000 -0.026022 0.000000
# 2 -0.014499 0.018178 -0.003793 0.000000 0.003332 0.000000
# 3 -0.018608 -0.003793 0.020402 0.000000 0.007445 0.000000
# 4 0.000000 0.000000 0.000000 0.032626 0.000000 -0.001609
# 5 -0.026022 0.003332 0.007445 0.000000 0.050459 0.000000
# 6 0.000000 0.000000 0.000000 -0.001609 0.000000 0.025003
#
#
# Mechanical properties :
#
#
# Convention : Reuss Voigt Hill
#
# Bulk Modulus (GPa) = 32.53579 51.81832 42.17706
# Shear Modulus (GPa) = 16.85397 25.91576 21.38486
#
# Velocity S-wave (km/s) = 2.93719 3.64219 3.30852
# Velocity P-wave (km/s) = 5.30631 6.64919 6.01534
#
# Compressibility (1/GPa) = 0.03073538
#
# Stress axis : x y z
#
# Youngs Moduli (GPa) = 15.16212 55.01074 49.01378
#
# Poissons Ratio (x) = 0.79758 0.91203
# Poissons Ratio (y) = 0.21983 0.18593
# Poissons Ratio (z) = 0.28213 0.20867
#
# Static dielectric constant tensor:
#      x y z
#    x 3.509380 0.000000 0.059660 
#    y 0.000000 3.354780 0.000000 
#    z 0.059660 0.000000 4.019430 
# 
# 
# High freq. dielectric constant tensor:
#      x y z
#    x 1.754430 0.000000 0.001210 
#    y 0.000000 1.755100 0.000000 
#    z 0.001210 0.000000 1.778110 
# 
# From -- ./inp_files/125964.got.cif
#   From: 2010.06.25/outbox.cif.g09.slc.cpg/sg15_63_cif.got.tgz:125964.got - 2010.06.28 07:06:18.
