data_PCOD8139142
_publ_section_title
;
Structure prediction by ZEFSAII (Michael W. Deem and Ramdas Pophale) SiO2 
 PCOD8139142
Probable space group: C 2/C
;
_chemical_formula_sum "Si O2"
_cell_formula_units_Z 44
_cell_length_a 7.915102
_cell_length_b 19.688531
_cell_length_c 16.958564
_cell_angle_alpha 90.000000
_cell_angle_beta 54.507937
_cell_angle_gamma 90.000000
_cell_volume 2151.730342
_symmetry_space_group_name_H-M "C 2/C"
_symmetry_group_IT_number 15
_symmetry_cell_setting 'monoclinic'
loop_
_space_group_symop_operation_xyz
x,y,z
-x,y,1/2-z
-x,-y,-z
x,-y,1/2+z
1/2+x,1/2+y,z
1/2-x,1/2+y,1/2-z
1/2-x,1/2-y,-z
1/2+x,1/2-y,1/2+z
loop_
_atom_site_type_symbol
_atom_site_label
_atom_site_fract_x
_atom_site_fract_y
_atom_site_fract_z
Si Si1 0.651164 0.562624 0.474637
Si Si2 0.898892 0.565826 0.113839
Si Si3 0.030905 0.182262 0.067745
Si Si4 0.488611 0.831782 0.453006
Si Si5 0.315165 0.431519 0.358827
Si Si6 0.500000 0.639740 0.250000
O O1 0.500000 0.500000 0.500000
O O2 0.611436 0.622000 0.423305
O O3 0.604618 0.589316 0.576088
O O4 0.895081 0.544194 0.393150
O O5 0.819922 0.499387 0.088427
O O6 0.701197 0.593158 0.216690
O O7 0.971703 0.628017 0.039556
O O8 0.943200 0.253075 0.056864
O O9 0.037456 0.185237 0.161866
O O10 0.264168 0.168506 0.971287
O O11 0.671181 0.872600 0.357779
O O12 0.500000 0.447057 0.250000
#
# Coordination Sequence:
#
# PCOD8139142 Si02
#       6
#     8   8   8   8   8   4
#     4  11  22  38  63  93 118 161 208 246 298 370
#     4  10  20  38  66  83 125 163 203 247 309 364
#     4  10  21  40  63  89 125 159 211 243 305 366
#     4   9  20  41  61  86 120 171 192 245 317 356
#     4  11  22  40  60  91 126 161 201 257 304 354
#     4  10  20  40  60  88 122 164 204 254 300 354
#
# _framework density 20.44866
#
# number of rings (size 3 to 8) (size 9 to 14) (size 15 to 20)
#    0.000    1.818    0.909    5.455    0.000    3.636 
#   13.091    1.818    0.000    0.000    0.000    0.000 
#    0.000    0.000    0.000    0.000    0.000    0.000 
#
# Total GULP energy -272570.148315 kJ/mol
# GULP energy per Si atom -12389.552196 kJ/mol
# Density = 2.040212 g / cm^3
# Si number density = 20.448660 Si / 1000 Ang^3
#
#
#
# Elastic Constant Matrix: (Units=GPa)
#
#
# Indices 1 2 3 4 5 6 
#
# 1 101.1673 59.4064 48.6338 0.0000 -20.7549 0.0000
# 2 59.4064 150.9365 38.2729 0.0000 -6.1848 0.0000
# 3 48.6338 38.2729 87.2332 0.0000 -13.6063 0.0000
# 4 0.0000 0.0000 0.0000 24.3396 0.0000 -3.7280
# 5 -20.7549 -6.1848 -13.6063 0.0000 38.9350 0.0000
# 6 0.0000 0.0000 0.0000 -3.7280 0.0000 35.8561
#
#
#
# Elastic Compliance Matrix: (Units=1/GPa)
#
#
# Indices 1 2 3 4 5 6 
#
# 1 0.017070 -0.004835 -0.006448 0.000000 0.006078 0.000000
# 2 -0.004835 0.008824 -0.001438 0.000000 -0.001678 0.000000
# 3 -0.006448 -0.001438 0.015989 0.000000 0.001922 0.000000
# 4 0.000000 0.000000 0.000000 0.041750 0.000000 0.004341
# 5 0.006078 -0.001678 0.001922 0.000000 0.029329 0.000000
# 6 0.000000 0.000000 0.000000 0.004341 0.000000 0.028341
#
#
# Mechanical properties :
#
#
# Convention : Reuss Voigt Hill
#
# Bulk Modulus (GPa) = 60.81681 70.21815 65.51748
# Shear Modulus (GPa) = 29.03203 32.69439 30.86321
#
# Velocity S-wave (km/s) = 3.77205 4.00290 3.88919
# Velocity P-wave (km/s) = 6.98405 7.46844 7.23030
#
# Compressibility (1/GPa) = 0.01644282
#
# Stress axis : x y z
#
# Youngs Moduli (GPa) = 58.58215 113.32804 62.54371
#
# Poissons Ratio (x) = 0.54789 0.40326
# Poissons Ratio (y) = 0.28322 0.08993
# Poissons Ratio (z) = 0.37772 0.16295
#
# Static dielectric constant tensor:
#      x y z
#    x 3.915110 0.000000 -0.504380 
#    y 0.000000 3.814180 0.000000 
#    z -0.504380 0.000000 3.648750 
# 
# 
# High freq. dielectric constant tensor:
#      x y z
#    x 1.794920 0.000000 -0.031480 
#    y 0.000000 1.801360 0.000000 
#    z -0.031480 0.000000 1.782610 
# 
# From -- ./inp_files/190801.got.cif
#   From: 2010.06.25/outbox.cif.g09.slc.cpg/sg15_96_cif.got.tgz:190801.got - 2010.06.28 07:06:18.
