data_PCOD8139019
_publ_section_title
;
Structure prediction by ZEFSAII (Michael W. Deem and Ramdas Pophale) SiO2 
 PCOD8139019
Probable space group: C 2/C
;
_chemical_formula_sum "Si O2"
_cell_formula_units_Z 64
_cell_length_a 36.134556
_cell_length_b 19.542228
_cell_length_c 17.321624
_cell_angle_alpha 90.000000
_cell_angle_beta 16.263057
_cell_angle_gamma 90.000000
_cell_volume 3425.449395
_symmetry_space_group_name_H-M "C 2/C"
_symmetry_group_IT_number 15
_symmetry_cell_setting 'monoclinic'
loop_
_space_group_symop_operation_xyz
x,y,z
-x,y,1/2-z
-x,-y,-z
x,-y,1/2+z
1/2+x,1/2+y,z
1/2-x,1/2+y,1/2-z
1/2-x,1/2-y,-z
1/2+x,1/2-y,1/2+z
loop_
_atom_site_type_symbol
_atom_site_label
_atom_site_fract_x
_atom_site_fract_y
_atom_site_fract_z
Si Si1 0.625780 0.159034 0.947820
Si Si2 0.885265 0.068451 0.654267
Si Si3 0.867195 0.583519 0.246482
Si Si4 0.379283 0.677358 0.544629
Si Si5 0.856091 0.570618 0.735101
Si Si6 0.100350 0.086094 0.347583
Si Si7 0.017241 0.198976 0.627108
Si Si8 0.763693 0.282991 0.888876
O O1 0.748464 0.167060 0.757932
O O2 0.659924 0.101130 0.817640
O O3 0.500000 0.135994 0.250000
O O4 0.599073 0.230723 0.958413
O O5 0.917476 0.106263 0.510067
O O6 0.975656 0.098498 0.541761
O O7 0.911884 0.988272 0.588660
O O8 0.733156 0.083181 0.980372
O O9 0.860572 0.511192 0.215665
O O10 0.829458 0.642167 0.261418
O O11 0.011826 0.598798 0.989728
O O12 0.361119 0.736169 0.644249
O O13 0.500000 0.700571 0.250000
O O14 0.734312 0.594081 0.031382
O O15 0.099607 0.141622 0.416892
O O16 0.000000 0.175126 0.750000
O O17 0.876298 0.211668 0.871627
O O18 0.750000 0.250000 0.000000
#
# Coordination Sequence:
#
# PCOD8139019 Si02
#       8
#     8   8   8   8   8   8   8   8
#     4  11  22  40  60  82 127 165 197 243 309 368
#     4  10  20  39  61  88 118 160 205 242 298 368
#     4  10  20  38  64  87 119 154 212 242 292 363
#     4  12  24  38  58  94 125 152 203 258 302 359
#     4  10  22  38  60  93 120 156 203 256 296 356
#     4  10  21  38  63  89 120 153 205 258 292 357
#     4  11  22  40  62  88 121 162 202 248 307 367
#     4  12  21  40  68  88 115 170 207 241 300 372
#
# _framework density 18.683681
#
# number of rings (size 3 to 8) (size 9 to 14) (size 15 to 20)
#    0.000    1.250    5.000    2.250    0.000    2.000 
#    2.250    0.625    0.000    0.000    0.000    0.000 
#    0.000    0.000    0.000    0.000    0.000    0.000 
#
# Total GULP energy -396966.988160 kJ/mol
# GULP energy per Si atom -12405.218380 kJ/mol
# Density = 1.864116 g / cm^3
# Si number density = 18.683681 Si / 1000 Ang^3
#
#
#
# Elastic Constant Matrix: (Units=GPa)
#
#
# Indices 1 2 3 4 5 6 
#
# 1 121.5354 70.8776 54.5919 0.0006 5.7246 -0.0008
# 2 70.8776 107.7418 38.3402 0.0005 5.6506 -0.0004
# 3 54.5919 38.3402 110.0988 0.0011 3.8449 -0.0004
# 4 0.0006 0.0005 0.0011 25.1760 0.0002 1.5281
# 5 5.7246 5.6506 3.8449 0.0002 31.8303 0.0011
# 6 -0.0008 -0.0004 -0.0004 1.5281 0.0011 37.7328
#
#
#
# Elastic Compliance Matrix: (Units=1/GPa)
#
#
# Indices 1 2 3 4 5 6 
#
# 1 0.015175 -0.008306 -0.004607 0.000000 -0.000698 0.000000
# 2 -0.008306 0.015207 -0.001140 0.000000 -0.001068 0.000000
# 3 -0.004607 -0.001140 0.011778 0.000000 -0.000392 0.000000
# 4 0.000000 0.000000 0.000000 0.039818 0.000000 -0.001613
# 5 -0.000698 -0.001068 -0.000392 0.000000 0.031779 -0.000001
# 6 0.000000 0.000000 0.000000 -0.001613 -0.000001 0.026567
#
#
# Mechanical properties :
#
#
# Convention : Reuss Voigt Hill
#
# Bulk Modulus (GPa) = 71.15962 74.11061 72.63511
# Shear Modulus (GPa) = 28.88238 30.65226 29.76732
#
# Velocity S-wave (km/s) = 3.93601 4.05481 3.99585
# Velocity P-wave (km/s) = 7.66977 7.85329 7.76207
#
# Compressibility (1/GPa) = 0.01405291
#
# Stress axis : x y z
#
# Youngs Moduli (GPa) = 65.89924 65.75737 84.90528
#
# Poissons Ratio (x) = 0.54621 0.39119
# Poissons Ratio (y) = 0.54739 0.09677
# Poissons Ratio (z) = 0.30362 0.07494
#
# Static dielectric constant tensor:
#      x y z
#    x 3.371900 0.000000 -0.113400 
#    y 0.000000 3.630510 0.000000 
#    z -0.113400 0.000000 3.454460 
# 
# 
# High freq. dielectric constant tensor:
#      x y z
#    x 1.723300 0.000000 -0.009780 
#    y 0.000000 1.732810 0.000000 
#    z -0.009780 0.000000 1.733110 
# 
# From -- ./inp_files/183130.got.cif
#   From: 2010.06.25/outbox.cif.g09.slc.cpg/sg15_92_cif.got.tgz:183130.got - 2010.06.28 07:06:18.
