data_PCOD8139660
_publ_section_title
;
Structure prediction by ZEFSAII (Michael W. Deem and Ramdas Pophale) SiO2 
 PCOD8139660
Probable space group: C 2/C
;
_chemical_formula_sum "Si O2"
_cell_formula_units_Z 60
_cell_length_a 18.861368
_cell_length_b 17.308729
_cell_length_c 18.129890
_cell_angle_alpha 90.000000
_cell_angle_beta 28.483867
_cell_angle_gamma 90.000000
_cell_volume 2822.741700
_symmetry_space_group_name_H-M "C 2/C"
_symmetry_group_IT_number 15
_symmetry_cell_setting 'monoclinic'
loop_
_space_group_symop_operation_xyz
x,y,z
-x,y,1/2-z
-x,-y,-z
x,-y,1/2+z
1/2+x,1/2+y,z
1/2-x,1/2+y,1/2-z
1/2-x,1/2-y,-z
1/2+x,1/2-y,1/2+z
loop_
_atom_site_type_symbol
_atom_site_label
_atom_site_fract_x
_atom_site_fract_y
_atom_site_fract_z
Si Si1 0.856498 0.050765 0.633436
Si Si2 0.732087 0.524736 0.940426
Si Si3 0.445123 0.894028 0.727668
Si Si4 0.500000 0.559194 0.750000
Si Si5 0.634935 0.310318 0.572164
Si Si6 0.750963 0.115203 0.872694
Si Si7 0.790973 0.719224 0.263868
Si Si8 0.515538 0.711302 0.024641
O O1 0.755206 0.019265 0.660166
O O2 0.780546 0.050229 0.782874
O O3 0.890659 0.138552 0.585023
O O4 0.000000 0.000000 0.500000
O O5 0.874481 0.472139 0.829604
O O6 0.579199 0.491351 0.114195
O O7 0.735260 0.613755 0.963866
O O8 0.500000 0.846068 0.750000
O O9 0.587818 0.909732 0.547174
O O10 0.318541 0.846988 0.799370
O O11 0.374276 0.610447 0.824660
O O12 0.500000 0.331197 0.750000
O O13 0.750000 0.250000 0.500000
O O14 0.555313 0.272159 0.573278
O O15 0.755295 0.202363 0.839747
O O16 0.657863 0.696540 0.330267
O O17 0.932724 0.721876 0.079506
#
# Coordination Sequence:
#
# PCOD8139660 Si02
#       8
#     8   8   8   4   8   8   8   8
#     4  10  20  39  66  92 126 177 231 270 337 411
#     4  11  24  43  67  97 138 180 225 283 344 418
#     4  12  26  42  65 102 145 176 229 288 348 401
#     4  12  22  42  70  94 136 180 232 276 348 414
#     4  11  24  45  74 107 133 178 231 286 359 407
#     4  11  25  41  67 100 132 185 230 282 344 410
#     4  11  23  43  64  98 138 183 231 279 335 414
#     4  10  22  40  67  94 136 175 226 286 332 410
#
# _framework density 21.255931
#
# number of rings (size 3 to 8) (size 9 to 14) (size 15 to 20)
#    0.000    1.067    4.667    1.600    2.800    1.600 
#    0.000    0.000    0.000    0.000    0.000    0.000 
#    0.000    0.000    0.000    0.000    0.000    0.000 
#
# Total GULP energy -371772.150623 kJ/mol
# GULP energy per Si atom -12392.405021 kJ/mol
# Density = 2.120755 g / cm^3
# Si number density = 21.255931 Si / 1000 Ang^3
#
#
#
# Elastic Constant Matrix: (Units=GPa)
#
#
# Indices 1 2 3 4 5 6 
#
# 1 158.9066 45.5320 47.6442 -0.0004 -4.2833 0.0024
# 2 45.5320 79.5235 36.9834 0.0098 -0.7821 -0.0042
# 3 47.6442 36.9834 129.9141 0.0083 3.7870 -0.0068
# 4 -0.0004 0.0098 0.0083 25.9351 -0.0061 1.2223
# 5 -4.2833 -0.7821 3.7870 -0.0061 40.4624 0.0026
# 6 0.0024 -0.0042 -0.0068 1.2223 0.0026 29.0962
#
#
#
# Elastic Compliance Matrix: (Units=1/GPa)
#
#
# Indices 1 2 3 4 5 6 
#
# 1 0.007934 -0.003650 -0.001898 0.000002 0.000947 -0.000002
# 2 -0.003650 0.016191 -0.003277 -0.000005 0.000233 0.000002
# 3 -0.001898 -0.003277 0.009360 -0.000002 -0.001140 0.000002
# 4 0.000002 -0.000005 -0.000002 0.038634 0.000006 -0.001623
# 5 0.000947 0.000233 -0.001140 0.000006 0.024926 -0.000003
# 6 -0.000002 0.000002 0.000002 -0.001623 -0.000003 0.034437
#
#
# Mechanical properties :
#
#
# Convention : Reuss Voigt Hill
#
# Bulk Modulus (GPa) = 63.15848 69.85148 66.50498
# Shear Modulus (GPa) = 32.38114 34.97773 33.67943
#
# Velocity S-wave (km/s) = 3.90730 4.06094 3.98486
# Velocity P-wave (km/s) = 7.08053 7.41092 7.24761
#
# Compressibility (1/GPa) = 0.01583319
#
# Stress axis : x y z
#
# Youngs Moduli (GPa) = 126.04690 61.76082 106.84150
#
# Poissons Ratio (x) = 0.22546 0.20278
# Poissons Ratio (y) = 0.46013 0.35016
# Poissons Ratio (z) = 0.23923 0.20241
#
# Static dielectric constant tensor:
#      x y z
#    x 5.970020 -0.001050 0.783530 
#    y -0.001050 3.775650 -0.000250 
#    z 0.783530 -0.000250 4.043530 
# 
# 
# High freq. dielectric constant tensor:
#      x y z
#    x 1.852690 0.000000 0.008010 
#    y 0.000000 1.816810 0.000000 
#    z 0.008010 0.000000 1.838050 
# 
# From -- ./inp_files/211739.got.cif
#   From: 2010.06.25/outbox.cif.g09.slc.cpg/sg15_106_cif.got.tgz:211739.got - 2010.06.28 07:06:18.
