data_PCOD8139402
_publ_section_title
;
Structure prediction by ZEFSAII (Michael W. Deem and Ramdas Pophale) SiO2 
 PCOD8139402
Probable space group: C 2/C
;
_chemical_formula_sum "Si O2"
_cell_formula_units_Z 48
_cell_length_a 10.915183
_cell_length_b 21.083676
_cell_length_c 9.376789
_cell_angle_alpha 90.000000
_cell_angle_beta 84.717283
_cell_angle_gamma 90.000000
_cell_volume 2148.735262
_symmetry_space_group_name_H-M "C 2/C"
_symmetry_group_IT_number 15
_symmetry_cell_setting 'monoclinic'
loop_
_space_group_symop_operation_xyz
x,y,z
-x,y,1/2-z
-x,-y,-z
x,-y,1/2+z
1/2+x,1/2+y,z
1/2-x,1/2+y,1/2-z
1/2-x,1/2-y,-z
1/2+x,1/2-y,1/2+z
loop_
_atom_site_type_symbol
_atom_site_label
_atom_site_fract_x
_atom_site_fract_y
_atom_site_fract_z
Si Si1 0.840297 0.988225 0.160499
Si Si2 0.174616 0.473134 0.422898
Si Si3 0.519658 0.627498 0.903382
Si Si4 0.528002 0.902908 0.903816
Si Si5 0.747767 0.821869 0.951843
Si Si6 0.380508 0.631300 0.186864
O O1 0.761831 0.948191 0.286280
O O2 0.966446 0.949146 0.115706
O O3 0.868647 0.057020 0.222220
O O4 0.757837 0.993686 0.031020
O O5 0.086420 0.527886 0.370661
O O6 0.098409 0.413184 0.493495
O O7 0.500000 0.659992 0.750000
O O8 0.647801 0.645728 0.963625
O O9 0.399231 0.642558 0.014248
O O10 0.500000 0.874081 0.750000
O O11 0.614417 0.854987 0.986720
O O12 0.770948 0.830641 0.777213
O O13 0.750000 0.750000 0.000000
O O14 0.500000 0.658961 0.250000
#
# Coordination Sequence:
#
# PCOD8139402 Si02
#       6
#     8   8   8   8   8   8
#     4  12  19  37  61  96 134 169 206 265 338 404
#     4  11  21  33  59  94 132 167 207 263 336 407
#     4  11  23  39  63  97 128 166 217 273 325 399
#     4  11  21  39  60  91 130 171 215 270 337 387
#     4  11  24  45  66  88 126 180 232 271 324 397
#     4  10  20  39  61  90 127 173 214 267 328 389
#
# _framework density 22.338721
#
# number of rings (size 3 to 8) (size 9 to 14) (size 15 to 20)
#    0.000    1.000    5.000    3.000    0.000    0.667 
#    0.000    5.833    0.000    0.000    0.000    0.000 
#    0.000    0.000    0.000    0.000    0.000    0.000 
#
# Total GULP energy -297438.983336 kJ/mol
# GULP energy per Si atom -12393.290972 kJ/mol
# Density = 2.228788 g / cm^3
# Si number density = 22.338721 Si / 1000 Ang^3
#
#
#
# Elastic Constant Matrix: (Units=GPa)
#
#
# Indices 1 2 3 4 5 6 
#
# 1 63.8691 4.3660 37.8271 0.0000 3.5528 0.0000
# 2 4.3660 84.2288 21.3759 0.0000 -2.9397 0.0000
# 3 37.8271 21.3759 158.6332 0.0000 -4.1003 0.0000
# 4 0.0000 0.0000 0.0000 25.2803 0.0000 2.5434
# 5 3.5528 -2.9397 -4.1003 0.0000 32.8218 0.0000
# 6 0.0000 0.0000 0.0000 2.5434 0.0000 16.9834
#
#
#
# Elastic Compliance Matrix: (Units=1/GPa)
#
#
# Indices 1 2 3 4 5 6 
#
# 1 0.018443 0.000091 -0.004476 0.000000 -0.002547 0.000000
# 2 0.000091 0.012320 -0.001659 0.000000 0.000886 0.000000
# 3 -0.004476 -0.001659 0.007628 0.000000 0.001289 0.000000
# 4 0.000000 0.000000 0.000000 0.040162 0.000000 -0.006015
# 5 -0.002547 0.000886 0.001289 0.000000 0.030984 0.000000
# 6 0.000000 0.000000 0.000000 -0.006015 0.000000 0.059782
#
#
# Mechanical properties :
#
#
# Convention : Reuss Voigt Hill
#
# Bulk Modulus (GPa) = 38.01802 48.20769 43.11286
# Shear Modulus (GPa) = 26.29172 31.22790 28.75981
#
# Velocity S-wave (km/s) = 3.43440 3.74294 3.59199
# Velocity P-wave (km/s) = 5.72562 6.34875 6.04522
#
# Compressibility (1/GPa) = 0.02630331
#
# Stress axis : x y z
#
# Youngs Moduli (GPa) = 54.21965 81.17128 131.09517
#
# Poissons Ratio (x) = -0.00739 0.58679
# Poissons Ratio (y) = -0.00493 0.21747
# Poissons Ratio (z) = 0.24269 0.13465
#
# Static dielectric constant tensor:
#      x y z
#    x 4.413420 0.000000 -0.276460 
#    y 0.000000 3.585090 0.000000 
#    z -0.276460 0.000000 4.495100 
# 
# 
# High freq. dielectric constant tensor:
#      x y z
#    x 1.889250 0.000000 -0.000580 
#    y 0.000000 1.814080 0.000000 
#    z -0.000580 0.000000 1.895730 
# 
# From -- ./inp_files/31925.got.cif
#   From: 2010.06.25/outbox.cif.g09.slc.cpg/sg15_16_cif.got.tgz:31925.got - 2010.06.28 07:06:18.
