data_PCOD8139051
_publ_section_title
;
Structure prediction by ZEFSAII (Michael W. Deem and Ramdas Pophale) SiO2 
 PCOD8139051
Probable space group: C 2/C
;
_chemical_formula_sum "Si O2"
_cell_formula_units_Z 56
_cell_length_a 23.634457
_cell_length_b 9.589453
_cell_length_c 14.756727
_cell_angle_alpha 90.000000
_cell_angle_beta 57.090369
_cell_angle_gamma 90.000000
_cell_volume 2807.792283
_symmetry_space_group_name_H-M "C 2/C"
_symmetry_group_IT_number 15
_symmetry_cell_setting 'monoclinic'
loop_
_space_group_symop_operation_xyz
x,y,z
-x,y,1/2-z
-x,-y,-z
x,-y,1/2+z
1/2+x,1/2+y,z
1/2-x,1/2+y,1/2-z
1/2-x,1/2-y,-z
1/2+x,1/2-y,1/2+z
loop_
_atom_site_type_symbol
_atom_site_label
_atom_site_fract_x
_atom_site_fract_y
_atom_site_fract_z
Si Si1 0.083666 0.867455 0.903692
Si Si2 0.508709 0.414594 0.350504
Si Si3 0.242652 0.397339 0.586308
Si Si4 0.205564 0.944603 0.302962
Si Si5 0.424389 0.055444 0.568626
Si Si6 0.124598 0.288919 0.795953
Si Si7 0.806438 0.382280 0.056479
O O1 0.078115 0.705535 0.880637
O O2 0.040656 0.947028 0.865293
O O3 0.160735 0.916795 0.825388
O O4 0.058264 0.888882 0.030441
O O5 0.500000 0.437976 0.250000
O O6 0.555575 0.278478 0.321190
O O7 0.258020 0.533803 0.632390
O O8 0.177649 0.303279 0.669012
O O9 0.226766 0.458645 0.500974
O O10 0.303943 0.285200 0.539740
O O11 0.156759 0.809717 0.346636
O O12 0.263900 0.931867 0.179326
O O13 0.384695 0.073635 0.506535
O O14 0.500000 0.000000 0.500000
O O15 0.383949 0.943945 0.661520
#
# Coordination Sequence:
#
# PCOD8139051 Si02
#       7
#     8   8   8   8   8   8   8
#     4  10  22  39  65  90 119 166 205 255 317 365
#     4  10  22  41  64  91 124 161 212 251 302 381
#     4  10  20  38  64  91 120 160 212 255 302 371
#     4  10  20  39  64  87 123 159 208 265 303 364
#     4  12  22  39  63  89 128 164 199 257 319 381
#     4  10  22  36  62  92 125 164 205 249 316 372
#     4  10  22  37  63  93 119 163 210 252 313 368
#
# _framework density 19.944493999999999
#
# number of rings (size 3 to 8) (size 9 to 14) (size 15 to 20)
#    0.000    1.714    4.286    0.000    2.000    2.286 
#    0.000    2.857    0.000    0.000    0.000    0.000 
#    0.000    0.000    0.000    0.000    0.000    0.000 
#
# Total GULP energy -346905.584746 kJ/mol
# GULP energy per Si atom -12389.485170 kJ/mol
# Density = 1.989910 g / cm^3
# Si number density = 19.944494 Si / 1000 Ang^3
#
#
#
# Elastic Constant Matrix: (Units=GPa)
#
#
# Indices 1 2 3 4 5 6 
#
# 1 123.9986 41.4090 47.9852 0.0000 16.4178 0.0000
# 2 41.4090 119.2219 30.1597 0.0000 15.0166 0.0000
# 3 47.9852 30.1597 72.5284 0.0000 34.2278 0.0000
# 4 0.0000 0.0000 0.0000 25.4558 0.0000 2.9884
# 5 16.4178 15.0166 34.2278 0.0000 36.1044 0.0000
# 6 0.0000 0.0000 0.0000 2.9884 0.0000 31.0868
#
#
#
# Elastic Compliance Matrix: (Units=1/GPa)
#
#
# Indices 1 2 3 4 5 6 
#
# 1 0.011642 -0.002369 -0.008477 0.000000 0.003727 0.000000
# 2 -0.002369 0.009858 -0.002001 0.000000 -0.001127 0.000000
# 3 -0.008477 -0.002001 0.032602 0.000000 -0.026221 0.000000
# 4 0.000000 0.000000 0.000000 0.039732 0.000000 -0.003820
# 5 0.003727 -0.001127 -0.026221 0.000000 0.051329 0.000000
# 6 0.000000 0.000000 0.000000 -0.003820 0.000000 0.032535
#
#
# Mechanical properties :
#
#
# Convention : Reuss Voigt Hill
#
# Bulk Modulus (GPa) = 35.19780 61.65074 48.42427
# Shear Modulus (GPa) = 23.48948 31.60909 27.54928
#
# Velocity S-wave (km/s) = 3.43555 3.98534 3.72061
# Velocity P-wave (km/s) = 5.78131 7.22188 6.54137
#
# Compressibility (1/GPa) = 0.02841087
#
# Stress axis : x y z
#
# Youngs Moduli (GPa) = 85.89228 101.43555 30.67312
#
# Poissons Ratio (x) = 0.24029 0.26000
# Poissons Ratio (y) = 0.20347 0.06136
# Poissons Ratio (z) = 0.72807 0.20293
#
# Static dielectric constant tensor:
#      x y z
#    x 3.928730 0.000000 -0.070840 
#    y 0.000000 3.708460 0.000000 
#    z -0.070840 0.000000 3.526920 
# 
# 
# High freq. dielectric constant tensor:
#      x y z
#    x 1.793130 0.000000 -0.011380 
#    y 0.000000 1.773190 0.000000 
#    z -0.011380 0.000000 1.756560 
# 
# From -- ./inp_files/171805.got.cif
#   From: 2010.06.25/outbox.cif.g09.slc.cpg/sg15_86_cif.got.tgz:171805.got - 2010.06.28 07:06:18.
