data_PCOD8139685
_publ_section_title
;
Structure prediction by ZEFSAII (Michael W. Deem and Ramdas Pophale) SiO2 
 PCOD8139685
Probable space group: C 2/C
;
_chemical_formula_sum "Si O2"
_cell_formula_units_Z 60
_cell_length_a 15.239366
_cell_length_b 22.124997
_cell_length_c 9.019109
_cell_angle_alpha 90.000000
_cell_angle_beta 74.311485
_cell_angle_gamma 90.000000
_cell_volume 2927.692530
_symmetry_space_group_name_H-M "C 2/C"
_symmetry_group_IT_number 15
_symmetry_cell_setting 'monoclinic'
loop_
_space_group_symop_operation_xyz
x,y,z
-x,y,1/2-z
-x,-y,-z
x,-y,1/2+z
1/2+x,1/2+y,z
1/2-x,1/2+y,1/2-z
1/2-x,1/2-y,-z
1/2+x,1/2-y,1/2+z
loop_
_atom_site_type_symbol
_atom_site_label
_atom_site_fract_x
_atom_site_fract_y
_atom_site_fract_z
Si Si1 0.410072 0.699598 0.196417
Si Si2 0.384910 0.944693 0.068635
Si Si3 0.374299 0.575433 0.537549
Si Si4 0.814005 0.022565 0.860587
Si Si5 0.263543 0.678742 0.481261
Si Si6 0.000000 0.518354 0.250000
Si Si7 0.899271 0.339253 0.259808
Si Si8 0.551739 0.618369 0.578361
O O1 0.500000 0.680351 0.250000
O O2 0.316585 0.668464 0.301756
O O3 0.399547 0.771134 0.202410
O O4 0.418396 0.678127 0.023756
O O5 0.293473 0.978267 0.059348
O O6 0.430382 0.978034 0.187633
O O7 0.360654 0.877823 0.139718
O O8 0.447692 0.940070 0.893704
O O9 0.330997 0.530937 0.678996
O O10 0.353505 0.542785 0.390498
O O11 0.329731 0.643183 0.567503
O O12 0.482509 0.579396 0.509514
O O13 0.861555 0.077240 0.927318
O O14 0.250000 0.750000 0.500000
O O15 0.162475 0.652002 0.561518
O O16 0.000000 0.362481 0.250000
O O17 0.500000 0.639893 0.750000
#
# Coordination Sequence:
#
# PCOD8139685 Si02
#       8
#     8   8   8   8   8   4   8   8
#     4  10  20  39  67  92 117 166 216 255 307 375
#     4  11  21  43  60  89 123 161 211 261 320 371
#     4  11  22  40  63  92 129 164 205 257 310 378
#     4  11  24  37  63  91 127 164 206 251 314 376
#     4  10  21  38  66  94 118 158 216 266 305 369
#     4  10  24  38  64  84 124 166 202 264 326 378
#     4  10  21  39  65  92 119 159 212 271 308 367
#     4  10  23  42  60  90 133 169 198 255 316 377
#
# _framework density 20.493955
#
# number of rings (size 3 to 8) (size 9 to 14) (size 15 to 20)
#    0.000    1.600    3.333    1.200    1.867    0.000 
#    3.600    0.667    0.000    0.000    0.000    0.000 
#    0.000    0.000    0.000    0.000    0.000    0.000 
#
# Total GULP energy -371709.007954 kJ/mol
# GULP energy per Si atom -12390.300265 kJ/mol
# Density = 2.044731 g / cm^3
# Si number density = 20.493955 Si / 1000 Ang^3
#
#
#
# Elastic Constant Matrix: (Units=GPa)
#
#
# Indices 1 2 3 4 5 6 
#
# 1 111.4978 24.1386 48.6130 0.0000 -12.2417 0.0000
# 2 24.1386 74.3391 58.5451 0.0000 4.7434 0.0000
# 3 48.6130 58.5451 129.9696 0.0000 -16.1343 0.0000
# 4 0.0000 0.0000 0.0000 29.5052 0.0000 3.0668
# 5 -12.2417 4.7434 -16.1343 0.0000 36.1016 0.0000
# 6 0.0000 0.0000 0.0000 3.0668 0.0000 21.2760
#
#
#
# Elastic Compliance Matrix: (Units=1/GPa)
#
#
# Indices 1 2 3 4 5 6 
#
# 1 0.010901 -0.001103 -0.003286 0.000000 0.002373 0.000000
# 2 -0.001103 0.022976 -0.010966 0.000000 -0.008294 0.000000
# 3 -0.003286 -0.010966 0.014720 0.000000 0.006905 0.000000
# 4 0.000000 0.000000 0.000000 0.034408 0.000000 -0.004960
# 5 0.002373 -0.008294 0.006905 0.000000 0.032680 0.000000
# 6 0.000000 0.000000 0.000000 -0.004960 0.000000 0.047716
#
#
# Mechanical properties :
#
#
# Convention : Reuss Voigt Hill
#
# Bulk Modulus (GPa) = 55.91030 64.26666 60.08848
# Shear Modulus (GPa) = 24.99079 29.67721 27.33400
#
# Velocity S-wave (km/s) = 3.49581 3.80951 3.65603
# Velocity P-wave (km/s) = 6.60567 7.12578 6.87065
#
# Compressibility (1/GPa) = 0.01788579
#
# Stress axis : x y z
#
# Youngs Moduli (GPa) = 91.73688 43.52393 67.93422
#
# Poissons Ratio (x) = 0.04802 0.22321
# Poissons Ratio (y) = 0.10122 0.74500
# Poissons Ratio (z) = 0.30142 0.47730
#
# Static dielectric constant tensor:
#      x y z
#    x 3.924290 0.000000 -0.271220 
#    y 0.000000 3.638480 0.000000 
#    z -0.271220 0.000000 3.856020 
# 
# 
# High freq. dielectric constant tensor:
#      x y z
#    x 1.800990 0.000000 -0.023100 
#    y 0.000000 1.794680 0.000000 
#    z -0.023100 0.000000 1.799520 
# 
# From -- ./inp_files/42617.got.cif
#   From: 2010.06.25/outbox.cif.g09.slc.cpg/sg15_22_cif.got.tgz:42617.got - 2010.06.28 07:06:18.
