data_PCOD8139669
_publ_section_title
;
Structure prediction by ZEFSAII (Michael W. Deem and Ramdas Pophale) SiO2 
 PCOD8139669
Probable space group: C 2/C
;
_chemical_formula_sum "Si O2"
_cell_formula_units_Z 52
_cell_length_a 17.828352
_cell_length_b 9.588339
_cell_length_c 13.489362
_cell_angle_alpha 90.000000
_cell_angle_beta 81.447030
_cell_angle_gamma 90.000000
_cell_volume 2280.284590
_symmetry_space_group_name_H-M "C 2/C"
_symmetry_group_IT_number 15
_symmetry_cell_setting 'monoclinic'
loop_
_space_group_symop_operation_xyz
x,y,z
-x,y,1/2-z
-x,-y,-z
x,-y,1/2+z
1/2+x,1/2+y,z
1/2-x,1/2+y,1/2-z
1/2-x,1/2-y,-z
1/2+x,1/2-y,1/2+z
loop_
_atom_site_type_symbol
_atom_site_label
_atom_site_fract_x
_atom_site_fract_y
_atom_site_fract_z
Si Si1 0.500000 0.781837 0.750000
Si Si2 0.439925 0.129310 0.622511
Si Si3 0.370224 0.342859 0.152582
Si Si4 0.651772 0.636295 0.444301
Si Si5 0.659087 0.070793 0.457268
Si Si6 0.277491 0.347863 0.368611
Si Si7 0.906385 0.539210 0.834002
O O1 0.544562 0.688223 0.822734
O O2 0.436306 0.879954 0.815256
O O3 0.420223 0.274393 0.575707
O O4 0.386368 0.103222 0.730816
O O5 0.527363 0.135008 0.632975
O O6 0.421923 0.999658 0.553544
O O7 0.365849 0.483696 0.091699
O O8 0.339909 0.227491 0.081633
O O9 0.312700 0.353303 0.254169
O O10 0.655589 0.642617 0.562954
O O11 0.730048 0.704002 0.387769
O O12 0.664881 0.056293 0.576930
O O13 0.725923 0.983769 0.394558
#
# Coordination Sequence:
#
# PCOD8139669 Si02
#       7
#     4   8   8   8   8   8   8
#     4  10  24  38  66  98 132 164 200 284 312 380
#     4   9  20  38  61  91 128 172 199 267 317 380
#     4  12  24  42  65 100 128 165 221 265 319 372
#     4  10  24  41  62  92 128 173 207 264 333 364
#     4  11  22  38  72  92 121 176 216 264 304 393
#     4  10  25  43  64  87 131 176 214 262 316 386
#     4  10  20  39  66  97 125 163 231 249 318 389
#
# _framework density 22.804169999999999
#
# number of rings (size 3 to 8) (size 9 to 14) (size 15 to 20)
#    0.000    1.846    3.077    1.385    6.462    5.538 
#    0.000    1.538    0.000    0.000    0.000    0.000 
#    0.000    0.000    0.000    0.000    0.000    0.000 
#
# Total GULP energy -322319.355898 kJ/mol
# GULP energy per Si atom -12396.898304 kJ/mol
# Density = 2.275227 g / cm^3
# Si number density = 22.804170 Si / 1000 Ang^3
#
#
#
# Elastic Constant Matrix: (Units=GPa)
#
#
# Indices 1 2 3 4 5 6 
#
# 1 42.0189 31.7845 -5.0547 0.0000 15.3734 0.0000
# 2 31.7845 178.0113 36.4113 0.0000 19.2452 0.0000
# 3 -5.0547 36.4113 93.3770 0.0000 -0.3417 0.0000
# 4 0.0000 0.0000 0.0000 28.9515 0.0000 2.7601
# 5 15.3734 19.2452 -0.3417 0.0000 33.6748 0.0000
# 6 0.0000 0.0000 0.0000 2.7601 0.0000 18.9367
#
#
#
# Elastic Compliance Matrix: (Units=1/GPa)
#
#
# Indices 1 2 3 4 5 6 
#
# 1 0.032599 -0.005321 0.003796 0.000000 -0.011803 0.000000
# 2 -0.005321 0.007419 -0.003188 0.000000 -0.001843 0.000000
# 3 0.003796 -0.003188 0.012159 0.000000 0.000212 0.000000
# 4 0.000000 0.000000 0.000000 0.035027 0.000000 -0.005105
# 5 -0.011803 -0.001843 0.000212 0.000000 0.036139 0.000000
# 6 0.000000 0.000000 0.000000 -0.005105 0.000000 0.053552
#
#
# Mechanical properties :
#
#
# Convention : Reuss Voigt Hill
#
# Bulk Modulus (GPa) = 23.39109 48.85436 36.12273
# Shear Modulus (GPa) = 24.92892 32.99699 28.96296
#
# Velocity S-wave (km/s) = 3.30990 3.80804 3.56767
# Velocity P-wave (km/s) = 4.98868 6.38786 5.73113
#
# Compressibility (1/GPa) = 0.04275132
#
# Stress axis : x y z
#
# Youngs Moduli (GPa) = 30.67605 134.78854 82.24636
#
# Poissons Ratio (x) = 0.71723 -0.31224
# Poissons Ratio (y) = 0.16323 0.26218
# Poissons Ratio (z) = -0.11646 0.42967
#
# Static dielectric constant tensor:
#      x y z
#    x 4.010290 0.000000 0.298660 
#    y 0.000000 3.913720 0.000000 
#    z 0.298660 0.000000 4.486400 
# 
# 
# High freq. dielectric constant tensor:
#      x y z
#    x 1.885650 0.000000 0.017660 
#    y 0.000000 1.886280 0.000000 
#    z 0.017660 0.000000 1.913720 
# 
# From -- ./inp_files/166218.got.cif
#   From: 2010.06.25/outbox.cif.g09.slc.cpg/sg15_84_cif.got.tgz:166218.got - 2010.06.28 07:06:18.
