data_PCOD8139321
_publ_section_title
;
Structure prediction by ZEFSAII (Michael W. Deem and Ramdas Pophale) SiO2 
 PCOD8139321
Probable space group: C 2/C
;
_chemical_formula_sum "Si O2"
_cell_formula_units_Z 48
_cell_length_a 24.815246
_cell_length_b 11.263070
_cell_length_c 9.354756
_cell_angle_alpha 90.000000
_cell_angle_beta 67.346924
_cell_angle_gamma 90.000000
_cell_volume 2412.907930
_symmetry_space_group_name_H-M "C 2/C"
_symmetry_group_IT_number 15
_symmetry_cell_setting 'monoclinic'
loop_
_space_group_symop_operation_xyz
x,y,z
-x,y,1/2-z
-x,-y,-z
x,-y,1/2+z
1/2+x,1/2+y,z
1/2-x,1/2+y,1/2-z
1/2-x,1/2-y,-z
1/2+x,1/2-y,1/2+z
loop_
_atom_site_type_symbol
_atom_site_label
_atom_site_fract_x
_atom_site_fract_y
_atom_site_fract_z
Si Si1 0.666285 0.724612 0.963433
Si Si2 0.211330 0.620672 0.677281
Si Si3 0.110370 0.625369 0.971163
Si Si4 0.551982 0.587623 0.086772
Si Si5 0.136886 0.411935 0.765537
Si Si6 0.024328 0.173886 0.576207
O O1 0.720164 0.638400 0.870867
O O2 0.647911 0.790099 0.836932
O O3 0.686225 0.818281 0.060613
O O4 0.612676 0.645368 0.076622
O O5 0.174938 0.668659 0.852487
O O6 0.198669 0.479550 0.672857
O O7 0.096259 0.500165 0.904631
O O8 0.106117 0.613897 0.146344
O O9 0.064117 0.723797 0.966659
O O10 0.500000 0.611769 0.250000
O O11 0.561964 0.447064 0.055049
O O12 0.532906 0.649261 0.959417
O O13 0.000000 0.221168 0.750000
#
# Coordination Sequence:
#
# PCOD8139321 Si02
#       6
#     8   8   8   8   8   8
#     4  11  20  39  64  87 121 161 193 243 305 357
#     4   9  21  37  59  88 120 157 191 246 293 361
#     4  10  20  39  61  84 125 157 196 253 301 344
#     4  10  22  38  62  88 119 156 201 245 300 353
#     4  10  20  39  59  90 124 153 202 251 295 356
#     4  10  21  40  59  88 120 155 202 255 286 357
#
# _framework density 19.893007999999998
#
# number of rings (size 3 to 8) (size 9 to 14) (size 15 to 20)
#    1.000    1.000    1.667    2.000    0.000    2.000 
#    0.000   15.833    0.000    0.000    0.000    0.000 
#    0.000    0.000    0.000    0.000    0.000    0.000 
#
# Total GULP energy -297454.827967 kJ/mol
# GULP energy per Si atom -12393.951165 kJ/mol
# Density = 1.984773 g / cm^3
# Si number density = 19.893008 Si / 1000 Ang^3
#
#
#
# Elastic Constant Matrix: (Units=GPa)
#
#
# Indices 1 2 3 4 5 6 
#
# 1 75.3928 36.0841 28.0108 0.0000 -20.5957 0.0000
# 2 36.0841 65.1139 8.8644 0.0000 -12.7419 0.0000
# 3 28.0108 8.8644 76.9427 0.0000 12.1181 0.0000
# 4 0.0000 0.0000 0.0000 26.6567 0.0000 -7.0223
# 5 -20.5957 -12.7419 12.1181 0.0000 32.0526 0.0000
# 6 0.0000 0.0000 0.0000 -7.0223 0.0000 29.5747
#
#
#
# Elastic Compliance Matrix: (Units=1/GPa)
#
#
# Indices 1 2 3 4 5 6 
#
# 1 0.027262 -0.010024 -0.011591 0.000000 0.017915 0.000000
# 2 -0.010024 0.021089 0.000972 0.000000 0.001575 0.000000
# 3 -0.011591 0.000972 0.019370 0.000000 -0.014385 0.000000
# 4 0.000000 0.000000 0.000000 0.040017 0.000000 0.009502
# 5 0.017915 0.001575 -0.014385 0.000000 0.048775 0.000000
# 6 0.000000 0.000000 0.000000 0.009502 0.000000 0.036069
#
#
# Mechanical properties :
#
#
# Convention : Reuss Voigt Hill
#
# Bulk Modulus (GPa) = 37.83115 40.37422 39.10268
# Shear Modulus (GPa) = 20.60323 27.28947 23.94635
#
# Velocity S-wave (km/s) = 3.22172 3.70782 3.47328
# Velocity P-wave (km/s) = 5.73567 6.21854 5.98198
#
# Compressibility (1/GPa) = 0.02643324
#
# Stress axis : x y z
#
# Youngs Moduli (GPa) = 36.68101 47.41887 51.62589
#
# Poissons Ratio (x) = 0.47533 0.59841
# Poissons Ratio (y) = 0.36769 -0.05016
# Poissons Ratio (z) = 0.42518 -0.04607
#
# Static dielectric constant tensor:
#      x y z
#    x 3.436210 0.000000 0.035200 
#    y 0.000000 3.551470 0.000000 
#    z 0.035200 0.000000 3.613350 
# 
# 
# High freq. dielectric constant tensor:
#      x y z
#    x 1.753890 0.000000 0.005860 
#    y 0.000000 1.772050 0.000000 
#    z 0.005860 0.000000 1.782270 
# 
# From -- ./inp_files/60852.got.cif
#   From: 2010.06.25/outbox.cif.g09.slc.cpg/sg15_31_cif.got.tgz:60852.got - 2010.06.28 07:06:18.
