data_PCOD8139561
_publ_section_title
;
Structure prediction by ZEFSAII (Michael W. Deem and Ramdas Pophale) SiO2 
 PCOD8139561
Probable space group: C 2/C
;
_chemical_formula_sum "Si O2"
_cell_formula_units_Z 48
_cell_length_a 28.595571
_cell_length_b 8.519760
_cell_length_c 15.161351
_cell_angle_alpha 90.000000
_cell_angle_beta 39.826897
_cell_angle_gamma 90.000000
_cell_volume 2365.718285
_symmetry_space_group_name_H-M "C 2/C"
_symmetry_group_IT_number 15
_symmetry_cell_setting 'monoclinic'
loop_
_space_group_symop_operation_xyz
x,y,z
-x,y,1/2-z
-x,-y,-z
x,-y,1/2+z
1/2+x,1/2+y,z
1/2-x,1/2+y,1/2-z
1/2-x,1/2-y,-z
1/2+x,1/2-y,1/2+z
loop_
_atom_site_type_symbol
_atom_site_label
_atom_site_fract_x
_atom_site_fract_y
_atom_site_fract_z
Si Si1 0.553222 0.368686 0.955506
Si Si2 0.693820 0.382914 0.055025
Si Si3 0.048173 0.694565 0.262083
Si Si4 0.804929 0.961456 0.254318
Si Si5 0.076135 0.445368 0.352701
Si Si6 0.211867 0.591467 0.242326
O O1 0.624143 0.456410 0.890975
O O2 0.576246 0.244444 0.844679
O O3 0.500000 0.500000 0.000000
O O4 0.512303 0.271232 0.088616
O O5 0.613100 0.317799 0.149300
O O6 0.692408 0.496094 0.143524
O O7 0.750000 0.250000 0.000000
O O8 0.726239 0.461546 0.919153
O O9 0.086506 0.536636 0.245044
O O10 0.000000 0.641651 0.250000
O O11 0.805614 0.775865 0.235229
O O12 0.736092 0.041415 0.305800
O O13 0.138804 0.495589 0.329963
O O14 0.000000 0.500000 0.500000
#
# Coordination Sequence:
#
# PCOD8139561 Si02
#       6
#     8   8   8   8   8   8
#     4  11  21  40  65  87 127 166 208 259 319 375
#     4  10  20  39  64  88 128 163 209 258 316 380
#     4  11  21  39  67  91 123 169 213 259 323 380
#     4  11  21  39  65  93 123 171 204 259 320 376
#     4  10  21  39  60  89 122 159 207 257 305 377
#     4  11  22  40  65  93 125 165 217 257 320 385
#
# _framework density 20.289819999999999
#
# number of rings (size 3 to 8) (size 9 to 14) (size 15 to 20)
#    0.000    1.333    5.000    3.000    0.000    4.000 
#    0.000    4.167    0.000    0.000    0.000    0.000 
#    0.000    0.000    0.000    0.000    0.000    0.000 
#
# Total GULP energy -297399.296367 kJ/mol
# GULP energy per Si atom -12391.637349 kJ/mol
# Density = 2.024364 g / cm^3
# Si number density = 20.289820 Si / 1000 Ang^3
#
#
#
# Elastic Constant Matrix: (Units=GPa)
#
#
# Indices 1 2 3 4 5 6 
#
# 1 150.1501 48.9596 33.6428 -0.0001 -17.5429 0.0000
# 2 48.9596 127.0875 31.3113 0.0003 -2.5731 0.0000
# 3 33.6428 31.3113 76.9685 -0.0001 -16.9219 0.0001
# 4 -0.0001 0.0003 -0.0001 25.3175 0.0000 -8.5153
# 5 -17.5429 -2.5731 -16.9219 0.0000 31.8947 0.0000
# 6 0.0000 0.0000 0.0001 -8.5153 0.0000 34.9046
#
#
#
# Elastic Compliance Matrix: (Units=1/GPa)
#
#
# Indices 1 2 3 4 5 6 
#
# 1 0.008343 -0.002702 -0.001796 0.000000 0.003418 0.000000
# 2 -0.002702 0.009671 -0.003292 0.000000 -0.002453 0.000000
# 3 -0.001796 -0.003292 0.016801 0.000000 0.007660 0.000000
# 4 0.000000 0.000000 0.000000 0.043029 0.000000 0.010497
# 5 0.003418 -0.002453 0.007660 0.000000 0.037100 0.000000
# 6 0.000000 0.000000 0.000000 0.010497 0.000000 0.031210
#
#
# Mechanical properties :
#
#
# Convention : Reuss Voigt Hill
#
# Bulk Modulus (GPa) = 51.99220 64.67041 58.33130
# Shear Modulus (GPa) = 29.73600 34.44285 32.08943
#
# Velocity S-wave (km/s) = 3.83242 4.12460 3.98119
# Velocity P-wave (km/s) = 6.72783 7.39091 7.06715
#
# Compressibility (1/GPa) = 0.01923366
#
# Stress axis : x y z
#
# Youngs Moduli (GPa) = 119.86251 103.40015 59.52082
#
# Poissons Ratio (x) = 0.27943 0.10689
# Poissons Ratio (y) = 0.32391 0.19597
# Poissons Ratio (z) = 0.21526 0.34043
#
# Static dielectric constant tensor:
#      x y z
#    x 3.961520 0.000000 0.549710 
#    y 0.000000 4.074850 -0.000020 
#    z 0.549710 -0.000020 -2.173360 
# 
# 
# High freq. dielectric constant tensor:
#      x y z
#    x 1.802160 0.000000 -0.020780 
#    y 0.000000 1.781160 0.000000 
#    z -0.020780 0.000000 1.787470 
# 
# From -- ./inp_files/180714.got.cif
#   From: 2010.06.25/outbox.cif.g09.slc.cpg/sg15_91_cif.got.tgz:180714.got - 2010.06.28 07:06:18.
