data_PCOD8139513
_publ_section_title
;
Structure prediction by ZEFSAII (Michael W. Deem and Ramdas Pophale) SiO2 
 PCOD8139513
Probable space group: C 2/C
;
_chemical_formula_sum "Si O2"
_cell_formula_units_Z 64
_cell_length_a 18.262582
_cell_length_b 5.701443
_cell_length_c 29.798484
_cell_angle_alpha 90.000000
_cell_angle_beta 73.157527
_cell_angle_gamma 90.000000
_cell_volume 2969.618843
_symmetry_space_group_name_H-M "C 2/C"
_symmetry_group_IT_number 15
_symmetry_cell_setting 'monoclinic'
loop_
_space_group_symop_operation_xyz
x,y,z
-x,y,1/2-z
-x,-y,-z
x,-y,1/2+z
1/2+x,1/2+y,z
1/2-x,1/2+y,1/2-z
1/2-x,1/2-y,-z
1/2+x,1/2-y,1/2+z
loop_
_atom_site_type_symbol
_atom_site_label
_atom_site_fract_x
_atom_site_fract_y
_atom_site_fract_z
Si Si1 0.241705 0.342353 0.725799
Si Si2 0.979256 0.969096 0.361831
Si Si3 0.405831 0.833145 0.055967
Si Si4 0.132017 0.640583 0.598373
Si Si5 0.640257 0.490619 0.361590
Si Si6 0.046138 0.346837 0.550174
Si Si7 0.236733 0.406906 0.891998
Si Si8 0.855405 0.252222 0.832089
O O1 0.249353 0.599309 0.747956
O O2 0.304599 0.331217 0.674638
O O3 0.157792 0.339885 0.716802
O O4 0.945065 0.231727 0.369347
O O5 0.952568 0.858053 0.413808
O O6 0.941414 0.839660 0.325577
O O7 0.070297 0.937013 0.339646
O O8 0.403807 0.609111 0.088702
O O9 0.463127 0.031528 0.064141
O O10 0.320484 0.934013 0.069282
O O11 0.431785 0.745108 0.002339
O O12 0.111154 0.532273 0.553857
O O13 0.207854 0.797767 0.579616
O O14 0.161125 0.457067 0.630061
O O15 0.687770 0.266274 0.368937
O O16 0.292867 0.547177 0.849301
#
# Coordination Sequence:
#
# PCOD8139513 Si02
#       8
#     8   8   8   8   8   8   8   8
#     4  12  27  46  78 105 136 170 228 290 347 417
#     4  10  22  39  69  91 136 177 225 264 340 410
#     4  11  22  36  61  94 137 174 230 280 328 406
#     4  10  20  39  63  90 128 180 214 276 333 403
#     4  12  23  42  68  98 126 181 225 275 350 410
#     4  10  22  37  56  99 135 175 228 282 326 386
#     4  11  20  38  66  89 127 179 225 272 329 412
#     4  10  22  43  67  95 130 176 216 275 349 405
#
# _framework density 21.551587999999999
#
# number of rings (size 3 to 8) (size 9 to 14) (size 15 to 20)
#    0.000    1.250    5.000    0.750    1.750    2.000 
#    0.000    9.375    0.000    0.000    0.000    0.000 
#    0.000    0.000    0.000    0.000    0.000    0.000 
#
# Total GULP energy -396519.288566 kJ/mol
# GULP energy per Si atom -12391.227768 kJ/mol
# Density = 2.150254 g / cm^3
# Si number density = 21.551588 Si / 1000 Ang^3
#
#
#
# Elastic Constant Matrix: (Units=GPa)
#
#
# Indices 1 2 3 4 5 6 
#
# 1 135.1333 22.2533 12.9107 -0.0006 12.5882 -0.0024
# 2 22.2533 73.3685 7.9886 -0.0083 5.4273 -0.0038
# 3 12.9107 7.9886 49.9102 -0.0032 20.6484 -0.0029
# 4 -0.0006 -0.0083 -0.0032 25.2485 0.0016 1.3706
# 5 12.5882 5.4273 20.6484 0.0016 26.7767 0.0009
# 6 -0.0024 -0.0038 -0.0029 1.3706 0.0009 41.0465
#
#
#
# Elastic Compliance Matrix: (Units=1/GPa)
#
#
# Indices 1 2 3 4 5 6 
#
# 1 0.008084 -0.002177 -0.000518 0.000000 -0.002959 0.000000
# 2 -0.002177 0.014505 -0.001418 0.000005 -0.000823 0.000001
# 3 -0.000518 -0.001418 0.029630 0.000005 -0.022318 0.000002
# 4 0.000000 0.000005 0.000005 0.039678 -0.000007 -0.001325
# 5 -0.002959 -0.000823 -0.022318 -0.000007 0.056114 -0.000003
# 6 0.000000 0.000001 0.000002 -0.001325 -0.000003 0.024407
#
#
# Mechanical properties :
#
#
# Convention : Reuss Voigt Hill
#
# Bulk Modulus (GPa) = 22.73078 38.30192 30.51635
# Shear Modulus (GPa) = 25.60052 32.96497 29.28274
#
# Velocity S-wave (km/s) = 3.45029 3.91523 3.69009
# Velocity P-wave (km/s) = 5.14225 6.18462 5.68736
#
# Compressibility (1/GPa) = 0.04399322
#
# Stress axis : x y z
#
# Youngs Moduli (GPa) = 123.70535 68.94032 33.74940
#
# Poissons Ratio (x) = 0.15005 0.01749
# Poissons Ratio (y) = 0.26925 0.04786
# Poissons Ratio (z) = 0.06413 0.09776
#
# Static dielectric constant tensor:
#      x y z
#    x 4.336780 -0.000010 0.249610 
#    y -0.000010 3.985650 -0.000010 
#    z 0.249610 -0.000010 3.562930 
# 
# 
# High freq. dielectric constant tensor:
#      x y z
#    x 1.872970 0.000000 0.019750 
#    y 0.000000 1.853660 0.000000 
#    z 0.019750 0.000000 1.802640 
# 
# From -- ./inp_files/317000.got.cif
#   From: 2010.06.25/outbox.cif.g09.slc.cpg/sg15_159_cif.got.tgz:317000.got - 2010.06.28 07:06:18.
