data_PCOD8139633
_publ_section_title
;
Structure prediction by ZEFSAII (Michael W. Deem and Ramdas Pophale) SiO2 
 PCOD8139633
Probable space group: C 2/C
;
_chemical_formula_sum "Si O2"
_cell_formula_units_Z 44
_cell_length_a 10.707825
_cell_length_b 21.893215
_cell_length_c 10.853139
_cell_angle_alpha 90.000000
_cell_angle_beta 49.840283
_cell_angle_gamma 90.000000
_cell_volume 1944.470757
_symmetry_space_group_name_H-M "C 2/C"
_symmetry_group_IT_number 15
_symmetry_cell_setting 'monoclinic'
loop_
_space_group_symop_operation_xyz
x,y,z
-x,y,1/2-z
-x,-y,-z
x,-y,1/2+z
1/2+x,1/2+y,z
1/2-x,1/2+y,1/2-z
1/2-x,1/2-y,-z
1/2+x,1/2-y,1/2+z
loop_
_atom_site_type_symbol
_atom_site_label
_atom_site_fract_x
_atom_site_fract_y
_atom_site_fract_z
Si Si1 0.722670 0.128769 0.917620
Si Si2 0.254411 0.538781 0.275662
Si Si3 0.500000 0.463824 0.250000
Si Si4 0.426199 0.279702 0.162489
Si Si5 0.736621 0.329897 0.849306
Si Si6 0.004700 0.440383 0.379091
O O1 0.787407 0.168131 0.760020
O O2 0.564034 0.097692 0.960538
O O3 0.853310 0.079925 0.888445
O O4 0.676655 0.167555 0.069585
O O5 0.430051 0.505207 0.181840
O O6 0.285641 0.604175 0.195784
O O7 0.125931 0.498275 0.278299
O O8 0.178547 0.542313 0.462885
O O9 0.500000 0.282793 0.250000
O O10 0.346685 0.212823 0.189729
O O11 0.559558 0.296640 0.974398
O O12 0.000000 0.405709 0.250000
#
# Coordination Sequence:
#
# PCOD8139633 Si02
#       6
#     8   8   4   8   8   8
#     4  10  20  39  65  95 130 164 214 268 324 381
#     4  10  25  38  65  93 131 172 212 264 324 384
#     4  10  20  42  60  94 128 170 216 250 326 386
#     4  10  21  37  61  99 124 165 211 272 323 364
#     4  11  23  38  65  99 128 163 218 270 326 375
#     4  10  24  40  59  95 131 171 208 260 328 394
#
# _framework density 22.628264000000001
#
# number of rings (size 3 to 8) (size 9 to 14) (size 15 to 20)
#    0.000    1.818    2.727    2.182   12.727    2.182 
#    0.000    0.000    2.000    2.182    0.000    0.000 
#    0.000    0.000    0.000    0.000    0.000    0.000 
#
# Total GULP energy -272596.307367 kJ/mol
# GULP energy per Si atom -12390.741244 kJ/mol
# Density = 2.257676 g / cm^3
# Si number density = 22.628264 Si / 1000 Ang^3
#
#
#
# Elastic Constant Matrix: (Units=GPa)
#
#
# Indices 1 2 3 4 5 6 
#
# 1 65.6269 27.1263 30.4743 0.0000 1.3617 0.0000
# 2 27.1263 131.0819 32.9534 0.0000 -6.1533 0.0000
# 3 30.4743 32.9534 79.5001 0.0000 3.8712 0.0000
# 4 0.0000 0.0000 0.0000 38.3646 0.0000 1.1904
# 5 1.3617 -6.1533 3.8712 0.0000 21.5191 0.0000
# 6 0.0000 0.0000 0.0000 1.1904 0.0000 22.9334
#
#
#
# Elastic Compliance Matrix: (Units=1/GPa)
#
#
# Indices 1 2 3 4 5 6 
#
# 1 0.019185 -0.002419 -0.006314 0.000000 -0.000770 0.000000
# 2 -0.002419 0.009031 -0.002975 0.000000 0.003271 0.000000
# 3 -0.006314 -0.002975 0.016398 0.000000 -0.003401 0.000000
# 4 0.000000 0.000000 0.000000 0.026108 0.000000 -0.001355
# 5 -0.000770 0.003271 -0.003401 0.000000 0.048066 0.000000
# 6 0.000000 0.000000 0.000000 -0.001355 0.000000 0.043675
#
#
# Mechanical properties :
#
#
# Convention : Reuss Voigt Hill
#
# Bulk Modulus (GPa) = 47.17583 50.81300 48.99442
# Shear Modulus (GPa) = 25.91400 28.94042 27.42721
#
# Velocity S-wave (km/s) = 3.38776 3.58012 3.48527
# Velocity P-wave (km/s) = 6.01631 6.29237 6.15589
#
# Compressibility (1/GPa) = 0.02119729
#
# Stress axis : x y z
#
# Youngs Moduli (GPa) = 52.12270 110.73018 60.98349
#
# Poissons Ratio (x) = 0.26787 0.38505
# Poissons Ratio (y) = 0.12609 0.18145
# Poissons Ratio (z) = 0.32911 0.32946
#
# Static dielectric constant tensor:
#      x y z
#    x 3.809590 0.000000 -0.471710 
#    y 0.000000 4.428220 0.000000 
#    z -0.471710 0.000000 4.088080 
# 
# 
# High freq. dielectric constant tensor:
#      x y z
#    x 1.851330 0.000000 -0.033690 
#    y 0.000000 1.903040 0.000000 
#    z -0.033690 0.000000 1.883370 
# 
# From -- ./inp_files/88713.got.cif
#   From: 2010.06.25/outbox.cif.g09.slc.cpg/sg15_45_cif.got.tgz:88713.got - 2010.06.28 07:06:18.
