data_PCOD8139012
_publ_section_title
;
Structure prediction by ZEFSAII (Michael W. Deem and Ramdas Pophale) SiO2 
 PCOD8139012
Probable space group: C 2/C
;
_chemical_formula_sum "Si O2"
_cell_formula_units_Z 60
_cell_length_a 15.587196
_cell_length_b 9.042823
_cell_length_c 22.839111
_cell_angle_alpha 90.000000
_cell_angle_beta 70.908069
_cell_angle_gamma 90.000000
_cell_volume 3042.150712
_symmetry_space_group_name_H-M "C 2/C"
_symmetry_group_IT_number 15
_symmetry_cell_setting 'monoclinic'
loop_
_space_group_symop_operation_xyz
x,y,z
-x,y,1/2-z
-x,-y,-z
x,-y,1/2+z
1/2+x,1/2+y,z
1/2-x,1/2+y,1/2-z
1/2-x,1/2-y,-z
1/2+x,1/2-y,1/2+z
loop_
_atom_site_type_symbol
_atom_site_label
_atom_site_fract_x
_atom_site_fract_y
_atom_site_fract_z
Si Si1 0.439373 0.996475 0.345408
Si Si2 0.082373 0.431310 0.015538
Si Si3 0.500000 0.256868 0.750000
Si Si4 0.985989 0.846270 0.533769
Si Si5 0.720449 0.177683 0.170098
Si Si6 0.565625 0.264885 0.285026
Si Si7 0.304224 0.815202 0.042406
Si Si8 0.090526 0.933732 0.829862
O O1 0.343857 0.066991 0.350296
O O2 0.524749 0.107904 0.315798
O O3 0.437527 0.957664 0.412728
O O4 0.445865 0.847695 0.306510
O O5 0.076900 0.254458 0.004674
O O6 0.175820 0.509441 0.973542
O O7 0.000000 0.500000 0.000000
O O8 0.568868 0.358479 0.772128
O O9 0.898768 0.771804 0.523571
O O10 0.972568 0.864493 0.606161
O O11 0.000000 0.000000 0.500000
O O12 0.666698 0.248750 0.236261
O O13 0.751317 0.301698 0.115836
O O14 0.804688 0.090087 0.177975
O O15 0.500000 0.329844 0.250000
O O16 0.571331 0.389578 0.333710
O O17 0.250000 0.750000 0.000000
#
# Coordination Sequence:
#
# PCOD8139012 Si02
#       8
#     8   8   4   8   8   8   8   8
#     4  11  21  40  67  87 122 167 211 258 306 388
#     4  10  21  38  63  93 118 166 216 247 310 382
#     4  12  22  40  62  90 126 164 208 254 314 374
#     4  10  23  40  61  88 126 163 208 261 308 367
#     4  10  22  39  60  89 126 157 205 256 314 367
#     4  10  22  39  60  89 116 161 210 241 311 373
#     4  10  20  38  64  85 119 162 204 256 311 368
#     4  11  24  39  60  91 128 160 202 260 317 365
#
# _framework density 19.722888000000001
#
# number of rings (size 3 to 8) (size 9 to 14) (size 15 to 20)
#    0.000    1.600    5.333    0.000    5.600    0.000 
#    0.000    0.667    0.000    0.000    0.000    0.000 
#    0.000    0.000    0.000    0.000    0.000    0.000 
#
# Total GULP energy -371836.333257 kJ/mol
# GULP energy per Si atom -12394.544442 kJ/mol
# Density = 1.967800 g / cm^3
# Si number density = 19.722888 Si / 1000 Ang^3
#
#
#
# Elastic Constant Matrix: (Units=GPa)
#
#
# Indices 1 2 3 4 5 6 
#
# 1 80.3377 45.2380 37.9206 0.0000 2.7251 0.0000
# 2 45.2380 128.0660 40.1946 0.0000 -1.3409 0.0000
# 3 37.9206 40.1946 75.7112 0.0000 9.2104 0.0000
# 4 0.0000 0.0000 0.0000 36.4175 0.0000 2.6682
# 5 2.7251 -1.3409 9.2104 0.0000 35.3597 0.0000
# 6 0.0000 0.0000 0.0000 2.6682 0.0000 22.2791
#
#
#
# Elastic Compliance Matrix: (Units=1/GPa)
#
#
# Indices 1 2 3 4 5 6 
#
# 1 0.018040 -0.004230 -0.006817 0.000000 0.000225 0.000000
# 2 -0.004230 0.010462 -0.003639 0.000000 0.001671 0.000000
# 3 -0.006817 -0.003639 0.019113 0.000000 -0.004591 0.000000
# 4 0.000000 0.000000 0.000000 0.027702 0.000000 -0.003318
# 5 0.000225 0.001671 -0.004591 0.000000 0.029523 0.000000
# 6 0.000000 0.000000 0.000000 -0.003318 0.000000 0.045283
#
#
# Mechanical properties :
#
#
# Convention : Reuss Voigt Hill
#
# Bulk Modulus (GPa) = 54.81657 58.98015 56.89836
# Shear Modulus (GPa) = 26.94329 29.52870 28.23600
#
# Velocity S-wave (km/s) = 3.70008 3.87354 3.78780
# Velocity P-wave (km/s) = 6.79027 7.06930 6.93119
#
# Compressibility (1/GPa) = 0.01824266
#
# Stress axis : x y z
#
# Youngs Moduli (GPa) = 55.43366 95.58044 52.32145
#
# Poissons Ratio (x) = 0.40435 0.35666
# Poissons Ratio (y) = 0.23451 0.19039
# Poissons Ratio (z) = 0.37788 0.34780
#
# Static dielectric constant tensor:
#      x y z
#    x 3.473410 0.000000 0.420170 
#    y 0.000000 3.882910 0.000000 
#    z 0.420170 0.000000 2.862570 
# 
# 
# High freq. dielectric constant tensor:
#      x y z
#    x 1.764000 0.000000 0.015410 
#    y 0.000000 1.769710 0.000000 
#    z 0.015410 0.000000 1.773280 
# 
# From -- ./inp_files/273114.got.cif
#   From: 2010.06.25/outbox.cif.g09.slc.cpg/sg15_137_cif.got.tgz:273114.got - 2010.06.28 07:06:18.
