data_PCOD8139504
_publ_section_title
;
Structure prediction by ZEFSAII (Michael W. Deem and Ramdas Pophale) SiO2 
 PCOD8139504
Probable space group: C 2/C
;
_chemical_formula_sum "Si O2"
_cell_formula_units_Z 40
_cell_length_a 13.308849
_cell_length_b 24.817742
_cell_length_c 5.151021
_cell_angle_alpha 90.000000
_cell_angle_beta 110.568907
_cell_angle_gamma 90.000000
_cell_volume 1592.898374
_symmetry_space_group_name_H-M "C 2/C"
_symmetry_group_IT_number 15
_symmetry_cell_setting 'monoclinic'
loop_
_space_group_symop_operation_xyz
x,y,z
-x,y,1/2-z
-x,-y,-z
x,-y,1/2+z
1/2+x,1/2+y,z
1/2-x,1/2+y,1/2-z
1/2-x,1/2-y,-z
1/2+x,1/2-y,1/2+z
loop_
_atom_site_type_symbol
_atom_site_label
_atom_site_fract_x
_atom_site_fract_y
_atom_site_fract_z
Si Si1 0.823248 0.251978 0.315293
Si Si2 0.610457 0.639434 0.219124
Si Si3 0.837804 0.634713 0.680181
Si Si4 0.885965 0.430017 0.726785
Si Si5 0.334587 0.469593 0.942012
O O1 0.750000 0.250000 0.500000
O O2 0.901130 0.199837 0.409712
O O3 0.887311 0.308256 0.330612
O O4 0.750000 0.250000 0.000000
O O5 0.500000 0.623320 0.250000
O O6 0.711039 0.639193 0.505602
O O7 0.631479 0.593308 0.022003
O O8 0.901097 0.612376 0.481891
O O9 0.841618 0.596369 0.927023
O O10 0.795801 0.474146 0.714955
O O11 0.000000 0.456790 0.750000
O O12 0.381727 0.501916 0.738999
#
# Coordination Sequence:
#
# PCOD8139504 Si02
#       5
#     8   8   8   8   8
#     4  10  20  39  63  89 126 165 201 248 302 362
#     4  10  23  42  66  95 127 169 214 254 307 375
#     4  10  21  41  64  97 135 163 198 253 312 375
#     4  11  23  41  67  95 125 163 208 258 318 383
#     4  11  24  43  63  87 123 164 212 270 318 360
#
# _framework density 25.111457999999999
#
# number of rings (size 3 to 8) (size 9 to 14) (size 15 to 20)
#    0.000    1.600    0.000    6.600    0.000    4.800 
#    0.000   24.000    0.000    0.000    0.000    0.000 
#    0.000    0.000    0.000    0.000    0.000    0.000 
#
# Total GULP energy -247818.340625 kJ/mol
# GULP energy per Si atom -12390.917031 kJ/mol
# Density = 2.505430 g / cm^3
# Si number density = 25.111458 Si / 1000 Ang^3
#
#
#
# Elastic Constant Matrix: (Units=GPa)
#
#
# Indices 1 2 3 4 5 6 
#
# 1 82.1223 1.7216 9.3336 0.0000 -27.5484 0.0000
# 2 1.7216 102.9716 30.0548 0.0000 -13.2295 0.0000
# 3 9.3336 30.0548 135.3336 0.0000 -39.8471 0.0000
# 4 0.0000 0.0000 0.0000 22.4325 0.0000 -14.6226
# 5 -27.5484 -13.2295 -39.8471 0.0000 30.3563 0.0000
# 6 0.0000 0.0000 0.0000 -14.6226 0.0000 24.9160
#
#
#
# Elastic Compliance Matrix: (Units=1/GPa)
#
#
# Indices 1 2 3 4 5 6 
#
# 1 0.020811 0.001351 0.006518 0.000000 0.028030 0.000000
# 2 0.001351 0.010585 -0.001181 0.000000 0.004288 0.000000
# 3 0.006518 -0.001181 0.014331 0.000000 0.024211 0.000000
# 4 0.000000 0.000000 0.000000 0.072198 0.000000 0.042371
# 5 0.028030 0.004288 0.024211 0.000000 0.092029 0.000000
# 6 0.000000 0.000000 0.000000 0.042371 0.000000 0.065001
#
#
# Mechanical properties :
#
#
# Convention : Reuss Voigt Hill
#
# Bulk Modulus (GPa) = 16.92021 44.73859 30.82940
# Shear Modulus (GPa) = 17.77595 34.16213 25.96904
#
# Velocity S-wave (km/s) = 2.66349 3.69239 3.21931
# Velocity P-wave (km/s) = 4.02636 6.00275 5.11100
#
# Compressibility (1/GPa) = 0.05910093
#
# Stress axis : x y z
#
# Youngs Moduli (GPa) = 48.05224 94.47747 69.78097
#
# Poissons Ratio (x) = -0.12763 -0.45482
# Poissons Ratio (y) = -0.06491 0.08242
# Poissons Ratio (z) = -0.31319 0.11159
#
# Static dielectric constant tensor:
#      x y z
#    x 4.653260 0.000000 -0.289300 
#    y 0.000000 5.513300 0.000000 
#    z -0.289300 0.000000 4.378910 
# 
# 
# High freq. dielectric constant tensor:
#      x y z
#    x 1.987720 0.000000 -0.019080 
#    y 0.000000 2.011110 0.000000 
#    z -0.019080 0.000000 1.999960 
# 
# From -- ./inp_files/7381.got.cif
#   From: 2010.06.25/outbox.cif.g09.slc.cpg/sg15_4_cif.got.tgz:7381.got - 2010.06.28 07:06:18.
