data_PCOD8139348
_publ_section_title
;
Structure prediction by ZEFSAII (Michael W. Deem and Ramdas Pophale) SiO2 
 PCOD8139348
Probable space group: C 2/C
;
_chemical_formula_sum "Si O2"
_cell_formula_units_Z 52
_cell_length_a 8.151720
_cell_length_b 26.921213
_cell_length_c 12.590658
_cell_angle_alpha 90.000000
_cell_angle_beta 90.786494
_cell_angle_gamma 90.000000
_cell_volume 2762.812342
_symmetry_space_group_name_H-M "C 2/C"
_symmetry_group_IT_number 15
_symmetry_cell_setting 'monoclinic'
loop_
_space_group_symop_operation_xyz
x,y,z
-x,y,1/2-z
-x,-y,-z
x,-y,1/2+z
1/2+x,1/2+y,z
1/2-x,1/2+y,1/2-z
1/2-x,1/2-y,-z
1/2+x,1/2-y,1/2+z
loop_
_atom_site_type_symbol
_atom_site_label
_atom_site_fract_x
_atom_site_fract_y
_atom_site_fract_z
Si Si1 0.404111 0.932257 0.570862
Si Si2 0.179290 0.313704 0.214904
Si Si3 0.672397 0.302605 0.699445
Si Si4 0.091766 0.458771 0.360308
Si Si5 0.500000 0.137876 0.250000
Si Si6 0.164711 0.143781 0.989662
Si Si7 0.385648 0.386802 0.341807
O O1 0.484253 0.942087 0.458318
O O2 0.514711 0.896163 0.644895
O O3 0.231645 0.905564 0.547603
O O4 0.370074 0.982799 0.634273
O O5 0.203987 0.255180 0.216932
O O6 0.212044 0.337410 0.100340
O O7 0.303177 0.336020 0.301722
O O8 0.000000 0.329994 0.250000
O O9 0.500000 0.320071 0.750000
O O10 0.651927 0.311996 0.574144
O O11 0.832479 0.330070 0.748563
O O12 0.261773 0.430114 0.370154
O O13 0.000000 0.445358 0.250000
O O14 0.986300 0.129184 0.946081
O O15 0.500000 0.408974 0.250000
#
# Coordination Sequence:
#
# PCOD8139348 Si02
#       7
#     8   8   8   8   4   8   8
#     4  10  22  39  61  86 116 161 205 247 309 367
#     4  10  20  39  60  89 118 159 203 251 302 364
#     4  10  23  39  61  89 125 163 210 247 306 375
#     4  11  21  38  63  86 116 155 210 251 297 376
#     4  10  22  42  62  88 128 170 198 254 312 364
#     4  10  21  38  57  86 125 154 197 255 306 362
#     4  10  21  35  60  87 121 151 196 252 306 353
#
# _framework density 18.821401000000002
#
# number of rings (size 3 to 8) (size 9 to 14) (size 15 to 20)
#    0.000    1.846    0.769    3.692    5.385    0.615 
#    0.000    4.615    0.000    0.000    0.000    0.000 
#    0.000    0.000    0.000    0.000    0.000    0.000 
#
# Total GULP energy -322421.310496 kJ/mol
# GULP energy per Si atom -12400.819634 kJ/mol
# Density = 1.877856 g / cm^3
# Si number density = 18.821401 Si / 1000 Ang^3
#
#
#
# Elastic Constant Matrix: (Units=GPa)
#
#
# Indices 1 2 3 4 5 6 
#
# 1 122.7903 56.9746 53.5050 0.0000 9.9671 0.0000
# 2 56.9746 103.0641 41.8250 0.0000 2.7423 0.0000
# 3 53.5050 41.8250 104.3440 0.0000 17.1831 0.0000
# 4 0.0000 0.0000 0.0000 0.8671 0.0000 -7.8063
# 5 9.9671 2.7423 17.1831 0.0000 31.2961 0.0000
# 6 0.0000 0.0000 0.0000 -7.8063 0.0000 25.3044
#
#
#
# Elastic Compliance Matrix: (Units=1/GPa)
#
#
# Indices 1 2 3 4 5 6 
#
# 1 0.012432 -0.005178 -0.004092 0.000000 -0.001259 0.000000
# 2 -0.005178 0.013826 -0.003253 0.000000 0.002224 0.000000
# 3 -0.004092 -0.003253 0.013989 0.000000 -0.006093 0.000000
# 4 0.000000 0.000000 0.000000 -0.648888 0.000000 -0.200180
# 5 -0.001259 0.002224 -0.006093 0.000000 0.035504 0.000000
# 6 0.000000 0.000000 0.000000 -0.200180 0.000000 -0.022236
#
#
# Mechanical properties :
#
#
# Convention : Reuss Voigt Hill
#
# Bulk Modulus (GPa) = 65.78507 70.53417 68.15962
# Shear Modulus (GPa) = -8.84549 23.35311 7.25381
#
# Velocity S-wave (km/s) = -2.17023 3.52628 1.96530
# Velocity P-wave (km/s) = 5.36174 7.35775 6.43757
#
# Compressibility (1/GPa) = 0.01520102
#
# Stress axis : x y z
#
# Youngs Moduli (GPa) = 80.43822 72.32597 71.48468
#
# Poissons Ratio (x) = 0.37454 0.29250
# Poissons Ratio (y) = 0.41655 0.23253
# Poissons Ratio (z) = 0.32913 0.23527
#
# Static dielectric constant tensor:
#      x y z
#    x 3.681950 0.000000 -0.051430 
#    y 0.000000 3.546570 0.000000 
#    z -0.051430 0.000000 3.604700 
# 
# 
# High freq. dielectric constant tensor:
#      x y z
#    x 1.731200 0.000000 0.006250 
#    y 0.000000 1.740750 0.000000 
#    z 0.006250 0.000000 1.739850 
# 
# From -- ./inp_files/80727.got.cif
#   From: 2010.06.25/outbox.cif.g09.slc.cpg/sg15_41_cif.got.tgz:80727.got - 2010.06.28 07:06:18.
