data_PCOD8139232
_publ_section_title
;
Structure prediction by ZEFSAII (Michael W. Deem and Ramdas Pophale) SiO2 
 PCOD8139232
Probable space group: C 2/C
;
_chemical_formula_sum "Si O2"
_cell_formula_units_Z 44
_cell_length_a 27.165917
_cell_length_b 14.916490
_cell_length_c 12.506474
_cell_angle_alpha 90.000000
_cell_angle_beta 153.589486
_cell_angle_gamma 90.000000
_cell_volume 2254.188465
_symmetry_space_group_name_H-M "C 2/C"
_symmetry_group_IT_number 15
_symmetry_cell_setting 'monoclinic'
loop_
_space_group_symop_operation_xyz
x,y,z
-x,y,1/2-z
-x,-y,-z
x,-y,1/2+z
1/2+x,1/2+y,z
1/2-x,1/2+y,1/2-z
1/2-x,1/2-y,-z
1/2+x,1/2-y,1/2+z
loop_
_atom_site_type_symbol
_atom_site_label
_atom_site_fract_x
_atom_site_fract_y
_atom_site_fract_z
Si Si1 0.000000 0.717825 0.750000
Si Si2 0.076356 0.770527 0.294140
Si Si3 0.781875 0.120207 0.975809
Si Si4 0.700736 0.667983 0.723847
Si Si5 0.420792 0.788570 0.310597
Si Si6 0.110915 0.946960 0.241385
O O1 0.049833 0.662544 0.746274
O O2 0.907823 0.775652 0.511066
O O3 0.198737 0.731798 0.546156
O O4 0.086755 0.875528 0.287793
O O5 0.000000 0.758495 0.250000
O O6 0.023646 0.718622 0.090844
O O7 0.763127 0.117090 0.812727
O O8 0.670190 0.150451 0.813861
O O9 0.879849 0.187451 0.203155
O O10 0.801801 0.018743 0.047019
O O11 0.668382 0.597211 0.750887
O O12 0.000000 0.000000 0.000000
#
# Coordination Sequence:
#
# PCOD8139232 Si02
#       6
#     4   8   8   8   8   8
#     4  10  20  38  68  88 126 172 222 260 314 396
#     4  12  24  42  70  95 129 175 223 262 330 402
#     4  10  22  40  63  93 136 166 217 267 325 387
#     4  11  23  42  65  96 134 172 213 277 330 389
#     4  10  20  41  64  92 126 180 207 260 330 394
#     4  12  24  39  65 102 128 164 225 282 320 371
#
# _framework density 19.519219
#
# number of rings (size 3 to 8) (size 9 to 14) (size 15 to 20)
#    0.000    1.091    5.455    1.636    2.545    0.000 
#    0.000    0.909    2.000    0.000    0.000    0.000 
#    0.000    0.000    0.000    0.000    0.000    0.000 
#
# Total GULP energy -272723.137041 kJ/mol
# GULP energy per Si atom -12396.506229 kJ/mol
# Density = 1.947479 g / cm^3
# Si number density = 19.519219 Si / 1000 Ang^3
#
#
#
# Elastic Constant Matrix: (Units=GPa)
#
#
# Indices 1 2 3 4 5 6 
#
# 1 150.5393 44.0598 36.8449 0.0000 -3.2853 0.0000
# 2 44.0598 79.2055 51.2833 0.0000 2.5392 0.0000
# 3 36.8449 51.2833 135.3118 0.0000 3.7528 0.0000
# 4 0.0000 0.0000 0.0000 18.8813 0.0000 4.3850
# 5 -3.2853 2.5392 3.7528 0.0000 32.9251 0.0000
# 6 0.0000 0.0000 0.0000 4.3850 0.0000 28.1295
#
#
#
# Elastic Compliance Matrix: (Units=1/GPa)
#
#
# Indices 1 2 3 4 5 6 
#
# 1 0.008024 -0.004062 -0.000678 0.000000 0.001191 0.000000
# 2 -0.004062 0.018799 -0.005986 0.000000 -0.001173 0.000000
# 3 -0.000678 -0.005986 0.009864 0.000000 -0.000730 0.000000
# 4 0.000000 0.000000 0.000000 0.054952 0.000000 -0.008566
# 5 0.001191 -0.001173 -0.000730 0.000000 0.030665 0.000000
# 6 0.000000 0.000000 0.000000 -0.008566 0.000000 0.036885
#
#
# Mechanical properties :
#
#
# Convention : Reuss Voigt Hill
#
# Bulk Modulus (GPa) = 65.64681 69.93695 67.79188
# Shear Modulus (GPa) = 26.92239 31.51173 29.21706
#
# Velocity S-wave (km/s) = 3.71789 4.02231 3.87309
# Velocity P-wave (km/s) = 7.22047 7.58153 7.40320
#
# Compressibility (1/GPa) = 0.01523303
#
# Stress axis : x y z
#
# Youngs Moduli (GPa) = 124.62956 53.19552 101.37924
#
# Poissons Ratio (x) = 0.21611 0.06876
# Poissons Ratio (y) = 0.50631 0.60685
# Poissons Ratio (z) = 0.08452 0.31843
#
# Static dielectric constant tensor:
#      x y z
#    x 4.054980 0.000000 -0.116840 
#    y 0.000000 3.256260 0.000000 
#    z -0.116840 0.000000 3.668320 
# 
# 
# High freq. dielectric constant tensor:
#      x y z
#    x 1.791580 0.000000 -0.002740 
#    y 0.000000 1.724680 0.000000 
#    z -0.002740 0.000000 1.772140 
# 
# From -- ./inp_files/123254.got.cif
#   From: 2010.06.25/outbox.cif.g09.slc.cpg/sg15_62_cif.got.tgz:123254.got - 2010.06.28 07:06:18.
