data_PCOD8139434
_publ_section_title
;
Structure prediction by ZEFSAII (Michael W. Deem and Ramdas Pophale) SiO2 
 PCOD8139434
Probable space group: C 2/C
;
_chemical_formula_sum "Si O2"
_cell_formula_units_Z 64
_cell_length_a 19.772263
_cell_length_b 11.697885
_cell_length_c 14.667638
_cell_angle_alpha 90.000000
_cell_angle_beta 65.245887
_cell_angle_gamma 90.000000
_cell_volume 3080.802502
_symmetry_space_group_name_H-M "C 2/C"
_symmetry_group_IT_number 15
_symmetry_cell_setting 'monoclinic'
loop_
_space_group_symop_operation_xyz
x,y,z
-x,y,1/2-z
-x,-y,-z
x,-y,1/2+z
1/2+x,1/2+y,z
1/2-x,1/2+y,1/2-z
1/2-x,1/2-y,-z
1/2+x,1/2-y,1/2+z
loop_
_atom_site_type_symbol
_atom_site_label
_atom_site_fract_x
_atom_site_fract_y
_atom_site_fract_z
Si Si1 0.848046 0.419660 0.753329
Si Si2 0.926518 0.565089 0.848825
Si Si3 0.146842 0.250024 0.363940
Si Si4 0.311053 0.510999 0.111879
Si Si5 0.706890 0.515793 0.091539
Si Si6 0.311616 0.328149 0.256606
Si Si7 0.372131 0.015828 0.554151
Si Si8 0.584068 0.302015 0.715064
O O1 0.869063 0.474668 0.838108
O O2 0.761791 0.451738 0.791021
O O3 0.862830 0.283554 0.742298
O O4 0.892570 0.476075 0.644510
O O5 0.900459 0.696904 0.862133
O O6 0.000000 0.549041 0.750000
O O7 0.934909 0.530554 0.949833
O O8 0.138412 0.125072 0.414696
O O9 0.228488 0.285026 0.280221
O O10 0.125609 0.346063 0.450518
O O11 0.089203 0.252270 0.312887
O O12 0.342907 0.404590 0.153825
O O13 0.300711 0.478369 0.012897
O O14 0.685224 0.394448 0.148580
O O15 0.792646 0.540639 0.069207
O O16 0.648974 0.605989 0.166392
O O17 0.500000 0.352708 0.750000
#
# Coordination Sequence:
#
# PCOD8139434 Si02
#       8
#     8   8   8   8   8   8   8   8
#     4  11  21  38  59  91 126 160 202 257 310 371
#     4  11  25  42  60  89 126 165 206 256 317 381
#     4  10  20  39  62  87 126 165 205 253 314 365
#     4  11  20  36  62  95 126 154 204 262 310 366
#     4  11  22  37  64  95 120 164 211 258 316 359
#     4  10  21  36  60  93 130 156 202 268 311 362
#     4  11  22  38  66  92 120 163 210 264 310 363
#     4  11  23  44  63  87 130 169 206 254 313 378
#
# _framework density 20.773807000000001
#
# number of rings (size 3 to 8) (size 9 to 14) (size 15 to 20)
#    0.000    1.250    6.250    0.750    3.500    2.500 
#    0.000    1.250    0.000    0.000    0.000    0.000 
#    0.000    0.000    0.000    0.000    0.000    0.000 
#
# Total GULP energy -396624.719879 kJ/mol
# GULP energy per Si atom -12394.522496 kJ/mol
# Density = 2.072653 g / cm^3
# Si number density = 20.773807 Si / 1000 Ang^3
#
#
#
# Elastic Constant Matrix: (Units=GPa)
#
#
# Indices 1 2 3 4 5 6 
#
# 1 38.8461 9.2756 5.1192 0.0000 -6.0425 0.0000
# 2 9.2756 108.4656 13.3439 0.0000 -13.2705 0.0000
# 3 5.1192 13.3439 96.4129 0.0000 7.2170 0.0000
# 4 0.0000 0.0000 0.0000 25.7682 0.0000 3.3585
# 5 -6.0425 -13.2705 7.2170 0.0000 21.5153 0.0000
# 6 0.0000 0.0000 0.0000 3.3585 0.0000 20.1836
#
#
#
# Elastic Compliance Matrix: (Units=1/GPa)
#
#
# Indices 1 2 3 4 5 6 
#
# 1 0.027454 -0.001189 -0.001862 0.000000 0.007602 0.000000
# 2 -0.001189 0.010370 -0.001873 0.000000 0.006691 0.000000
# 3 -0.001862 -0.001873 0.011135 0.000000 -0.005413 0.000000
# 4 0.000000 0.000000 0.000000 0.039668 0.000000 -0.006601
# 5 0.007602 0.006691 -0.005413 0.000000 0.054556 0.000000
# 6 0.000000 0.000000 0.000000 -0.006601 0.000000 0.050643
#
#
# Mechanical properties :
#
#
# Convention : Reuss Voigt Hill
#
# Bulk Modulus (GPa) = 25.56751 33.24466 29.40609
# Shear Modulus (GPa) = 23.07206 27.89249 25.48227
#
# Velocity S-wave (km/s) = 3.33623 3.66823 3.50616
# Velocity P-wave (km/s) = 5.21295 5.82916 5.52965
#
# Compressibility (1/GPa) = 0.03911214
#
# Stress axis : x y z
#
# Youngs Moduli (GPa) = 36.42415 96.43034 89.80368
#
# Poissons Ratio (x) = 0.11462 0.16724
# Poissons Ratio (y) = 0.04329 0.16820
# Poissons Ratio (z) = 0.06783 0.18061
#
# Static dielectric constant tensor:
#      x y z
#    x 3.519880 0.000000 0.198050 
#    y 0.000000 4.240130 0.000000 
#    z 0.198050 0.000000 3.607690 
# 
# 
# High freq. dielectric constant tensor:
#      x y z
#    x 1.781470 0.000000 0.022630 
#    y 0.000000 1.823500 0.000000 
#    z 0.022630 0.000000 1.806110 
# 
# From -- ./inp_files/167634.got.cif
#   From: 2010.06.25/outbox.cif.g09.slc.cpg/sg15_84_cif.got.tgz:167634.got - 2010.06.28 07:06:18.
