data_PCOD8139580
_publ_section_title
;
Structure prediction by ZEFSAII (Michael W. Deem and Ramdas Pophale) SiO2 
 PCOD8139580
Probable space group: C 2/C
;
_chemical_formula_sum "Si O2"
_cell_formula_units_Z 48
_cell_length_a 21.751436
_cell_length_b 8.229389
_cell_length_c 27.879911
_cell_angle_alpha 90.000000
_cell_angle_beta 28.399125
_cell_angle_gamma 90.000000
_cell_volume 2373.551143
_symmetry_space_group_name_H-M "C 2/C"
_symmetry_group_IT_number 15
_symmetry_cell_setting 'monoclinic'
loop_
_space_group_symop_operation_xyz
x,y,z
-x,y,1/2-z
-x,-y,-z
x,-y,1/2+z
1/2+x,1/2+y,z
1/2-x,1/2+y,1/2-z
1/2-x,1/2-y,-z
1/2+x,1/2-y,1/2+z
loop_
_atom_site_type_symbol
_atom_site_label
_atom_site_fract_x
_atom_site_fract_y
_atom_site_fract_z
Si Si1 0.324419 0.244438 0.509536
Si Si2 0.632583 0.151960 0.713239
Si Si3 0.099178 0.995307 0.974875
Si Si4 0.557992 0.314313 0.597890
Si Si5 0.289140 0.594476 0.421063
Si Si6 0.562696 0.858033 0.661931
O O1 0.389995 0.310220 0.513124
O O2 0.436152 0.224359 0.391795
O O3 0.217537 0.382179 0.566496
O O4 0.244693 0.081927 0.577375
O O5 0.763475 0.060627 0.637828
O O6 0.586948 0.255604 0.790482
O O7 0.650714 0.276940 0.657059
O O8 0.518077 0.024825 0.780713
O O9 0.046979 0.103150 0.054191
O O10 0.000000 0.000000 0.000000
O O11 0.610157 0.433347 0.604293
O O12 0.652118 0.158853 0.534180
O O13 0.500000 0.753981 0.750000
#
# Coordination Sequence:
#
# PCOD8139580 Si02
#       6
#     8   8   8   8   8   8
#     4  11  23  38  64 101 133 163 214 272 323 385
#     4  11  22  42  66  93 135 173 210 261 334 392
#     4  11  26  47  63  88 135 180 221 267 309 375
#     4  10  20  39  64  93 127 170 208 260 333 386
#     4  10  21  34  66 103 127 157 207 270 334 392
#     4  11  20  36  66  99 133 162 196 278 344 380
#
# _framework density 20.222863
#
# number of rings (size 3 to 8) (size 9 to 14) (size 15 to 20)
#    0.000    1.333    3.333    3.500    4.667    2.667 
#    3.000    3.333    0.000    0.000    0.000    0.000 
#    0.000    0.000    0.000    0.000    0.000    0.000 
#
# Total GULP energy -297344.032363 kJ/mol
# GULP energy per Si atom -12389.334682 kJ/mol
# Density = 2.017684 g / cm^3
# Si number density = 20.222863 Si / 1000 Ang^3
#
#
#
# Elastic Constant Matrix: (Units=GPa)
#
#
# Indices 1 2 3 4 5 6 
#
# 1 147.2486 68.1143 56.0179 -0.0025 0.7311 -0.0037
# 2 68.1143 109.0271 60.6970 0.0063 -5.0502 -0.0144
# 3 56.0179 60.6970 164.8017 -0.0046 15.0240 -0.0011
# 4 -0.0025 0.0063 -0.0046 30.0146 -0.0027 2.8170
# 5 0.7311 -5.0502 15.0240 -0.0027 15.6486 0.0019
# 6 -0.0037 -0.0144 -0.0011 2.8170 0.0019 24.7256
#
#
#
# Elastic Compliance Matrix: (Units=1/GPa)
#
#
# Indices 1 2 3 4 5 6 
#
# 1 0.009800 -0.005500 -0.001208 0.000002 -0.001073 -0.000002
# 2 -0.005500 0.015773 -0.004852 -0.000004 0.010005 0.000008
# 3 -0.001208 -0.004852 0.009209 0.000002 -0.010351 -0.000002
# 4 0.000002 -0.000004 0.000002 0.033677 0.000003 -0.003837
# 5 -0.001073 0.010005 -0.010351 0.000003 0.077120 -0.000001
# 6 -0.000002 0.000008 -0.000002 -0.003837 -0.000001 0.040881
#
#
# Mechanical properties :
#
#
# Convention : Reuss Voigt Hill
#
# Bulk Modulus (GPa) = 85.74176 87.85954 86.80065
# Shear Modulus (GPa) = 23.42289 29.82766 26.62527
#
# Velocity S-wave (km/s) = 3.40698 3.84467 3.63242
# Velocity P-wave (km/s) = 7.61362 7.95290 7.78511
#
# Compressibility (1/GPa) = 0.01166293
#
# Stress axis : x y z
#
# Youngs Moduli (GPa) = 102.03865 63.40098 108.59053
#
# Poissons Ratio (x) = 0.34871 0.13114
# Poissons Ratio (y) = 0.56122 0.52685
# Poissons Ratio (z) = 0.12323 0.30760
#
# Static dielectric constant tensor:
#      x y z
#    x 3.188320 0.000070 0.243630 
#    y 0.000070 3.719010 0.000040 
#    z 0.243630 0.000040 4.225690 
# 
# 
# High freq. dielectric constant tensor:
#      x y z
#    x 1.733060 0.000000 0.022080 
#    y 0.000000 1.793770 0.000000 
#    z 0.022080 0.000000 1.814240 
# 
# From -- ./inp_files/300455.got.cif
#   From: 2010.06.25/outbox.cif.g09.slc.cpg/sg15_151_cif.got.tgz:300455.got - 2010.06.28 07:06:18.
