data_PCOD8139920
_publ_section_title
;
Structure prediction by ZEFSAII (Michael W. Deem and Ramdas Pophale) SiO2 
 PCOD8139920
Probable space group: C 2/C
;
_chemical_formula_sum "Si O2"
_cell_formula_units_Z 56
_cell_length_a 13.386139
_cell_length_b 8.600981
_cell_length_c 28.218143
_cell_angle_alpha 90.000000
_cell_angle_beta 52.886674
_cell_angle_gamma 90.000000
_cell_volume 2590.787135
_symmetry_space_group_name_H-M "C 2/C"
_symmetry_group_IT_number 15
_symmetry_cell_setting 'monoclinic'
loop_
_space_group_symop_operation_xyz
x,y,z
-x,y,1/2-z
-x,-y,-z
x,-y,1/2+z
1/2+x,1/2+y,z
1/2-x,1/2+y,1/2-z
1/2-x,1/2-y,-z
1/2+x,1/2-y,1/2+z
loop_
_atom_site_type_symbol
_atom_site_label
_atom_site_fract_x
_atom_site_fract_y
_atom_site_fract_z
Si Si1 0.921458 0.810432 0.598951
Si Si2 0.256356 0.418696 0.187004
Si Si3 0.574926 0.711756 0.187213
Si Si4 0.640924 0.514294 0.087629
Si Si5 0.403142 0.079723 0.680246
Si Si6 0.907017 0.630961 0.509052
Si Si7 0.988769 0.275147 0.620233
O O1 0.876379 0.646091 0.635264
O O2 0.905665 0.772167 0.547640
O O3 0.062857 0.877212 0.571837
O O4 0.820576 0.938187 0.642674
O O5 0.136211 0.367168 0.191260
O O6 0.216581 0.462926 0.252517
O O7 0.342135 0.265592 0.161162
O O8 0.500000 0.617860 0.250000
O O9 0.666381 0.603903 0.130055
O O10 0.469147 0.768829 0.181924
O O11 0.775731 0.452409 0.031967
O O12 0.559659 0.364623 0.125948
O O13 0.496984 0.933327 0.648106
O O14 0.000000 0.500000 0.500000
O O15 0.955734 0.711589 0.447919
#
# Coordination Sequence:
#
# PCOD8139920 Si02
#       7
#     8   8   8   8   8   8   8
#     4  10  23  42  64  95 125 170 212 259 329 381
#     4  10  21  39  65  92 125 165 208 259 321 382
#     4   9  20  40  61  91 127 164 209 262 320 381
#     4  10  24  43  61  94 128 169 211 266 322 378
#     4  10  20  40  63  92 128 160 208 262 321 380
#     4  12  24  43  65  93 126 166 221 262 321 388
#     4  11  23  41  62  94 125 164 210 263 317 382
#
# _framework density 21.615051999999999
#
# number of rings (size 3 to 8) (size 9 to 14) (size 15 to 20)
#    0.000    1.714    1.429    2.143    2.000    4.000 
#    5.143    0.000    0.000    0.000    0.000    0.000 
#    0.000    0.000    0.000    0.000    0.000    0.000 
#
# Total GULP energy -346920.604613 kJ/mol
# GULP energy per Si atom -12390.021593 kJ/mol
# Density = 2.156586 g / cm^3
# Si number density = 21.615052 Si / 1000 Ang^3
#
#
#
# Elastic Constant Matrix: (Units=GPa)
#
#
# Indices 1 2 3 4 5 6 
#
# 1 62.7329 16.4236 40.3555 0.0000 -7.9185 0.0000
# 2 16.4236 93.1311 46.2999 0.0000 7.2360 0.0001
# 3 40.3555 46.2999 143.2042 0.0000 5.1731 0.0000
# 4 0.0000 0.0000 0.0000 45.7092 0.0000 -4.0148
# 5 -7.9185 7.2360 5.1731 0.0000 28.6436 0.0000
# 6 0.0000 0.0001 0.0000 -4.0148 0.0000 25.9826
#
#
#
# Elastic Compliance Matrix: (Units=1/GPa)
#
#
# Indices 1 2 3 4 5 6 
#
# 1 0.020869 -0.001410 -0.005683 0.000000 0.007152 0.000000
# 2 -0.001410 0.013070 -0.003719 0.000000 -0.003020 0.000000
# 3 -0.005683 -0.003719 0.009874 0.000000 -0.002415 0.000000
# 4 0.000000 0.000000 0.000000 0.022178 0.000000 0.003427
# 5 0.007152 -0.003020 -0.002415 0.000000 0.038088 0.000000
# 6 0.000000 0.000000 0.000000 0.003427 0.000000 0.039017
#
#
# Mechanical properties :
#
#
# Convention : Reuss Voigt Hill
#
# Bulk Modulus (GPa) = 45.07101 56.13624 50.60363
# Shear Modulus (GPa) = 29.04998 33.13301 31.09150
#
# Velocity S-wave (km/s) = 3.67000 3.91943 3.79676
# Velocity P-wave (km/s) = 6.23341 6.81982 6.53320
#
# Compressibility (1/GPa) = 0.02218721
#
# Stress axis : x y z
#
# Youngs Moduli (GPa) = 47.91906 76.51183 101.27345
#
# Poissons Ratio (x) = 0.10791 0.57555
# Poissons Ratio (y) = 0.06759 0.37665
# Poissons Ratio (z) = 0.27233 0.28456
#
# Static dielectric constant tensor:
#      x y z
#    x 3.912170 0.000000 0.028320 
#    y 0.000000 3.882830 0.000000 
#    z 0.028320 0.000000 4.198020 
# 
# 
# High freq. dielectric constant tensor:
#      x y z
#    x 1.834030 0.000000 0.000020 
#    y 0.000000 1.853850 0.000000 
#    z 0.000020 0.000000 1.858980 
# 
# From -- ./inp_files/312845.got.cif
#   From: 2010.06.25/outbox.cif.g09.slc.cpg/sg15_157_cif.got.tgz:312845.got - 2010.06.28 07:06:18.
