data_PCOD8139997
_publ_section_title
;
Structure prediction by ZEFSAII (Michael W. Deem and Ramdas Pophale) SiO2 
 PCOD8139997
Probable space group: C 2/C
;
_chemical_formula_sum "Si O2"
_cell_formula_units_Z 44
_cell_length_a 18.483914
_cell_length_b 6.501627
_cell_length_c 18.158614
_cell_angle_alpha 90.000000
_cell_angle_beta 115.157753
_cell_angle_gamma 90.000000
_cell_volume 1975.216961
_symmetry_space_group_name_H-M "C 2/C"
_symmetry_group_IT_number 15
_symmetry_cell_setting 'monoclinic'
loop_
_space_group_symop_operation_xyz
x,y,z
-x,y,1/2-z
-x,-y,-z
x,-y,1/2+z
1/2+x,1/2+y,z
1/2-x,1/2+y,1/2-z
1/2-x,1/2-y,-z
1/2+x,1/2-y,1/2+z
loop_
_atom_site_type_symbol
_atom_site_label
_atom_site_fract_x
_atom_site_fract_y
_atom_site_fract_z
Si Si1 0.000000 0.823478 0.750000
Si Si2 0.885007 0.878615 0.128035
Si Si3 0.456206 0.699459 0.510649
Si Si4 0.751485 0.193979 0.085362
Si Si5 0.106488 0.455142 0.609373
Si Si6 0.364861 0.985659 0.217451
O O1 0.065491 0.680372 0.740272
O O2 0.040455 0.967951 0.828372
O O3 0.886911 0.838903 0.041323
O O4 0.894897 0.671877 0.179515
O O5 0.802902 0.986244 0.117675
O O6 0.500000 0.500000 0.500000
O O7 0.521902 0.841458 0.578912
O O8 0.411717 0.811578 0.423768
O O9 0.661478 0.156730 0.072689
O O10 0.787369 0.383277 0.147393
O O11 0.750000 0.250000 0.000000
O O12 0.153765 0.441915 0.707407
#
# Coordination Sequence:
#
# PCOD8139997 Si02
#       6
#     4   8   8   8   8   8
#     4  10  20  40  64  96 128 162 220 274 326 388
#     4  11  23  41  68  94 128 180 218 267 346 399
#     4  11  23  42  69  95 130 173 222 281 335 404
#     4  11  26  45  63  95 136 176 221 278 336 405
#     4  11  25  42  64  99 131 170 226 276 337 395
#     4  11  24  41  66  95 134 168 222 278 327 406
#
# _framework density 22.276033000000002
#
# number of rings (size 3 to 8) (size 9 to 14) (size 15 to 20)
#    0.000    1.091    0.000    6.000    2.545   11.636 
#    0.000    0.000    0.000    0.000    0.000    0.000 
#    0.000    0.000    0.000    0.000    0.000    0.000 
#
# Total GULP energy -272899.058167 kJ/mol
# GULP energy per Si atom -12404.502644 kJ/mol
# Density = 2.222533 g / cm^3
# Si number density = 22.276033 Si / 1000 Ang^3
#
#
#
# Elastic Constant Matrix: (Units=GPa)
#
#
# Indices 1 2 3 4 5 6 
#
# 1 72.5424 15.6191 12.6033 0.0000 -9.1533 0.0000
# 2 15.6191 115.1935 36.3404 0.0000 -7.6972 0.0000
# 3 12.6033 36.3404 132.7136 0.0000 -17.4931 0.0000
# 4 0.0000 0.0000 0.0000 32.5245 0.0000 -3.3307
# 5 -9.1533 -7.6972 -17.4931 0.0000 41.6994 0.0000
# 6 0.0000 0.0000 0.0000 -3.3307 0.0000 26.5626
#
#
#
# Elastic Compliance Matrix: (Units=1/GPa)
#
#
# Indices 1 2 3 4 5 6 
#
# 1 0.014570 -0.001611 -0.000593 0.000000 0.002652 0.000000
# 2 -0.001611 0.009699 -0.002449 0.000000 0.000409 0.000000
# 3 -0.000593 -0.002449 0.008664 0.000000 0.003053 0.000000
# 4 0.000000 0.000000 0.000000 0.031146 0.000000 0.003905
# 5 0.002652 0.000409 0.003053 0.000000 0.025919 0.000000
# 6 0.000000 0.000000 0.000000 0.003905 0.000000 0.038137
#
#
# Mechanical properties :
#
#
# Convention : Reuss Voigt Hill
#
# Bulk Modulus (GPa) = 42.32424 49.95278 46.13851
# Shear Modulus (GPa) = 34.40750 37.21642 35.81196
#
# Velocity S-wave (km/s) = 3.93440 4.09185 4.01390
# Velocity P-wave (km/s) = 6.29924 6.69309 6.49915
#
# Compressibility (1/GPa) = 0.02362713
#
# Stress axis : x y z
#
# Youngs Moduli (GPa) = 68.63613 103.09848 115.41643
#
# Poissons Ratio (x) = 0.16612 0.06842
# Poissons Ratio (y) = 0.11059 0.28265
# Poissons Ratio (z) = 0.04069 0.25249
#
# Static dielectric constant tensor:
#      x y z
#    x 3.917880 0.000000 0.061610 
#    y 0.000000 4.259390 0.000000 
#    z 0.061610 0.000000 3.938060 
# 
# 
# High freq. dielectric constant tensor:
#      x y z
#    x 1.872770 0.000000 -0.002160 
#    y 0.000000 1.889920 0.000000 
#    z -0.002160 0.000000 1.880890 
# 
# From -- ./inp_files/217605.got.cif
#   From: 2010.06.25/outbox.cif.g09.slc.cpg/sg15_109_cif.got.tgz:217605.got - 2010.06.28 07:06:18.
