data_PCOD8139991
_publ_section_title
;
Structure prediction by ZEFSAII (Michael W. Deem and Ramdas Pophale) SiO2 
 PCOD8139991
Probable space group: C 2/C
;
_chemical_formula_sum "Si O2"
_cell_formula_units_Z 52
_cell_length_a 17.117237
_cell_length_b 9.000990
_cell_length_c 20.234799
_cell_angle_alpha 90.000000
_cell_angle_beta 51.782666
_cell_angle_gamma 90.000000
_cell_volume 2449.417855
_symmetry_space_group_name_H-M "C 2/C"
_symmetry_group_IT_number 15
_symmetry_cell_setting 'monoclinic'
loop_
_space_group_symop_operation_xyz
x,y,z
-x,y,1/2-z
-x,-y,-z
x,-y,1/2+z
1/2+x,1/2+y,z
1/2-x,1/2+y,1/2-z
1/2-x,1/2-y,-z
1/2+x,1/2-y,1/2+z
loop_
_atom_site_type_symbol
_atom_site_label
_atom_site_fract_x
_atom_site_fract_y
_atom_site_fract_z
Si Si1 0.200740 0.337639 0.693847
Si Si2 0.500000 0.929328 0.750000
Si Si3 0.365179 0.478741 0.545030
Si Si4 0.227706 0.985659 0.222526
Si Si5 0.719560 0.797680 0.919057
Si Si6 0.526943 0.573590 0.378713
Si Si7 0.402480 0.168683 0.891908
O O1 0.261912 0.385982 0.595283
O O2 0.246728 0.187174 0.698976
O O3 0.221227 0.470945 0.735085
O O4 0.084306 0.324621 0.738290
O O5 0.449378 0.024883 0.833937
O O6 0.342605 0.653105 0.570851
O O7 0.428239 0.469762 0.443186
O O8 0.426766 0.404679 0.572617
O O9 0.279670 0.083251 0.139441
O O10 0.107831 0.003977 0.287231
O O11 0.833129 0.755699 0.876238
O O12 0.666074 0.875760 0.009698
O O13 0.495123 0.730209 0.364950
#
# Coordination Sequence:
#
# PCOD8139991 Si02
#       7
#     8   4   8   8   8   8   8
#     4  11  25  40  66  89 131 162 213 258 325 357
#     4  12  24  42  60  94 128 164 204 276 304 382
#     4   9  18  38  59  90 124 163 201 257 302 372
#     4  11  23  42  64  94 122 170 211 261 306 386
#     4  10  20  40  64  95 128 163 210 259 312 376
#     4   9  19  33  64  89 120 160 211 242 308 368
#     4  10  21  36  67  95 125 168 207 255 319 371
#
# _framework density 21.229536
#
# number of rings (size 3 to 8) (size 9 to 14) (size 15 to 20)
#    0.000    1.846    1.538    2.769    4.308    1.231 
#    2.769    1.538    0.000    0.000    0.000    0.000 
#    0.000    0.000    0.000    0.000    0.000    0.000 
#
# Total GULP energy -322275.433357 kJ/mol
# GULP energy per Si atom -12395.208975 kJ/mol
# Density = 2.118122 g / cm^3
# Si number density = 21.229536 Si / 1000 Ang^3
#
#
#
# Elastic Constant Matrix: (Units=GPa)
#
#
# Indices 1 2 3 4 5 6 
#
# 1 95.5248 27.5597 13.1469 0.0000 -12.9169 0.0001
# 2 27.5597 76.2279 20.1031 0.0000 -5.1051 0.0001
# 3 13.1469 20.1031 96.5650 0.0000 -16.0666 0.0000
# 4 0.0000 0.0000 0.0000 25.6883 0.0000 -1.3967
# 5 -12.9169 -5.1051 -16.0666 0.0000 28.9582 0.0000
# 6 0.0001 0.0001 0.0000 -1.3967 0.0000 31.3251
#
#
#
# Elastic Compliance Matrix: (Units=1/GPa)
#
#
# Indices 1 2 3 4 5 6 
#
# 1 0.012304 -0.004123 -0.000027 0.000000 0.004746 0.000000
# 2 -0.004123 0.015285 -0.002730 0.000000 -0.000659 0.000000
# 3 -0.000027 -0.002730 0.011949 0.000000 0.006136 0.000000
# 4 0.000000 0.000000 0.000000 0.039023 0.000000 0.001740
# 5 0.004746 -0.000659 0.006136 0.000000 0.039938 0.000000
# 6 0.000000 0.000000 0.000000 0.001740 0.000000 0.032001
#
#
# Mechanical properties :
#
#
# Convention : Reuss Voigt Hill
#
# Bulk Modulus (GPa) = 38.79578 43.32634 41.06106
# Shear Modulus (GPa) = 28.92641 31.02820 29.97730
#
# Velocity S-wave (km/s) = 3.69528 3.82718 3.76181
# Velocity P-wave (km/s) = 6.04326 6.32318 6.18480
#
# Compressibility (1/GPa) = 0.02577600
#
# Stress axis : x y z
#
# Youngs Moduli (GPa) = 81.27715 65.42263 83.69087
#
# Poissons Ratio (x) = 0.26976 0.00226
# Poissons Ratio (y) = 0.33513 0.22851
# Poissons Ratio (z) = 0.00220 0.17863
#
# Static dielectric constant tensor:
#      x y z
#    x 3.836000 0.000000 -0.317630 
#    y 0.000000 3.439180 0.000000 
#    z -0.317630 0.000000 4.295040 
# 
# 
# High freq. dielectric constant tensor:
#      x y z
#    x 1.824600 0.000000 -0.020180 
#    y 0.000000 1.801460 0.000000 
#    z -0.020180 0.000000 1.849160 
# 
# From -- ./inp_files/209177.got.cif
#   From: 2010.06.25/outbox.cif.g09.slc.cpg/sg15_105_cif.got.tgz:209177.got - 2010.06.28 07:06:18.
