data_PCOD8139026
_publ_section_title
;
Structure prediction by ZEFSAII (Michael W. Deem and Ramdas Pophale) SiO2 
 PCOD8139026
Probable space group: C 2/C
;
_chemical_formula_sum "Si O2"
_cell_formula_units_Z 52
_cell_length_a 18.564142
_cell_length_b 15.524887
_cell_length_c 10.425161
_cell_angle_alpha 90.000000
_cell_angle_beta 119.196825
_cell_angle_gamma 90.000000
_cell_volume 2622.859498
_symmetry_space_group_name_H-M "C 2/C"
_symmetry_group_IT_number 15
_symmetry_cell_setting 'monoclinic'
loop_
_space_group_symop_operation_xyz
x,y,z
-x,y,1/2-z
-x,-y,-z
x,-y,1/2+z
1/2+x,1/2+y,z
1/2-x,1/2+y,1/2-z
1/2-x,1/2-y,-z
1/2+x,1/2-y,1/2+z
loop_
_atom_site_type_symbol
_atom_site_label
_atom_site_fract_x
_atom_site_fract_y
_atom_site_fract_z
Si Si1 0.348007 0.040212 0.576769
Si Si2 0.700363 0.074259 0.682964
Si Si3 0.500000 0.149933 0.750000
Si Si4 0.875540 0.942807 0.431309
Si Si5 0.035769 0.889483 0.421619
Si Si6 0.293823 0.662516 0.078854
Si Si7 0.107069 0.253852 0.138148
O O1 0.332237 0.025750 0.715523
O O2 0.433311 0.088200 0.626729
O O3 0.276998 0.095843 0.448742
O O4 0.345762 0.954668 0.487711
O O5 0.799441 0.059609 0.762729
O O6 0.676498 0.174884 0.668543
O O7 0.463810 0.207374 0.832685
O O8 0.852842 0.875472 0.521662
O O9 0.960391 0.908612 0.449479
O O10 0.891545 0.039218 0.499734
O O11 0.069466 0.792695 0.480223
O O12 0.000000 0.890965 0.250000
O O13 0.349347 0.675201 0.251159
O O14 0.250000 0.750000 0.000000
#
# Coordination Sequence:
#
# PCOD8139026 Si02
#       7
#     8   8   4   8   8   8   8
#     4  10  22  37  63  91 120 160 214 256 320 368
#     4  10  22  42  63  91 122 166 213 261 306 387
#     4  10  20  38  64  88 116 164 218 258 302 378
#     4  10  23  41  66  87 127 164 213 252 317 378
#     4  11  26  40  58  98 131 166 198 262 329 378
#     4  11  19  40  68  91 115 163 220 259 292 383
#     4  11  22  39  62  91 124 160 215 256 315 369
#
# _framework density 19.825690000000002
#
# number of rings (size 3 to 8) (size 9 to 14) (size 15 to 20)
#    0.000    1.538    4.615    1.846    8.615    2.462 
#    4.154    0.769    0.000    0.000    0.000    0.000 
#    0.000    0.000    0.000    0.000    0.000    0.000 
#
# Total GULP energy -322267.750744 kJ/mol
# GULP energy per Si atom -12394.913490 kJ/mol
# Density = 1.978057 g / cm^3
# Si number density = 19.825690 Si / 1000 Ang^3
#
#
#
# Elastic Constant Matrix: (Units=GPa)
#
#
# Indices 1 2 3 4 5 6 
#
# 1 81.4753 40.0106 30.5516 0.0000 18.8567 0.0000
# 2 40.0106 93.5415 52.3057 0.0000 -2.7777 0.0000
# 3 30.5516 52.3057 97.0329 0.0000 5.1269 0.0000
# 4 0.0000 0.0000 0.0000 48.0662 0.0000 -0.2875
# 5 18.8567 -2.7777 5.1269 0.0000 20.6824 0.0000
# 6 0.0000 0.0000 0.0000 -0.2875 0.0000 37.3627
#
#
#
# Elastic Compliance Matrix: (Units=1/GPa)
#
#
# Indices 1 2 3 4 5 6 
#
# 1 0.022315 -0.009865 -0.000571 0.000000 -0.021528 0.000000
# 2 -0.009865 0.020025 -0.008416 0.000000 0.013769 0.000000
# 3 -0.000571 -0.008416 0.015254 0.000000 -0.004391 0.000000
# 4 0.000000 0.000000 0.000000 0.020806 0.000000 0.000160
# 5 -0.021528 0.013769 -0.004391 0.000000 0.070916 0.000000
# 6 0.000000 0.000000 0.000000 0.000160 0.000000 0.026766
#
#
# Mechanical properties :
#
#
# Convention : Reuss Voigt Hill
#
# Bulk Modulus (GPa) = 50.27533 57.53172 53.90352
# Shear Modulus (GPa) = 22.68460 31.16771 26.92616
#
# Velocity S-wave (km/s) = 3.38628 3.96926 3.68930
# Velocity P-wave (km/s) = 6.37988 7.07732 6.73763
#
# Compressibility (1/GPa) = 0.01989047
#
# Stress axis : x y z
#
# Youngs Moduli (GPa) = 44.81385 49.93839 65.55599
#
# Poissons Ratio (x) = 0.49263 0.03742
# Poissons Ratio (y) = 0.44207 0.55171
# Poissons Ratio (z) = 0.02558 0.42028
#
# Static dielectric constant tensor:
#      x y z
#    x 3.737760 0.000000 0.229300 
#    y 0.000000 3.934150 0.000000 
#    z 0.229300 0.000000 3.677650 
# 
# 
# High freq. dielectric constant tensor:
#      x y z
#    x 1.771840 0.000000 0.017400 
#    y 0.000000 1.771080 0.000000 
#    z 0.017400 0.000000 1.774450 
# 
# From -- ./inp_files/105480.got.cif
#   From: 2010.06.25/outbox.cif.g09.slc.cpg/sg15_53_cif.got.tgz:105480.got - 2010.06.28 07:06:18.
