data_PCOD8139914
_publ_section_title
;
Structure prediction by ZEFSAII (Michael W. Deem and Ramdas Pophale) SiO2 
 PCOD8139914
Probable space group: C 2/C
;
_chemical_formula_sum "Si O2"
_cell_formula_units_Z 48
_cell_length_a 23.626209
_cell_length_b 7.470046
_cell_length_c 23.969637
_cell_angle_alpha 90.000000
_cell_angle_beta 146.536674
_cell_angle_gamma 90.000000
_cell_volume 2332.641465
_symmetry_space_group_name_H-M "C 2/C"
_symmetry_group_IT_number 15
_symmetry_cell_setting 'monoclinic'
loop_
_space_group_symop_operation_xyz
x,y,z
-x,y,1/2-z
-x,-y,-z
x,-y,1/2+z
1/2+x,1/2+y,z
1/2-x,1/2+y,1/2-z
1/2-x,1/2-y,-z
1/2+x,1/2-y,1/2+z
loop_
_atom_site_type_symbol
_atom_site_label
_atom_site_fract_x
_atom_site_fract_y
_atom_site_fract_z
Si Si1 0.317619 0.014810 0.862334
Si Si2 0.374595 0.632741 0.353091
Si Si3 0.106611 0.851457 0.037289
Si Si4 0.115934 0.401226 0.853985
Si Si5 0.772661 0.727641 0.582962
Si Si6 0.767318 0.392092 0.436819
O O1 0.353666 0.154870 0.845032
O O2 0.324393 0.130778 0.924980
O O3 0.202651 0.943175 0.756659
O O4 0.388795 0.837461 0.924878
O O5 0.357413 0.515829 0.394715
O O6 0.489081 0.613820 0.422911
O O7 0.175362 0.848011 0.037888
O O8 0.132028 0.590490 0.835192
O O9 0.189855 0.265886 0.883499
O O10 0.000000 0.338787 0.750000
O O11 0.145871 0.408600 0.943828
O O12 0.750000 0.750000 0.500000
O O13 0.799937 0.925840 0.626155
#
# Coordination Sequence:
#
# PCOD8139914 Si02
#       6
#     8   8   8   8   8   8
#     4  11  21  42  60  91 127 160 210 255 308 366
#     4  11  22  39  64  89 126 168 204 257 312 368
#     4  10  22  41  61  90 123 166 210 253 311 369
#     4  10  20  40  63  90 119 161 202 246 316 368
#     4   9  19  40  61  83 123 154 199 257 299 361
#     4   9  21  40  57  87 127 153 200 261 296 366
#
# _framework density 20.577529999999999
#
# number of rings (size 3 to 8) (size 9 to 14) (size 15 to 20)
#    0.000    2.000    1.667    1.500    0.000    0.667 
#   33.000    0.000    0.000    0.000    0.000    0.000 
#    0.000    0.000    0.000    0.000    0.000    0.000 
#
# Total GULP energy -297420.579941 kJ/mol
# GULP energy per Si atom -12392.524164 kJ/mol
# Density = 2.053069 g / cm^3
# Si number density = 20.577530 Si / 1000 Ang^3
#
#
#
# Elastic Constant Matrix: (Units=GPa)
#
#
# Indices 1 2 3 4 5 6 
#
# 1 61.3517 12.8212 7.9945 0.0001 -8.3948 0.0001
# 2 12.8212 80.1654 26.3481 0.0001 -6.7907 0.0000
# 3 7.9945 26.3481 88.9898 0.0001 -0.2838 0.0000
# 4 0.0001 0.0001 0.0001 24.8382 0.0000 -8.7322
# 5 -8.3948 -6.7907 -0.2838 0.0000 10.4885 0.0000
# 6 0.0001 0.0000 0.0000 -8.7322 0.0000 18.6752
#
#
#
# Elastic Compliance Matrix: (Units=1/GPa)
#
#
# Indices 1 2 3 4 5 6 
#
# 1 0.018666 -0.001399 -0.001218 0.000000 0.014001 0.000000
# 2 -0.001399 0.014794 -0.004228 0.000000 0.008344 0.000000
# 3 -0.001218 -0.004228 0.012588 0.000000 -0.003372 0.000000
# 4 0.000000 0.000000 0.000000 0.048181 0.000000 0.022528
# 5 0.014001 0.008344 -0.003372 0.000000 0.111860 0.000000
# 6 0.000000 0.000000 0.000000 0.022528 0.000000 0.064081
#
#
# Mechanical properties :
#
#
# Convention : Reuss Voigt Hill
#
# Bulk Modulus (GPa) = 30.90392 36.09274 33.49833
# Shear Modulus (GPa) = 16.96949 23.02325 19.99637
#
# Velocity S-wave (km/s) = 2.87481 3.34856 3.12068
# Velocity P-wave (km/s) = 5.10590 5.70337 5.41288
#
# Compressibility (1/GPa) = 0.03235836
#
# Stress axis : x y z
#
# Youngs Moduli (GPa) = 53.57228 67.59300 79.44233
#
# Poissons Ratio (x) = 0.09456 0.09676
# Poissons Ratio (y) = 0.07495 0.33589
# Poissons Ratio (z) = 0.06525 0.28579
#
# Static dielectric constant tensor:
#      x y z
#    x 3.986950 0.000000 -0.228450 
#    y 0.000000 4.502920 0.000000 
#    z -0.228450 0.000000 3.583400 
# 
# 
# High freq. dielectric constant tensor:
#      x y z
#    x 1.799440 0.000000 -0.007200 
#    y 0.000000 1.827960 0.000000 
#    z -0.007200 0.000000 1.780730 
# 
# From -- ./inp_files/301915.got.cif
#   From: 2010.06.25/outbox.cif.g09.slc.cpg/sg15_151_cif.got.tgz:301915.got - 2010.06.28 07:06:18.
