data_PCOD8139724
_publ_section_title
;
Structure prediction by ZEFSAII (Michael W. Deem and Ramdas Pophale) SiO2 
 PCOD8139724
Probable space group: C 2/C
;
_chemical_formula_sum "Si O2"
_cell_formula_units_Z 52
_cell_length_a 15.401609
_cell_length_b 11.168000
_cell_length_c 18.113504
_cell_angle_alpha 90.000000
_cell_angle_beta 54.496077
_cell_angle_gamma 90.000000
_cell_volume 2536.347713
_symmetry_space_group_name_H-M "C 2/C"
_symmetry_group_IT_number 15
_symmetry_cell_setting 'monoclinic'
loop_
_space_group_symop_operation_xyz
x,y,z
-x,y,1/2-z
-x,-y,-z
x,-y,1/2+z
1/2+x,1/2+y,z
1/2-x,1/2+y,1/2-z
1/2-x,1/2-y,-z
1/2+x,1/2-y,1/2+z
loop_
_atom_site_type_symbol
_atom_site_label
_atom_site_fract_x
_atom_site_fract_y
_atom_site_fract_z
Si Si1 0.877914 0.289308 0.415004
Si Si2 0.416449 0.304124 0.127060
Si Si3 0.344906 0.656266 0.956191
Si Si4 0.110469 0.431592 0.939955
Si Si5 0.698435 0.587168 0.950759
Si Si6 0.500000 0.348728 0.750000
Si Si7 0.333786 0.450642 0.307301
O O1 0.887170 0.369807 0.482063
O O2 0.818745 0.363844 0.377396
O O3 0.823036 0.161883 0.463034
O O4 0.986144 0.240801 0.326154
O O5 0.544345 0.295065 0.066459
O O6 0.380860 0.167225 0.129743
O O7 0.383509 0.387097 0.074313
O O8 0.359590 0.362008 0.226359
O O9 0.374029 0.616125 0.859932
O O10 0.250000 0.750000 0.000000
O O11 0.304109 0.552020 0.029998
O O12 0.207304 0.523289 0.876596
O O13 0.000000 0.500000 0.000000
O O14 0.600415 0.426314 0.728356
#
# Coordination Sequence:
#
# PCOD8139724 Si02
#       7
#     8   8   8   8   8   4   8
#     4  10  20  39  68  95 126 178 228 276 344 399
#     4  11  24  39  67 105 128 177 236 278 340 409
#     4  12  23  41  68  93 139 187 216 277 352 413
#     4  11  25  44  68  97 141 175 227 291 346 409
#     4  10  20  41  63  94 131 173 232 272 327 418
#     4  12  20  38  70  94 130 178 226 284 330 404
#     4  12  23  44  66  94 139 179 223 283 341 407
#
# _framework density 20.501920999999999
#
# number of rings (size 3 to 8) (size 9 to 14) (size 15 to 20)
#    0.000    0.923    4.615    3.231    0.000    4.923 
#    0.000    0.000    0.000    0.000    0.000    0.000 
#    0.000    0.000    0.000    0.000    0.000    0.000 
#
# Total GULP energy -322115.382842 kJ/mol
# GULP energy per Si atom -12389.053186 kJ/mol
# Density = 2.045526 g / cm^3
# Si number density = 20.501921 Si / 1000 Ang^3
#
#
#
# Elastic Constant Matrix: (Units=GPa)
#
#
# Indices 1 2 3 4 5 6 
#
# 1 136.7076 44.6432 44.8948 0.0000 -7.0074 0.0000
# 2 44.6432 82.1980 38.2307 0.0000 -1.3899 0.0000
# 3 44.8948 38.2307 91.9304 0.0000 -3.7424 0.0000
# 4 0.0000 0.0000 0.0000 41.5606 0.0000 -10.0794
# 5 -7.0074 -1.3899 -3.7424 0.0000 34.9099 0.0000
# 6 0.0000 0.0000 0.0000 -10.0794 0.0000 37.1620
#
#
#
# Elastic Compliance Matrix: (Units=1/GPa)
#
#
# Indices 1 2 3 4 5 6 
#
# 1 0.009632 -0.003777 -0.003074 0.000000 0.001454 0.000000
# 2 -0.003777 0.016564 -0.005070 0.000000 -0.000642 0.000000
# 3 -0.003074 -0.005070 0.014518 0.000000 0.000737 0.000000
# 4 0.000000 0.000000 0.000000 0.025755 0.000000 0.006986
# 5 0.001454 -0.000642 0.000737 0.000000 0.028990 0.000000
# 6 0.000000 0.000000 0.000000 0.006986 0.000000 0.028804
#
#
# Mechanical properties :
#
#
# Convention : Reuss Voigt Hill
#
# Bulk Modulus (GPa) = 59.27100 62.93039 61.10070
# Shear Modulus (GPa) = 32.52438 34.93098 33.72768
#
# Velocity S-wave (km/s) = 3.98729 4.13218 4.06038
# Velocity P-wave (km/s) = 7.08313 7.31629 7.20065
#
# Compressibility (1/GPa) = 0.01687166
#
# Stress axis : x y z
#
# Youngs Moduli (GPa) = 103.81640 60.37008 68.88218
#
# Poissons Ratio (x) = 0.22803 0.21175
# Poissons Ratio (y) = 0.39213 0.34924
# Poissons Ratio (z) = 0.31914 0.30608
#
# Static dielectric constant tensor:
#      x y z
#    x 4.090430 0.000000 -0.176330 
#    y 0.000000 3.563450 0.000000 
#    z -0.176330 0.000000 3.596640 
# 
# 
# High freq. dielectric constant tensor:
#      x y z
#    x 1.815180 0.000000 -0.003730 
#    y 0.000000 1.804990 0.000000 
#    z -0.003730 0.000000 1.791840 
# 
# From -- ./inp_files/203907.got.cif
#   From: 2010.06.25/outbox.cif.g09.slc.cpg/sg15_102_cif.got.tgz:203907.got - 2010.06.28 07:06:18.
