data_PCOD8139400
_publ_section_title
;
Structure prediction by ZEFSAII (Michael W. Deem and Ramdas Pophale) SiO2 
 PCOD8139400
Probable space group: C 2/C
;
_chemical_formula_sum "Si O2"
_cell_formula_units_Z 60
_cell_length_a 14.872169
_cell_length_b 21.377417
_cell_length_c 9.008748
_cell_angle_alpha 90.000000
_cell_angle_beta 99.045747
_cell_angle_gamma 90.000000
_cell_volume 2828.517329
_symmetry_space_group_name_H-M "C 2/C"
_symmetry_group_IT_number 15
_symmetry_cell_setting 'monoclinic'
loop_
_space_group_symop_operation_xyz
x,y,z
-x,y,1/2-z
-x,-y,-z
x,-y,1/2+z
1/2+x,1/2+y,z
1/2-x,1/2+y,1/2-z
1/2-x,1/2-y,-z
1/2+x,1/2-y,1/2+z
loop_
_atom_site_type_symbol
_atom_site_label
_atom_site_fract_x
_atom_site_fract_y
_atom_site_fract_z
Si Si1 0.500000 0.671140 0.250000
Si Si2 0.306045 0.512842 0.946040
Si Si3 0.941446 0.907566 0.011476
Si Si4 0.627247 0.620975 0.705195
Si Si5 0.545966 0.945707 0.104405
Si Si6 0.953361 0.354135 0.888157
Si Si7 0.643974 0.264124 0.003114
Si Si8 0.692280 0.036738 0.188067
O O1 0.553811 0.629007 0.143586
O O2 0.581825 0.710913 0.349179
O O3 0.403264 0.478158 0.985390
O O4 0.299559 0.568749 0.822540
O O5 0.234807 0.461190 0.864416
O O6 0.274308 0.543998 0.091666
O O7 0.878614 0.871256 0.117953
O O8 0.039913 0.911397 0.107932
O O9 0.645267 0.688317 0.640515
O O10 0.500000 0.937156 0.250000
O O11 0.649270 0.967617 0.152788
O O12 0.534694 0.880569 0.013196
O O13 0.500000 0.000000 0.000000
O O14 0.903643 0.298625 0.957304
O O15 0.880321 0.408257 0.839149
O O16 0.000000 0.329873 0.750000
O O17 0.750000 0.250000 0.000000
#
# Coordination Sequence:
#
# PCOD8139400 Si02
#       8
#     4   8   8   8   8   8   8   8
#     4  10  26  46  72  96 138 172 234 284 342 406
#     4  12  22  37  63 100 131 166 214 274 342 401
#     4  10  23  41  67  92 131 172 216 275 342 405
#     4  10  23  44  63  91 132 176 219 274 338 398
#     4  10  20  39  61  89 128 171 212 267 324 389
#     4  11  24  42  68  93 131 185 228 270 343 403
#     4  11  26  47  71  97 136 182 234 287 335 405
#     4  11  22  37  62  97 136 165 218 276 331 395
#
# _framework density 21.212527000000001
#
# number of rings (size 3 to 8) (size 9 to 14) (size 15 to 20)
#    0.000    1.333    1.333    5.200   10.267    1.067 
#    0.000    0.667    0.000    0.000    0.000    0.000 
#    0.000    0.000    0.000    0.000    0.000    0.000 
#
# Total GULP energy -371725.103989 kJ/mol
# GULP energy per Si atom -12390.836800 kJ/mol
# Density = 2.116425 g / cm^3
# Si number density = 21.212527 Si / 1000 Ang^3
#
#
#
# Elastic Constant Matrix: (Units=GPa)
#
#
# Indices 1 2 3 4 5 6 
#
# 1 80.7566 25.2017 17.4653 0.0000 -10.9471 0.0000
# 2 25.2017 90.2821 21.5176 0.0000 -11.4957 0.0000
# 3 17.4653 21.5176 108.8120 0.0000 -23.1588 0.0000
# 4 0.0000 0.0000 0.0000 23.3654 0.0000 -17.0468
# 5 -10.9471 -11.4957 -23.1588 0.0000 34.0699 0.0000
# 6 0.0000 0.0000 0.0000 -17.0468 0.0000 19.0253
#
#
#
# Elastic Compliance Matrix: (Units=1/GPa)
#
#
# Indices 1 2 3 4 5 6 
#
# 1 0.014005 -0.003325 -0.001019 0.000000 0.002686 0.000000
# 2 -0.003325 0.012640 -0.001503 0.000000 0.002175 0.000000
# 3 -0.001019 -0.001503 0.011076 0.000000 0.006694 0.000000
# 4 0.000000 0.000000 0.000000 0.123588 0.000000 0.110735
# 5 0.002686 0.002175 0.006694 0.000000 0.035498 0.000000
# 6 0.000000 0.000000 0.000000 0.110735 0.000000 0.151781
#
#
# Mechanical properties :
#
#
# Convention : Reuss Voigt Hill
#
# Bulk Modulus (GPa) = 38.42130 45.35775 41.88953
# Shear Modulus (GPa) = 13.55177 29.66986 21.61082
#
# Velocity S-wave (km/s) = 2.53030 3.74397 3.19529
# Velocity P-wave (km/s) = 5.16609 6.33393 5.77958
#
# Compressibility (1/GPa) = 0.02602723
#
# Stress axis : x y z
#
# Youngs Moduli (GPa) = 71.40418 79.11661 90.28821
#
# Poissons Ratio (x) = 0.26303 0.09199
# Poissons Ratio (y) = 0.23739 0.13570
# Poissons Ratio (z) = 0.07275 0.11891
#
# Static dielectric constant tensor:
#      x y z
#    x 4.087580 0.000000 0.054430 
#    y 0.000000 3.794370 0.000000 
#    z 0.054430 0.000000 4.155750 
# 
# 
# High freq. dielectric constant tensor:
#      x y z
#    x 1.837050 0.000000 -0.004930 
#    y 0.000000 1.815360 0.000000 
#    z -0.004930 0.000000 1.846250 
# 
# From -- ./inp_files/42244.got.cif
#   From: 2010.06.25/outbox.cif.g09.slc.cpg/sg15_22_cif.got.tgz:42244.got - 2010.06.28 07:06:18.
