data_PCOD8139111
_publ_section_title
;
Structure prediction by ZEFSAII (Michael W. Deem and Ramdas Pophale) SiO2 
 PCOD8139111
Probable space group: C 2/C
;
_chemical_formula_sum "Si O2"
_cell_formula_units_Z 56
_cell_length_a 17.284741
_cell_length_b 6.335389
_cell_length_c 29.143753
_cell_angle_alpha 90.000000
_cell_angle_beta 119.615382
_cell_angle_gamma 90.000000
_cell_volume 2774.485368
_symmetry_space_group_name_H-M "C 2/C"
_symmetry_group_IT_number 15
_symmetry_cell_setting 'monoclinic'
loop_
_space_group_symop_operation_xyz
x,y,z
-x,y,1/2-z
-x,-y,-z
x,-y,1/2+z
1/2+x,1/2+y,z
1/2-x,1/2+y,1/2-z
1/2-x,1/2-y,-z
1/2+x,1/2-y,1/2+z
loop_
_atom_site_type_symbol
_atom_site_label
_atom_site_fract_x
_atom_site_fract_y
_atom_site_fract_z
Si Si1 0.875231 0.321197 0.554797
Si Si2 0.331196 0.132682 0.624117
Si Si3 0.496013 0.610202 0.300810
Si Si4 0.219023 0.031092 0.173420
Si Si5 0.339985 0.887065 0.288665
Si Si6 0.753408 0.937959 0.536352
Si Si7 0.054379 0.777248 0.142470
O O1 0.843017 0.466536 0.587109
O O2 0.837582 0.424127 0.496101
O O3 0.982399 0.310708 0.584768
O O4 0.837250 0.086056 0.549181
O O5 0.426213 0.222041 0.667083
O O6 0.267820 0.330466 0.590518
O O7 0.287006 0.001728 0.652193
O O8 0.500000 0.525994 0.250000
O O9 0.401367 0.720673 0.280152
O O10 0.501554 0.410008 0.336220
O O11 0.199550 0.279765 0.176379
O O12 0.257457 0.939909 0.232076
O O13 0.125446 0.916239 0.135379
O O14 0.396335 0.090235 0.317383
O O15 0.750000 0.750000 0.500000
#
# Coordination Sequence:
#
# PCOD8139111 Si02
#       7
#     8   8   8   8   8   8   8
#     4  10  20  38  65  91 115 158 203 252 320 364
#     4  11  21  38  61  93 119 155 208 260 300 368
#     4  11  22  35  60  90 121 159 212 256 298 365
#     4  11  24  37  59  84 127 166 202 245 305 360
#     4  11  22  40  54  85 126 169 200 246 303 366
#     4   9  20  38  64  92 120 147 201 266 312 362
#     4  11  23  39  58  86 123 169 199 246 310 371
#
# _framework density 20.183923
#
# number of rings (size 3 to 8) (size 9 to 14) (size 15 to 20)
#    0.000    1.429    5.714    0.000    0.000    2.857 
#    0.000    0.714    0.000    8.571    0.000    0.000 
#    0.000    0.000    0.000    0.000    0.000    0.000 
#
# Total GULP energy -347121.804689 kJ/mol
# GULP energy per Si atom -12397.207310 kJ/mol
# Density = 2.013798 g / cm^3
# Si number density = 20.183923 Si / 1000 Ang^3
#
#
#
# Elastic Constant Matrix: (Units=GPa)
#
#
# Indices 1 2 3 4 5 6 
#
# 1 83.8064 28.6472 26.5931 0.0000 13.3088 0.0000
# 2 28.6472 83.9923 21.6154 -0.0001 3.6347 -0.0001
# 3 26.5931 21.6154 67.2479 0.0000 25.0431 0.0000
# 4 0.0000 -0.0001 0.0000 29.6386 0.0000 4.6054
# 5 13.3088 3.6347 25.0431 0.0000 30.6658 0.0000
# 6 0.0000 -0.0001 0.0000 4.6054 0.0000 25.7266
#
#
#
# Elastic Compliance Matrix: (Units=1/GPa)
#
#
# Indices 1 2 3 4 5 6 
#
# 1 0.014912 -0.004075 -0.003387 0.000000 -0.003223 0.000000
# 2 -0.004075 0.014249 -0.004308 0.000000 0.003598 0.000000
# 3 -0.003387 -0.004308 0.024224 0.000000 -0.017802 0.000000
# 4 0.000000 0.000000 0.000000 0.034705 0.000000 -0.006213
# 5 -0.003223 0.003598 -0.017802 0.000000 0.048119 0.000000
# 6 0.000000 0.000000 0.000000 -0.006213 0.000000 0.039982
#
#
# Mechanical properties :
#
#
# Convention : Reuss Voigt Hill
#
# Bulk Modulus (GPa) = 33.50770 43.19533 38.35152
# Shear Modulus (GPa) = 23.84591 27.75229 25.79910
#
# Velocity S-wave (km/s) = 3.44092 3.71208 3.57907
# Velocity P-wave (km/s) = 5.69419 6.31031 6.01015
#
# Compressibility (1/GPa) = 0.02984389
#
# Stress axis : x y z
#
# Youngs Moduli (GPa) = 67.06176 70.18170 41.28152
#
# Poissons Ratio (x) = 0.28598 0.13982
# Poissons Ratio (y) = 0.27327 0.17786
# Poissons Ratio (z) = 0.22713 0.30238
#
# Static dielectric constant tensor:
#      x y z
#    x 3.468030 0.000000 0.347880 
#    y 0.000000 4.000690 0.000000 
#    z 0.347880 0.000000 3.942650 
# 
# 
# High freq. dielectric constant tensor:
#      x y z
#    x 1.763110 0.000000 0.031990 
#    y 0.000000 1.806040 0.000000 
#    z 0.031990 0.000000 1.786190 
# 
# From -- ./inp_files/315128.got.cif
#   From: 2010.06.25/outbox.cif.g09.slc.cpg/sg15_158_cif.got.tgz:315128.got - 2010.06.28 07:06:18.
