data_PCOD8139620
_publ_section_title
;
Structure prediction by ZEFSAII (Michael W. Deem and Ramdas Pophale) SiO2 
 PCOD8139620
Probable space group: C 2/C
;
_chemical_formula_sum "Si O2"
_cell_formula_units_Z 48
_cell_length_a 27.531740
_cell_length_b 7.828742
_cell_length_c 9.842899
_cell_angle_alpha 90.000000
_cell_angle_beta 85.523098
_cell_angle_gamma 90.000000
_cell_volume 2115.054488
_symmetry_space_group_name_H-M "C 2/C"
_symmetry_group_IT_number 15
_symmetry_cell_setting 'monoclinic'
loop_
_space_group_symop_operation_xyz
x,y,z
-x,y,1/2-z
-x,-y,-z
x,-y,1/2+z
1/2+x,1/2+y,z
1/2-x,1/2+y,1/2-z
1/2-x,1/2-y,-z
1/2+x,1/2-y,1/2+z
loop_
_atom_site_type_symbol
_atom_site_label
_atom_site_fract_x
_atom_site_fract_y
_atom_site_fract_z
Si Si1 0.632455 0.839454 0.789978
Si Si2 0.448852 0.409498 0.534467
Si Si3 0.729849 0.318815 0.363977
Si Si4 0.110881 0.606696 0.006182
Si Si5 0.811811 0.179429 0.176289
Si Si6 0.895792 0.977107 0.801181
O O1 0.687738 0.807859 0.821931
O O2 0.627988 0.952960 0.652698
O O3 0.605344 0.665849 0.761395
O O4 0.604322 0.939458 0.915656
O O5 0.500000 0.500000 0.500000
O O6 0.440389 0.214872 0.480602
O O7 0.437301 0.393910 0.696737
O O8 0.410402 0.526247 0.456293
O O9 0.750000 0.250000 0.500000
O O10 0.771983 0.312137 0.239986
O O11 0.712834 0.513784 0.387059
O O12 0.154071 0.730234 0.941619
O O13 0.844280 0.118020 0.298208
#
# Coordination Sequence:
#
# PCOD8139620 Si02
#       6
#     8   8   8   8   8   8
#     4  10  23  39  59  89 127 166 208 258 314 367
#     4  10  20  39  65  93 118 155 200 255 315 387
#     4  11  25  36  62  90 127 172 218 263 306 364
#     4  10  23  41  63  89 127 166 207 264 316 375
#     4  10  23  40  58  89 122 168 218 256 309 364
#     4   9  21  37  63  88 124 157 201 252 314 376
#
# _framework density 22.69445
#
# number of rings (size 3 to 8) (size 9 to 14) (size 15 to 20)
#    0.000    2.000    0.000    1.500   16.333    2.000 
#    0.000    0.833    0.000    6.000    0.000    0.000 
#    0.000    0.000    0.000    0.000    0.000    0.000 
#
# Total GULP energy -297439.651020 kJ/mol
# GULP energy per Si atom -12393.318793 kJ/mol
# Density = 2.264280 g / cm^3
# Si number density = 22.694450 Si / 1000 Ang^3
#
#
#
# Elastic Constant Matrix: (Units=GPa)
#
#
# Indices 1 2 3 4 5 6 
#
# 1 86.5734 16.5130 0.1726 0.0000 1.3114 0.0000
# 2 16.5130 54.8385 -11.3551 0.0000 3.2555 0.0000
# 3 0.1726 -11.3551 67.2860 0.0000 18.8106 0.0000
# 4 0.0000 0.0000 0.0000 40.0878 0.0000 -6.1227
# 5 1.3114 3.2555 18.8106 0.0000 32.5313 0.0000
# 6 0.0000 0.0000 0.0000 -6.1227 0.0000 22.4059
#
#
#
# Elastic Compliance Matrix: (Units=1/GPa)
#
#
# Indices 1 2 3 4 5 6 
#
# 1 0.012288 -0.003883 -0.000784 0.000000 0.000346 0.000000
# 2 -0.003883 0.020680 0.004813 0.000000 -0.004696 0.000000
# 3 -0.000784 0.004813 0.018849 0.000000 -0.011349 0.000000
# 4 0.000000 0.000000 0.000000 0.026032 0.000000 0.007114
# 5 0.000346 -0.004696 -0.011349 0.000000 0.037758 0.000000
# 6 0.000000 0.000000 0.000000 0.007114 0.000000 0.046575
#
#
# Mechanical properties :
#
#
# Convention : Reuss Voigt Hill
#
# Bulk Modulus (GPa) = 19.19066 24.37323 21.78195
# Shear Modulus (GPa) = 27.89267 32.56283 30.22775
#
# Velocity S-wave (km/s) = 3.50959 3.79203 3.65354
# Velocity P-wave (km/s) = 4.98973 5.47136 5.23608
#
# Compressibility (1/GPa) = 0.05210867
#
# Stress axis : x y z
#
# Youngs Moduli (GPa) = 81.38126 48.35616 53.05362
#
# Poissons Ratio (x) = 0.18776 0.04157
# Poissons Ratio (y) = 0.31600 -0.25533
# Poissons Ratio (z) = 0.06377 -0.23272
#
# Static dielectric constant tensor:
#      x y z
#    x 4.013830 0.000000 0.241980 
#    y 0.000000 4.081130 0.000000 
#    z 0.241980 0.000000 4.265680 
# 
# 
# High freq. dielectric constant tensor:
#      x y z
#    x 1.872980 0.000000 0.013020 
#    y 0.000000 1.889190 0.000000 
#    z 0.013020 0.000000 1.903250 
# 
# From -- ./inp_files/121099.got.cif
#   From: 2010.06.25/outbox.cif.g09.slc.cpg/sg15_61_cif.got.tgz:121099.got - 2010.06.28 07:06:18.
