data_PCOD8139832
_publ_section_title
;
Structure prediction by ZEFSAII (Michael W. Deem and Ramdas Pophale) SiO2 
 PCOD8139832
Probable space group: C 2/C
;
_chemical_formula_sum "Si O2"
_cell_formula_units_Z 44
_cell_length_a 23.139793
_cell_length_b 11.977271
_cell_length_c 9.877941
_cell_angle_alpha 90.000000
_cell_angle_beta 122.989663
_cell_angle_gamma 90.000000
_cell_volume 2296.286375
_symmetry_space_group_name_H-M "C 2/C"
_symmetry_group_IT_number 15
_symmetry_cell_setting 'monoclinic'
loop_
_space_group_symop_operation_xyz
x,y,z
-x,y,1/2-z
-x,-y,-z
x,-y,1/2+z
1/2+x,1/2+y,z
1/2-x,1/2+y,1/2-z
1/2-x,1/2-y,-z
1/2+x,1/2-y,1/2+z
loop_
_atom_site_type_symbol
_atom_site_label
_atom_site_fract_x
_atom_site_fract_y
_atom_site_fract_z
Si Si1 0.895783 0.281551 0.321726
Si Si2 0.334817 0.861680 0.988081
Si Si3 0.500000 0.683193 0.250000
Si Si4 0.683562 0.564145 0.293475
Si Si5 0.047784 0.532310 0.438283
Si Si6 0.138204 0.888898 0.027149
O O1 0.962940 0.262593 0.312649
O O2 0.862487 0.164912 0.325197
O O3 0.913687 0.351533 0.477828
O O4 0.840556 0.348612 0.158452
O O5 0.263134 0.918411 0.858036
O O6 0.338796 0.739460 0.925360
O O7 0.396596 0.936409 0.011842
O O8 0.555787 0.605463 0.396930
O O9 0.657851 0.451550 0.189424
O O10 0.674986 0.554304 0.444357
O O11 0.000000 0.554424 0.250000
O O12 0.000000 0.500000 0.500000
#
# Coordination Sequence:
#
# PCOD8139832 Si02
#       6
#     8   8   4   8   8   8
#     4  10  20  40  61  89 117 157 198 243 296 356
#     4  10  22  38  66  79 125 159 192 245 298 359
#     4   8  18  40  64  80 122 160 190 238 302 352
#     4  10  23  39  61  88 118 159 200 237 298 352
#     4  12  23  39  63  91 117 156 201 248 302 346
#     4  10  21  40  61  85 117 158 201 240 292 355
#
# _framework density 19.161373000000001
#
# number of rings (size 3 to 8) (size 9 to 14) (size 15 to 20)
#    0.000    2.182    1.818    4.364    6.364    2.909 
#    8.182    0.909    0.000    0.000    0.000    0.000 
#    0.000    0.000    0.000    0.000    0.000    0.000 
#
# Total GULP energy -272787.566836 kJ/mol
# GULP energy per Si atom -12399.434856 kJ/mol
# Density = 1.911776 g / cm^3
# Si number density = 19.161373 Si / 1000 Ang^3
#
#
#
# Elastic Constant Matrix: (Units=GPa)
#
#
# Indices 1 2 3 4 5 6 
#
# 1 70.7306 34.1096 36.5307 0.0000 17.8856 0.0000
# 2 34.1096 98.0409 61.8836 0.0000 1.1278 0.0000
# 3 36.5307 61.8836 93.6559 0.0000 5.9504 0.0000
# 4 0.0000 0.0000 0.0000 44.8082 0.0000 3.6954
# 5 17.8856 1.1278 5.9504 0.0000 29.5208 0.0000
# 6 0.0000 0.0000 0.0000 3.6954 0.0000 20.2208
#
#
#
# Elastic Compliance Matrix: (Units=1/GPa)
#
#
# Indices 1 2 3 4 5 6 
#
# 1 0.021807 -0.004397 -0.004834 0.000000 -0.012070 0.000000
# 2 -0.004397 0.018467 -0.010749 0.000000 0.004125 0.000000
# 3 -0.004834 -0.010749 0.019706 0.000000 -0.000633 0.000000
# 4 0.000000 0.000000 0.000000 0.022659 0.000000 -0.004141
# 5 -0.012070 0.004125 -0.000633 0.000000 0.041157 0.000000
# 6 0.000000 0.000000 0.000000 -0.004141 0.000000 0.050211
#
#
# Mechanical properties :
#
#
# Convention : Reuss Voigt Hill
#
# Bulk Modulus (GPa) = 49.95033 58.60835 54.27934
# Shear Modulus (GPa) = 22.66133 27.57018 25.11575
#
# Velocity S-wave (km/s) = 3.44271 3.79732 3.62435
# Velocity P-wave (km/s) = 6.47517 7.06253 6.77522
#
# Compressibility (1/GPa) = 0.02001989
#
# Stress axis : x y z
#
# Youngs Moduli (GPa) = 45.85622 54.15031 50.74704
#
# Poissons Ratio (x) = 0.23811 0.24530
# Poissons Ratio (y) = 0.20164 0.54549
# Poissons Ratio (z) = 0.22166 0.58207
#
# Static dielectric constant tensor:
#      x y z
#    x 3.563730 0.000000 0.198370 
#    y 0.000000 3.488470 0.000000 
#    z 0.198370 0.000000 3.438890 
# 
# 
# High freq. dielectric constant tensor:
#      x y z
#    x 1.753270 0.000000 0.018400 
#    y 0.000000 1.739360 0.000000 
#    z 0.018400 0.000000 1.732150 
# 
# From -- ./inp_files/54528.got.cif
#   From: 2010.06.25/outbox.cif.g09.slc.cpg/sg15_28_cif.got.tgz:54528.got - 2010.06.28 07:06:18.
