data_PCOD8139586
_publ_section_title
;
Structure prediction by ZEFSAII (Michael W. Deem and Ramdas Pophale) SiO2 
 PCOD8139586
Probable space group: C 2/C
;
_chemical_formula_sum "Si O2"
_cell_formula_units_Z 56
_cell_length_a 23.849508
_cell_length_b 14.460769
_cell_length_c 9.222609
_cell_angle_alpha 90.000000
_cell_angle_beta 54.526676
_cell_angle_gamma 90.000000
_cell_volume 2590.328239
_symmetry_space_group_name_H-M "C 2/C"
_symmetry_group_IT_number 15
_symmetry_cell_setting 'monoclinic'
loop_
_space_group_symop_operation_xyz
x,y,z
-x,y,1/2-z
-x,-y,-z
x,-y,1/2+z
1/2+x,1/2+y,z
1/2-x,1/2+y,1/2-z
1/2-x,1/2-y,-z
1/2+x,1/2-y,1/2+z
loop_
_atom_site_type_symbol
_atom_site_label
_atom_site_fract_x
_atom_site_fract_y
_atom_site_fract_z
Si Si1 0.565561 0.648344 0.544588
Si Si2 0.669507 0.030756 0.331389
Si Si3 0.144458 0.962288 0.451215
Si Si4 0.472339 0.321643 0.938178
Si Si5 0.947479 0.361087 0.616810
Si Si6 0.593815 0.855533 0.498455
Si Si7 0.261589 0.505391 0.442147
O O1 0.500000 0.655880 0.750000
O O2 0.619772 0.569052 0.504570
O O3 0.534456 0.628743 0.431742
O O4 0.607626 0.745429 0.475623
O O5 0.658223 0.918452 0.350981
O O6 0.594847 0.078649 0.436285
O O7 0.709288 0.064317 0.417818
O O8 0.716095 0.056999 0.121421
O O9 0.078380 0.900470 0.537842
O O10 0.187445 0.934479 0.531689
O O11 0.192215 0.945539 0.238461
O O12 0.500000 0.273018 0.750000
O O13 0.434857 0.246488 0.095875
O O14 0.921127 0.385253 0.815140
O O15 0.029407 0.379783 0.488538
#
# Coordination Sequence:
#
# PCOD8139586 Si02
#       7
#     8   8   8   8   8   8   8
#     4  11  20  38  65  93 121 154 198 247 309 372
#     4  11  21  42  62  85 124 163 198 255 298 344
#     4  11  22  41  61  88 124 165 198 251 298 347
#     4  11  22  38  61  97 126 149 196 255 309 362
#     4  10  21  39  63  94 121 152 195 250 313 369
#     4  10  20  39  64  95 118 150 201 247 307 377
#     4  10  24  39  59  86 120 166 216 237 281 365
#
# _framework density 21.618880999999998
#
# number of rings (size 3 to 8) (size 9 to 14) (size 15 to 20)
#    0.000    1.429    4.286    3.000    0.000    2.286 
#    2.571    8.571    0.000    0.000    0.000    0.000 
#    0.000    0.000    0.000    0.000    0.000    0.000 
#
# Total GULP energy -346965.570995 kJ/mol
# GULP energy per Si atom -12391.627536 kJ/mol
# Density = 2.156968 g / cm^3
# Si number density = 21.618881 Si / 1000 Ang^3
#
#
#
# Elastic Constant Matrix: (Units=GPa)
#
#
# Indices 1 2 3 4 5 6 
#
# 1 140.6836 48.5143 31.8715 0.0000 25.1342 0.0000
# 2 48.5143 89.1701 17.1868 0.0000 -8.7383 0.0000
# 3 31.8715 17.1868 88.6902 0.0000 16.0277 0.0000
# 4 0.0000 0.0000 0.0000 14.2949 0.0000 5.3825
# 5 25.1342 -8.7383 16.0277 0.0000 37.5634 0.0000
# 6 0.0000 0.0000 0.0000 5.3825 0.0000 12.7571
#
#
#
# Elastic Compliance Matrix: (Units=1/GPa)
#
#
# Indices 1 2 3 4 5 6 
#
# 1 0.011224 -0.006718 -0.001183 0.000000 -0.008568 0.000000
# 2 -0.006718 0.016247 -0.002416 0.000000 0.009305 0.000000
# 3 -0.001183 -0.002416 0.013140 0.000000 -0.005377 0.000000
# 4 0.000000 0.000000 0.000000 0.083168 0.000000 -0.035091
# 5 -0.008568 0.009305 -0.005377 0.000000 0.036813 0.000000
# 6 0.000000 0.000000 0.000000 -0.035091 0.000000 0.093193
#
#
# Mechanical properties :
#
#
# Convention : Reuss Voigt Hill
#
# Bulk Modulus (GPa) = 50.05768 57.07658 53.56713
# Shear Modulus (GPa) = 17.78864 27.65451 22.72157
#
# Velocity S-wave (km/s) = 2.87161 3.58045 3.24544
# Velocity P-wave (km/s) = 5.84805 6.59935 6.23503
#
# Compressibility (1/GPa) = 0.01997696
#
# Stress axis : x y z
#
# Youngs Moduli (GPa) = 89.09861 61.54965 76.10201
#
# Poissons Ratio (x) = 0.41348 0.09004
# Poissons Ratio (y) = 0.59856 0.18386
# Poissons Ratio (z) = 0.10541 0.14870
#
# Static dielectric constant tensor:
#      x y z
#    x 4.285480 0.000000 0.226020 
#    y 0.000000 3.506190 0.000000 
#    z 0.226020 0.000000 3.873000 
# 
# 
# High freq. dielectric constant tensor:
#      x y z
#    x 1.870430 0.000000 0.016550 
#    y 0.000000 1.805040 0.000000 
#    z 0.016550 0.000000 1.848080 
# 
# From -- ./inp_files/61830.got.cif
#   From: 2010.06.25/outbox.cif.g09.slc.cpg/sg15_31_cif.got.tgz:61830.got - 2010.06.28 07:06:18.
