data_PCOD8139803
_publ_section_title
;
Structure prediction by ZEFSAII (Michael W. Deem and Ramdas Pophale) SiO2 
 PCOD8139803
Probable space group: C 2/C
;
_chemical_formula_sum "Si O2"
_cell_formula_units_Z 64
_cell_length_a 11.043877
_cell_length_b 15.249068
_cell_length_c 29.038298
_cell_angle_alpha 90.000000
_cell_angle_beta 140.900716
_cell_angle_gamma 90.000000
_cell_volume 3084.150152
_symmetry_space_group_name_H-M "C 2/C"
_symmetry_group_IT_number 15
_symmetry_cell_setting 'monoclinic'
loop_
_space_group_symop_operation_xyz
x,y,z
-x,y,1/2-z
-x,-y,-z
x,-y,1/2+z
1/2+x,1/2+y,z
1/2-x,1/2+y,1/2-z
1/2-x,1/2-y,-z
1/2+x,1/2-y,1/2+z
loop_
_atom_site_type_symbol
_atom_site_label
_atom_site_fract_x
_atom_site_fract_y
_atom_site_fract_z
Si Si1 0.266776 0.231309 0.898202
Si Si2 0.259669 0.918890 0.577448
Si Si3 0.660283 0.598320 0.586314
Si Si4 0.703499 0.382055 0.295040
Si Si5 0.456181 0.610250 0.846922
Si Si6 0.210504 0.945555 0.918610
Si Si7 0.006480 0.492036 0.577889
Si Si8 0.207474 0.261596 0.540379
O O1 0.209409 0.333373 0.882288
O O2 0.230301 0.204700 0.834379
O O3 0.143092 0.172354 0.897295
O O4 0.482685 0.214094 0.979284
O O5 0.056282 0.915629 0.492869
O O6 0.276257 0.007581 0.612818
O O7 0.421925 0.916255 0.585631
O O8 0.657580 0.624856 0.639235
O O9 0.759161 0.675555 0.585535
O O10 0.500000 0.426986 0.250000
O O11 0.692852 0.363053 0.237389
O O12 0.887682 0.440997 0.357304
O O13 0.524731 0.508330 0.862773
O O14 0.157518 0.842248 0.902726
O O15 0.340396 0.957183 0.912470
O O16 0.328089 0.961655 0.000247
O O17 0.250000 0.250000 0.500000
#
# Coordination Sequence:
#
# PCOD8139803 Si02
#       8
#     8   8   8   8   8   8   8   8
#     4  10  21  38  63  90 120 170 208 253 308 378
#     4  10  22  37  63  90 129 162 204 259 315 368
#     4  10  23  38  58  96 133 158 202 264 316 364
#     4  10  20  40  60  89 126 165 209 258 316 377
#     4  11  22  40  62  91 130 163 210 267 315 374
#     4  11  20  34  63  95 119 162 208 264 314 365
#     4  11  19  36  62  92 121 159 214 257 304 379
#     4  11  23  36  63  95 128 159 206 262 320 369
#
# _framework density 20.751259000000001
#
# number of rings (size 3 to 8) (size 9 to 14) (size 15 to 20)
#    0.000    1.500    5.000    1.500    5.250    1.000 
#    0.000    4.375    0.000    1.500    0.000    0.000 
#    0.000    0.000    0.000    0.000    0.000    0.000 
#
# Total GULP energy -396682.410217 kJ/mol
# GULP energy per Si atom -12396.325319 kJ/mol
# Density = 2.070403 g / cm^3
# Si number density = 20.751259 Si / 1000 Ang^3
#
#
#
# Elastic Constant Matrix: (Units=GPa)
#
#
# Indices 1 2 3 4 5 6 
#
# 1 93.5445 49.9744 15.1613 0.0000 -29.3628 0.0000
# 2 49.9744 154.6280 27.5229 0.0000 -17.3589 0.0000
# 3 15.1613 27.5229 60.2422 0.0000 -19.9430 0.0000
# 4 0.0000 0.0000 0.0000 19.4824 0.0000 -2.9774
# 5 -29.3628 -17.3589 -19.9430 0.0000 30.7365 0.0000
# 6 0.0000 0.0000 0.0000 -2.9774 0.0000 26.5934
#
#
#
# Elastic Compliance Matrix: (Units=1/GPa)
#
#
# Indices 1 2 3 4 5 6 
#
# 1 0.017695 -0.004414 0.002972 0.000000 0.016340 0.000000
# 2 -0.004414 0.008283 -0.003210 0.000000 -0.001621 0.000000
# 3 0.002972 -0.003210 0.022488 0.000000 0.015618 0.000000
# 4 0.000000 0.000000 0.000000 0.052222 0.000000 0.005847
# 5 0.016340 -0.001621 0.015618 0.000000 0.057363 0.000000
# 6 0.000000 0.000000 0.000000 0.005847 0.000000 0.038258
#
#
# Mechanical properties :
#
#
# Convention : Reuss Voigt Hill
#
# Bulk Modulus (GPa) = 25.53358 54.85910 40.19634
# Shear Modulus (GPa) = 22.86584 29.74619 26.30602
#
# Velocity S-wave (km/s) = 3.32309 3.79022 3.56432
# Velocity P-wave (km/s) = 5.20146 6.75635 6.02924
#
# Compressibility (1/GPa) = 0.03916411
#
# Stress axis : x y z
#
# Youngs Moduli (GPa) = 56.51196 120.72984 44.46726
#
# Poissons Ratio (x) = 0.53286 -0.13218
# Poissons Ratio (y) = 0.24942 0.14275
# Poissons Ratio (z) = -0.16798 0.38756
#
# Static dielectric constant tensor:
#      x y z
#    x 3.816720 0.000000 -0.088210 
#    y 0.000000 3.996640 0.000000 
#    z -0.088210 0.000000 3.690130 
# 
# 
# High freq. dielectric constant tensor:
#      x y z
#    x 1.818970 0.000000 -0.011880 
#    y 0.000000 1.807350 0.000000 
#    z -0.011880 0.000000 1.778370 
# 
# From -- ./inp_files/311199.got.cif
#   From: 2010.06.25/outbox.cif.g09.slc.cpg/sg15_156_cif.got.tgz:311199.got - 2010.06.28 07:06:18.
