data_PCOD8139218
_publ_section_title
;
Structure prediction by ZEFSAII (Michael W. Deem and Ramdas Pophale) SiO2 
 PCOD8139218
Probable space group: C 2/C
;
_chemical_formula_sum "Si O2"
_cell_formula_units_Z 64
_cell_length_a 23.202806
_cell_length_b 16.827850
_cell_length_c 14.737965
_cell_angle_alpha 90.000000
_cell_angle_beta 32.048580
_cell_angle_gamma 90.000000
_cell_volume 3053.550490
_symmetry_space_group_name_H-M "C 2/C"
_symmetry_group_IT_number 15
_symmetry_cell_setting 'monoclinic'
loop_
_space_group_symop_operation_xyz
x,y,z
-x,y,1/2-z
-x,-y,-z
x,-y,1/2+z
1/2+x,1/2+y,z
1/2-x,1/2+y,1/2-z
1/2-x,1/2-y,-z
1/2+x,1/2-y,1/2+z
loop_
_atom_site_type_symbol
_atom_site_label
_atom_site_fract_x
_atom_site_fract_y
_atom_site_fract_z
Si Si1 0.919001 0.708454 0.606154
Si Si2 0.894840 0.884405 0.704965
Si Si3 0.731872 0.222584 0.864603
Si Si4 0.354221 0.876665 0.725504
Si Si5 0.373719 0.084655 0.397319
Si Si6 0.235657 0.831762 0.467197
Si Si7 0.759773 0.482990 0.700940
Si Si8 0.872549 0.876332 0.059924
O O1 0.926784 0.793467 0.643610
O O2 0.856664 0.721879 0.596159
O O3 0.849972 0.649523 0.764738
O O4 0.032779 0.668664 0.434866
O O5 0.845898 0.930928 0.685216
O O6 0.010391 0.918718 0.584339
O O7 0.803208 0.894956 0.905772
O O8 0.756696 0.312321 0.862838
O O9 0.845381 0.183901 0.678592
O O10 0.682296 0.170527 0.012003
O O11 0.354757 0.931382 0.815256
O O12 0.340228 0.930685 0.654882
O O13 0.500000 0.089459 0.250000
O O14 0.321419 0.015932 0.529563
O O15 0.250000 0.750000 0.500000
O O16 0.140222 0.828683 0.517972
O O17 0.717835 0.554432 0.819031
#
# Coordination Sequence:
#
# PCOD8139218 Si02
#       8
#     8   8   8   8   8   8   8   8
#     4  10  20  38  67  99 124 165 217 274 329 382
#     4  11  20  40  65  91 134 169 217 273 329 395
#     4  10  20  42  66  97 126 163 228 275 318 393
#     4  12  23  43  73  94 133 180 218 280 334 383
#     4  11  25  44  65  96 133 179 225 268 330 395
#     4   9  21  36  62  96 125 164 222 273 315 390
#     4  11  27  40  63  99 136 173 220 271 328 407
#     4  10  21  40  63  92 133 178 210 271 341 386
#
# _framework density 20.959206999999999
#
# number of rings (size 3 to 8) (size 9 to 14) (size 15 to 20)
#    0.000    1.500    3.750    1.125    1.750    1.500 
#    0.000    0.000    0.000    0.000    0.000    0.000 
#    0.000    0.000    0.000    0.000    0.000    0.000 
#
# Total GULP energy -396583.676203 kJ/mol
# GULP energy per Si atom -12393.239881 kJ/mol
# Density = 2.091150 g / cm^3
# Si number density = 20.959207 Si / 1000 Ang^3
#
#
#
# Elastic Constant Matrix: (Units=GPa)
#
#
# Indices 1 2 3 4 5 6 
#
# 1 136.8693 45.8947 58.5948 0.0000 -0.2454 0.0000
# 2 45.8947 72.2237 38.9734 0.0000 -1.1556 0.0000
# 3 58.5948 38.9734 91.4106 0.0000 -3.3242 0.0000
# 4 0.0000 0.0000 0.0000 18.7348 0.0000 2.7393
# 5 -0.2454 -1.1556 -3.3242 0.0000 29.2024 0.0000
# 6 0.0000 0.0000 0.0000 2.7393 0.0000 32.8503
#
#
#
# Elastic Compliance Matrix: (Units=1/GPa)
#
#
# Indices 1 2 3 4 5 6 
#
# 1 0.010949 -0.004114 -0.005288 0.000000 -0.000673 0.000000
# 2 -0.004114 0.019530 -0.005686 0.000000 0.000091 0.000000
# 3 -0.005288 -0.005686 0.016814 0.000000 0.001644 0.000000
# 4 0.000000 0.000000 0.000000 0.054036 0.000000 -0.004506
# 5 -0.000673 0.000091 0.001644 0.000000 0.034429 0.000000
# 6 0.000000 0.000000 0.000000 -0.004506 0.000000 0.030817
#
#
# Mechanical properties :
#
#
# Convention : Reuss Voigt Hill
#
# Bulk Modulus (GPa) = 58.42961 65.26994 61.84977
# Shear Modulus (GPa) = 24.69664 26.62687 25.66175
#
# Velocity S-wave (km/s) = 3.43639 3.56815 3.50289
# Velocity P-wave (km/s) = 6.60934 6.94152 6.77746
#
# Compressibility (1/GPa) = 0.01711461
#
# Stress axis : x y z
#
# Youngs Moduli (GPa) = 91.33521 51.20281 59.47527
#
# Poissons Ratio (x) = 0.21067 0.31453
# Poissons Ratio (y) = 0.37579 0.33819
# Poissons Ratio (z) = 0.48302 0.29115
#
# Static dielectric constant tensor:
#      x y z
#    x 3.788190 0.000000 0.115420 
#    y 0.000000 3.693430 0.000000 
#    z 0.115420 0.000000 4.043020 
# 
# 
# High freq. dielectric constant tensor:
#      x y z
#    x 1.826670 0.000000 -0.000110 
#    y 0.000000 1.804270 0.000000 
#    z -0.000110 0.000000 1.824260 
# 
# From -- ./inp_files/174212.got.cif
#   From: 2010.06.25/outbox.cif.g09.slc.cpg/sg15_88_cif.got.tgz:174212.got - 2010.06.28 07:06:18.
