data_PCOD8139309
_publ_section_title
;
Structure prediction by ZEFSAII (Michael W. Deem and Ramdas Pophale) SiO2 
 PCOD8139309
Probable space group: C 2/C
;
_chemical_formula_sum "Si O2"
_cell_formula_units_Z 40
_cell_length_a 11.698802
_cell_length_b 12.720543
_cell_length_c 26.129838
_cell_angle_alpha 90.000000
_cell_angle_beta 29.844386
_cell_angle_gamma 90.000000
_cell_volume 1935.104055
_symmetry_space_group_name_H-M "C 2/C"
_symmetry_group_IT_number 15
_symmetry_cell_setting 'monoclinic'
loop_
_space_group_symop_operation_xyz
x,y,z
-x,y,1/2-z
-x,-y,-z
x,-y,1/2+z
1/2+x,1/2+y,z
1/2-x,1/2+y,1/2-z
1/2-x,1/2-y,-z
1/2+x,1/2-y,1/2+z
loop_
_atom_site_type_symbol
_atom_site_label
_atom_site_fract_x
_atom_site_fract_y
_atom_site_fract_z
Si Si1 0.069273 0.587618 0.544287
Si Si2 0.743500 0.897408 0.864952
Si Si3 0.549719 0.290427 0.042880
Si Si4 0.484613 0.479285 0.946219
Si Si5 0.732326 0.719057 0.357220
O O1 0.223871 0.603313 0.433810
O O2 0.236435 0.569287 0.527633
O O3 0.914015 0.485643 0.598853
O O4 0.909161 0.689218 0.616642
O O5 0.670645 0.785319 0.869273
O O6 0.000000 0.923380 0.750000
O O7 0.475929 0.405247 0.093484
O O8 0.750000 0.250000 0.000000
O O9 0.650871 0.289685 0.946838
O O10 0.676895 0.394826 0.853096
O O11 0.500000 0.500000 0.000000
O O12 0.000000 0.745353 0.250000
#
# Coordination Sequence:
#
# PCOD8139309 Si02
#       5
#     8   8   8   8   8
#     4  10  20  39  61  85 122 151 191 251 291 340
#     4  10  21  36  63  91 111 152 203 239 291 352
#     4  10  20  39  59  83 121 156 187 246 293 342
#     4  10  21  39  61  80 119 159 190 239 300 341
#     4  10  22  38  59  89 118 155 199 236 293 354
#
# _framework density 20.670724
#
# number of rings (size 3 to 8) (size 9 to 14) (size 15 to 20)
#    0.000    2.000    2.000    1.200    0.000    2.400 
#    0.000    0.000    0.000    0.000    0.000    0.000 
#    0.000    0.000    0.000    0.000    0.000    0.000 
#
# Total GULP energy -247927.299404 kJ/mol
# GULP energy per Si atom -12396.364970 kJ/mol
# Density = 2.062368 g / cm^3
# Si number density = 20.670724 Si / 1000 Ang^3
#
#
#
# Elastic Constant Matrix: (Units=GPa)
#
#
# Indices 1 2 3 4 5 6 
#
# 1 121.9017 51.7768 28.2640 0.0005 -31.6688 -0.0008
# 2 51.7768 178.4099 35.6830 -0.0031 -16.8348 -0.0007
# 3 28.2640 35.6830 96.5690 0.0084 -26.0544 -0.0039
# 4 0.0005 -0.0031 0.0084 13.7000 -0.0021 -7.8009
# 5 -31.6688 -16.8348 -26.0544 -0.0021 20.1304 -0.0002
# 6 -0.0008 -0.0007 -0.0039 -7.8009 -0.0002 33.2838
#
#
#
# Elastic Compliance Matrix: (Units=1/GPa)
#
#
# Indices 1 2 3 4 5 6 
#
# 1 0.015478 -0.002698 0.003730 0.000001 0.026922 0.000001
# 2 -0.002698 0.006671 -0.002021 0.000003 -0.001281 0.000001
# 3 0.003730 -0.002021 0.017114 -0.000007 0.026328 0.000001
# 4 0.000001 0.000003 -0.000007 0.084234 0.000005 0.019742
# 5 0.026922 -0.001281 0.026328 0.000005 0.125035 0.000005
# 6 0.000001 0.000001 0.000001 0.019742 0.000005 0.034672
#
#
# Mechanical properties :
#
#
# Convention : Reuss Voigt Hill
#
# Bulk Modulus (GPa) = 26.81948 69.81421 48.31685
# Shear Modulus (GPa) = 16.80052 32.16663 24.48357
#
# Velocity S-wave (km/s) = 2.85400 3.94908 3.44533
# Velocity P-wave (km/s) = 4.88500 7.39198 6.26517
#
# Compressibility (1/GPa) = 0.03728633
#
# Stress axis : x y z
#
# Youngs Moduli (GPa) = 64.60606 149.89448 58.43298
#
# Poissons Ratio (x) = 0.40437 -0.21797
# Poissons Ratio (y) = 0.17429 0.11810
# Poissons Ratio (z) = -0.24100 0.30295
#
# Static dielectric constant tensor:
#      x y z
#    x 3.803700 0.000030 -0.156930 
#    y 0.000030 4.482320 -0.000040 
#    z -0.156930 -0.000040 3.321360 
# 
# 
# High freq. dielectric constant tensor:
#      x y z
#    x 1.816010 0.000000 -0.021270 
#    y 0.000000 1.839670 0.000000 
#    z -0.021270 0.000000 1.768800 
# 
# From -- ./inp_files/141753.got.cif
#   From: 2010.06.25/outbox.cif.g09.slc.cpg/sg15_71_cif.got.tgz:141753.got - 2010.06.28 07:06:18.
