data_PCOD8139813
_publ_section_title
;
Structure prediction by ZEFSAII (Michael W. Deem and Ramdas Pophale) SiO2 
 PCOD8139813
Probable space group: C 2/C
;
_chemical_formula_sum "Si O2"
_cell_formula_units_Z 44
_cell_length_a 11.365014
_cell_length_b 25.278806
_cell_length_c 11.123123
_cell_angle_alpha 90.000000
_cell_angle_beta 137.450451
_cell_angle_gamma 90.000000
_cell_volume 2160.957026
_symmetry_space_group_name_H-M "C 2/C"
_symmetry_group_IT_number 15
_symmetry_cell_setting 'monoclinic'
loop_
_space_group_symop_operation_xyz
x,y,z
-x,y,1/2-z
-x,-y,-z
x,-y,1/2+z
1/2+x,1/2+y,z
1/2-x,1/2+y,1/2-z
1/2-x,1/2-y,-z
1/2+x,1/2-y,1/2+z
loop_
_atom_site_type_symbol
_atom_site_label
_atom_site_fract_x
_atom_site_fract_y
_atom_site_fract_z
Si Si1 0.277322 0.700171 0.191617
Si Si2 0.731409 0.910586 0.229821
Si Si3 0.500000 0.445740 0.250000
Si Si4 0.579709 0.111793 0.179089
Si Si5 0.189332 0.987039 0.593372
Si Si6 0.177858 0.811999 0.046608
O O1 0.154258 0.667068 0.187040
O O2 0.239375 0.762557 0.174307
O O3 0.471445 0.687495 0.378798
O O4 0.238340 0.686398 0.023094
O O5 0.911637 0.911152 0.288614
O O6 0.746005 0.862445 0.330691
O O7 0.694460 0.962722 0.283513
O O8 0.570111 0.906968 0.021165
O O9 0.657848 0.480894 0.425742
O O10 0.500000 0.121636 0.250000
O O11 0.728118 0.066714 0.292115
O O12 0.000000 0.000000 0.500000
#
# Coordination Sequence:
#
# PCOD8139813 Si02
#       6
#     8   8   4   8   8   8
#     4  10  22  43  66  96 132 170 219 274 322 383
#     4  11  23  39  65  95 127 172 210 271 325 386
#     4  10  20  40  60  92 132 158 212 264 326 392
#     4  12  24  43  65  98 137 169 219 271 327 392
#     4  10  22  40  63  88 128 172 211 261 322 388
#     4  10  22  42  69  95 129 171 224 270 320 389
#
# _framework density 20.361348
#
# number of rings (size 3 to 8) (size 9 to 14) (size 15 to 20)
#    0.000    1.455    1.818    3.818    0.000    6.545 
#    4.909    1.818    0.000    0.000    0.000    0.000 
#    0.000    0.000    0.000    0.000    0.000    0.000 
#
# Total GULP energy -272713.532003 kJ/mol
# GULP energy per Si atom -12396.069637 kJ/mol
# Density = 2.031500 g / cm^3
# Si number density = 20.361348 Si / 1000 Ang^3
#
#
#
# Elastic Constant Matrix: (Units=GPa)
#
#
# Indices 1 2 3 4 5 6 
#
# 1 77.8202 46.9827 13.9616 0.0000 1.4323 0.0000
# 2 46.9827 133.6945 43.3741 0.0000 -16.4599 0.0000
# 3 13.9616 43.3741 121.2082 0.0000 -12.9565 0.0000
# 4 0.0000 0.0000 0.0000 35.8599 0.0000 6.6683
# 5 1.4323 -16.4599 -12.9565 0.0000 24.6383 0.0000
# 6 0.0000 0.0000 0.0000 6.6683 0.0000 29.6815
#
#
#
# Elastic Compliance Matrix: (Units=1/GPa)
#
#
# Indices 1 2 3 4 5 6 
#
# 1 0.016951 -0.006570 -0.000186 0.000000 -0.005473 0.000000
# 2 -0.006570 0.011462 -0.002634 0.000000 0.006655 0.000000
# 3 -0.000186 -0.002634 0.009565 0.000000 0.003281 0.000000
# 4 0.000000 0.000000 0.000000 0.029102 0.000000 -0.006538
# 5 -0.005473 0.006655 0.003281 0.000000 0.047076 0.000000
# 6 0.000000 0.000000 0.000000 -0.006538 0.000000 0.035160
#
#
# Mechanical properties :
#
#
# Convention : Reuss Voigt Hill
#
# Bulk Modulus (GPa) = 52.08937 60.15106 56.12021
# Shear Modulus (GPa) = 28.65392 33.26293 30.95842
#
# Velocity S-wave (km/s) = 3.75543 4.04621 3.90353
# Velocity P-wave (km/s) = 6.66651 7.17182 6.92377
#
# Compressibility (1/GPa) = 0.01919777
#
# Stress axis : x y z
#
# Youngs Moduli (GPa) = 58.99381 87.24242 104.54855
#
# Poissons Ratio (x) = 0.57320 0.01949
# Poissons Ratio (y) = 0.38760 0.27534
# Poissons Ratio (z) = 0.01100 0.22976
#
# Static dielectric constant tensor:
#      x y z
#    x 3.989120 0.000000 -0.295870 
#    y 0.000000 3.908320 0.000000 
#    z -0.295870 0.000000 4.279210 
# 
# 
# High freq. dielectric constant tensor:
#      x y z
#    x 1.782940 0.000000 -0.000710 
#    y 0.000000 1.794200 0.000000 
#    z -0.000710 0.000000 1.823530 
# 
# From -- ./inp_files/32222.got.cif
#   From: 2010.06.25/outbox.cif.g09.slc.cpg/sg15_17_cif.got.tgz:32222.got - 2010.06.28 07:06:18.
