data_PCOD8139336
_publ_section_title
;
Structure prediction by ZEFSAII (Michael W. Deem and Ramdas Pophale) SiO2 
 PCOD8139336
Probable space group: C 2/C
;
_chemical_formula_sum "Si O2"
_cell_formula_units_Z 48
_cell_length_a 17.373126
_cell_length_b 24.653790
_cell_length_c 11.531429
_cell_angle_alpha 90.000000
_cell_angle_beta 150.083684
_cell_angle_gamma 90.000000
_cell_volume 2463.282808
_symmetry_space_group_name_H-M "C 2/C"
_symmetry_group_IT_number 15
_symmetry_cell_setting 'monoclinic'
loop_
_space_group_symop_operation_xyz
x,y,z
-x,y,1/2-z
-x,-y,-z
x,-y,1/2+z
1/2+x,1/2+y,z
1/2-x,1/2+y,1/2-z
1/2-x,1/2-y,-z
1/2+x,1/2-y,1/2+z
loop_
_atom_site_type_symbol
_atom_site_label
_atom_site_fract_x
_atom_site_fract_y
_atom_site_fract_z
Si Si1 0.846993 0.364175 0.122930
Si Si2 0.705673 0.858628 0.824635
Si Si3 0.758346 0.632296 0.857978
Si Si4 0.583857 0.660072 0.101515
Si Si5 0.056181 0.438911 0.066692
Si Si6 0.931139 0.712024 0.933066
O O1 0.848342 0.421886 0.193163
O O2 0.843551 0.315279 0.210447
O O3 0.000000 0.356321 0.250000
O O4 0.696939 0.362377 0.847449
O O5 0.863786 0.858297 0.958451
O O6 0.601369 0.905798 0.636315
O O7 0.613257 0.802335 0.681338
O O8 0.741034 0.870950 0.003452
O O9 0.581970 0.635012 0.585239
O O10 0.841659 0.578529 0.912735
O O11 0.848405 0.687125 0.939147
O O12 0.582813 0.724629 0.099239
O O13 0.000000 0.500000 0.000000
#
# Coordination Sequence:
#
# PCOD8139336 Si02
#       6
#     8   8   8   8   8   8
#     4  10  20  39  60  86 121 159 211 248 303 378
#     4  10  21  40  57  88 127 160 209 242 296 375
#     4  10  23  37  59  93 124 158 212 251 292 369
#     4  12  21  36  60  90 134 156 194 260 301 352
#     4  10  22  43  68  82 105 160 207 258 316 368
#     4  10  21  35  58  88 124 177 205 231 297 366
#
# _framework density 19.486191999999999
#
# number of rings (size 3 to 8) (size 9 to 14) (size 15 to 20)
#    0.000    2.000    3.333    4.000    0.000    8.000 
#    0.000    0.833    3.667    0.000    0.000    0.000 
#    0.000    0.000    0.000    0.000    0.000    0.000 
#
# Total GULP energy -297488.276651 kJ/mol
# GULP energy per Si atom -12395.344860 kJ/mol
# Density = 1.944184 g / cm^3
# Si number density = 19.486192 Si / 1000 Ang^3
#
#
#
# Elastic Constant Matrix: (Units=GPa)
#
#
# Indices 1 2 3 4 5 6 
#
# 1 94.1544 53.1258 22.5798 0.0000 0.6307 0.0000
# 2 53.1258 134.2921 47.6134 0.0000 -4.5951 0.0000
# 3 22.5798 47.6134 97.6021 0.0000 1.2202 0.0000
# 4 0.0000 0.0000 0.0000 17.2403 0.0000 -2.0376
# 5 0.6307 -4.5951 1.2202 0.0000 41.5419 0.0000
# 6 0.0000 0.0000 0.0000 -2.0376 0.0000 9.1037
#
#
#
# Elastic Compliance Matrix: (Units=1/GPa)
#
#
# Indices 1 2 3 4 5 6 
#
# 1 0.013730 -0.005242 -0.000610 0.000000 -0.000770 0.000000
# 2 -0.005242 0.011058 -0.004200 0.000000 0.001426 0.000000
# 3 -0.000610 -0.004200 0.012446 0.000000 -0.000821 0.000000
# 4 0.000000 0.000000 0.000000 0.059580 0.000000 0.013335
# 5 -0.000770 0.001426 -0.000821 0.000000 0.024266 0.000000
# 6 0.000000 0.000000 0.000000 0.013335 0.000000 0.112831
#
#
# Mechanical properties :
#
#
# Convention : Reuss Voigt Hill
#
# Bulk Modulus (GPa) = 58.37194 63.63184 61.00189
# Shear Modulus (GPa) = 19.25142 27.09249 23.17196
#
# Velocity S-wave (km/s) = 3.14658 3.73278 3.45214
# Velocity P-wave (km/s) = 6.57433 7.16267 6.87480
#
# Compressibility (1/GPa) = 0.01713152
#
# Stress axis : x y z
#
# Youngs Moduli (GPa) = 72.83429 90.43376 80.34945
#
# Poissons Ratio (x) = 0.47403 0.04898
# Poissons Ratio (y) = 0.38178 0.33743
# Poissons Ratio (z) = 0.04440 0.37978
#
# Static dielectric constant tensor:
#      x y z
#    x 3.807920 0.000000 -0.056390 
#    y 0.000000 3.786570 0.000000 
#    z -0.056390 0.000000 4.177260 
# 
# 
# High freq. dielectric constant tensor:
#      x y z
#    x 1.776120 0.000000 -0.004170 
#    y 0.000000 1.726020 0.000000 
#    z -0.004170 0.000000 1.762740 
# 
# From -- ./inp_files/108300.got.cif
#   From: 2010.06.25/outbox.cif.g09.slc.cpg/sg15_55_cif.got.tgz:108300.got - 2010.06.28 07:06:18.
