data_PCOD8139492
_publ_section_title
;
Structure prediction by ZEFSAII (Michael W. Deem and Ramdas Pophale) SiO2 
 PCOD8139492
Probable space group: C 2/C
;
_chemical_formula_sum "Si O2"
_cell_formula_units_Z 44
_cell_length_a 18.163738
_cell_length_b 16.097422
_cell_length_c 8.163874
_cell_angle_alpha 90.000000
_cell_angle_beta 108.359461
_cell_angle_gamma 90.000000
_cell_volume 2265.527910
_symmetry_space_group_name_H-M "C 2/C"
_symmetry_group_IT_number 15
_symmetry_cell_setting 'monoclinic'
loop_
_space_group_symop_operation_xyz
x,y,z
-x,y,1/2-z
-x,-y,-z
x,-y,1/2+z
1/2+x,1/2+y,z
1/2-x,1/2+y,1/2-z
1/2-x,1/2-y,-z
1/2+x,1/2-y,1/2+z
loop_
_atom_site_type_symbol
_atom_site_label
_atom_site_fract_x
_atom_site_fract_y
_atom_site_fract_z
Si Si1 0.932504 0.944873 0.525488
Si Si2 0.000000 0.204251 0.250000
Si Si3 0.347086 0.788891 0.229763
Si Si4 0.724367 0.140542 0.138434
Si Si5 0.783988 0.659969 0.015286
Si Si6 0.677615 0.477850 0.320861
O O1 0.962361 0.852064 0.580782
O O2 0.905299 0.988777 0.673186
O O3 0.850568 0.938397 0.370598
O O4 0.000000 0.000000 0.500000
O O5 0.063798 0.262134 0.210454
O O6 0.293468 0.707579 0.192263
O O7 0.337193 0.844848 0.388719
O O8 0.330139 0.844296 0.056567
O O9 0.675806 0.144719 0.277505
O O10 0.758868 0.048878 0.152664
O O11 0.750000 0.750000 0.000000
O O12 0.713135 0.595048 0.955393
#
# Coordination Sequence:
#
# PCOD8139492 Si02
#       6
#     8   4   8   8   8   8
#     4  12  22  35  56  91 130 168 190 246 326 395
#     4  12  24  40  60  88 142 168 198 250 332 400
#     4  10  22  40  59  88 125 169 207 256 313 374
#     4  10  20  39  63  88 120 163 216 260 307 365
#     4  10  23  37  60  90 122 158 214 268 306 363
#     4  12  21  38  61  92 123 159 215 263 311 377
#
# _framework density 19.421523000000001
#
# number of rings (size 3 to 8) (size 9 to 14) (size 15 to 20)
#    0.000    1.091    5.455    1.091    7.636    0.000 
#    0.000    0.909    0.000    1.091    0.000    0.000 
#    0.000    0.000    0.000    0.000    0.000    0.000 
#
# Total GULP energy -272637.174447 kJ/mol
# GULP energy per Si atom -12392.598839 kJ/mol
# Density = 1.937732 g / cm^3
# Si number density = 19.421523 Si / 1000 Ang^3
#
#
#
# Elastic Constant Matrix: (Units=GPa)
#
#
# Indices 1 2 3 4 5 6 
#
# 1 101.8432 35.5997 50.2756 0.0000 -13.4790 0.0000
# 2 35.5997 84.6544 54.4041 0.0000 2.6296 0.0000
# 3 50.2756 54.4041 145.4134 0.0000 -21.4626 0.0000
# 4 0.0000 0.0000 0.0000 34.1126 0.0000 7.3303
# 5 -13.4790 2.6296 -21.4626 0.0000 28.9100 0.0000
# 6 0.0000 0.0000 0.0000 7.3303 0.0000 34.4733
#
#
#
# Elastic Compliance Matrix: (Units=1/GPa)
#
#
# Indices 1 2 3 4 5 6 
#
# 1 0.013018 -0.004195 -0.002223 0.000000 0.004801 0.000000
# 2 -0.004195 0.018050 -0.006552 0.000000 -0.008462 0.000000
# 3 -0.002223 -0.006552 0.011266 0.000000 0.007923 0.000000
# 4 0.000000 0.000000 0.000000 0.030718 0.000000 -0.006532
# 5 0.004801 -0.008462 0.007923 0.000000 0.043481 0.000000
# 6 0.000000 0.000000 0.000000 -0.006532 0.000000 0.030397
#
#
# Mechanical properties :
#
#
# Convention : Reuss Voigt Hill
#
# Bulk Modulus (GPa) = 60.99300 68.05221 64.52260
# Shear Modulus (GPa) = 28.03717 32.27462 30.15590
#
# Velocity S-wave (km/s) = 3.80361 4.08094 3.94471
# Velocity P-wave (km/s) = 7.12482 7.57107 7.35133
#
# Compressibility (1/GPa) = 0.01639532
#
# Stress axis : x y z
#
# Youngs Moduli (GPa) = 76.81577 55.40078 88.76159
#
# Poissons Ratio (x) = 0.23242 0.19730
# Poissons Ratio (y) = 0.32226 0.58154
# Poissons Ratio (z) = 0.17074 0.36297
#
# Static dielectric constant tensor:
#      x y z
#    x 3.456830 0.000000 -0.535830 
#    y 0.000000 3.537530 0.000000 
#    z -0.535830 0.000000 4.165670 
# 
# 
# High freq. dielectric constant tensor:
#      x y z
#    x 1.725960 0.000000 -0.027650 
#    y 0.000000 1.746330 0.000000 
#    z -0.027650 0.000000 1.772930 
# 
# From -- ./inp_files/55481.got.cif
#   From: 2010.06.25/outbox.cif.g09.slc.cpg/sg15_28_cif.got.tgz:55481.got - 2010.06.28 07:06:18.
