data_PCOD8139395
_publ_section_title
;
Structure prediction by ZEFSAII (Michael W. Deem and Ramdas Pophale) SiO2 
 PCOD8139395
Probable space group: C 2/C
;
_chemical_formula_sum "Si O2"
_cell_formula_units_Z 52
_cell_length_a 16.373572
_cell_length_b 8.948005
_cell_length_c 17.428967
_cell_angle_alpha 90.000000
_cell_angle_beta 98.784626
_cell_angle_gamma 90.000000
_cell_volume 2523.577498
_symmetry_space_group_name_H-M "C 2/C"
_symmetry_group_IT_number 15
_symmetry_cell_setting 'monoclinic'
loop_
_space_group_symop_operation_xyz
x,y,z
-x,y,1/2-z
-x,-y,-z
x,-y,1/2+z
1/2+x,1/2+y,z
1/2-x,1/2+y,1/2-z
1/2-x,1/2-y,-z
1/2+x,1/2-y,1/2+z
loop_
_atom_site_type_symbol
_atom_site_label
_atom_site_fract_x
_atom_site_fract_y
_atom_site_fract_z
Si Si1 0.546168 0.528066 0.391073
Si Si2 0.111310 0.895033 0.053065
Si Si3 0.741872 0.418114 0.655878
Si Si4 0.595951 0.226421 0.334090
Si Si5 0.661374 0.132124 0.722898
Si Si6 0.918722 0.356921 0.843496
Si Si7 0.000000 0.765327 0.750000
O O1 0.476344 0.445668 0.428176
O O2 0.605918 0.616032 0.459462
O O3 0.598392 0.402844 0.352983
O O4 0.499784 0.636751 0.326470
O O5 0.126275 0.734877 0.094977
O O6 0.182816 0.012077 0.083568
O O7 0.821443 0.352899 0.622438
O O8 0.696084 0.283365 0.692680
O O9 0.767129 0.547472 0.719769
O O10 0.600086 0.214779 0.242403
O O11 0.518684 0.141839 0.363184
O O12 0.583103 0.167242 0.766497
O O13 0.622014 0.020645 0.653530
#
# Coordination Sequence:
#
# PCOD8139395 Si02
#       7
#     8   8   8   8   8   8   4
#     4  10  21  37  64  89 116 162 198 242 288 366
#     4  10  20  39  61  89 123 153 199 243 302 342
#     4  11  21  36  58  91 118 153 190 257 291 347
#     4   9  18  33  61  83 118 152 203 233 296 340
#     4  11  23  35  63  88 119 150 203 240 298 341
#     4   9  18  38  60  85 112 163 197 245 280 365
#     4  12  22  40  62  90 112 158 206 242 278 372
#
# _framework density 20.605668000000001
#
# number of rings (size 3 to 8) (size 9 to 14) (size 15 to 20)
#    0.000    1.846    1.538    5.538    2.154    0.615 
#    0.000    1.538    6.769    0.000    0.000    0.000 
#    0.000    0.000    0.000    0.000    0.000    0.000 
#
# Total GULP energy -322284.660179 kJ/mol
# GULP energy per Si atom -12395.563853 kJ/mol
# Density = 2.055877 g / cm^3
# Si number density = 20.605668 Si / 1000 Ang^3
#
#
#
# Elastic Constant Matrix: (Units=GPa)
#
#
# Indices 1 2 3 4 5 6 
#
# 1 80.7933 32.0416 23.3336 0.0000 11.1421 0.0000
# 2 32.0416 93.2704 42.7181 0.0000 5.8134 0.0000
# 3 23.3336 42.7181 90.7690 0.0000 10.2201 0.0000
# 4 0.0000 0.0000 0.0000 8.4068 0.0000 15.7937
# 5 11.1421 5.8134 10.2201 0.0000 14.9771 0.0000
# 6 0.0000 0.0000 0.0000 15.7937 0.0000 40.4372
#
#
#
# Elastic Compliance Matrix: (Units=1/GPa)
#
#
# Indices 1 2 3 4 5 6 
#
# 1 0.015666 -0.004381 -0.000915 0.000000 -0.009330 0.000000
# 2 -0.004381 0.014906 -0.006071 0.000000 0.001616 0.000000
# 3 -0.000915 -0.006071 0.014913 0.000000 -0.007140 0.000000
# 4 0.000000 0.000000 0.000000 0.446790 0.000000 -0.174504
# 5 -0.009330 0.001616 -0.007140 0.000000 0.077954 0.000000
# 6 0.000000 0.000000 0.000000 -0.174504 0.000000 0.092886
#
#
# Mechanical properties :
#
#
# Convention : Reuss Voigt Hill
#
# Bulk Modulus (GPa) = 43.95369 51.22434 47.58901
# Shear Modulus (GPa) = 7.21050 23.88017 15.54534
#
# Velocity S-wave (km/s) = 1.87267 3.40797 2.74965
# Velocity P-wave (km/s) = 5.10422 6.35602 5.76420
#
# Compressibility (1/GPa) = 0.02275122
#
# Stress axis : x y z
#
# Youngs Moduli (GPa) = 63.83411 67.08508 67.05483
#
# Poissons Ratio (x) = 0.29392 0.06134
# Poissons Ratio (y) = 0.27967 0.40709
# Poissons Ratio (z) = 0.05839 0.40728
#
# Static dielectric constant tensor:
#      x y z
#    x 3.923870 0.000000 0.264910 
#    y 0.000000 3.880850 0.000000 
#    z 0.264910 0.000000 3.762600 
# 
# 
# High freq. dielectric constant tensor:
#      x y z
#    x 1.807930 0.000000 0.018130 
#    y 0.000000 1.810530 0.000000 
#    z 0.018130 0.000000 1.774230 
# 
# From -- ./inp_files/209241.got.cif
#   From: 2010.06.25/outbox.cif.g09.slc.cpg/sg15_105_cif.got.tgz:209241.got - 2010.06.28 07:06:18.
