data_PCOD8139421
_publ_section_title
;
Structure prediction by ZEFSAII (Michael W. Deem and Ramdas Pophale) SiO2 
 PCOD8139421
Probable space group: C 2/C
;
_chemical_formula_sum "Si O2"
_cell_formula_units_Z 64
_cell_length_a 9.738219
_cell_length_b 19.097806
_cell_length_c 32.771935
_cell_angle_alpha 90.000000
_cell_angle_beta 147.659125
_cell_angle_gamma 90.000000
_cell_volume 3260.487456
_symmetry_space_group_name_H-M "C 2/C"
_symmetry_group_IT_number 15
_symmetry_cell_setting 'monoclinic'
loop_
_space_group_symop_operation_xyz
x,y,z
-x,y,1/2-z
-x,-y,-z
x,-y,1/2+z
1/2+x,1/2+y,z
1/2-x,1/2+y,1/2-z
1/2-x,1/2-y,-z
1/2+x,1/2-y,1/2+z
loop_
_atom_site_type_symbol
_atom_site_label
_atom_site_fract_x
_atom_site_fract_y
_atom_site_fract_z
Si Si1 0.260217 0.329401 0.959561
Si Si2 0.785285 0.408307 0.304783
Si Si3 0.131014 0.561280 0.160858
Si Si4 0.726039 0.175556 0.949161
Si Si5 0.753337 0.839366 0.546184
Si Si6 0.275437 0.576225 0.798488
Si Si7 0.787148 0.172398 0.559546
Si Si8 0.519641 0.433931 0.827045
O O1 0.173615 0.254316 0.918695
O O2 0.116712 0.390522 0.899574
O O3 0.561895 0.346501 0.030627
O O4 0.188569 0.330652 0.988659
O O5 0.500000 0.419856 0.250000
O O6 0.936076 0.482130 0.343189
O O7 0.773803 0.381237 0.255534
O O8 0.942014 0.352920 0.370056
O O9 0.231991 0.556513 0.139378
O O10 0.313621 0.593749 0.242072
O O11 0.695514 0.257805 0.936552
O O12 0.826146 0.144675 0.017582
O O13 0.451335 0.858687 0.474749
O O14 0.928173 0.879755 0.623048
O O15 0.456036 0.626588 0.870869
O O16 0.427563 0.505019 0.825979
O O17 0.000000 0.560618 0.750000
#
# Coordination Sequence:
#
# PCOD8139421 Si02
#       8
#     8   8   8   8   8   8   8   8
#     4  10  21  39  59  87 120 152 195 248 290 343
#     4  11  21  40  60  82 120 160 193 236 293 356
#     4  10  20  39  62  86 114 156 197 239 292 350
#     4  10  23  38  58  88 123 152 194 246 293 344
#     4  10  21  39  60  87 117 156 196 239 293 352
#     4  11  23  38  57  90 119 149 197 247 293 345
#     4  10  21  38  60  86 118 153 197 242 289 350
#     4  10  21  39  61  85 118 153 197 240 290 354
#
# _framework density 19.628968
#
# number of rings (size 3 to 8) (size 9 to 14) (size 15 to 20)
#    0.000    1.750    3.750    1.500    0.000    5.000 
#    2.250    0.625    0.000    0.000    0.000    0.000 
#    0.000    0.000    0.000    0.000    0.000    0.000 
#
# Total GULP energy -396538.774462 kJ/mol
# GULP energy per Si atom -12391.836702 kJ/mol
# Density = 1.958429 g / cm^3
# Si number density = 19.628968 Si / 1000 Ang^3
#
#
#
# Elastic Constant Matrix: (Units=GPa)
#
#
# Indices 1 2 3 4 5 6 
#
# 1 78.9445 35.1572 28.0129 0.0023 -3.4091 0.0004
# 2 35.1572 73.3485 59.6836 0.0008 6.8144 0.0005
# 3 28.0129 59.6836 91.5021 0.0100 -1.1918 0.0029
# 4 0.0023 0.0008 0.0100 28.2082 0.0045 -2.4420
# 5 -3.4091 6.8144 -1.1918 0.0045 30.1530 0.0009
# 6 0.0004 0.0005 0.0029 -2.4420 0.0009 23.5009
#
#
#
# Elastic Compliance Matrix: (Units=1/GPa)
#
#
# Indices 1 2 3 4 5 6 
#
# 1 0.016536 -0.008980 0.000846 -0.000002 0.003932 -0.000001
# 2 -0.008980 0.035639 -0.020626 0.000009 -0.009885 0.000003
# 3 0.000846 -0.020626 0.024198 -0.000009 0.005713 -0.000004
# 4 -0.000002 0.000009 -0.000009 0.035772 -0.000008 0.003717
# 5 0.003932 -0.009885 0.005713 -0.000008 0.036068 -0.000003
# 6 -0.000001 0.000003 -0.000004 0.003717 -0.000003 0.042938
#
#
# Mechanical properties :
#
#
# Convention : Reuss Voigt Hill
#
# Bulk Modulus (GPa) = 53.04022 54.38916 53.71469
# Shear Modulus (GPa) = 19.61128 24.43518 22.02323
#
# Velocity S-wave (km/s) = 3.16428 3.53208 3.35322
# Velocity P-wave (km/s) = 6.35848 6.66355 6.51280
#
# Compressibility (1/GPa) = 0.01885362
#
# Stress axis : x y z
#
# Youngs Moduli (GPa) = 60.47514 28.05892 41.32610
#
# Poissons Ratio (x) = 0.25196 -0.03496
# Poissons Ratio (y) = 0.54304 0.85239
# Poissons Ratio (z) = -0.05116 0.57874
#
# Static dielectric constant tensor:
#      x y z
#    x 3.729470 0.000000 -0.112170 
#    y 0.000000 3.457210 0.000000 
#    z -0.112170 0.000000 3.474440 
# 
# 
# High freq. dielectric constant tensor:
#      x y z
#    x 1.773840 0.000000 -0.008550 
#    y 0.000000 1.753580 0.000000 
#    z -0.008550 0.000000 1.758370 
# 
# From -- ./inp_files/308790.got.cif
#   From: 2010.06.25/outbox.cif.g09.slc.cpg/sg15_155_cif.got.tgz:308790.got - 2010.06.28 07:06:18.
