data_PCOD8139678
_publ_section_title
;
Structure prediction by ZEFSAII (Michael W. Deem and Ramdas Pophale) SiO2 
 PCOD8139678
Probable space group: C 2/C
;
_chemical_formula_sum "Si O2"
_cell_formula_units_Z 48
_cell_length_a 8.774926
_cell_length_b 15.599165
_cell_length_c 25.677382
_cell_angle_alpha 90.000000
_cell_angle_beta 41.163273
_cell_angle_gamma 90.000000
_cell_volume 2313.439079
_symmetry_space_group_name_H-M "C 2/C"
_symmetry_group_IT_number 15
_symmetry_cell_setting 'monoclinic'
loop_
_space_group_symop_operation_xyz
x,y,z
-x,y,1/2-z
-x,-y,-z
x,-y,1/2+z
1/2+x,1/2+y,z
1/2-x,1/2+y,1/2-z
1/2-x,1/2-y,-z
1/2+x,1/2-y,1/2+z
loop_
_atom_site_type_symbol
_atom_site_label
_atom_site_fract_x
_atom_site_fract_y
_atom_site_fract_z
Si Si1 0.196635 0.256933 0.453141
Si Si2 0.836611 0.060051 0.199370
Si Si3 0.846335 0.417735 0.865977
Si Si4 0.590790 0.393767 0.173173
Si Si5 0.440767 0.009507 0.939260
Si Si6 0.305118 0.123993 0.061550
O O1 0.250000 0.250000 0.500000
O O2 0.221629 0.168598 0.416180
O O3 0.374985 0.324182 0.380994
O O4 0.925771 0.285928 0.515474
O O5 0.763860 0.048191 0.158395
O O6 0.623763 0.096669 0.287916
O O7 0.046028 0.130118 0.151865
O O8 0.914701 0.967272 0.199779
O O9 0.809991 0.491488 0.918772
O O10 0.500000 0.349855 0.250000
O O11 0.834090 0.433706 0.126600
O O12 0.510670 0.917887 0.945943
O O13 0.267632 0.059947 0.022054
#
# Coordination Sequence:
#
# PCOD8139678 Si02
#       6
#     8   8   8   8   8   8
#     4  11  23  39  63  93 125 160 203 258 309 365
#     4  10  23  38  61  89 121 161 210 253 305 364
#     4  11  22  38  61  90 129 153 199 265 312 345
#     4  10  20  39  67  85 117 165 209 244 299 376
#     4   9  17  35  62  88 111 160 207 243 286 373
#     4   9  19  37  60  86 118 162 211 234 301 378
#
# _framework density 20.748328999999998
#
# number of rings (size 3 to 8) (size 9 to 14) (size 15 to 20)
#    0.000    2.000    3.333    1.000    2.333    1.333 
#    0.000    0.000    7.333    0.000    0.000    0.000 
#    0.000    0.000    0.000    0.000    0.000    0.000 
#
# Total GULP energy -297511.971595 kJ/mol
# GULP energy per Si atom -12396.332150 kJ/mol
# Density = 2.070111 g / cm^3
# Si number density = 20.748329 Si / 1000 Ang^3
#
#
#
# Elastic Constant Matrix: (Units=GPa)
#
#
# Indices 1 2 3 4 5 6 
#
# 1 69.1984 28.1496 31.4867 -0.0007 14.9507 0.0023
# 2 28.1496 54.5100 22.9704 0.0058 5.6645 0.0005
# 3 31.4867 22.9704 94.2777 0.0080 8.7862 0.0002
# 4 -0.0007 0.0058 0.0080 31.8325 0.0034 5.0411
# 5 14.9507 5.6645 8.7862 0.0034 40.7566 -0.0022
# 6 0.0023 0.0005 0.0002 5.0411 -0.0022 24.9650
#
#
#
# Elastic Compliance Matrix: (Units=1/GPa)
#
#
# Indices 1 2 3 4 5 6 
#
# 1 0.021138 -0.008445 -0.004479 0.000004 -0.005615 -0.000003
# 2 -0.008445 0.023949 -0.003055 -0.000004 0.000428 0.000001
# 3 -0.004479 -0.003055 0.012914 -0.000003 -0.000716 0.000001
# 4 0.000004 -0.000004 -0.000003 0.032452 -0.000003 -0.006553
# 5 -0.005615 0.000428 -0.000716 -0.000003 0.026690 0.000004
# 6 -0.000003 0.000001 0.000001 -0.006553 0.000004 0.041379
#
#
# Mechanical properties :
#
#
# Convention : Reuss Voigt Hill
#
# Bulk Modulus (GPa) = 38.39640 42.57770 40.48705
# Shear Modulus (GPa) = 25.10546 28.53611 26.82078
#
# Velocity S-wave (km/s) = 3.48228 3.71259 3.59928
# Velocity P-wave (km/s) = 5.89188 6.24046 6.06867
#
# Compressibility (1/GPa) = 0.02604411
#
# Stress axis : x y z
#
# Youngs Moduli (GPa) = 47.30926 41.75534 77.43692
#
# Poissons Ratio (x) = 0.35262 0.34681
# Poissons Ratio (y) = 0.39952 0.23653
# Poissons Ratio (z) = 0.21188 0.12754
#
# Static dielectric constant tensor:
#      x y z
#    x 3.612940 -0.000010 0.110120 
#    y -0.000010 3.586660 0.000000 
#    z 0.110120 0.000000 4.249290 
# 
# 
# High freq. dielectric constant tensor:
#      x y z
#    x 1.804350 0.000000 0.011370 
#    y 0.000000 1.780250 0.000000 
#    z 0.011370 0.000000 1.832910 
# 
# From -- ./inp_files/288997.got.cif
#   From: 2010.06.25/outbox.cif.g09.slc.cpg/sg15_145_cif.got.tgz:288997.got - 2010.06.28 07:06:18.
