data_PCOD8139570
_publ_section_title
;
Structure prediction by ZEFSAII (Michael W. Deem and Ramdas Pophale) SiO2 
 PCOD8139570
Probable space group: C 2/C
;
_chemical_formula_sum "Si O2"
_cell_formula_units_Z 52
_cell_length_a 6.587378
_cell_length_b 14.348573
_cell_length_c 29.427069
_cell_angle_alpha 90.000000
_cell_angle_beta 57.276143
_cell_angle_gamma 90.000000
_cell_volume 2339.978371
_symmetry_space_group_name_H-M "C 2/C"
_symmetry_group_IT_number 15
_symmetry_cell_setting 'monoclinic'
loop_
_space_group_symop_operation_xyz
x,y,z
-x,y,1/2-z
-x,-y,-z
x,-y,1/2+z
1/2+x,1/2+y,z
1/2-x,1/2+y,1/2-z
1/2-x,1/2-y,-z
1/2+x,1/2-y,1/2+z
loop_
_atom_site_type_symbol
_atom_site_label
_atom_site_fract_x
_atom_site_fract_y
_atom_site_fract_z
Si Si1 0.820338 0.875707 0.638486
Si Si2 0.780044 0.251590 0.392541
Si Si3 0.141115 0.049254 0.614979
Si Si4 0.500000 0.193011 0.250000
Si Si5 0.239674 0.823252 0.296457
Si Si6 0.957372 0.582376 0.414853
Si Si7 0.639700 0.349725 0.024694
O O1 0.691385 0.875591 0.702974
O O2 0.617074 0.880500 0.625070
O O3 0.958940 0.775081 0.618178
O O4 0.994236 0.963270 0.611531
O O5 0.792740 0.273412 0.337759
O O6 0.626650 0.157998 0.417894
O O7 0.653479 0.335943 0.436294
O O8 0.223847 0.116989 0.564323
O O9 0.967667 0.098431 0.672776
O O10 0.390424 0.013705 0.608215
O O11 0.639935 0.253173 0.270722
O O12 0.500000 0.865701 0.250000
O O13 0.720332 0.575090 0.476572
O O14 0.750000 0.250000 0.000000
#
# Coordination Sequence:
#
# PCOD8139570 Si02
#       7
#     8   8   8   4   8   8   8
#     4  11  23  39  63  93 126 164 218 269 323 389
#     4   9  19  39  61  92 124 163 212 266 316 391
#     4  10  24  41  61  95 131 163 212 268 325 389
#     4  12  24  40  66  90 120 174 212 260 336 386
#     4  11  22  41  63  89 123 167 217 269 322 392
#     4  10  20  39  64  91 129 168 206 261 329 390
#     4   9  19  39  68  91 128 171 211 262 328 385
#
# _framework density 22.222428000000001
#
# number of rings (size 3 to 8) (size 9 to 14) (size 15 to 20)
#    0.000    1.846    3.077    0.462    1.077    2.462 
#    0.000    0.000    0.000    0.000    0.000    0.000 
#    0.000    0.000    0.000    0.000    0.000    0.000 
#
# Total GULP energy -322160.707266 kJ/mol
# GULP energy per Si atom -12390.796433 kJ/mol
# Density = 2.217185 g / cm^3
# Si number density = 22.222428 Si / 1000 Ang^3
#
#
#
# Elastic Constant Matrix: (Units=GPa)
#
#
# Indices 1 2 3 4 5 6 
#
# 1 105.7871 50.7449 53.2482 -0.0008 -7.1807 0.0001
# 2 50.7449 70.1091 55.1904 0.0001 -5.0007 -0.0002
# 3 53.2482 55.1904 163.5533 -0.0005 -10.8709 0.0003
# 4 -0.0008 0.0001 -0.0005 31.7979 0.0002 -10.7972
# 5 -7.1807 -5.0007 -10.8709 0.0002 22.7826 0.0001
# 6 0.0001 -0.0002 0.0003 -10.7972 0.0001 39.1756
#
#
#
# Elastic Compliance Matrix: (Units=1/GPa)
#
#
# Indices 1 2 3 4 5 6 
#
# 1 0.014874 -0.009420 -0.001538 0.000000 0.001886 0.000000
# 2 -0.009420 0.025420 -0.005512 0.000000 -0.000020 0.000000
# 3 -0.001538 -0.005512 0.008636 0.000000 0.002426 0.000000
# 4 0.000000 0.000000 0.000000 0.034696 0.000000 0.009562
# 5 0.001886 -0.000020 0.002426 0.000000 0.045641 0.000000
# 6 0.000000 0.000000 0.000000 0.009562 0.000000 0.028162
#
#
# Mechanical properties :
#
#
# Convention : Reuss Voigt Hill
#
# Bulk Modulus (GPa) = 62.54460 73.09072 67.81766
# Shear Modulus (GPa) = 25.54938 30.76896 28.15917
#
# Velocity S-wave (km/s) = 3.39442 3.72505 3.56357
# Velocity P-wave (km/s) = 6.60066 7.17379 6.89318
#
# Compressibility (1/GPa) = 0.01598859
#
# Stress axis : x y z
#
# Youngs Moduli (GPa) = 67.23065 39.33963 115.78973
#
# Poissons Ratio (x) = 0.37059 0.17813
# Poissons Ratio (y) = 0.63334 0.63824
# Poissons Ratio (z) = 0.10342 0.21684
#
# Static dielectric constant tensor:
#      x y z
#    x 3.965320 0.000000 -0.502370 
#    y 0.000000 3.955300 0.000000 
#    z -0.502370 0.000000 4.496060 
# 
# 
# High freq. dielectric constant tensor:
#      x y z
#    x 1.861730 0.000000 -0.019030 
#    y 0.000000 1.861360 0.000000 
#    z -0.019030 0.000000 1.891320 
# 
# From -- ./inp_files/305597.got.cif
#   From: 2010.06.25/outbox.cif.g09.slc.cpg/sg15_153_cif.got.tgz:305597.got - 2010.06.28 07:06:18.
