data_PCOD8139015
_publ_section_title
;
Structure prediction by ZEFSAII (Michael W. Deem and Ramdas Pophale) SiO2 
 PCOD8139015
Probable space group: C 2/C
;
_chemical_formula_sum "Si O2"
_cell_formula_units_Z 52
_cell_length_a 8.802306
_cell_length_b 21.502749
_cell_length_c 13.732427
_cell_angle_alpha 90.000000
_cell_angle_beta 109.176030
_cell_angle_gamma 90.000000
_cell_volume 2454.969420
_symmetry_space_group_name_H-M "C 2/C"
_symmetry_group_IT_number 15
_symmetry_cell_setting 'monoclinic'
loop_
_space_group_symop_operation_xyz
x,y,z
-x,y,1/2-z
-x,-y,-z
x,-y,1/2+z
1/2+x,1/2+y,z
1/2-x,1/2+y,1/2-z
1/2-x,1/2-y,-z
1/2+x,1/2-y,1/2+z
loop_
_atom_site_type_symbol
_atom_site_label
_atom_site_fract_x
_atom_site_fract_y
_atom_site_fract_z
Si Si1 0.892891 0.647632 0.818176
Si Si2 0.639572 0.804088 0.513721
Si Si3 0.646361 0.587924 0.396435
Si Si4 0.858294 0.482583 0.398239
Si Si5 0.661194 0.246330 0.229471
Si Si6 0.500000 0.052968 0.250000
Si Si7 0.304795 0.374498 0.814455
O O1 0.826932 0.590017 0.869656
O O2 0.752732 0.688033 0.737644
O O3 0.000000 0.623593 0.750000
O O4 0.981984 0.692822 0.913572
O O5 0.750000 0.750000 0.500000
O O6 0.726347 0.870922 0.516461
O O7 0.604364 0.787723 0.618409
O O8 0.696153 0.514665 0.408811
O O9 0.663790 0.609695 0.290255
O O10 0.467273 0.601006 0.402765
O O11 0.907589 0.511752 0.306953
O O12 0.000000 0.500000 0.500000
O O13 0.500000 0.263089 0.250000
O O14 0.778371 0.199779 0.314898
O O15 0.357044 0.095151 0.173394
#
# Coordination Sequence:
#
# PCOD8139015 Si02
#       7
#     8   8   8   8   8   4   8
#     4  12  24  42  66  93 135 183 221 274 345 404
#     4  11  21  39  69  96 131 177 224 274 336 419
#     4   9  19  35  61  93 120 167 217 258 313 401
#     4  11  22  40  62  90 129 171 223 265 327 400
#     4  11  24  41  64 102 135 168 222 288 346 399
#     4  10  20  38  64  86 122 170 212 268 324 394
#     4   9  18  36  62  90 121 162 213 267 326 387
#
# _framework density 21.181528
#
# number of rings (size 3 to 8) (size 9 to 14) (size 15 to 20)
#    0.000    1.538    4.615    0.923    2.154    0.615 
#    5.538    2.308    0.000    0.000    0.000    0.000 
#    0.000    0.000    0.000    0.000    0.000    0.000 
#
# Total GULP energy -322136.624910 kJ/mol
# GULP energy per Si atom -12389.870189 kJ/mol
# Density = 2.113332 g / cm^3
# Si number density = 21.181528 Si / 1000 Ang^3
#
#
#
# Elastic Constant Matrix: (Units=GPa)
#
#
# Indices 1 2 3 4 5 6 
#
# 1 112.4647 37.0927 9.1313 0.0000 6.4307 0.0000
# 2 37.0927 128.0730 17.9143 0.0000 2.5333 0.0000
# 3 9.1313 17.9143 58.7755 0.0000 10.6219 0.0000
# 4 0.0000 0.0000 0.0000 29.3569 0.0000 -1.6851
# 5 6.4307 2.5333 10.6219 0.0000 18.2763 0.0000
# 6 0.0000 0.0000 0.0000 -1.6851 0.0000 32.2097
#
#
#
# Elastic Compliance Matrix: (Units=1/GPa)
#
#
# Indices 1 2 3 4 5 6 
#
# 1 0.010007 -0.002818 -0.000145 0.000000 -0.003046 0.000000
# 2 -0.002818 0.008951 -0.002509 0.000000 0.001209 0.000000
# 3 -0.000145 -0.002509 0.019810 0.000000 -0.011114 0.000000
# 4 0.000000 0.000000 0.000000 0.034166 0.000000 0.001788
# 5 -0.003046 0.001209 -0.011114 0.000000 0.062079 0.000000
# 6 0.000000 0.000000 0.000000 0.001788 0.000000 0.031140
#
#
# Mechanical properties :
#
#
# Convention : Reuss Voigt Hill
#
# Bulk Modulus (GPa) = 35.94041 47.50998 41.72520
# Shear Modulus (GPa) = 26.82806 31.64690 29.23748
#
# Velocity S-wave (km/s) = 3.56276 3.86953 3.71931
# Velocity P-wave (km/s) = 5.82486 6.51482 6.17948
#
# Compressibility (1/GPa) = 0.02782383
#
# Stress axis : x y z
#
# Youngs Moduli (GPa) = 99.93050 111.71773 50.48018
#
# Poissons Ratio (x) = 0.31478 0.00734
# Poissons Ratio (y) = 0.28157 0.12665
# Poissons Ratio (z) = 0.01453 0.28029
#
# Static dielectric constant tensor:
#      x y z
#    x 4.153630 0.000000 0.354690 
#    y 0.000000 4.087080 0.000000 
#    z 0.354690 0.000000 4.584200 
# 
# 
# High freq. dielectric constant tensor:
#      x y z
#    x 1.820430 0.000000 0.009040 
#    y 0.000000 1.835740 0.000000 
#    z 0.009040 0.000000 1.806240 
# 
# From -- ./inp_files/136145.got.cif
#   From: 2010.06.25/outbox.cif.g09.slc.cpg/sg15_69_cif.got.tgz:136145.got - 2010.06.28 07:06:18.
