data_PCOD8139251
_publ_section_title
;
Structure prediction by ZEFSAII (Michael W. Deem and Ramdas Pophale) SiO2 
 PCOD8139251
Probable space group: C 2/C
;
_chemical_formula_sum "Si O2"
_cell_formula_units_Z 56
_cell_length_a 7.569751
_cell_length_b 25.906797
_cell_length_c 14.115260
_cell_angle_alpha 90.000000
_cell_angle_beta 115.404008
_cell_angle_gamma 90.000000
_cell_volume 2500.453311
_symmetry_space_group_name_H-M "C 2/C"
_symmetry_group_IT_number 15
_symmetry_cell_setting 'monoclinic'
loop_
_space_group_symop_operation_xyz
x,y,z
-x,y,1/2-z
-x,-y,-z
x,-y,1/2+z
1/2+x,1/2+y,z
1/2-x,1/2+y,1/2-z
1/2-x,1/2-y,-z
1/2+x,1/2-y,1/2+z
loop_
_atom_site_type_symbol
_atom_site_label
_atom_site_fract_x
_atom_site_fract_y
_atom_site_fract_z
Si Si1 0.500000 0.433785 0.750000
Si Si2 0.276431 0.369535 0.940002
Si Si3 0.000000 0.687635 0.250000
Si Si4 0.685718 0.089603 0.858051
Si Si5 0.774953 0.240407 0.177667
Si Si6 0.025703 0.164994 0.648412
Si Si7 0.785871 0.472954 0.660906
Si Si8 0.322631 0.641962 0.070395
O O1 0.621931 0.469216 0.705466
O O2 0.662122 0.397579 0.838164
O O3 0.262894 0.431906 0.933704
O O4 0.459510 0.351532 0.919308
O O5 0.074988 0.347136 0.853944
O O6 0.311978 0.344792 0.052261
O O7 0.179814 0.721389 0.254049
O O8 0.500000 0.100015 0.750000
O O9 0.866871 0.110259 0.838120
O O10 0.720508 0.029378 0.887082
O O11 0.674172 0.119146 0.956752
O O12 0.655118 0.292110 0.121413
O O13 0.749052 0.197787 0.089378
O O14 0.000000 0.254092 0.250000
O O15 0.000000 0.181877 0.750000
O O16 0.000000 0.461012 0.750000
#
# Coordination Sequence:
#
# PCOD8139251 Si02
#       8
#     4   8   4   8   8   8   8   8
#     4  10  20  38  69 106 125 172 232 282 326 394
#     4  10  22  41  71  99 135 177 224 284 330 396
#     4  12  22  42  71 106 131 170 232 292 320 404
#     4  10  24  45  64  97 143 182 220 277 341 408
#     4  12  23  44  73  98 132 178 228 280 336 401
#     4  11  26  45  63 102 140 178 226 274 350 406
#     4  10  21  42  70 100 134 178 228 272 333 401
#     4  10  21  41  67 101 131 174 236 275 334 393
#
# _framework density 22.39594
#
# number of rings (size 3 to 8) (size 9 to 14) (size 15 to 20)
#    0.000    1.429    3.571    1.286    1.000    9.143 
#    2.571    1.429    0.000    0.000    0.000    0.000 
#    0.000    0.000    0.000    0.000    0.000    0.000 
#
# Total GULP energy -347106.424829 kJ/mol
# GULP energy per Si atom -12396.658030 kJ/mol
# Density = 2.234497 g / cm^3
# Si number density = 22.395940 Si / 1000 Ang^3
#
#
#
# Elastic Constant Matrix: (Units=GPa)
#
#
# Indices 1 2 3 4 5 6 
#
# 1 67.9145 38.7932 31.0709 0.0000 11.0203 0.0000
# 2 38.7932 138.5626 75.9444 0.0000 11.9595 0.0000
# 3 31.0709 75.9444 159.6495 0.0000 19.5841 0.0000
# 4 0.0000 0.0000 0.0000 17.6819 0.0000 -0.5601
# 5 11.0203 11.9595 19.5841 0.0000 34.0990 0.0000
# 6 0.0000 0.0000 0.0000 -0.5601 0.0000 25.4593
#
#
#
# Elastic Compliance Matrix: (Units=1/GPa)
#
#
# Indices 1 2 3 4 5 6 
#
# 1 0.018226 -0.004175 -0.001096 0.000000 -0.003797 0.000000
# 2 -0.004175 0.010739 -0.004303 0.000000 0.000054 0.000000
# 3 -0.001096 -0.004303 0.008924 0.000000 -0.003262 0.000000
# 4 0.000000 0.000000 0.000000 0.056595 0.000000 0.001245
# 5 -0.003797 0.000054 -0.003262 0.000000 0.032408 0.000000
# 6 0.000000 0.000000 0.000000 0.001245 0.000000 0.039306
#
#
# Mechanical properties :
#
#
# Convention : Reuss Voigt Hill
#
# Bulk Modulus (GPa) = 53.35134 73.08262 63.21698
# Shear Modulus (GPa) = 26.09712 30.13590 28.11651
#
# Velocity S-wave (km/s) = 3.41730 3.67222 3.54705
# Velocity P-wave (km/s) = 6.28046 7.11921 6.71295
#
# Compressibility (1/GPa) = 0.01874367
#
# Stress axis : x y z
#
# Youngs Moduli (GPa) = 54.86570 93.11522 112.05831
#
# Poissons Ratio (x) = 0.38872 0.12277
# Poissons Ratio (y) = 0.22904 0.48217
# Poissons Ratio (z) = 0.06011 0.40066
#
# Static dielectric constant tensor:
#      x y z
#    x 3.887680 0.000000 0.149070 
#    y 0.000000 4.130730 0.000000 
#    z 0.149070 0.000000 4.256010 
# 
# 
# High freq. dielectric constant tensor:
#      x y z
#    x 1.871930 0.000000 0.010360 
#    y 0.000000 1.890180 0.000000 
#    z 0.010360 0.000000 1.877330 
# 
# From -- ./inp_files/138721.got.cif
#   From: 2010.06.25/outbox.cif.g09.slc.cpg/sg15_70_cif.got.tgz:138721.got - 2010.06.28 07:06:18.
