data_PCOD8139714
_publ_section_title
;
Structure prediction by ZEFSAII (Michael W. Deem and Ramdas Pophale) SiO2 
 PCOD8139714
Probable space group: C 2/C
;
_chemical_formula_sum "Si O2"
_cell_formula_units_Z 40
_cell_length_a 16.650643
_cell_length_b 7.277269
_cell_length_c 15.829164
_cell_angle_alpha 90.000000
_cell_angle_beta 103.394230
_cell_angle_gamma 90.000000
_cell_volume 1865.866755
_symmetry_space_group_name_H-M "C 2/C"
_symmetry_group_IT_number 15
_symmetry_cell_setting 'monoclinic'
loop_
_space_group_symop_operation_xyz
x,y,z
-x,y,1/2-z
-x,-y,-z
x,-y,1/2+z
1/2+x,1/2+y,z
1/2-x,1/2+y,1/2-z
1/2-x,1/2-y,-z
1/2+x,1/2-y,1/2+z
loop_
_atom_site_type_symbol
_atom_site_label
_atom_site_fract_x
_atom_site_fract_y
_atom_site_fract_z
Si Si1 0.306541 0.905556 0.699325
Si Si2 0.395998 0.423600 0.142771
Si Si3 0.054226 0.036307 0.593291
Si Si4 0.795310 0.918711 0.467894
Si Si5 0.359219 0.714700 0.265034
O O1 0.272411 0.966684 0.599773
O O2 0.361987 0.066104 0.754310
O O3 0.363832 0.729196 0.699399
O O4 0.235572 0.849615 0.747690
O O5 0.491303 0.368219 0.144099
O O6 0.395741 0.619003 0.190369
O O7 0.338216 0.445431 0.045977
O O8 0.134289 0.154204 0.582137
O O9 0.087657 0.843692 0.640225
O O10 0.000000 0.000000 0.500000
O O11 0.750000 0.750000 0.500000
#
# Coordination Sequence:
#
# PCOD8139714 Si02
#       5
#     8   8   8   8   8
#     4  11  22  38  66  98 121 170 212 261 317 377
#     4  11  21  40  65  93 130 163 208 261 318 373
#     4   9  22  41  64  88 128 170 203 263 322 370
#     4  10  20  39  68  92 126 165 211 259 314 383
#     4  11  21  39  66  92 126 164 217 259 313 384
#
# _framework density 21.437757000000001
#
# number of rings (size 3 to 8) (size 9 to 14) (size 15 to 20)
#    0.000    1.600    4.000    1.200    0.000    0.000 
#    0.000    5.000    4.400    0.000    0.000    0.000 
#    0.000    0.000    0.000    0.000    0.000    0.000 
#
# Total GULP energy -247892.953755 kJ/mol
# GULP energy per Si atom -12394.647688 kJ/mol
# Density = 2.138896 g / cm^3
# Si number density = 21.437757 Si / 1000 Ang^3
#
#
#
# Elastic Constant Matrix: (Units=GPa)
#
#
# Indices 1 2 3 4 5 6 
#
# 1 135.3090 40.3573 26.4325 0.0000 -24.7869 0.0000
# 2 40.3573 82.3262 12.1145 0.0000 -5.1124 0.0000
# 3 26.4325 12.1145 66.4907 0.0000 -0.6772 0.0000
# 4 0.0000 0.0000 0.0000 33.7054 0.0000 -5.1743
# 5 -24.7869 -5.1124 -0.6772 0.0000 43.6976 0.0000
# 6 0.0000 0.0000 0.0000 -5.1743 0.0000 23.8639
#
#
#
# Elastic Compliance Matrix: (Units=1/GPa)
#
#
# Indices 1 2 3 4 5 6 
#
# 1 0.010249 -0.004219 -0.003252 0.000000 0.005270 0.000000
# 2 -0.004219 0.014307 -0.000937 0.000000 -0.000734 0.000000
# 3 -0.003252 -0.000937 0.016486 0.000000 -0.001699 0.000000
# 4 0.000000 0.000000 0.000000 0.030690 0.000000 0.006654
# 5 0.005270 -0.000734 -0.001699 0.000000 0.025762 0.000000
# 6 0.000000 0.000000 0.000000 0.006654 0.000000 0.043347
#
#
# Mechanical properties :
#
#
# Convention : Reuss Voigt Hill
#
# Bulk Modulus (GPa) = 41.27683 49.10381 45.19032
# Shear Modulus (GPa) = 30.16895 33.93482 32.05188
#
# Velocity S-wave (km/s) = 3.75544 3.98294 3.87086
# Velocity P-wave (km/s) = 6.17256 6.64129 6.41121
#
# Compressibility (1/GPa) = 0.02422667
#
# Stress axis : x y z
#
# Youngs Moduli (GPa) = 97.56646 69.89513 60.65738
#
# Poissons Ratio (x) = 0.29486 0.19727
# Poissons Ratio (y) = 0.41159 0.05685
# Poissons Ratio (z) = 0.31731 0.06550
#
# Static dielectric constant tensor:
#      x y z
#    x 4.639580 0.000000 -0.187940 
#    y 0.000000 3.445880 0.000000 
#    z -0.187940 0.000000 4.142920 
# 
# 
# High freq. dielectric constant tensor:
#      x y z
#    x 1.856490 0.000000 -0.007660 
#    y 0.000000 1.798320 0.000000 
#    z -0.007660 0.000000 1.860390 
# 
# From -- ./inp_files/207982.got.cif
#   From: 2010.06.25/outbox.cif.g09.slc.cpg/sg15_104_cif.got.tgz:207982.got - 2010.06.28 07:06:18.
