data_PCOD8139596
_publ_section_title
;
Structure prediction by ZEFSAII (Michael W. Deem and Ramdas Pophale) SiO2 
 PCOD8139596
Probable space group: C 2/C
;
_chemical_formula_sum "Si O2"
_cell_formula_units_Z 48
_cell_length_a 17.190030
_cell_length_b 15.613039
_cell_length_c 13.900991
_cell_angle_alpha 90.000000
_cell_angle_beta 137.470518
_cell_angle_gamma 90.000000
_cell_volume 2521.952693
_symmetry_space_group_name_H-M "C 2/C"
_symmetry_group_IT_number 15
_symmetry_cell_setting 'monoclinic'
loop_
_space_group_symop_operation_xyz
x,y,z
-x,y,1/2-z
-x,-y,-z
x,-y,1/2+z
1/2+x,1/2+y,z
1/2-x,1/2+y,1/2-z
1/2-x,1/2-y,-z
1/2+x,1/2-y,1/2+z
loop_
_atom_site_type_symbol
_atom_site_label
_atom_site_fract_x
_atom_site_fract_y
_atom_site_fract_z
Si Si1 0.551744 0.993559 0.697455
Si Si2 0.961172 0.814800 0.993165
Si Si3 0.845439 0.901722 0.220600
Si Si4 0.497506 0.560368 0.138885
Si Si5 0.097020 0.380558 0.071290
Si Si6 0.302533 0.426052 0.962143
O O1 0.500000 0.027811 0.750000
O O2 0.463712 0.924956 0.574104
O O3 0.671436 0.946278 0.822393
O O4 0.562595 0.075354 0.639464
O O5 0.996190 0.858938 0.924933
O O6 0.946518 0.715585 0.960101
O O7 0.840915 0.851930 0.923399
O O8 0.060294 0.831282 0.162725
O O9 0.733333 0.887896 0.182589
O O10 0.895886 0.996706 0.285474
O O11 0.819312 0.889520 0.084597
O O12 0.500000 0.595033 0.250000
O O13 0.378595 0.510436 0.012520
#
# Coordination Sequence:
#
# PCOD8139596 Si02
#       6
#     8   8   8   8   8   8
#     4  11  23  43  60  81 117 163 199 233 292 360
#     4  11  22  36  60  93 120 146 190 254 294 341
#     4  10  20  40  60  89 115 153 199 235 293 347
#     4   9  19  37  64  86 112 153 200 240 283 339
#     4  11  25  38  59  87 121 156 192 241 298 355
#     4  10  20  39  65  84 113 156 197 244 286 344
#
# _framework density 19.032872000000001
#
# number of rings (size 3 to 8) (size 9 to 14) (size 15 to 20)
#    0.000    1.667    1.667    5.500    2.333    2.667 
#    0.000    0.000    0.000    5.000    0.000    0.000 
#    0.000    0.000    0.000    0.000    0.000    0.000 
#
# Total GULP energy -297699.499106 kJ/mol
# GULP energy per Si atom -12404.145796 kJ/mol
# Density = 1.898955 g / cm^3
# Si number density = 19.032872 Si / 1000 Ang^3
#
#
#
# Elastic Constant Matrix: (Units=GPa)
#
#
# Indices 1 2 3 4 5 6 
#
# 1 113.6772 60.7328 40.7593 0.0000 -5.9042 0.0000
# 2 60.7328 112.1445 37.4716 0.0000 -6.9795 0.0000
# 3 40.7593 37.4716 96.6578 0.0000 1.2517 0.0000
# 4 0.0000 0.0000 0.0000 9.6346 0.0000 -0.6239
# 5 -5.9042 -6.9795 1.2517 0.0000 36.5995 0.0000
# 6 0.0000 0.0000 0.0000 -0.6239 0.0000 11.5195
#
#
#
# Elastic Compliance Matrix: (Units=1/GPa)
#
#
# Indices 1 2 3 4 5 6 
#
# 1 0.013235 -0.006007 -0.003266 0.000000 0.001101 0.000000
# 2 -0.006007 0.013133 -0.002579 0.000000 0.001624 0.000000
# 3 -0.003266 -0.002579 0.012742 0.000000 -0.001455 0.000000
# 4 0.000000 0.000000 0.000000 0.104158 0.000000 0.005641
# 5 0.001101 0.001624 -0.001455 0.000000 0.027860 0.000000
# 6 0.000000 0.000000 0.000000 0.005641 0.000000 0.087115
#
#
# Mechanical properties :
#
#
# Convention : Reuss Voigt Hill
#
# Bulk Modulus (GPa) = 64.91789 66.71186 65.81487
# Shear Modulus (GPa) = 17.41662 23.78512 20.60087
#
# Velocity S-wave (km/s) = 3.02831 3.53893 3.29353
# Velocity P-wave (km/s) = 6.81248 7.19900 7.00841
#
# Compressibility (1/GPa) = 0.01540407
#
# Stress axis : x y z
#
# Youngs Moduli (GPa) = 75.55921 76.14234 78.48181
#
# Poissons Ratio (x) = 0.45742 0.25634
# Poissons Ratio (y) = 0.45392 0.20242
# Poissons Ratio (z) = 0.24679 0.19638
#
# Static dielectric constant tensor:
#      x y z
#    x 3.628880 0.000000 -0.010820 
#    y 0.000000 3.177260 0.000000 
#    z -0.010820 0.000000 3.669070 
# 
# 
# High freq. dielectric constant tensor:
#      x y z
#    x 1.755490 0.000000 -0.001850 
#    y 0.000000 1.714570 0.000000 
#    z -0.001850 0.000000 1.751720 
# 
# From -- ./inp_files/96841.got.cif
#   From: 2010.06.25/outbox.cif.g09.slc.cpg/sg15_49_cif.got.tgz:96841.got - 2010.06.28 07:06:18.
