data_PCOD8139486
_publ_section_title
;
Structure prediction by ZEFSAII (Michael W. Deem and Ramdas Pophale) SiO2 
 PCOD8139486
Probable space group: C 2/C
;
_chemical_formula_sum "Si O2"
_cell_formula_units_Z 56
_cell_length_a 7.302690
_cell_length_b 23.981381
_cell_length_c 17.797585
_cell_angle_alpha 90.000000
_cell_angle_beta 55.470477
_cell_angle_gamma 90.000000
_cell_volume 2567.780876
_symmetry_space_group_name_H-M "C 2/C"
_symmetry_group_IT_number 15
_symmetry_cell_setting 'monoclinic'
loop_
_space_group_symop_operation_xyz
x,y,z
-x,y,1/2-z
-x,-y,-z
x,-y,1/2+z
1/2+x,1/2+y,z
1/2-x,1/2+y,1/2-z
1/2-x,1/2-y,-z
1/2+x,1/2-y,1/2+z
loop_
_atom_site_type_symbol
_atom_site_label
_atom_site_fract_x
_atom_site_fract_y
_atom_site_fract_z
Si Si1 0.083551 0.603093 0.460129
Si Si2 0.902578 0.072089 0.948012
Si Si3 0.971987 0.718371 0.531466
Si Si4 0.317364 0.744901 0.228462
Si Si5 0.964777 0.045239 0.102853
Si Si6 0.267308 0.623580 0.264107
Si Si7 0.490072 0.693756 0.594185
O O1 0.280313 0.564986 0.446116
O O2 0.085862 0.608266 0.368735
O O3 0.839560 0.578421 0.535567
O O4 0.126848 0.663727 0.488170
O O5 0.053600 0.127761 0.905283
O O6 0.873934 0.056719 0.041496
O O7 0.033682 0.020861 0.878282
O O8 0.927499 0.732291 0.627752
O O9 0.752282 0.701822 0.537677
O O10 0.090698 0.770435 0.460422
O O11 0.500000 0.744400 0.250000
O O12 0.213469 0.683408 0.238443
O O13 0.121264 0.785494 0.302546
O O14 0.785302 0.075237 0.198043
O O15 0.500000 0.629999 0.250000
#
# Coordination Sequence:
#
# PCOD8139486 Si02
#       7
#     8   8   8   8   8   8   8
#     4  10  20  39  63  87 117 160 205 243 305 369
#     4  10  22  38  60  89 118 161 201 248 313 357
#     4  10  21  37  59  87 120 162 192 251 312 362
#     4  11  22  35  58  91 120 155 200 249 312 371
#     4  10  21  39  61  86 121 158 202 259 294 366
#     4   9  19  37  57  88 117 153 203 250 297 364
#     4  10  21  39  57  86 124 155 201 251 304 381
#
# _framework density 21.808713999999998
#
# number of rings (size 3 to 8) (size 9 to 14) (size 15 to 20)
#    0.000    2.000    1.429    1.714    2.000    1.143 
#    2.571   10.000    0.000    0.000    0.000    0.000 
#    0.000    0.000    0.000    0.000    0.000    0.000 
#
# Total GULP energy -347131.532731 kJ/mol
# GULP energy per Si atom -12397.554740 kJ/mol
# Density = 2.175908 g / cm^3
# Si number density = 21.808714 Si / 1000 Ang^3
#
#
#
# Elastic Constant Matrix: (Units=GPa)
#
#
# Indices 1 2 3 4 5 6 
#
# 1 26.8152 10.5493 -1.6486 0.0000 3.5690 0.0000
# 2 10.5493 191.0774 52.8947 0.0000 5.0856 0.0000
# 3 -1.6486 52.8947 106.2103 0.0000 15.0490 0.0000
# 4 0.0000 0.0000 0.0000 33.9633 0.0000 8.5754
# 5 3.5690 5.0856 15.0490 0.0000 26.5425 0.0000
# 6 0.0000 0.0000 0.0000 8.5754 0.0000 15.2415
#
#
#
# Elastic Compliance Matrix: (Units=1/GPa)
#
#
# Indices 1 2 3 4 5 6 
#
# 1 0.039434 -0.002816 0.002924 0.000000 -0.006421 0.000000
# 2 -0.002816 0.006280 -0.003321 0.000000 0.001058 0.000000
# 3 0.002924 -0.003321 0.012048 0.000000 -0.006588 0.000000
# 4 0.000000 0.000000 0.000000 0.034319 0.000000 -0.019309
# 5 -0.006421 0.001058 -0.006588 0.000000 0.042071 0.000000
# 6 0.000000 0.000000 0.000000 -0.019309 0.000000 0.076474
#
#
# Mechanical properties :
#
#
# Convention : Reuss Voigt Hill
#
# Bulk Modulus (GPa) = 19.47917 49.74375 34.61146
# Shear Modulus (GPa) = 21.35249 32.63665 26.99457
#
# Velocity S-wave (km/s) = 3.13242 3.87265 3.52204
# Velocity P-wave (km/s) = 4.69404 6.54639 5.69602
#
# Compressibility (1/GPa) = 0.05133688
#
# Stress axis : x y z
#
# Youngs Moduli (GPa) = 25.35863 159.23102 83.00007
#
# Poissons Ratio (x) = 0.44835 -0.24270
# Poissons Ratio (y) = 0.07140 0.27567
# Poissons Ratio (z) = -0.07415 0.52886
#
# Static dielectric constant tensor:
#      x y z
#    x 3.701510 0.000000 -0.049290 
#    y 0.000000 4.353280 0.000000 
#    z -0.049290 0.000000 3.971570 
# 
# 
# High freq. dielectric constant tensor:
#      x y z
#    x 1.850770 0.000000 0.002150 
#    y 0.000000 1.863500 0.000000 
#    z 0.002150 0.000000 1.842150 
# 
# From -- ./inp_files/193201.got.cif
#   From: 2010.06.25/outbox.cif.g09.slc.cpg/sg15_97_cif.got.tgz:193201.got - 2010.06.28 07:06:18.
