data_PCOD8139904
_publ_section_title
;
Structure prediction by ZEFSAII (Michael W. Deem and Ramdas Pophale) SiO2 
 PCOD8139904
Probable space group: C 2/C
;
_chemical_formula_sum "Si O2"
_cell_formula_units_Z 52
_cell_length_a 6.381830
_cell_length_b 25.429683
_cell_length_c 16.838891
_cell_angle_alpha 90.000000
_cell_angle_beta 73.265942
_cell_angle_gamma 90.000000
_cell_volume 2617.020724
_symmetry_space_group_name_H-M "C 2/C"
_symmetry_group_IT_number 15
_symmetry_cell_setting 'monoclinic'
loop_
_space_group_symop_operation_xyz
x,y,z
-x,y,1/2-z
-x,-y,-z
x,-y,1/2+z
1/2+x,1/2+y,z
1/2-x,1/2+y,1/2-z
1/2-x,1/2-y,-z
1/2+x,1/2-y,1/2+z
loop_
_atom_site_type_symbol
_atom_site_label
_atom_site_fract_x
_atom_site_fract_y
_atom_site_fract_z
Si Si1 0.838644 0.148670 0.926116
Si Si2 0.184685 0.211851 0.290528
Si Si3 0.633261 0.103733 0.166123
Si Si4 0.619400 0.121537 0.465613
Si Si5 0.510004 0.560466 0.018928
Si Si6 0.059099 0.789295 0.534743
Si Si7 0.000000 0.198689 0.750000
O O1 0.918900 0.159817 0.828266
O O2 0.574207 0.143533 0.956651
O O3 0.942161 0.094645 0.948839
O O4 0.916081 0.197280 0.972765
O O5 0.316003 0.159981 0.300076
O O6 0.317619 0.260426 0.236903
O O7 0.000000 0.194217 0.250000
O O8 0.096849 0.236399 0.382576
O O9 0.500000 0.071868 0.250000
O O10 0.467549 0.113211 0.112496
O O11 0.847391 0.073415 0.111028
O O12 0.732881 0.068793 0.487388
O O13 0.831936 0.158845 0.440188
O O14 0.500000 0.500000 0.000000
O O15 0.250000 0.750000 0.500000
#
# Coordination Sequence:
#
# PCOD8139904 Si02
#       7
#     8   8   8   8   8   8   4
#     4  10  23  41  58  91 122 174 218 262 325 397
#     4  12  23  35  57  91 129 168 209 263 318 382
#     4  11  22  37  63  96 125 158 208 262 322 384
#     4  10  20  40  63  86 127 159 205 267 316 392
#     4  10  23  45  68  90 121 164 217 274 336 392
#     4  11  21  34  57  84 123 170 214 257 319 381
#     4  12  26  38  58  88 136 174 214 260 318 390
#
# _framework density 19.869924000000001
#
# number of rings (size 3 to 8) (size 9 to 14) (size 15 to 20)
#    0.000    1.231    5.385    2.769    2.154    4.923 
#    0.000    3.077    0.000    0.000    0.000    0.000 
#    0.000    0.000    0.000    0.000    0.000    0.000 
#
# Total GULP energy -322212.110546 kJ/mol
# GULP energy per Si atom -12392.773483 kJ/mol
# Density = 1.982470 g / cm^3
# Si number density = 19.869924 Si / 1000 Ang^3
#
#
#
# Elastic Constant Matrix: (Units=GPa)
#
#
# Indices 1 2 3 4 5 6 
#
# 1 122.2031 32.0494 48.0816 0.0000 -5.3042 0.0000
# 2 32.0494 95.3710 39.3577 0.0000 -7.3616 0.0000
# 3 48.0816 39.3577 140.3191 0.0000 -19.0329 0.0000
# 4 0.0000 0.0000 0.0000 15.1056 0.0000 0.7203
# 5 -5.3042 -7.3616 -19.0329 0.0000 36.7317 0.0000
# 6 0.0000 0.0000 0.0000 0.7203 0.0000 28.7382
#
#
#
# Elastic Compliance Matrix: (Units=1/GPa)
#
#
# Indices 1 2 3 4 5 6 
#
# 1 0.009846 -0.002179 -0.002828 0.000000 -0.000480 0.000000
# 2 -0.002179 0.012357 -0.002610 0.000000 0.000810 0.000000
# 3 -0.002828 -0.002610 0.009359 0.000000 0.003918 0.000000
# 4 0.000000 0.000000 0.000000 0.066280 0.000000 -0.001661
# 5 -0.000480 0.000810 0.003918 0.000000 0.029348 0.000000
# 6 0.000000 0.000000 0.000000 -0.001661 0.000000 0.034839
#
#
# Mechanical properties :
#
#
# Convention : Reuss Voigt Hill
#
# Bulk Modulus (GPa) = 61.23819 66.31895 63.77857
# Shear Modulus (GPa) = 27.36665 32.00873 29.68769
#
# Velocity S-wave (km/s) = 3.71521 4.01797 3.86955
# Velocity P-wave (km/s) = 7.02070 7.41448 7.22027
#
# Compressibility (1/GPa) = 0.01632968
#
# Stress axis : x y z
#
# Youngs Moduli (GPa) = 101.56030 80.92588 106.84883
#
# Poissons Ratio (x) = 0.17633 0.30216
# Poissons Ratio (y) = 0.22129 0.27882
# Poissons Ratio (z) = 0.28720 0.21118
#
# Static dielectric constant tensor:
#      x y z
#    x 3.279230 0.000000 0.097860 
#    y 0.000000 3.057460 0.000000 
#    z 0.097860 0.000000 3.480010 
# 
# 
# High freq. dielectric constant tensor:
#      x y z
#    x 1.796930 0.000000 -0.010330 
#    y 0.000000 1.744490 0.000000 
#    z -0.010330 0.000000 1.773690 
# 
# From -- ./inp_files/185836.got.cif
#   From: 2010.06.25/outbox.cif.g09.slc.cpg/sg15_93_cif.got.tgz:185836.got - 2010.06.28 07:06:18.
