data_PCOD8139604
_publ_section_title
;
Structure prediction by ZEFSAII (Michael W. Deem and Ramdas Pophale) SiO2 
 PCOD8139604
Probable space group: C 2/C
;
_chemical_formula_sum "Si O2"
_cell_formula_units_Z 52
_cell_length_a 17.502367
_cell_length_b 8.737052
_cell_length_c 20.976721
_cell_angle_alpha 90.000000
_cell_angle_beta 55.967674
_cell_angle_gamma 90.000000
_cell_volume 2658.325448
_symmetry_space_group_name_H-M "C 2/C"
_symmetry_group_IT_number 15
_symmetry_cell_setting 'monoclinic'
loop_
_space_group_symop_operation_xyz
x,y,z
-x,y,1/2-z
-x,-y,-z
x,-y,1/2+z
1/2+x,1/2+y,z
1/2-x,1/2+y,1/2-z
1/2-x,1/2-y,-z
1/2+x,1/2-y,1/2+z
loop_
_atom_site_type_symbol
_atom_site_label
_atom_site_fract_x
_atom_site_fract_y
_atom_site_fract_z
Si Si1 0.046625 0.834792 0.414558
Si Si2 0.500000 0.009473 0.250000
Si Si3 0.206684 0.398200 0.829266
Si Si4 0.642297 0.848070 0.270697
Si Si5 0.282018 0.139372 0.569334
Si Si6 0.605304 0.781516 0.601109
Si Si7 0.585814 0.669476 0.412065
O O1 0.112411 0.694620 0.368640
O O2 0.963207 0.833770 0.403130
O O3 0.008203 0.814746 0.504101
O O4 0.100928 0.994502 0.383137
O O5 0.580111 0.904842 0.241772
O O6 0.454050 0.110650 0.326069
O O7 0.293480 0.287633 0.784283
O O8 0.205582 0.516869 0.770765
O O9 0.210991 0.482368 0.895157
O O10 0.575144 0.780979 0.356641
O O11 0.336152 0.117871 0.477192
O O12 0.174726 0.177337 0.609467
O O13 0.325270 0.280813 0.588451
#
# Coordination Sequence:
#
# PCOD8139604 Si02
#       7
#     8   4   8   8   8   8   8
#     4  10  20  39  65  90 118 160 201 249 302 362
#     4  12  26  38  60  90 124 162 196 260 298 362
#     4  11  23  39  64  89 118 164 202 253 300 361
#     4  11  25  40  59  90 123 157 202 254 305 361
#     4   9  22  41  65  88 124 163 203 245 298 375
#     4  10  22  40  61  92 125 162 200 243 313 360
#     4   9  21  38  65  89 121 155 206 247 297 368
#
# _framework density 19.561185999999999
#
# number of rings (size 3 to 8) (size 9 to 14) (size 15 to 20)
#    0.000    1.846    1.538    0.923    8.615    4.308 
#    0.000    0.769    0.000    0.000    0.000    0.000 
#    0.000    0.000    0.000    0.000    0.000    0.000 
#
# Total GULP energy -322477.855971 kJ/mol
# GULP energy per Si atom -12402.994460 kJ/mol
# Density = 1.951666 g / cm^3
# Si number density = 19.561186 Si / 1000 Ang^3
#
#
#
# Elastic Constant Matrix: (Units=GPa)
#
#
# Indices 1 2 3 4 5 6 
#
# 1 95.7099 45.7627 34.8762 0.0000 -1.1484 0.0003
# 2 45.7627 114.0141 46.4530 0.0001 -2.7624 0.0008
# 3 34.8762 46.4530 76.4884 0.0000 0.1519 -0.0001
# 4 0.0000 0.0001 0.0000 34.8136 0.0000 -3.3405
# 5 -1.1484 -2.7624 0.1519 0.0000 27.1837 0.0000
# 6 0.0003 0.0008 -0.0001 -3.3405 0.0000 29.9633
#
#
#
# Elastic Compliance Matrix: (Units=1/GPa)
#
#
# Indices 1 2 3 4 5 6 
#
# 1 0.013744 -0.003931 -0.003880 0.000000 0.000203 0.000000
# 2 -0.003931 0.012820 -0.005996 0.000000 0.001170 0.000000
# 3 -0.003880 -0.005996 0.018486 0.000000 -0.000876 0.000000
# 4 0.000000 0.000000 0.000000 0.029035 0.000000 0.003237
# 5 0.000203 0.001170 -0.000876 0.000000 0.036919 0.000000
# 6 0.000000 0.000000 0.000000 0.003237 0.000000 0.033735
#
#
# Mechanical properties :
#
#
# Convention : Reuss Voigt Hill
#
# Bulk Modulus (GPa) = 57.34970 60.04403 58.69687
# Shear Modulus (GPa) = 28.06397 29.00013 28.53205
#
# Velocity S-wave (km/s) = 3.79182 3.85455 3.82331
# Velocity P-wave (km/s) = 6.96795 7.11141 7.04005
#
# Compressibility (1/GPa) = 0.01743688
#
# Stress axis : x y z
#
# Youngs Moduli (GPa) = 72.75910 78.00440 54.09475
#
# Poissons Ratio (x) = 0.30662 0.20988
# Poissons Ratio (y) = 0.28600 0.32434
# Poissons Ratio (z) = 0.28230 0.46769
#
# Static dielectric constant tensor:
#      x y z
#    x 3.563610 0.000000 0.073260 
#    y 0.000000 3.564490 0.000000 
#    z 0.073260 0.000000 3.697700 
# 
# 
# High freq. dielectric constant tensor:
#      x y z
#    x 1.761120 0.000000 0.000290 
#    y 0.000000 1.757990 0.000000 
#    z 0.000290 0.000000 1.772270 
# 
# From -- ./inp_files/209016.got.cif
#   From: 2010.06.25/outbox.cif.g09.slc.cpg/sg15_105_cif.got.tgz:209016.got - 2010.06.28 07:06:18.
