data_PCOD8139485
_publ_section_title
;
Structure prediction by ZEFSAII (Michael W. Deem and Ramdas Pophale) SiO2 
 PCOD8139485
Probable space group: C 2/C
;
_chemical_formula_sum "Si O2"
_cell_formula_units_Z 40
_cell_length_a 12.547612
_cell_length_b 8.087713
_cell_length_c 18.745223
_cell_angle_alpha 90.000000
_cell_angle_beta 70.845633
_cell_angle_gamma 90.000000
_cell_volume 1796.978303
_symmetry_space_group_name_H-M "C 2/C"
_symmetry_group_IT_number 15
_symmetry_cell_setting 'monoclinic'
loop_
_space_group_symop_operation_xyz
x,y,z
-x,y,1/2-z
-x,-y,-z
x,-y,1/2+z
1/2+x,1/2+y,z
1/2-x,1/2+y,1/2-z
1/2-x,1/2-y,-z
1/2+x,1/2-y,1/2+z
loop_
_atom_site_type_symbol
_atom_site_label
_atom_site_fract_x
_atom_site_fract_y
_atom_site_fract_z
Si Si1 0.034525 0.014029 0.911070
Si Si2 0.292446 0.510137 0.935005
Si Si3 0.675485 0.820809 0.842693
Si Si4 0.125363 0.584855 0.736581
Si Si5 0.245305 0.377526 0.601354
O O1 0.070348 0.198908 0.879220
O O2 0.923284 0.959457 0.892106
O O3 0.140287 0.892096 0.875736
O O4 0.000000 0.000000 0.000000
O O5 0.213669 0.379063 0.913053
O O6 0.278945 0.688363 0.903433
O O7 0.259486 0.518581 0.025174
O O8 0.781148 0.730197 0.780949
O O9 0.634145 0.977692 0.806879
O O10 0.144401 0.461805 0.665971
O O11 0.000000 0.658047 0.750000
#
# Coordination Sequence:
#
# PCOD8139485 Si02
#       5
#     8   8   8   8   8
#     4   9  20  38  60  88 118 151 194 247 297 344
#     4  10  20  39  63  87 117 153 194 251 294 338
#     4  11  24  39  61  89 118 157 202 241 293 357
#     4  11  24  41  59  86 122 159 194 240 296 356
#     4   9  20  39  61  87 119 153 198 241 293 355
#
# _framework density 22.259592000000001
#
# number of rings (size 3 to 8) (size 9 to 14) (size 15 to 20)
#    0.000    2.000    0.000    2.400    0.000   12.000 
#    0.000   17.000    0.000    0.000    0.000    0.000 
#    0.000    0.000    0.000    0.000    0.000    0.000 
#
# Total GULP energy -247920.935429 kJ/mol
# GULP energy per Si atom -12396.046771 kJ/mol
# Density = 2.220893 g / cm^3
# Si number density = 22.259592 Si / 1000 Ang^3
#
#
#
# Elastic Constant Matrix: (Units=GPa)
#
#
# Indices 1 2 3 4 5 6 
#
# 1 96.0282 -0.3038 21.3113 0.0000 4.1925 0.0000
# 2 -0.3038 15.2973 14.3933 0.0000 5.6220 0.0000
# 3 21.3113 14.3933 52.4108 0.0000 2.5431 0.0000
# 4 0.0000 0.0000 0.0000 39.8517 0.0000 -1.1878
# 5 4.1925 5.6220 2.5431 0.0000 30.0579 0.0000
# 6 0.0000 0.0000 0.0000 -1.1878 0.0000 23.5301
#
#
#
# Elastic Compliance Matrix: (Units=1/GPa)
#
#
# Indices 1 2 3 4 5 6 
#
# 1 0.012077 0.007654 -0.006890 0.000000 -0.002533 0.000000
# 2 0.007654 0.099774 -0.029677 0.000000 -0.017218 0.000000
# 3 -0.006890 -0.029677 0.029838 0.000000 0.003987 0.000000
# 4 0.000000 0.000000 0.000000 0.025131 0.000000 0.001269
# 5 -0.002533 -0.017218 0.003987 0.000000 0.036506 0.000000
# 6 0.000000 0.000000 0.000000 0.001269 0.000000 0.042563
#
#
# Mechanical properties :
#
#
# Convention : Reuss Voigt Hill
#
# Bulk Modulus (GPa) = 11.92417 26.05977 18.99197
# Shear Modulus (GPa) = 15.07519 27.24363 21.15941
#
# Velocity S-wave (km/s) = 2.60522 3.50223 3.08648
# Velocity P-wave (km/s) = 3.79711 5.29970 4.61003
#
# Compressibility (1/GPa) = 0.08386327
#
# Stress axis : x y z
#
# Youngs Moduli (GPa) = 82.79870 10.02260 33.51409
#
# Poissons Ratio (x) = -0.07671 0.23091
# Poissons Ratio (y) = -0.63371 0.99460
# Poissons Ratio (z) = 0.57048 0.29744
#
# Static dielectric constant tensor:
#      x y z
#    x 4.584730 0.000000 -0.036240 
#    y 0.000000 3.857220 0.000000 
#    z -0.036240 0.000000 3.952600 
# 
# 
# High freq. dielectric constant tensor:
#      x y z
#    x 1.886680 0.000000 -0.000800 
#    y 0.000000 1.867360 0.000000 
#    z -0.000800 0.000000 1.873630 
# 
# From -- ./inp_files/195101.got.cif
#   From: 2010.06.25/outbox.cif.g09.slc.cpg/sg15_98_cif.got.tgz:195101.got - 2010.06.28 07:06:18.
