data_PCOD8139869
_publ_section_title
;
Structure prediction by ZEFSAII (Michael W. Deem and Ramdas Pophale) SiO2 
 PCOD8139869
Probable space group: C 2/C
;
_chemical_formula_sum "Si O2"
_cell_formula_units_Z 60
_cell_length_a 16.216011
_cell_length_b 7.976645
_cell_length_c 22.649113
_cell_angle_alpha 90.000000
_cell_angle_beta 94.189877
_cell_angle_gamma 90.000000
_cell_volume 2921.818566
_symmetry_space_group_name_H-M "C 2/C"
_symmetry_group_IT_number 15
_symmetry_cell_setting 'monoclinic'
loop_
_space_group_symop_operation_xyz
x,y,z
-x,y,1/2-z
-x,-y,-z
x,-y,1/2+z
1/2+x,1/2+y,z
1/2-x,1/2+y,1/2-z
1/2-x,1/2-y,-z
1/2+x,1/2-y,1/2+z
loop_
_atom_site_type_symbol
_atom_site_label
_atom_site_fract_x
_atom_site_fract_y
_atom_site_fract_z
Si Si1 0.757994 0.488849 0.324369
Si Si2 0.673898 0.229796 0.575973
Si Si3 0.584614 0.416901 0.672126
Si Si4 0.000000 0.331872 0.250000
Si Si5 0.608531 0.094247 0.861424
Si Si6 0.409521 0.475909 0.625190
Si Si7 0.764988 0.852755 0.295557
Si Si8 0.357098 0.796349 0.555750
O O1 0.806383 0.436400 0.385576
O O2 0.659356 0.497656 0.328407
O O3 0.795288 0.666006 0.308378
O O4 0.775304 0.358977 0.272114
O O5 0.612862 0.345937 0.610153
O O6 0.628348 0.177164 0.513173
O O7 0.760441 0.321228 0.565972
O O8 0.570393 0.278081 0.721697
O O9 0.499168 0.517597 0.656771
O O10 0.654027 0.535769 0.701231
O O11 0.954394 0.438524 0.196563
O O12 0.592395 0.275981 0.892176
O O13 0.701809 0.084735 0.842136
O O14 0.594035 0.943057 0.906900
O O15 0.390198 0.608136 0.571880
#
# Coordination Sequence:
#
# PCOD8139869 Si02
#       8
#     8   8   8   4   8   8   8   8
#     4  10  21  37  59  89 119 155 202 253 302 363
#     4  10  21  40  63  88 120 159 209 254 296 357
#     4  11  20  40  61  88 123 158 196 252 309 363
#     4  10  22  40  62  86 130 158 190 250 316 356
#     4  10  20  40  62  89 119 162 197 248 303 358
#     4   9  22  40  58  86 125 156 198 246 311 355
#     4  11  20  35  62  89 118 155 204 245 307 365
#     4  10  21  42  64  88 122 163 207 254 293 362
#
# _framework density 20.535155
#
# number of rings (size 3 to 8) (size 9 to 14) (size 15 to 20)
#    0.000    1.867    1.333    4.000    1.867    0.533 
#    9.600    6.000    0.000    0.000    0.000    0.000 
#    0.000    0.000    0.000    0.000    0.000    0.000 
#
# Total GULP energy -371890.416038 kJ/mol
# GULP energy per Si atom -12396.347201 kJ/mol
# Density = 2.048842 g / cm^3
# Si number density = 20.535155 Si / 1000 Ang^3
#
#
#
# Elastic Constant Matrix: (Units=GPa)
#
#
# Indices 1 2 3 4 5 6 
#
# 1 70.8786 19.7145 23.2417 0.0000 11.3040 0.0000
# 2 19.7145 103.6270 75.0215 0.0000 9.3928 0.0000
# 3 23.2417 75.0215 162.8284 0.0000 10.5472 0.0000
# 4 0.0000 0.0000 0.0000 30.7319 0.0000 5.8038
# 5 11.3040 9.3928 10.5472 0.0000 28.8308 0.0000
# 6 0.0000 0.0000 0.0000 5.8038 0.0000 23.7019
#
#
#
# Elastic Compliance Matrix: (Units=1/GPa)
#
#
# Indices 1 2 3 4 5 6 
#
# 1 0.015787 -0.001716 -0.001125 0.000000 -0.005219 0.000000
# 2 -0.001716 0.014821 -0.006468 0.000000 -0.001790 0.000000
# 3 -0.001125 -0.006468 0.009338 0.000000 -0.000868 0.000000
# 4 0.000000 0.000000 0.000000 0.034117 0.000000 -0.008354
# 5 -0.005219 -0.001790 -0.000868 0.000000 0.037632 0.000000
# 6 0.000000 0.000000 0.000000 -0.008354 0.000000 0.044236
#
#
# Mechanical properties :
#
#
# Convention : Reuss Voigt Hill
#
# Bulk Modulus (GPa) = 46.88399 63.69881 55.29140
# Shear Modulus (GPa) = 27.52409 31.27665 29.40037
#
# Velocity S-wave (km/s) = 3.66504 3.90690 3.78790
# Velocity P-wave (km/s) = 6.38676 7.17207 6.79077
#
# Compressibility (1/GPa) = 0.02132924
#
# Stress axis : x y z
#
# Youngs Moduli (GPa) = 63.34268 67.47146 107.08748
#
# Poissons Ratio (x) = 0.11579 0.12044
# Poissons Ratio (y) = 0.10871 0.69262
# Poissons Ratio (z) = 0.07124 0.43639
#
# Static dielectric constant tensor:
#      x y z
#    x 3.745750 0.000000 -0.029500 
#    y 0.000000 3.633220 0.000000 
#    z -0.029500 0.000000 3.740060 
# 
# 
# High freq. dielectric constant tensor:
#      x y z
#    x 1.805020 0.000000 -0.000900 
#    y 0.000000 1.787350 0.000000 
#    z -0.000900 0.000000 1.797410 
# 
# From -- ./inp_files/247512.got.cif
#   From: 2010.06.25/outbox.cif.g09.slc.cpg/sg15_124_cif.got.tgz:247512.got - 2010.06.28 07:06:18.
