data_PCOD8139500
_publ_section_title
;
Structure prediction by ZEFSAII (Michael W. Deem and Ramdas Pophale) SiO2 
 PCOD8139500
Probable space group: C 2/C
;
_chemical_formula_sum "Si O2"
_cell_formula_units_Z 64
_cell_length_a 28.287116
_cell_length_b 17.443941
_cell_length_c 12.113222
_cell_angle_alpha 90.000000
_cell_angle_beta 33.499547
_cell_angle_gamma 90.000000
_cell_volume 3298.961647
_symmetry_space_group_name_H-M "C 2/C"
_symmetry_group_IT_number 15
_symmetry_cell_setting 'monoclinic'
loop_
_space_group_symop_operation_xyz
x,y,z
-x,y,1/2-z
-x,-y,-z
x,-y,1/2+z
1/2+x,1/2+y,z
1/2-x,1/2+y,1/2-z
1/2-x,1/2-y,-z
1/2+x,1/2-y,1/2+z
loop_
_atom_site_type_symbol
_atom_site_label
_atom_site_fract_x
_atom_site_fract_y
_atom_site_fract_z
Si Si1 0.620440 0.794158 0.922047
Si Si2 0.092687 0.176272 0.527429
Si Si3 0.307189 0.434739 0.053355
Si Si4 0.433422 0.210073 0.730849
Si Si5 0.722915 0.600348 0.437818
Si Si6 0.808049 0.701803 0.801840
Si Si7 0.946592 0.116816 0.125913
Si Si8 0.133031 0.881004 0.331857
O O1 0.691998 0.850627 0.739948
O O2 0.635240 0.709741 0.846723
O O3 0.623349 0.794764 0.048554
O O4 0.527917 0.824736 0.061257
O O5 0.141523 0.135317 0.532199
O O6 0.152111 0.246450 0.372630
O O7 0.076740 0.116693 0.458329
O O8 0.000000 0.206545 0.750000
O O9 0.257405 0.515252 0.145177
O O10 0.241809 0.365943 0.159641
O O11 0.349168 0.426206 0.090965
O O12 0.381016 0.438609 0.816789
O O13 0.385015 0.165869 0.726157
O O14 0.437172 0.299152 0.694558
O O15 0.704877 0.598419 0.603054
O O16 0.750000 0.750000 0.000000
O O17 0.042560 0.088160 0.961200
#
# Coordination Sequence:
#
# PCOD8139500 Si02
#       8
#     8   8   8   8   8   8   8   8
#     4  10  20  39  63  92 118 157 210 246 298 358
#     4  11  22  40  63  93 120 158 205 252 308 353
#     4  12  25  39  60  93 122 164 201 242 304 364
#     4   9  18  36  69  91 106 157 214 259 277 344
#     4  12  27  37  59  91 132 160 188 253 311 367
#     4  11  20  39  69  90 116 159 213 255 286 362
#     4  10  20  39  63  89 120 155 206 248 297 360
#     4  11  22  41  60  88 124 160 202 246 301 363
#
# _framework density 19.400044000000001
#
# number of rings (size 3 to 8) (size 9 to 14) (size 15 to 20)
#    0.000    1.250    5.000    2.250    1.750    1.500 
#    0.000    0.625    2.750    0.000    0.000    0.000 
#    0.000    0.000    0.000    0.000    0.000    0.000 
#
# Total GULP energy -396860.379933 kJ/mol
# GULP energy per Si atom -12401.886873 kJ/mol
# Density = 1.935589 g / cm^3
# Si number density = 19.400044 Si / 1000 Ang^3
#
#
#
# Elastic Constant Matrix: (Units=GPa)
#
#
# Indices 1 2 3 4 5 6 
#
# 1 83.0567 14.7966 16.6842 0.0000 4.4498 0.0000
# 2 14.7966 61.5684 22.2632 0.0000 -6.4767 0.0000
# 3 16.6842 22.2632 98.1139 0.0000 7.2991 0.0000
# 4 0.0000 0.0000 0.0000 16.5440 0.0000 -1.0760
# 5 4.4498 -6.4767 7.2991 0.0000 29.5959 0.0000
# 6 0.0000 0.0000 0.0000 -1.0760 0.0000 3.6730
#
#
#
# Elastic Compliance Matrix: (Units=1/GPa)
#
#
# Indices 1 2 3 4 5 6 
#
# 1 0.012945 -0.002842 -0.001391 0.000000 -0.002225 0.000000
# 2 -0.002842 0.019061 -0.004262 0.000000 0.005650 0.000000
# 3 -0.001391 -0.004262 0.011664 0.000000 -0.003600 0.000000
# 4 0.000000 0.000000 0.000000 0.061619 0.000000 0.018051
# 5 -0.002225 0.005650 -0.003600 0.000000 0.036247 0.000000
# 6 0.000000 0.000000 0.000000 0.018051 0.000000 0.277544
#
#
# Mechanical properties :
#
#
# Convention : Reuss Voigt Hill
#
# Bulk Modulus (GPa) = 37.48252 38.91411 38.19831
# Shear Modulus (GPa) = 11.23690 22.56225 16.89958
#
# Velocity S-wave (km/s) = 2.40931 3.41398 2.95466
# Velocity P-wave (km/s) = 5.20601 5.97015 5.60112
#
# Compressibility (1/GPa) = 0.02667911
#
# Stress axis : x y z
#
# Youngs Moduli (GPa) = 77.25046 52.46413 85.73624
#
# Poissons Ratio (x) = 0.14911 0.11924
# Poissons Ratio (y) = 0.21956 0.36541
# Poissons Ratio (z) = 0.10744 0.22361
#
# Static dielectric constant tensor:
#      x y z
#    x 4.216170 0.000000 -0.135550 
#    y 0.000000 3.208680 0.000000 
#    z -0.135550 0.000000 3.635260 
# 
# 
# High freq. dielectric constant tensor:
#      x y z
#    x 1.775770 0.000000 0.002300 
#    y 0.000000 1.721070 0.000000 
#    z 0.002300 0.000000 1.760250 
# 
# From -- ./inp_files/98773.got.cif
#   From: 2010.06.25/outbox.cif.g09.slc.cpg/sg15_50_cif.got.tgz:98773.got - 2010.06.28 07:06:18.
