data_PCOD8139128
_publ_section_title
;
Structure prediction by ZEFSAII (Michael W. Deem and Ramdas Pophale) SiO2 
 PCOD8139128
Probable space group: C 2/C
;
_chemical_formula_sum "Si O2"
_cell_formula_units_Z 40
_cell_length_a 14.894339
_cell_length_b 6.732901
_cell_length_c 17.879233
_cell_angle_alpha 90.000000
_cell_angle_beta 70.803559
_cell_angle_gamma 90.000000
_cell_volume 1693.272489
_symmetry_space_group_name_H-M "C 2/C"
_symmetry_group_IT_number 15
_symmetry_cell_setting 'monoclinic'
loop_
_space_group_symop_operation_xyz
x,y,z
-x,y,1/2-z
-x,-y,-z
x,-y,1/2+z
1/2+x,1/2+y,z
1/2-x,1/2+y,1/2-z
1/2-x,1/2-y,-z
1/2+x,1/2-y,1/2+z
loop_
_atom_site_type_symbol
_atom_site_label
_atom_site_fract_x
_atom_site_fract_y
_atom_site_fract_z
Si Si1 0.354895 0.244691 0.438293
Si Si2 0.405476 0.812785 0.082982
Si Si3 0.357998 0.202679 0.165287
Si Si4 0.771837 0.457171 0.835298
Si Si5 0.491131 0.465640 0.837545
O O1 0.250000 0.250000 0.500000
O O2 0.426939 0.213383 0.488254
O O3 0.386700 0.447106 0.386431
O O4 0.353040 0.065927 0.377439
O O5 0.304794 0.717207 0.132713
O O6 0.487514 0.710884 0.110151
O O7 0.404408 0.049366 0.094757
O O8 0.274539 0.324837 0.146493
O O9 0.435581 0.353118 0.175436
O O10 0.317958 0.065889 0.242049
O O11 0.500000 0.384595 0.750000
#
# Coordination Sequence:
#
# PCOD8139128 Si02
#       5
#     8   8   8   8   8
#     4  10  22  43  65  93 133 177 219 275 338 401
#     4  10  23  39  65  94 135 171 216 277 335 392
#     4  11  21  38  65  96 131 170 228 277 332 397
#     4  10  20  38  65  93 129 175 221 273 324 400
#     4  11  23  41  67  97 131 176 223 278 331 400
#
# _framework density 23.622895
#
# number of rings (size 3 to 8) (size 9 to 14) (size 15 to 20)
#    0.000    1.600    4.000    0.600    0.000    2.400 
#    0.000    0.000    0.000    0.000    0.000    0.000 
#    0.000    0.000    0.000    0.000    0.000    0.000 
#
# Total GULP energy -247936.133467 kJ/mol
# GULP energy per Si atom -12396.806673 kJ/mol
# Density = 2.356913 g / cm^3
# Si number density = 23.622895 Si / 1000 Ang^3
#
#
#
# Elastic Constant Matrix: (Units=GPa)
#
#
# Indices 1 2 3 4 5 6 
#
# 1 75.0177 39.9309 44.1206 -0.0002 13.3351 -0.0002
# 2 39.9309 128.1037 41.6147 -0.0004 21.8883 -0.0004
# 3 44.1206 41.6147 133.5216 -0.0001 41.8029 -0.0001
# 4 -0.0002 -0.0004 -0.0001 22.0231 -0.0001 5.8409
# 5 13.3351 21.8883 41.8029 -0.0001 43.0812 -0.0002
# 6 -0.0002 -0.0004 -0.0001 5.8409 -0.0002 42.6295
#
#
#
# Elastic Compliance Matrix: (Units=1/GPa)
#
#
# Indices 1 2 3 4 5 6 
#
# 1 0.018425 -0.004310 -0.005236 0.000000 0.001567 0.000000
# 2 -0.004310 0.009896 -0.000723 0.000000 -0.002992 0.000000
# 3 -0.005236 -0.000723 0.012672 0.000000 -0.010308 0.000000
# 4 0.000000 0.000000 0.000000 0.047119 0.000000 -0.006456
# 5 0.001567 -0.002992 -0.010308 0.000000 0.034249 0.000000
# 6 0.000000 0.000000 0.000000 -0.006456 0.000000 0.024343
#
#
# Mechanical properties :
#
#
# Convention : Reuss Voigt Hill
#
# Bulk Modulus (GPa) = 48.88792 65.33058 57.10925
# Shear Modulus (GPa) = 28.72566 35.61187 32.16876
#
# Velocity S-wave (km/s) = 3.49092 3.88689 3.69421
# Velocity P-wave (km/s) = 6.08184 6.91806 6.51338
#
# Compressibility (1/GPa) = 0.02045495
#
# Stress axis : x y z
#
# Youngs Moduli (GPa) = 54.27370 101.05239 78.91328
#
# Poissons Ratio (x) = 0.43556 0.41316
# Poissons Ratio (y) = 0.23393 0.05708
# Poissons Ratio (z) = 0.28415 0.07309
#
# Static dielectric constant tensor:
#      x y z
#    x 4.395540 0.000000 0.387090 
#    y 0.000000 4.012560 0.000000 
#    z 0.387090 0.000000 4.778700 
# 
# 
# High freq. dielectric constant tensor:
#      x y z
#    x 1.927180 0.000000 0.003620 
#    y 0.000000 1.917610 0.000000 
#    z 0.003620 0.000000 1.952170 
# 
# From -- ./inp_files/207977.got.cif
#   From: 2010.06.25/outbox.cif.g09.slc.cpg/sg15_104_cif.got.tgz:207977.got - 2010.06.28 07:06:18.
