data_PCOD8139666
_publ_section_title
;
Structure prediction by ZEFSAII (Michael W. Deem and Ramdas Pophale) SiO2 
 PCOD8139666
Probable space group: C 2/C
;
_chemical_formula_sum "Si O2"
_cell_formula_units_Z 32
_cell_length_a 7.394117
_cell_length_b 16.864608
_cell_length_c 11.638211
_cell_angle_alpha 90.000000
_cell_angle_beta 72.504874
_cell_angle_gamma 90.000000
_cell_volume 1384.139760
_symmetry_space_group_name_H-M "C 2/C"
_symmetry_group_IT_number 15
_symmetry_cell_setting 'monoclinic'
loop_
_space_group_symop_operation_xyz
x,y,z
-x,y,1/2-z
-x,-y,-z
x,-y,1/2+z
1/2+x,1/2+y,z
1/2-x,1/2+y,1/2-z
1/2-x,1/2-y,-z
1/2+x,1/2-y,1/2+z
loop_
_atom_site_type_symbol
_atom_site_label
_atom_site_fract_x
_atom_site_fract_y
_atom_site_fract_z
Si Si1 0.788507 0.138639 0.098692
Si Si2 0.500000 0.246515 0.250000
Si Si3 0.834518 0.185367 0.570496
Si Si4 0.000000 0.070298 0.250000
Si Si5 0.786843 0.478942 0.505867
O O1 0.597541 0.189781 0.135800
O O2 0.865210 0.132951 0.212911
O O3 0.939916 0.180550 0.988958
O O4 0.769159 0.047358 0.069465
O O5 0.663269 0.294604 0.291727
O O6 0.750000 0.250000 0.500000
O O7 0.725772 0.103424 0.562888
O O8 0.136641 0.018594 0.140418
O O9 0.000000 0.500000 0.500000
#
# Coordination Sequence:
#
# PCOD8139666 Si02
#       5
#     8   4   8   4   8
#     4  11  23  43  66  93 131 173 222 276 333 411
#     4  12  24  43  68  97 134 180 218 280 348 395
#     4  11  24  43  66  98 135 174 225 281 338 404
#     4  10  20  39  66  95 126 168 216 280 336 383
#     4  11  24  43  68  98 132 175 227 277 335 414
#
# _framework density 23.119052
#
# number of rings (size 3 to 8) (size 9 to 14) (size 15 to 20)
#    0.000    1.000    0.000    9.750    0.000    4.000 
#    0.000    7.500    0.000    0.000    0.000    0.000 
#    0.000    0.000    0.000    0.000    0.000    0.000 
#
# Total GULP energy -198220.908881 kJ/mol
# GULP energy per Si atom -12388.806805 kJ/mol
# Density = 2.306643 g / cm^3
# Si number density = 23.119052 Si / 1000 Ang^3
#
#
#
# Elastic Constant Matrix: (Units=GPa)
#
#
# Indices 1 2 3 4 5 6 
#
# 1 103.7804 48.8872 28.1279 0.0000 -1.9111 0.0000
# 2 48.8872 159.5873 47.5631 0.0000 8.3552 0.0000
# 3 28.1279 47.5631 79.9089 0.0000 15.6371 0.0000
# 4 0.0000 0.0000 0.0000 36.5439 0.0000 -35.6194
# 5 -1.9111 8.3552 15.6371 0.0000 51.0876 0.0000
# 6 0.0000 0.0000 0.0000 -35.6194 0.0000 -361.2340
#
#
#
# Elastic Compliance Matrix: (Units=1/GPa)
#
#
# Indices 1 2 3 4 5 6 
#
# 1 0.011774 -0.002870 -0.002781 0.000000 0.001761 0.000000
# 2 -0.002870 0.008318 -0.003886 0.000000 -0.000278 0.000000
# 3 -0.002781 -0.003886 0.016703 0.000000 -0.004581 0.000000
# 4 0.000000 0.000000 0.000000 0.024965 0.000000 -0.002462
# 5 0.001761 -0.000278 -0.004581 0.000000 0.021088 0.000000
# 6 0.000000 0.000000 0.000000 -0.002462 0.000000 -0.002526
#
#
# Mechanical properties :
#
#
# Convention : Reuss Voigt Hill
#
# Bulk Modulus (GPa) = 56.43219 65.82587 61.12903
# Shear Modulus (GPa) = 47.48196 -40.14060 3.67068
#
# Velocity S-wave (km/s) = 4.53681 -4.17136 1.26142
# Velocity P-wave (km/s) = 7.20457 2.30955 5.34976
#
# Compressibility (1/GPa) = 0.01772038
#
# Stress axis : x y z
#
# Youngs Moduli (GPa) = 84.93410 120.21721 59.87061
#
# Poissons Ratio (x) = 0.34505 0.16647
# Poissons Ratio (y) = 0.24378 0.23268
# Poissons Ratio (z) = 0.23617 0.46721
#
# Static dielectric constant tensor:
#      x y z
#    x 3.683260 0.000000 0.098940 
#    y 0.000000 4.260880 0.000000 
#    z 0.098940 0.000000 4.217670 
# 
# 
# High freq. dielectric constant tensor:
#      x y z
#    x 1.927990 0.000000 0.014840 
#    y 0.000000 1.920860 0.000000 
#    z 0.014840 0.000000 1.908480 
# 
# From -- ./inp_files/75556.got.cif
#   From: 2010.06.25/outbox.cif.g09.slc.cpg/sg15_38_cif.got.tgz:75556.got - 2010.06.28 07:06:18.
