data_PCOD8139293
_publ_section_title
;
Structure prediction by ZEFSAII (Michael W. Deem and Ramdas Pophale) SiO2 
 PCOD8139293
Probable space group: C 2/C
;
_chemical_formula_sum "Si O2"
_cell_formula_units_Z 64
_cell_length_a 15.393117
_cell_length_b 9.931226
_cell_length_c 29.512445
_cell_angle_alpha 90.000000
_cell_angle_beta 133.295002
_cell_angle_gamma 90.000000
_cell_volume 3283.720000
_symmetry_space_group_name_H-M "C 2/C"
_symmetry_group_IT_number 15
_symmetry_cell_setting 'monoclinic'
loop_
_space_group_symop_operation_xyz
x,y,z
-x,y,1/2-z
-x,-y,-z
x,-y,1/2+z
1/2+x,1/2+y,z
1/2-x,1/2+y,1/2-z
1/2-x,1/2-y,-z
1/2+x,1/2-y,1/2+z
loop_
_atom_site_type_symbol
_atom_site_label
_atom_site_fract_x
_atom_site_fract_y
_atom_site_fract_z
Si Si1 0.699619 0.277916 0.896745
Si Si2 0.040627 0.902969 0.713920
Si Si3 0.068198 0.542021 0.228003
Si Si4 0.288494 0.259770 0.064778
Si Si5 0.126582 0.517408 0.910969
Si Si6 0.120319 0.508871 0.514651
Si Si7 0.943044 0.817427 0.320887
Si Si8 0.770194 0.689216 0.694559
O O1 0.573198 0.353377 0.855422
O O2 0.700381 0.155152 0.932929
O O3 0.721886 0.213804 0.855774
O O4 0.804938 0.376983 0.947273
O O5 0.000000 0.932328 0.750000
O O6 0.144044 0.792428 0.748316
O O7 0.094383 0.040942 0.713919
O O8 0.086894 0.700608 0.226262
O O9 0.192431 0.462665 0.278294
O O10 0.000000 0.516345 0.250000
O O11 0.996765 0.474067 0.160779
O O12 0.419180 0.324453 0.115924
O O13 0.295597 0.104687 0.084265
O O14 0.250000 0.250000 0.000000
O O15 0.193514 0.356453 0.056489
O O16 0.094729 0.486675 0.951822
O O17 0.000000 0.500000 0.500000
O O18 0.865542 0.789204 0.338133
#
# Coordination Sequence:
#
# PCOD8139293 Si02
#       8
#     8   8   8   8   8   8   8   8
#     4  11  21  40  64  87 127 166 202 250 315 369
#     4  10  20  39  57  88 123 164 199 248 307 363
#     4  11  20  39  60  87 123 162 202 246 307 369
#     4   9  21  40  61  84 123 158 202 253 314 358
#     4  10  21  41  66  86 124 169 197 249 320 364
#     4  11  24  42  67  94 118 159 220 266 303 368
#     4  11  22  36  61  89 120 162 202 252 305 360
#     4  11  22  37  60  92 125 159 204 250 300 371
#
# _framework density 19.490091
#
# number of rings (size 3 to 8) (size 9 to 14) (size 15 to 20)
#    0.000    1.500    3.750    1.875    5.250    0.000 
#    0.000    1.875    0.000    0.000    0.000    0.000 
#    0.000    0.000    0.000    0.000    0.000    0.000 
#
# Total GULP energy -396722.850397 kJ/mol
# GULP energy per Si atom -12397.589075 kJ/mol
# Density = 1.944573 g / cm^3
# Si number density = 19.490091 Si / 1000 Ang^3
#
#
#
# Elastic Constant Matrix: (Units=GPa)
#
#
# Indices 1 2 3 4 5 6 
#
# 1 108.8846 52.7750 34.0943 0.0000 13.9569 0.0000
# 2 52.7750 125.1432 23.8235 0.0000 1.4124 0.0000
# 3 34.0943 23.8235 69.9969 0.0000 -2.1532 0.0000
# 4 0.0000 0.0000 0.0000 26.3580 0.0000 -3.5576
# 5 13.9569 1.4124 -2.1532 0.0000 23.5995 0.0000
# 6 0.0000 0.0000 0.0000 -3.5576 0.0000 22.4043
#
#
#
# Elastic Compliance Matrix: (Units=1/GPa)
#
#
# Indices 1 2 3 4 5 6 
#
# 1 0.014461 -0.004926 -0.005637 0.000000 -0.008772 0.000000
# 2 -0.004926 0.010237 -0.001017 0.000000 0.002208 0.000000
# 3 -0.005637 -0.001017 0.017532 0.000000 0.004994 0.000000
# 4 0.000000 0.000000 0.000000 0.038770 0.000000 0.006156
# 5 -0.008772 0.002208 0.004994 0.000000 0.047885 0.000000
# 6 0.000000 0.000000 0.000000 0.006156 0.000000 0.045612
#
#
# Mechanical properties :
#
#
# Convention : Reuss Voigt Hill
#
# Bulk Modulus (GPa) = 52.43887 58.37892 55.40889
# Shear Modulus (GPa) = 24.50815 27.36115 25.93465
#
# Velocity S-wave (km/s) = 3.54993 3.75086 3.65178
# Velocity P-wave (km/s) = 6.61562 6.98404 6.80232
#
# Compressibility (1/GPa) = 0.01906983
#
# Stress axis : x y z
#
# Youngs Moduli (GPa) = 69.15017 97.68455 57.03962
#
# Poissons Ratio (x) = 0.48124 0.32153
# Poissons Ratio (y) = 0.34067 0.05799
# Poissons Ratio (z) = 0.38980 0.09931
#
# Static dielectric constant tensor:
#      x y z
#    x 3.393800 0.000000 0.092650 
#    y 0.000000 3.513630 0.000000 
#    z 0.092650 0.000000 3.351100 
# 
# 
# High freq. dielectric constant tensor:
#      x y z
#    x 1.738560 0.000000 0.001420 
#    y 0.000000 1.780390 0.000000 
#    z 0.001420 0.000000 1.755440 
# 
# From -- ./inp_files/313182.got.cif
#   From: 2010.06.25/outbox.cif.g09.slc.cpg/sg15_157_cif.got.tgz:313182.got - 2010.06.28 07:06:18.
