data_PCOD8139993
_publ_section_title
;
Structure prediction by ZEFSAII (Michael W. Deem and Ramdas Pophale) SiO2 
 PCOD8139993
Probable space group: C 2/C
;
_chemical_formula_sum "Si O2"
_cell_formula_units_Z 64
_cell_length_a 27.787126
_cell_length_b 7.695486
_cell_length_c 14.563503
_cell_angle_alpha 90.000000
_cell_angle_beta 68.309396
_cell_angle_gamma 90.000000
_cell_volume 2893.686996
_symmetry_space_group_name_H-M "C 2/C"
_symmetry_group_IT_number 15
_symmetry_cell_setting 'monoclinic'
loop_
_space_group_symop_operation_xyz
x,y,z
-x,y,1/2-z
-x,-y,-z
x,-y,1/2+z
1/2+x,1/2+y,z
1/2-x,1/2+y,1/2-z
1/2-x,1/2-y,-z
1/2+x,1/2-y,1/2+z
loop_
_atom_site_type_symbol
_atom_site_label
_atom_site_fract_x
_atom_site_fract_y
_atom_site_fract_z
Si Si1 0.182637 0.675331 0.829705
Si Si2 0.557725 0.360177 0.739775
Si Si3 0.230049 0.943017 0.512369
Si Si4 0.902046 0.845411 0.158039
Si Si5 0.398846 0.000339 0.744149
Si Si6 0.704083 0.465203 0.231599
Si Si7 0.838737 0.536338 0.463151
Si Si8 0.629197 0.650194 0.017040
O O1 0.149329 0.573048 0.778645
O O2 0.240387 0.601915 0.776390
O O3 0.183675 0.877331 0.808055
O O4 0.158209 0.658078 0.949151
O O5 0.500000 0.400705 0.750000
O O6 0.571614 0.489730 0.812768
O O7 0.561202 0.159230 0.769914
O O8 0.596219 0.399663 0.629170
O O9 0.250000 0.750000 0.500000
O O10 0.203740 0.978018 0.627674
O O11 0.182374 0.967368 0.473855
O O12 0.280676 0.062692 0.459917
O O13 0.927087 0.660553 0.172088
O O14 0.840660 0.820918 0.223726
O O15 0.907870 0.872948 0.044568
O O16 0.380316 0.920109 0.855398
O O17 0.849054 0.344240 0.492621
#
# Coordination Sequence:
#
# PCOD8139993 Si02
#       8
#     8   8   8   8   8   8   8   8
#     4  11  20  37  57  94 134 178 217 259 317 382
#     4  11  26  50  72  93 127 171 218 278 343 388
#     4   9  17  34  55  87 133 183 213 253 316 373
#     4  12  24  41  70 100 129 170 222 271 327 393
#     4  11  23  44  65  95 135 167 221 274 321 390
#     4  11  22  35  57  94 136 178 219 260 312 388
#     4   9  20  35  61  92 134 184 214 254 323 385
#     4  10  20  40  64  95 135 167 212 280 322 378
#
# _framework density 22.117113
#
# number of rings (size 3 to 8) (size 9 to 14) (size 15 to 20)
#    0.000    1.500    3.750    2.250    5.250    2.000 
#    0.000    2.500    0.000    0.000    0.000    0.000 
#    0.000    0.000    0.000    0.000    0.000    0.000 
#
# Total GULP energy -396642.270312 kJ/mol
# GULP energy per Si atom -12395.070947 kJ/mol
# Density = 2.206677 g / cm^3
# Si number density = 22.117113 Si / 1000 Ang^3
#
#
#
# Elastic Constant Matrix: (Units=GPa)
#
#
# Indices 1 2 3 4 5 6 
#
# 1 89.1212 21.0264 15.5976 0.0000 12.8895 0.0000
# 2 21.0264 64.0517 31.4667 0.0000 10.9185 0.0000
# 3 15.5976 31.4667 53.2719 0.0000 27.6577 0.0000
# 4 0.0000 0.0000 0.0000 22.1125 0.0000 6.7404
# 5 12.8895 10.9185 27.6577 0.0000 24.0245 0.0000
# 6 0.0000 0.0000 0.0000 6.7404 0.0000 21.7441
#
#
#
# Elastic Compliance Matrix: (Units=1/GPa)
#
#
# Indices 1 2 3 4 5 6 
#
# 1 0.012949 -0.004425 0.003444 0.000000 -0.008901 0.000000
# 2 -0.004425 0.025082 -0.021959 0.000000 0.016255 0.000000
# 3 0.003444 -0.021959 0.065901 0.000000 -0.067735 0.000000
# 4 0.000000 0.000000 0.000000 0.049942 0.000000 -0.015482
# 5 -0.008901 0.016255 -0.067735 0.000000 0.116990 0.000000
# 6 0.000000 0.000000 0.000000 -0.015482 0.000000 0.050789
#
#
# Mechanical properties :
#
#
# Convention : Reuss Voigt Hill
#
# Bulk Modulus (GPa) = 17.22645 38.06957 27.64801
# Shear Modulus (GPa) = 12.92369 22.79982 17.86175
#
# Velocity S-wave (km/s) = 2.41991 3.21420 2.84491
# Velocity P-wave (km/s) = 3.95141 5.56999 4.82900
#
# Compressibility (1/GPa) = 0.05805027
#
# Stress axis : x y z
#
# Youngs Moduli (GPa) = 77.22378 39.86901 15.17427
#
# Poissons Ratio (x) = 0.17644 -0.05225
# Poissons Ratio (y) = 0.34175 0.33322
# Poissons Ratio (z) = -0.26593 0.87550
#
# Static dielectric constant tensor:
#      x y z
#    x 3.907160 0.000000 0.269350 
#    y 0.000000 3.954580 0.000000 
#    z 0.269350 0.000000 4.042430 
# 
# 
# High freq. dielectric constant tensor:
#      x y z
#    x 1.842030 0.000000 0.023360 
#    y 0.000000 1.869870 0.000000 
#    z 0.023360 0.000000 1.874170 
# 
# From -- ./inp_files/176595.got.cif
#   From: 2010.06.25/outbox.cif.g09.slc.cpg/sg15_89_cif.got.tgz:176595.got - 2010.06.28 07:06:18.
