data_PCOD8139985
_publ_section_title
;
Structure prediction by ZEFSAII (Michael W. Deem and Ramdas Pophale) SiO2 
 PCOD8139985
Probable space group: C 2/C
;
_chemical_formula_sum "Si O2"
_cell_formula_units_Z 64
_cell_length_a 14.311917
_cell_length_b 7.745453
_cell_length_c 26.298706
_cell_angle_alpha 90.000000
_cell_angle_beta 107.052560
_cell_angle_gamma 90.000000
_cell_volume 2787.104967
_symmetry_space_group_name_H-M "C 2/C"
_symmetry_group_IT_number 15
_symmetry_cell_setting 'monoclinic'
loop_
_space_group_symop_operation_xyz
x,y,z
-x,y,1/2-z
-x,-y,-z
x,-y,1/2+z
1/2+x,1/2+y,z
1/2-x,1/2+y,1/2-z
1/2-x,1/2-y,-z
1/2+x,1/2-y,1/2+z
loop_
_atom_site_type_symbol
_atom_site_label
_atom_site_fract_x
_atom_site_fract_y
_atom_site_fract_z
Si Si1 0.316991 0.487800 0.686580
Si Si2 0.101847 0.318323 0.239405
Si Si3 0.116825 0.893310 0.592271
Si Si4 0.229029 0.054201 0.011581
Si Si5 0.609366 0.050733 0.631743
Si Si6 0.305667 0.104455 0.184597
Si Si7 0.097396 0.999066 0.405958
Si Si8 0.406348 0.901835 0.599161
O O1 0.351272 0.367712 0.738666
O O2 0.206384 0.435658 0.653526
O O3 0.318204 0.691944 0.701769
O O4 0.385986 0.439617 0.649374
O O5 0.088407 0.325431 0.177009
O O6 0.172453 0.480630 0.264224
O O7 0.000000 0.344748 0.250000
O O8 0.146039 0.965110 0.542098
O O9 0.120506 0.684465 0.587053
O O10 0.197730 0.942098 0.647603
O O11 0.009580 0.951930 0.592175
O O12 0.333583 0.986402 0.050891
O O13 0.250000 0.250000 0.000000
O O14 0.184863 0.937516 0.958248
O O15 0.519031 0.929680 0.604602
O O16 0.384486 0.052122 0.154207
O O17 0.114304 0.796862 0.411924
#
# Coordination Sequence:
#
# PCOD8139985 Si02
#       8
#     8   8   8   8   8   8   8   8
#     4  10  25  42  60  93 130 164 212 265 321 377
#     4  12  24  41  64  89 124 165 218 266 316 383
#     4  10  21  38  64  90 129 162 210 264 314 380
#     4   9  18  38  67  91 126 170 211 254 331 394
#     4  11  23  40  59  90 126 166 209 264 323 378
#     4   9  21  42  60  87 127 167 205 262 320 377
#     4  10  20  40  64  93 124 171 210 263 323 383
#     4   9  19  38  62  88 125 168 203 263 318 385
#
# _framework density 22.962896000000001
#
# number of rings (size 3 to 8) (size 9 to 14) (size 15 to 20)
#    0.000    2.000    1.250    3.375    5.250    0.500 
#    2.250    6.250    0.000    0.000    0.000    0.000 
#    0.000    0.000    0.000    0.000    0.000    0.000 
#
# Total GULP energy -396533.816269 kJ/mol
# GULP energy per Si atom -12391.681758 kJ/mol
# Density = 2.291063 g / cm^3
# Si number density = 22.962896 Si / 1000 Ang^3
#
#
#
# Elastic Constant Matrix: (Units=GPa)
#
#
# Indices 1 2 3 4 5 6 
#
# 1 114.8419 4.8301 1.6066 0.0000 16.9909 0.0000
# 2 4.8301 51.9590 26.1552 0.0000 3.4857 0.0000
# 3 1.6066 26.1552 53.0007 0.0000 10.6422 0.0000
# 4 0.0000 0.0000 0.0000 22.4809 0.0000 2.1082
# 5 16.9909 3.4857 10.6422 0.0000 23.9517 0.0000
# 6 0.0000 0.0000 0.0000 2.1082 0.0000 37.3719
#
#
#
# Elastic Compliance Matrix: (Units=1/GPa)
#
#
# Indices 1 2 3 4 5 6 
#
# 1 0.009871 -0.001367 0.001912 0.000000 -0.007653 0.000000
# 2 -0.001367 0.025890 -0.013366 0.000000 0.003140 0.000000
# 3 0.001912 -0.013366 0.027764 0.000000 -0.011747 0.000000
# 4 0.000000 0.000000 0.000000 0.044719 0.000000 -0.002523
# 5 -0.007653 0.003140 -0.011747 0.000000 0.051942 0.000000
# 6 0.000000 0.000000 0.000000 -0.002523 0.000000 0.026900
#
#
# Mechanical properties :
#
#
# Convention : Reuss Voigt Hill
#
# Bulk Modulus (GPa) = 26.39618 31.66505 29.03061
# Shear Modulus (GPa) = 22.18718 29.24154 25.71436
#
# Velocity S-wave (km/s) = 3.11178 3.57238 3.35000
# Velocity P-wave (km/s) = 4.94277 5.55297 5.25673
#
# Compressibility (1/GPa) = 0.03788428
#
# Stress axis : x y z
#
# Youngs Moduli (GPa) = 101.31143 38.62442 36.01747
#
# Poissons Ratio (x) = 0.05278 -0.06886
# Poissons Ratio (y) = 0.13845 0.48140
# Poissons Ratio (z) = -0.19368 0.51624
#
# Static dielectric constant tensor:
#      x y z
#    x 4.563880 0.000000 -0.102440 
#    y 0.000000 3.788060 0.000000 
#    z -0.102440 0.000000 4.491460 
# 
# 
# High freq. dielectric constant tensor:
#      x y z
#    x 1.924510 0.000000 0.003910 
#    y 0.000000 1.875540 0.000000 
#    z 0.003910 0.000000 1.907120 
# 
# From -- ./inp_files/295198.got.cif
#   From: 2010.06.25/outbox.cif.g09.slc.cpg/sg15_148_cif.got.tgz:295198.got - 2010.06.28 07:06:18.
