data_PCOD8139331
_publ_section_title
;
Structure prediction by ZEFSAII (Michael W. Deem and Ramdas Pophale) SiO2 
 PCOD8139331
Probable space group: C 2/C
;
_chemical_formula_sum "Si O2"
_cell_formula_units_Z 56
_cell_length_a 8.977752
_cell_length_b 18.033843
_cell_length_c 20.350860
_cell_angle_alpha 90.000000
_cell_angle_beta 61.912706
_cell_angle_gamma 90.000000
_cell_volume 2906.839918
_symmetry_space_group_name_H-M "C 2/C"
_symmetry_group_IT_number 15
_symmetry_cell_setting 'monoclinic'
loop_
_space_group_symop_operation_xyz
x,y,z
-x,y,1/2-z
-x,-y,-z
x,-y,1/2+z
1/2+x,1/2+y,z
1/2-x,1/2+y,1/2-z
1/2-x,1/2-y,-z
1/2+x,1/2-y,1/2+z
loop_
_atom_site_type_symbol
_atom_site_label
_atom_site_fract_x
_atom_site_fract_y
_atom_site_fract_z
Si Si1 0.209326 0.221613 0.909121
Si Si2 0.503893 0.799820 0.445666
Si Si3 0.305988 0.677245 0.275390
Si Si4 0.795141 0.828834 0.626383
Si Si5 0.512222 0.073105 0.324659
Si Si6 0.552652 0.042560 0.552268
Si Si7 0.576690 0.420069 0.502238
O O1 0.392459 0.221046 0.905078
O O2 0.241144 0.249474 0.828017
O O3 0.113911 0.140573 0.935259
O O4 0.102416 0.286435 0.966116
O O5 0.670923 0.749297 0.416228
O O6 0.563358 0.884179 0.424827
O O7 0.500000 0.657547 0.250000
O O8 0.274935 0.692948 0.205948
O O9 0.191881 0.603978 0.312670
O O10 0.627029 0.864036 0.630993
O O11 0.953266 0.883798 0.581498
O O12 0.500000 0.051693 0.250000
O O13 0.470421 0.999740 0.374431
O O14 0.745332 0.066333 0.500488
O O15 0.500000 0.000000 0.500000
O O16 0.500000 0.500000 0.500000
#
# Coordination Sequence:
#
# PCOD8139331 Si02
#       7
#     8   8   8   8   8   8   8
#     4   9  18  34  58  90 110 149 204 245 290 357
#     4   9  18  35  58  85 117 144 193 255 293 351
#     4  11  21  36  61  86 112 160 206 242 299 368
#     4  10  20  39  60  85 120 156 196 250 311 360
#     4  10  23  40  57  87 124 162 195 252 318 375
#     4  11  22  37  60  89 121 154 206 253 299 367
#     4  10  20  39  63  88 123 159 198 253 313 371
#
# _framework density 19.264907000000001
#
# number of rings (size 3 to 8) (size 9 to 14) (size 15 to 20)
#    0.000    2.000    2.857    1.714    2.000    0.000 
#    7.714    2.143    0.000    2.571    0.000    0.000 
#    0.000    0.000    0.000    0.000    0.000    0.000 
#
# Total GULP energy -346947.844475 kJ/mol
# GULP energy per Si atom -12390.994446 kJ/mol
# Density = 1.922106 g / cm^3
# Si number density = 19.264907 Si / 1000 Ang^3
#
#
#
# Elastic Constant Matrix: (Units=GPa)
#
#
# Indices 1 2 3 4 5 6 
#
# 1 66.4441 53.1762 32.4732 0.0000 -10.3580 0.0000
# 2 53.1762 161.4685 68.2639 0.0000 -0.1249 0.0000
# 3 32.4732 68.2639 98.5845 0.0000 0.3958 0.0000
# 4 0.0000 0.0000 0.0000 34.6561 0.0000 -1.3854
# 5 -10.3580 -0.1249 0.3958 0.0000 25.2063 0.0000
# 6 0.0000 0.0000 0.0000 -1.3854 0.0000 25.8896
#
#
#
# Elastic Compliance Matrix: (Units=1/GPa)
#
#
# Indices 1 2 3 4 5 6 
#
# 1 0.023135 -0.006184 -0.003377 0.000000 0.009529 0.000000
# 2 -0.006184 0.010410 -0.005162 0.000000 -0.002409 0.000000
# 3 -0.003377 -0.005162 0.014837 0.000000 -0.001646 0.000000
# 4 0.000000 0.000000 0.000000 0.028917 0.000000 0.001547
# 5 0.009529 -0.002409 -0.001646 0.000000 0.043602 0.000000
# 6 0.000000 0.000000 0.000000 0.001547 0.000000 0.038708
#
#
# Mechanical properties :
#
#
# Convention : Reuss Voigt Hill
#
# Bulk Modulus (GPa) = 52.80691 70.48042 61.64366
# Shear Modulus (GPa) = 25.59282 28.65598 27.12440
#
# Velocity S-wave (km/s) = 3.64877 3.86096 3.75636
# Velocity P-wave (km/s) = 6.72472 7.51933 7.13310
#
# Compressibility (1/GPa) = 0.01893692
#
# Stress axis : x y z
#
# Youngs Moduli (GPa) = 43.22379 96.06031 67.40070
#
# Poissons Ratio (x) = 0.59406 0.22760
# Poissons Ratio (y) = 0.26730 0.34790
# Poissons Ratio (z) = 0.14596 0.49583
#
# Static dielectric constant tensor:
#      x y z
#    x 3.252020 0.000000 0.108980 
#    y 0.000000 3.770820 0.000000 
#    z 0.108980 0.000000 3.064230 
# 
# 
# High freq. dielectric constant tensor:
#      x y z
#    x 1.733710 0.000000 -0.012230 
#    y 0.000000 1.752480 0.000000 
#    z -0.012230 0.000000 1.747530 
# 
# From -- ./inp_files/232574.got.cif
#   From: 2010.06.25/outbox.cif.g09.slc.cpg/sg15_117_cif.got.tgz:232574.got - 2010.06.28 07:06:18.
