data_PCOD8139044
_publ_section_title
;
Structure prediction by ZEFSAII (Michael W. Deem and Ramdas Pophale) SiO2 
 PCOD8139044
Probable space group: C 2/C
;
_chemical_formula_sum "Si O2"
_cell_formula_units_Z 64
_cell_length_a 8.912297
_cell_length_b 28.171647
_cell_length_c 12.570027
_cell_angle_alpha 90.000000
_cell_angle_beta 93.930821
_cell_angle_gamma 90.000000
_cell_volume 3148.583668
_symmetry_space_group_name_H-M "C 2/C"
_symmetry_group_IT_number 15
_symmetry_cell_setting 'monoclinic'
loop_
_space_group_symop_operation_xyz
x,y,z
-x,y,1/2-z
-x,-y,-z
x,-y,1/2+z
1/2+x,1/2+y,z
1/2-x,1/2+y,1/2-z
1/2-x,1/2-y,-z
1/2+x,1/2-y,1/2+z
loop_
_atom_site_type_symbol
_atom_site_label
_atom_site_fract_x
_atom_site_fract_y
_atom_site_fract_z
Si Si1 0.307160 0.044943 0.045166
Si Si2 0.168105 0.807853 0.732547
Si Si3 0.356647 0.059089 0.495749
Si Si4 0.670010 0.903913 0.735621
Si Si5 0.876344 0.776017 0.332350
Si Si6 0.636950 0.292145 0.491165
Si Si7 0.797107 0.122412 0.842559
Si Si8 0.146371 0.112797 0.886076
O O1 0.464271 0.056993 0.996681
O O2 0.289900 0.060200 0.167104
O O3 0.184249 0.072839 0.972754
O O4 0.279377 0.988715 0.035898
O O5 0.220319 0.859324 0.773766
O O6 0.283363 0.769980 0.790498
O O7 0.153814 0.814049 0.607101
O O8 0.000000 0.792867 0.750000
O O9 0.305231 0.067763 0.372405
O O10 0.314037 0.100561 0.575832
O O11 0.500000 0.885527 0.750000
O O12 0.764896 0.820854 0.338875
O O13 0.000000 0.788870 0.250000
O O14 0.971606 0.771381 0.448062
O O15 0.750000 0.250000 0.500000
O O16 0.697912 0.333782 0.417586
O O17 0.776098 0.100458 0.723362
O O18 0.967463 0.112776 0.882436
#
# Coordination Sequence:
#
# PCOD8139044 Si02
#       8
#     8   8   8   8   8   8   8   8
#     4  10  22  43  65  93 122 168 212 263 322 388
#     4  12  26  41  62  98 129 169 222 272 319 387
#     4  10  24  40  66  95 127 162 212 269 326 372
#     4  10  23  43  64  92 131 170 212 262 329 388
#     4  11  21  43  64  90 131 173 210 262 320 384
#     4  11  21  39  68  89 123 174 216 256 323 390
#     4  10  21  41  61  92 126 164 206 260 314 374
#     4  10  20  38  64  90 123 164 207 253 316 381
#
# _framework density 20.326599999999999
#
# number of rings (size 3 to 8) (size 9 to 14) (size 15 to 20)
#    0.000    1.500    5.000    0.375    5.250    1.500 
#    4.500    0.000    0.000    0.000    0.000    0.000 
#    0.000    0.000    0.000    0.000    0.000    0.000 
#
# Total GULP energy -396548.827988 kJ/mol
# GULP energy per Si atom -12392.150875 kJ/mol
# Density = 2.028034 g / cm^3
# Si number density = 20.326600 Si / 1000 Ang^3
#
#
#
# Elastic Constant Matrix: (Units=GPa)
#
#
# Indices 1 2 3 4 5 6 
#
# 1 43.0386 38.7981 24.8176 0.0000 5.8022 0.0000
# 2 38.7981 129.3497 52.8947 0.0000 1.2217 0.0000
# 3 24.8176 52.8947 109.3576 0.0000 7.4424 0.0000
# 4 0.0000 0.0000 0.0000 36.7421 0.0000 2.2785
# 5 5.8022 1.2217 7.4424 0.0000 36.5374 0.0000
# 6 0.0000 0.0000 0.0000 2.2785 0.0000 30.9033
#
#
#
# Elastic Compliance Matrix: (Units=1/GPa)
#
#
# Indices 1 2 3 4 5 6 
#
# 1 0.033482 -0.008747 -0.003068 0.000000 -0.004400 0.000000
# 2 -0.008747 0.011937 -0.003910 0.000000 0.001786 0.000000
# 3 -0.003068 -0.003910 0.011854 0.000000 -0.001797 0.000000
# 4 0.000000 0.000000 0.000000 0.027342 0.000000 -0.002016
# 5 -0.004400 0.001786 -0.001797 0.000000 0.028374 0.000000
# 6 0.000000 0.000000 0.000000 -0.002016 0.000000 0.032508
#
#
# Mechanical properties :
#
#
# Convention : Reuss Voigt Hill
#
# Bulk Modulus (GPa) = 38.72567 57.19630 47.96098
# Shear Modulus (GPa) = 26.94624 31.85226 29.39925
#
# Velocity S-wave (km/s) = 3.64492 3.96286 3.80721
# Velocity P-wave (km/s) = 6.06687 7.00990 6.55537
#
# Compressibility (1/GPa) = 0.02582267
#
# Stress axis : x y z
#
# Youngs Moduli (GPa) = 29.86652 83.77587 84.35799
#
# Poissons Ratio (x) = 0.73275 0.25885
# Poissons Ratio (y) = 0.26123 0.32986
# Poissons Ratio (z) = 0.09164 0.32758
#
# Static dielectric constant tensor:
#      x y z
#    x 3.552100 0.000000 0.223580 
#    y 0.000000 3.724130 0.000000 
#    z 0.223580 0.000000 3.813200 
# 
# 
# High freq. dielectric constant tensor:
#      x y z
#    x 1.773290 0.000000 0.014100 
#    y 0.000000 1.795970 0.000000 
#    z 0.014100 0.000000 1.813440 
# 
# From -- ./inp_files/82603.got.cif
#   From: 2010.06.25/outbox.cif.g09.slc.cpg/sg15_42_cif.got.tgz:82603.got - 2010.06.28 07:06:18.
