data_PCOD8139358
_publ_section_title
;
Structure prediction by ZEFSAII (Michael W. Deem and Ramdas Pophale) SiO2 
 PCOD8139358
Probable space group: C 2/C
;
_chemical_formula_sum "Si O2"
_cell_formula_units_Z 64
_cell_length_a 18.047190
_cell_length_b 14.644031
_cell_length_c 18.708097
_cell_angle_alpha 90.000000
_cell_angle_beta 138.462694
_cell_angle_gamma 90.000000
_cell_volume 3278.565193
_symmetry_space_group_name_H-M "C 2/C"
_symmetry_group_IT_number 15
_symmetry_cell_setting 'monoclinic'
loop_
_space_group_symop_operation_xyz
x,y,z
-x,y,1/2-z
-x,-y,-z
x,-y,1/2+z
1/2+x,1/2+y,z
1/2-x,1/2+y,1/2-z
1/2-x,1/2-y,-z
1/2+x,1/2-y,1/2+z
loop_
_atom_site_type_symbol
_atom_site_label
_atom_site_fract_x
_atom_site_fract_y
_atom_site_fract_z
Si Si1 0.241468 0.027790 0.340226
Si Si2 0.249888 0.165788 0.150744
Si Si3 0.129516 0.206467 0.500526
Si Si4 0.306230 0.119634 0.528008
Si Si5 0.606527 0.823594 0.615049
Si Si6 0.117713 0.565522 0.365243
Si Si7 0.853947 0.653001 0.966242
Si Si8 0.441384 0.430388 0.901657
O O1 0.226801 0.078044 0.407204
O O2 0.337590 0.081452 0.367554
O O3 0.125577 0.021559 0.211876
O O4 0.283773 0.924758 0.375775
O O5 0.352559 0.196023 0.275401
O O6 0.286157 0.085049 0.123438
O O7 0.215930 0.254767 0.083166
O O8 0.143266 0.132377 0.116863
O O9 0.236258 0.155503 0.544971
O O10 0.112281 0.299705 0.441893
O O11 0.148039 0.238869 0.595709
O O12 0.027690 0.136217 0.423938
O O13 0.385044 0.040046 0.614081
O O14 0.473408 0.834329 0.514075
O O15 0.134661 0.630919 0.443438
O O16 0.000000 0.593870 0.250000
O O17 0.500000 0.500000 0.000000
#
# Coordination Sequence:
#
# PCOD8139358 Si02
#       8
#     8   8   8   8   8   8   8   8
#     4   9  22  38  60  89 124 165 206 255 311 372
#     4  11  23  39  61  92 122 162 208 255 308 376
#     4  10  20  41  63  90 127 159 205 261 310 377
#     4   9  21  42  63  89 123 165 210 257 312 373
#     4  10  20  39  60  91 125 160 204 259 312 372
#     4  11  22  42  61  89 122 163 210 256 307 369
#     4  11  21  39  64  85 125 163 207 254 314 372
#     4  11  23  39  61  93 130 164 203 257 316 373
#
# _framework density 19.520734999999998
#
# number of rings (size 3 to 8) (size 9 to 14) (size 15 to 20)
#    0.000    1.750    2.500    1.500    1.750    0.500 
#    9.000    0.000    0.000    0.000    0.000    0.000 
#    0.000    0.000    0.000    0.000    0.000    0.000 
#
# Total GULP energy -396708.314584 kJ/mol
# GULP energy per Si atom -12397.134831 kJ/mol
# Density = 1.947630 g / cm^3
# Si number density = 19.520735 Si / 1000 Ang^3
#
#
#
# Elastic Constant Matrix: (Units=GPa)
#
#
# Indices 1 2 3 4 5 6 
#
# 1 98.4532 37.5265 34.5078 0.0000 -4.5571 0.0000
# 2 37.5265 110.5135 60.2903 0.0000 1.6955 0.0000
# 3 34.5078 60.2903 122.1560 0.0000 -6.6388 0.0000
# 4 0.0000 0.0000 0.0000 60.8875 0.0000 -27.9649
# 5 -4.5571 1.6955 -6.6388 0.0000 26.3658 0.0000
# 6 0.0000 0.0000 0.0000 -27.9649 0.0000 52.5062
#
#
#
# Elastic Compliance Matrix: (Units=1/GPa)
#
#
# Indices 1 2 3 4 5 6 
#
# 1 0.012063 -0.003175 -0.001740 0.000000 0.001851 0.000000
# 2 -0.003175 0.013366 -0.005857 0.000000 -0.002883 0.000000
# 3 -0.001740 -0.005857 0.011733 0.000000 0.003030 0.000000
# 4 0.000000 0.000000 0.000000 0.021742 0.000000 0.011580
# 5 0.001851 -0.002883 0.003030 0.000000 0.039196 0.000000
# 6 0.000000 0.000000 0.000000 0.011580 0.000000 0.025213
#
#
# Mechanical properties :
#
#
# Convention : Reuss Voigt Hill
#
# Bulk Modulus (GPa) = 64.02672 66.19686 65.11179
# Shear Modulus (GPa) = 33.31926 41.20510 37.26218
#
# Velocity S-wave (km/s) = 4.13590 4.59937 4.37378
# Velocity P-wave (km/s) = 7.46178 7.88608 7.67686
#
# Compressibility (1/GPa) = 0.01561848
#
# Stress axis : x y z
#
# Youngs Moduli (GPa) = 82.89850 74.81566 85.23009
#
# Poissons Ratio (x) = 0.23757 0.14829
# Poissons Ratio (y) = 0.26324 0.49916
# Poissons Ratio (z) = 0.14423 0.43816
#
# Static dielectric constant tensor:
#      x y z
#    x 3.610340 0.000000 -0.088390 
#    y 0.000000 3.578980 0.000000 
#    z -0.088390 0.000000 3.994760 
# 
# 
# High freq. dielectric constant tensor:
#      x y z
#    x 1.764550 0.000000 -0.011270 
#    y 0.000000 1.767380 0.000000 
#    z -0.011270 0.000000 1.752920 
# 
# From -- ./inp_files/211366.got.cif
#   From: 2010.06.25/outbox.cif.g09.slc.cpg/sg15_106_cif.got.tgz:211366.got - 2010.06.28 07:06:18.
