data_PCOD8139446
_publ_section_title
;
Structure prediction by ZEFSAII (Michael W. Deem and Ramdas Pophale) SiO2 
 PCOD8139446
Probable space group: C 2/C
;
_chemical_formula_sum "Si O2"
_cell_formula_units_Z 48
_cell_length_a 23.177841
_cell_length_b 18.393624
_cell_length_c 8.483338
_cell_angle_alpha 90.000000
_cell_angle_beta 44.297825
_cell_angle_gamma 90.000000
_cell_volume 2525.828711
_symmetry_space_group_name_H-M "C 2/C"
_symmetry_group_IT_number 15
_symmetry_cell_setting 'monoclinic'
loop_
_space_group_symop_operation_xyz
x,y,z
-x,y,1/2-z
-x,-y,-z
x,-y,1/2+z
1/2+x,1/2+y,z
1/2-x,1/2+y,1/2-z
1/2-x,1/2-y,-z
1/2+x,1/2-y,1/2+z
loop_
_atom_site_type_symbol
_atom_site_label
_atom_site_fract_x
_atom_site_fract_y
_atom_site_fract_z
Si Si1 0.405765 0.676828 0.486690
Si Si2 0.237374 0.428611 0.798891
Si Si3 0.313972 0.697182 0.963733
Si Si4 0.277476 0.582008 0.576994
Si Si5 0.590838 0.828596 0.136709
Si Si6 0.322328 0.215748 0.748229
O O1 0.500000 0.677275 0.250000
O O2 0.390163 0.671191 0.704274
O O3 0.365478 0.609273 0.471833
O O4 0.367889 0.757193 0.524562
O O5 0.273214 0.378162 0.593017
O O6 0.243942 0.509536 0.722374
O O7 0.284799 0.423460 0.873263
O O8 0.142873 0.402098 0.006838
O O9 0.250000 0.750000 0.000000
O O10 0.350370 0.732916 0.051325
O O11 0.212375 0.642246 0.760297
O O12 0.500000 0.844415 0.250000
O O13 0.595732 0.806134 0.312171
O O14 0.250000 0.250000 0.000000
#
# Coordination Sequence:
#
# PCOD8139446 Si02
#       6
#     8   8   8   8   8   8
#     4  11  22  38  62  93 128 156 202 267 317 360
#     4  11  22  37  62  89 118 167 215 252 304 380
#     4  12  19  36  66  91 118 163 218 247 301 380
#     4  11  21  38  59  90 124 163 213 253 305 370
#     4  10  20  39  62  90 130 158 199 267 317 351
#     4  11  18  38  63  91 121 161 214 253 297 374
#
# _framework density 19.003665000000002
#
# number of rings (size 3 to 8) (size 9 to 14) (size 15 to 20)
#    0.000    1.000    8.333    1.000    0.000    0.000 
#    0.000   14.167    0.000    0.000    0.000    0.000 
#    0.000    0.000    0.000    0.000    0.000    0.000 
#
# Total GULP energy -297347.865367 kJ/mol
# GULP energy per Si atom -12389.494390 kJ/mol
# Density = 1.896041 g / cm^3
# Si number density = 19.003665 Si / 1000 Ang^3
#
#
#
# Elastic Constant Matrix: (Units=GPa)
#
#
# Indices 1 2 3 4 5 6 
#
# 1 113.2703 45.7962 65.1238 0.0000 6.2931 0.0000
# 2 45.7962 141.0452 43.7005 0.0000 3.7886 0.0000
# 3 65.1238 43.7005 122.0416 0.0000 16.4920 0.0000
# 4 0.0000 0.0000 0.0000 36.1580 0.0000 9.1076
# 5 6.2931 3.7886 16.4920 0.0000 20.9958 0.0000
# 6 0.0000 0.0000 0.0000 9.1076 0.0000 28.9668
#
#
#
# Elastic Compliance Matrix: (Units=1/GPa)
#
#
# Indices 1 2 3 4 5 6 
#
# 1 0.013468 -0.002388 -0.006539 0.000000 0.001530 0.000000
# 2 -0.002388 0.008413 -0.001823 0.000000 0.000630 0.000000
# 3 -0.006539 -0.001823 0.013455 0.000000 -0.008280 0.000000
# 4 0.000000 0.000000 0.000000 0.030035 0.000000 -0.009443
# 5 0.001530 0.000630 -0.008280 0.000000 0.053560 0.000000
# 6 0.000000 0.000000 0.000000 -0.009443 0.000000 0.037491
#
#
# Mechanical properties :
#
#
# Convention : Reuss Voigt Hill
#
# Bulk Modulus (GPa) = 72.27417 76.17756 74.22587
# Shear Modulus (GPa) = 27.39196 32.00655 29.69925
#
# Velocity S-wave (km/s) = 3.80070 4.10839 3.95754
# Velocity P-wave (km/s) = 7.57461 7.91694 7.74766
#
# Compressibility (1/GPa) = 0.01383620
#
# Stress axis : x y z
#
# Youngs Moduli (GPa) = 74.24841 118.85800 74.32307
#
# Poissons Ratio (x) = 0.28387 0.48596
# Poissons Ratio (y) = 0.17733 0.13552
# Poissons Ratio (z) = 0.48547 0.21672
#
# Static dielectric constant tensor:
#      x y z
#    x 3.595720 0.000000 0.349260 
#    y 0.000000 3.826150 0.000000 
#    z 0.349260 0.000000 3.341680 
# 
# 
# High freq. dielectric constant tensor:
#      x y z
#    x 1.738280 0.000000 0.027580 
#    y 0.000000 1.742830 0.000000 
#    z 0.027580 0.000000 1.719080 
# 
# From -- ./inp_files/47970.got.cif
#   From: 2010.06.25/outbox.cif.g09.slc.cpg/sg15_24_cif.got.tgz:47970.got - 2010.06.28 07:06:18.
