data_PCOD8139775
_publ_section_title
;
Structure prediction by ZEFSAII (Michael W. Deem and Ramdas Pophale) SiO2 
 PCOD8139775
Probable space group: C 2/C
;
_chemical_formula_sum "Si O2"
_cell_formula_units_Z 56
_cell_length_a 8.546394
_cell_length_b 22.458039
_cell_length_c 17.252625
_cell_angle_alpha 90.000000
_cell_angle_beta 116.699830
_cell_angle_gamma 90.000000
_cell_volume 2958.302716
_symmetry_space_group_name_H-M "C 2/C"
_symmetry_group_IT_number 15
_symmetry_cell_setting 'monoclinic'
loop_
_space_group_symop_operation_xyz
x,y,z
-x,y,1/2-z
-x,-y,-z
x,-y,1/2+z
1/2+x,1/2+y,z
1/2-x,1/2+y,1/2-z
1/2-x,1/2-y,-z
1/2+x,1/2-y,1/2+z
loop_
_atom_site_type_symbol
_atom_site_label
_atom_site_fract_x
_atom_site_fract_y
_atom_site_fract_z
Si Si1 0.470898 0.441328 0.047544
Si Si2 0.174847 0.958697 0.238669
Si Si3 0.467900 0.654184 0.418272
Si Si4 0.811595 0.091195 0.247353
Si Si5 0.123278 0.724388 0.535076
Si Si6 0.331160 0.096802 0.913172
Si Si7 0.651052 0.862155 0.565315
O O1 0.634867 0.433563 0.143521
O O2 0.294335 0.444735 0.060776
O O3 0.500000 0.500000 0.000000
O O4 0.450941 0.381079 0.994696
O O5 0.320715 0.922453 0.320295
O O6 0.000000 0.956854 0.250000
O O7 0.246178 0.025129 0.242593
O O8 0.320599 0.630470 0.326669
O O9 0.429251 0.724094 0.416705
O O10 0.661612 0.642283 0.431757
O O11 0.666111 0.117275 0.157413
O O12 0.000000 0.090406 0.250000
O O13 0.250000 0.750000 0.500000
O O14 0.218616 0.667605 0.596771
O O15 0.942947 0.702173 0.454679
O O16 0.530540 0.090582 0.990092
#
# Coordination Sequence:
#
# PCOD8139775 Si02
#       7
#     8   8   8   8   8   8   8
#     4  11  20  36  60  87 113 156 196 236 294 348
#     4   9  18  35  57  82 116 151 195 233 290 358
#     4  11  19  37  63  83 117 153 194 246 290 350
#     4   9  18  34  57  86 112 149 192 237 290 353
#     4  10  20  40  58  82 117 150 197 242 295 355
#     4   9  21  38  57  85 116 154 192 240 289 357
#     4   9  21  37  59  86 111 152 195 238 296 343
#
# _framework density 18.929773999999998
#
# number of rings (size 3 to 8) (size 9 to 14) (size 15 to 20)
#    0.857    1.429    2.857    0.429    2.000    0.571 
#    2.571    3.571    0.000    0.000    0.000    0.000 
#    0.000    0.000    0.000    0.000    0.000    0.000 
#
# Total GULP energy -346918.864499 kJ/mol
# GULP energy per Si atom -12389.959446 kJ/mol
# Density = 1.888669 g / cm^3
# Si number density = 18.929774 Si / 1000 Ang^3
#
#
#
# Elastic Constant Matrix: (Units=GPa)
#
#
# Indices 1 2 3 4 5 6 
#
# 1 41.1086 4.5499 29.5297 0.0000 4.9892 0.0000
# 2 4.5499 103.1248 65.4279 0.0000 3.7586 0.0000
# 3 29.5297 65.4279 187.5613 0.0000 4.4218 0.0000
# 4 0.0000 0.0000 0.0000 37.5352 0.0000 3.5291
# 5 4.9892 3.7586 4.4218 0.0000 20.7630 0.0000
# 6 0.0000 0.0000 0.0000 3.5291 0.0000 24.7060
#
#
#
# Elastic Compliance Matrix: (Units=1/GPa)
#
#
# Indices 1 2 3 4 5 6 
#
# 1 0.028502 0.002211 -0.005113 0.000000 -0.006160 0.000000
# 2 0.002211 0.012662 -0.004722 0.000000 -0.001818 0.000000
# 3 -0.005113 -0.004722 0.007774 0.000000 0.000428 0.000000
# 4 0.000000 0.000000 0.000000 0.027004 0.000000 -0.003857
# 5 -0.006160 -0.001818 0.000428 0.000000 0.049881 0.000000
# 6 0.000000 0.000000 0.000000 -0.003857 0.000000 0.041027
#
#
# Mechanical properties :
#
#
# Convention : Reuss Voigt Hill
#
# Bulk Modulus (GPa) = 29.68354 58.97886 44.33120
# Shear Modulus (GPa) = 25.86282 32.08664 28.97473
#
# Velocity S-wave (km/s) = 3.70029 4.12155 3.91659
# Velocity P-wave (km/s) = 5.82848 7.33988 6.62740
#
# Compressibility (1/GPa) = 0.03368871
#
# Stress axis : x y z
#
# Youngs Moduli (GPa) = 35.08537 78.97872 128.63704
#
# Poissons Ratio (x) = -0.17464 0.65779
# Poissons Ratio (y) = -0.07758 0.60744
# Poissons Ratio (z) = 0.17941 0.37295
#
# Static dielectric constant tensor:
#      x y z
#    x 3.134740 0.000000 -0.049530 
#    y 0.000000 3.278600 0.000000 
#    z -0.049530 0.000000 3.707520 
# 
# 
# High freq. dielectric constant tensor:
#      x y z
#    x 1.709010 0.000000 -0.000650 
#    y 0.000000 1.732300 0.000000 
#    z -0.000650 0.000000 1.742620 
# 
# From -- ./inp_files/193052.got.cif
#   From: 2010.06.25/outbox.cif.g09.slc.cpg/sg15_97_cif.got.tgz:193052.got - 2010.06.28 07:06:18.
