data_PCOD8139087
_publ_section_title
;
Structure prediction by ZEFSAII (Michael W. Deem and Ramdas Pophale) SiO2 
 PCOD8139087
Probable space group: C 2/C
;
_chemical_formula_sum "Si O2"
_cell_formula_units_Z 48
_cell_length_a 22.236023
_cell_length_b 20.734575
_cell_length_c 10.531515
_cell_angle_alpha 90.000000
_cell_angle_beta 155.732251
_cell_angle_gamma 90.000000
_cell_volume 1995.658723
_symmetry_space_group_name_H-M "C 2/C"
_symmetry_group_IT_number 15
_symmetry_cell_setting 'monoclinic'
loop_
_space_group_symop_operation_xyz
x,y,z
-x,y,1/2-z
-x,-y,-z
x,-y,1/2+z
1/2+x,1/2+y,z
1/2-x,1/2+y,1/2-z
1/2-x,1/2-y,-z
1/2+x,1/2-y,1/2+z
loop_
_atom_site_type_symbol
_atom_site_label
_atom_site_fract_x
_atom_site_fract_y
_atom_site_fract_z
Si Si1 0.180896 0.057566 0.789560
Si Si2 0.890464 0.710511 0.728286
Si Si3 0.747975 0.508009 0.168431
Si Si4 0.960869 0.175036 0.879507
Si Si5 0.490102 0.904439 0.592151
Si Si6 0.728786 0.650709 0.214096
O O1 0.157485 0.025855 0.607626
O O2 0.080501 0.120733 0.597710
O O3 0.349337 0.076467 0.145325
O O4 0.145046 0.011290 0.843105
O O5 0.750000 0.750000 0.500000
O O6 0.867853 0.690681 0.536813
O O7 0.910509 0.644751 0.845265
O O8 0.025664 0.758300 0.015950
O O9 0.896547 0.470043 0.424436
O O10 0.784704 0.579547 0.288313
O O11 0.831761 0.185489 0.528336
O O12 0.105825 0.150012 0.087153
O O13 0.500000 0.870994 0.750000
#
# Coordination Sequence:
#
# PCOD8139087 Si02
#       6
#     8   8   8   8   8   8
#     4  10  21  38  62  95 133 172 217 274 332 393
#     4  10  21  37  64  90 127 172 224 264 324 396
#     4  10  20  38  64  96 132 166 223 266 336 389
#     4   9  20  38  61  92 131 175 218 266 333 391
#     4  10  22  37  63  93 128 174 211 282 328 383
#     4   9  19  37  64  96 125 173 216 274 329 394
#
# _framework density 24.052209000000001
#
# number of rings (size 3 to 8) (size 9 to 14) (size 15 to 20)
#    0.000    2.333    0.000    1.500    4.667    4.000 
#    0.000   10.833   14.667    9.000    0.000    0.000 
#    0.000    0.000    0.000    0.000    0.000    0.000 
#
# Total GULP energy -297486.059820 kJ/mol
# GULP energy per Si atom -12395.252493 kJ/mol
# Density = 2.399746 g / cm^3
# Si number density = 24.052209 Si / 1000 Ang^3
#
#
#
# Elastic Constant Matrix: (Units=GPa)
#
#
# Indices 1 2 3 4 5 6 
#
# 1 95.9968 50.4947 37.2445 0.0000 -18.8248 0.0000
# 2 50.4947 150.4603 74.8693 0.0000 -18.7398 0.0000
# 3 37.2445 74.8693 95.4182 0.0000 -29.1222 0.0000
# 4 0.0000 0.0000 0.0000 39.8125 0.0000 8.2164
# 5 -18.8248 -18.7398 -29.1222 0.0000 29.1983 0.0000
# 6 0.0000 0.0000 0.0000 8.2164 0.0000 14.3440
#
#
#
# Elastic Compliance Matrix: (Units=1/GPa)
#
#
# Indices 1 2 3 4 5 6 
#
# 1 0.013697 -0.003433 -0.000905 0.000000 0.005724 0.000000
# 2 -0.003433 0.011864 -0.009086 0.000000 -0.003662 0.000000
# 3 -0.000905 -0.009086 0.023009 0.000000 0.016534 0.000000
# 4 0.000000 0.000000 0.000000 0.028485 0.000000 -0.016317
# 5 0.005724 -0.003662 0.016534 0.000000 0.052080 0.000000
# 6 0.000000 0.000000 0.000000 -0.016317 0.000000 0.079062
#
#
# Mechanical properties :
#
#
# Convention : Reuss Voigt Hill
#
# Bulk Modulus (GPa) = 46.04055 74.12138 60.08096
# Shear Modulus (GPa) = 20.63675 28.62207 24.62941
#
# Velocity S-wave (km/s) = 2.93234 3.45338 3.20347
# Velocity P-wave (km/s) = 5.53609 6.83995 6.22226
#
# Compressibility (1/GPa) = 0.02171998
#
# Stress axis : x y z
#
# Youngs Moduli (GPa) = 73.01074 84.29038 43.46051
#
# Poissons Ratio (x) = 0.28938 0.03935
# Poissons Ratio (y) = 0.25066 0.39490
# Poissons Ratio (z) = 0.06610 0.76589
#
# Static dielectric constant tensor:
#      x y z
#    x 4.687940 0.000000 -0.491780 
#    y 0.000000 4.473850 0.000000 
#    z -0.491780 0.000000 4.745420 
# 
# 
# High freq. dielectric constant tensor:
#      x y z
#    x 1.959380 0.000000 -0.010770 
#    y 0.000000 1.947620 0.000000 
#    z -0.010770 0.000000 1.954860 
# 
# From -- ./inp_files/124347.got.cif
#   From: 2010.06.25/outbox.cif.g09.slc.cpg/sg15_63_cif.got.tgz:124347.got - 2010.06.28 07:06:18.
