data_PCOD8139150
_publ_section_title
;
Structure prediction by ZEFSAII (Michael W. Deem and Ramdas Pophale) SiO2 
 PCOD8139150
Probable space group: C 2/C
;
_chemical_formula_sum "Si O2"
_cell_formula_units_Z 64
_cell_length_a 18.613956
_cell_length_b 13.481969
_cell_length_c 12.428781
_cell_angle_alpha 90.000000
_cell_angle_beta 99.475935
_cell_angle_gamma 90.000000
_cell_volume 3076.477346
_symmetry_space_group_name_H-M "C 2/C"
_symmetry_group_IT_number 15
_symmetry_cell_setting 'monoclinic'
loop_
_space_group_symop_operation_xyz
x,y,z
-x,y,1/2-z
-x,-y,-z
x,-y,1/2+z
1/2+x,1/2+y,z
1/2-x,1/2+y,1/2-z
1/2-x,1/2-y,-z
1/2+x,1/2-y,1/2+z
loop_
_atom_site_type_symbol
_atom_site_label
_atom_site_fract_x
_atom_site_fract_y
_atom_site_fract_z
Si Si1 0.243473 0.366013 0.606811
Si Si2 0.476715 0.260671 0.495505
Si Si3 0.941643 0.116014 0.325305
Si Si4 0.177510 0.469016 0.388830
Si Si5 0.859991 0.771868 0.291297
Si Si6 0.309511 0.485846 0.279545
Si Si7 0.872319 0.729204 0.658958
Si Si8 0.561084 0.860004 0.849325
O O1 0.192270 0.408130 0.501473
O O2 0.191447 0.317269 0.682895
O O3 0.285652 0.460371 0.664869
O O4 0.303960 0.285456 0.583428
O O5 0.523566 0.353529 0.551601
O O6 0.419392 0.301873 0.395222
O O7 0.437078 0.214917 0.589534
O O8 0.525743 0.175100 0.452844
O O9 0.896424 0.210028 0.269486
O O10 0.000000 0.081702 0.250000
O O11 0.888332 0.024661 0.336523
O O12 0.252093 0.512207 0.359438
O O13 0.147822 0.381124 0.303521
O O14 0.117971 0.553710 0.391146
O O15 0.812333 0.868916 0.255547
O O16 0.898871 0.735283 0.192294
O O17 0.500000 0.899401 0.750000
#
# Coordination Sequence:
#
# PCOD8139150 Si02
#       8
#     8   8   8   8   8   8   8   8
#     4  11  22  41  62  95 120 156 216 256 305 371
#     4  10  21  41  62  87 127 164 203 253 302 372
#     4   9  22  41  62  96 125 159 211 254 303 364
#     4  12  22  38  65  93 120 166 212 252 309 368
#     4  11  21  43  64  85 126 165 201 255 315 365
#     4  11  24  39  66  93 125 162 202 263 309 363
#     4  10  20  38  66  89 123 160 208 260 304 354
#     4  10  25  42  60  91 131 166 203 251 317 373
#
# _framework density 20.803013
#
# number of rings (size 3 to 8) (size 9 to 14) (size 15 to 20)
#    0.000    1.500    3.750    1.125    0.000    6.000 
#    0.000    1.250    0.000    0.000    0.000    0.000 
#    0.000    0.000    0.000    0.000    0.000    0.000 
#
# Total GULP energy -396841.370752 kJ/mol
# GULP energy per Si atom -12401.292836 kJ/mol
# Density = 2.075566 g / cm^3
# Si number density = 20.803013 Si / 1000 Ang^3
#
#
#
# Elastic Constant Matrix: (Units=GPa)
#
#
# Indices 1 2 3 4 5 6 
#
# 1 114.3435 44.8728 23.4331 0.0000 -9.1369 0.0000
# 2 44.8728 98.8003 30.9147 0.0000 -1.2543 0.0000
# 3 23.4331 30.9147 55.0365 0.0000 -5.1079 0.0000
# 4 0.0000 0.0000 0.0000 18.5608 0.0000 2.0745
# 5 -9.1369 -1.2543 -5.1079 0.0000 28.2406 0.0000
# 6 0.0000 0.0000 0.0000 2.0745 0.0000 44.2445
#
#
#
# Elastic Compliance Matrix: (Units=1/GPa)
#
#
# Indices 1 2 3 4 5 6 
#
# 1 0.011118 -0.004390 -0.001986 0.000000 0.003043 0.000000
# 2 -0.004390 0.014027 -0.006188 0.000000 -0.001916 0.000000
# 3 -0.001986 -0.006188 0.022788 0.000000 0.003205 0.000000
# 4 0.000000 0.000000 0.000000 0.054161 0.000000 -0.002539
# 5 0.003043 -0.001916 0.003205 0.000000 0.036889 0.000000
# 6 0.000000 0.000000 0.000000 -0.002539 0.000000 0.022721
#
#
# Mechanical properties :
#
#
# Convention : Reuss Voigt Hill
#
# Bulk Modulus (GPa) = 43.84613 51.84683 47.84648
# Shear Modulus (GPa) = 25.71568 29.47316 27.59442
#
# Velocity S-wave (km/s) = 3.51971 3.76809 3.64601
# Velocity P-wave (km/s) = 6.13518 6.62632 6.38547
#
# Compressibility (1/GPa) = 0.02280703
#
# Stress axis : x y z
#
# Youngs Moduli (GPa) = 89.94116 71.29089 43.88179
#
# Poissons Ratio (x) = 0.31295 0.08714
# Poissons Ratio (y) = 0.39482 0.27154
# Poissons Ratio (z) = 0.17860 0.44115
#
# Static dielectric constant tensor:
#      x y z
#    x 4.083700 0.000000 0.058600 
#    y 0.000000 3.687040 0.000000 
#    z 0.058600 0.000000 3.489510 
# 
# 
# High freq. dielectric constant tensor:
#      x y z
#    x 1.834620 0.000000 -0.000850 
#    y 0.000000 1.809440 0.000000 
#    z -0.000850 0.000000 1.792030 
# 
# From -- ./inp_files/105745.got.cif
#   From: 2010.06.25/outbox.cif.g09.slc.cpg/sg15_53_cif.got.tgz:105745.got - 2010.06.28 07:06:18.
