data_PCOD8139929
_publ_section_title
;
Structure prediction by ZEFSAII (Michael W. Deem and Ramdas Pophale) SiO2 
 PCOD8139929
Probable space group: C 2/C
;
_chemical_formula_sum "Si O2"
_cell_formula_units_Z 60
_cell_length_a 23.672424
_cell_length_b 13.235782
_cell_length_c 16.108519
_cell_angle_alpha 90.000000
_cell_angle_beta 147.813298
_cell_angle_gamma 90.000000
_cell_volume 2688.525943
_symmetry_space_group_name_H-M "C 2/C"
_symmetry_group_IT_number 15
_symmetry_cell_setting 'monoclinic'
loop_
_space_group_symop_operation_xyz
x,y,z
-x,y,1/2-z
-x,-y,-z
x,-y,1/2+z
1/2+x,1/2+y,z
1/2-x,1/2+y,1/2-z
1/2-x,1/2-y,-z
1/2+x,1/2-y,1/2+z
loop_
_atom_site_type_symbol
_atom_site_label
_atom_site_fract_x
_atom_site_fract_y
_atom_site_fract_z
Si Si1 0.133540 0.399027 0.140724
Si Si2 0.770782 0.609847 0.442154
Si Si3 0.886011 0.415176 0.639120
Si Si4 0.894692 0.612763 0.338493
Si Si5 0.080436 0.018789 0.673987
Si Si6 0.500000 0.452078 0.750000
Si Si7 0.804600 0.825409 0.476098
Si Si8 0.232805 0.190358 0.840970
O O1 0.129129 0.521726 0.126670
O O2 0.203758 0.373349 0.306725
O O3 0.187270 0.355035 0.126493
O O4 0.015770 0.350531 0.005054
O O5 0.857938 0.523838 0.564820
O O6 0.673629 0.561467 0.270864
O O7 0.822465 0.709726 0.464217
O O8 0.716519 0.661254 0.453782
O O9 0.887769 0.433412 0.738527
O O10 0.800508 0.326560 0.510267
O O11 0.000000 0.378840 0.750000
O O12 0.802776 0.697494 0.229792
O O13 0.043201 0.016876 0.724961
O O14 0.122750 0.131417 0.712646
O O15 0.000000 0.000000 0.500000
O O16 0.413074 0.384783 0.593694
#
# Coordination Sequence:
#
# PCOD8139929 Si02
#       8
#     8   8   8   8   8   4   8   8
#     4  11  24  46  71 103 136 179 228 290 354 408
#     4   9  21  37  65  93 130 176 220 285 334 406
#     4  11  21  44  67  96 137 181 235 278 333 412
#     4  11  25  47  72  99 141 182 228 289 346 422
#     4  10  22  42  64  98 138 175 231 287 349 419
#     4  10  22  42  64  98 140 186 226 286 358 410
#     4  10  20  40  63  95 134 173 225 276 350 410
#     4  11  25  44  70 103 133 183 234 283 348 416
#
# _framework density 22.317063000000001
#
# number of rings (size 3 to 8) (size 9 to 14) (size 15 to 20)
#    0.000    1.600    2.667    1.200    2.800    2.133 
#    6.000    0.000    0.000    0.000    0.000    0.000 
#    0.000    0.000    0.000    0.000    0.000    0.000 
#
# Total GULP energy -371734.870445 kJ/mol
# GULP energy per Si atom -12391.162348 kJ/mol
# Density = 2.226627 g / cm^3
# Si number density = 22.317063 Si / 1000 Ang^3
#
#
#
# Elastic Constant Matrix: (Units=GPa)
#
#
# Indices 1 2 3 4 5 6 
#
# 1 56.5209 15.5482 11.9309 0.0000 9.6866 0.0000
# 2 15.5482 108.6487 36.6173 0.0000 19.1518 0.0000
# 3 11.9309 36.6173 156.7150 0.0000 9.5446 0.0000
# 4 0.0000 0.0000 0.0000 26.9290 0.0000 -3.8944
# 5 9.6866 19.1518 9.5446 0.0000 31.7247 0.0000
# 6 0.0000 0.0000 0.0000 -3.8944 0.0000 3.6411
#
#
#
# Elastic Compliance Matrix: (Units=1/GPa)
#
#
# Indices 1 2 3 4 5 6 
#
# 1 0.019102 -0.001659 -0.000787 0.000000 -0.004595 0.000000
# 2 -0.001659 0.011145 -0.002138 0.000000 -0.005579 0.000000
# 3 -0.000787 -0.002138 0.006975 0.000000 -0.000567 0.000000
# 4 0.000000 0.000000 0.000000 0.043930 0.000000 0.046986
# 5 -0.004595 -0.005579 -0.000567 0.000000 0.036462 0.000000
# 6 0.000000 0.000000 0.000000 0.046986 0.000000 0.324900
#
#
# Mechanical properties :
#
#
# Convention : Reuss Voigt Hill
#
# Bulk Modulus (GPa) = 35.64365 50.00862 42.82613
# Shear Modulus (GPa) = 10.84520 29.64484 20.24502
#
# Velocity S-wave (km/s) = 2.20684 3.64861 3.01517
# Velocity P-wave (km/s) = 4.74338 6.34087 5.59939
#
# Compressibility (1/GPa) = 0.02805549
#
# Stress axis : x y z
#
# Youngs Moduli (GPa) = 52.34957 89.72416 143.36785
#
# Poissons Ratio (x) = 0.14881 0.11282
# Poissons Ratio (y) = 0.08682 0.30654
# Poissons Ratio (z) = 0.04120 0.19184
#
# Static dielectric constant tensor:
#      x y z
#    x 3.885300 0.000000 -0.004950 
#    y 0.000000 4.210940 0.000000 
#    z -0.004950 0.000000 4.385530 
# 
# 
# High freq. dielectric constant tensor:
#      x y z
#    x 1.869270 0.000000 -0.001780 
#    y 0.000000 1.872390 0.000000 
#    z -0.001780 0.000000 1.896660 
# 
# From -- ./inp_files/222573.got.cif
#   From: 2010.06.25/outbox.cif.g09.slc.cpg/sg15_112_cif.got.tgz:222573.got - 2010.06.28 07:06:18.
