data_PCOD8139096
_publ_section_title
;
Structure prediction by ZEFSAII (Michael W. Deem and Ramdas Pophale) SiO2 
 PCOD8139096
Probable space group: C 2/C
;
_chemical_formula_sum "Si O2"
_cell_formula_units_Z 44
_cell_length_a 20.335798
_cell_length_b 8.724892
_cell_length_c 11.143677
_cell_angle_alpha 90.000000
_cell_angle_beta 71.359483
_cell_angle_gamma 90.000000
_cell_volume 1873.477785
_symmetry_space_group_name_H-M "C 2/C"
_symmetry_group_IT_number 15
_symmetry_cell_setting 'monoclinic'
loop_
_space_group_symop_operation_xyz
x,y,z
-x,y,1/2-z
-x,-y,-z
x,-y,1/2+z
1/2+x,1/2+y,z
1/2-x,1/2+y,1/2-z
1/2-x,1/2-y,-z
1/2+x,1/2-y,1/2+z
loop_
_atom_site_type_symbol
_atom_site_label
_atom_site_fract_x
_atom_site_fract_y
_atom_site_fract_z
Si Si1 0.354797 0.385434 0.761841
Si Si2 0.235972 0.574069 0.495756
Si Si3 0.605371 0.292508 0.318376
Si Si4 0.749296 0.188836 0.138747
Si Si5 0.500000 0.921833 0.750000
Si Si6 0.910189 0.655069 0.926840
O O1 0.291637 0.480484 0.864067
O O2 0.405984 0.524666 0.695055
O O3 0.321716 0.289335 0.669302
O O4 0.396041 0.263825 0.819440
O O5 0.250000 0.750000 0.500000
O O6 0.245771 0.494673 0.619521
O O7 0.156604 0.549901 0.501356
O O8 0.685913 0.245801 0.257216
O O9 0.562298 0.187507 0.252800
O O10 0.575180 0.263635 0.468768
O O11 0.750000 0.250000 0.000000
O O12 0.473093 0.036998 0.869622
#
# Coordination Sequence:
#
# PCOD8139096 Si02
#       6
#     8   8   8   8   4   8
#     4  11  24  43  74 107 145 177 225 303 364 419
#     4  10  20  38  65 103 141 174 221 281 357 414
#     4  12  26  46  71 103 146 184 239 289 345 432
#     4  12  24  39  71 112 142 175 223 290 369 419
#     4  12  28  50  70  98 138 198 248 290 340 414
#     4  11  25  48  72 103 141 190 238 290 355 417
#
# _framework density 23.485733
#
# number of rings (size 3 to 8) (size 9 to 14) (size 15 to 20)
#    0.000    0.727    5.455    2.727    2.545    2.182 
#    3.273    1.818    0.000    0.000    0.000    0.000 
#    0.000    0.000    0.000    0.000    0.000    0.000 
#
# Total GULP energy -272586.570730 kJ/mol
# GULP energy per Si atom -12390.298670 kJ/mol
# Density = 2.343228 g / cm^3
# Si number density = 23.485733 Si / 1000 Ang^3
#
#
#
# Elastic Constant Matrix: (Units=GPa)
#
#
# Indices 1 2 3 4 5 6 
#
# 1 57.0789 43.4205 20.7706 0.0000 1.0178 0.0000
# 2 43.4205 116.3677 39.8488 0.0000 11.0006 0.0000
# 3 20.7706 39.8488 90.5196 0.0000 19.8506 0.0000
# 4 0.0000 0.0000 0.0000 45.9482 0.0000 4.3802
# 5 1.0178 11.0006 19.8506 0.0000 37.7552 0.0000
# 6 0.0000 0.0000 0.0000 4.3802 0.0000 28.8762
#
#
#
# Elastic Compliance Matrix: (Units=1/GPa)
#
#
# Indices 1 2 3 4 5 6 
#
# 1 0.025085 -0.008775 -0.002606 0.000000 0.003251 0.000000
# 2 -0.008775 0.013204 -0.003399 0.000000 -0.001823 0.000000
# 3 -0.002606 -0.003399 0.014592 0.000000 -0.006611 0.000000
# 4 0.000000 0.000000 0.000000 0.022083 0.000000 -0.003350
# 5 0.003251 -0.001823 -0.006611 0.000000 0.030406 0.000000
# 6 0.000000 0.000000 0.000000 -0.003350 0.000000 0.035139
#
#
# Mechanical properties :
#
#
# Convention : Reuss Voigt Hill
#
# Bulk Modulus (GPa) = 42.88120 52.44954 47.66537
# Shear Modulus (GPa) = 28.11476 33.17768 30.64622
#
# Velocity S-wave (km/s) = 3.46367 3.76263 3.61624
# Velocity P-wave (km/s) = 5.85611 6.42320 6.14620
#
# Compressibility (1/GPa) = 0.02332024
#
# Stress axis : x y z
#
# Youngs Moduli (GPa) = 39.86422 75.73386 68.53272
#
# Poissons Ratio (x) = 0.66456 0.17859
# Poissons Ratio (y) = 0.34981 0.23297
# Poissons Ratio (z) = 0.10388 0.25745
#
# Static dielectric constant tensor:
#      x y z
#    x 5.338800 0.000000 -1.573800 
#    y 0.000000 4.716730 0.000000 
#    z -1.573800 0.000000 7.103510 
# 
# 
# High freq. dielectric constant tensor:
#      x y z
#    x 1.903600 0.000000 0.007730 
#    y 0.000000 1.948030 0.000000 
#    z 0.007730 0.000000 1.929360 
# 
# From -- ./inp_files/109976.got.cif
#   From: 2010.06.25/outbox.cif.g09.slc.cpg/sg15_55_cif.got.tgz:109976.got - 2010.06.28 07:06:18.
