data_PCOD8139320
_publ_section_title
;
Structure prediction by ZEFSAII (Michael W. Deem and Ramdas Pophale) SiO2 
 PCOD8139320
Probable space group: C 2/C
;
_chemical_formula_sum "Si O2"
_cell_formula_units_Z 48
_cell_length_a 11.553401
_cell_length_b 17.739996
_cell_length_c 12.867129
_cell_angle_alpha 90.000000
_cell_angle_beta 74.870370
_cell_angle_gamma 90.000000
_cell_volume 2545.800252
_symmetry_space_group_name_H-M "C 2/C"
_symmetry_group_IT_number 15
_symmetry_cell_setting 'monoclinic'
loop_
_space_group_symop_operation_xyz
x,y,z
-x,y,1/2-z
-x,-y,-z
x,-y,1/2+z
1/2+x,1/2+y,z
1/2-x,1/2+y,1/2-z
1/2-x,1/2-y,-z
1/2+x,1/2-y,1/2+z
loop_
_atom_site_type_symbol
_atom_site_label
_atom_site_fract_x
_atom_site_fract_y
_atom_site_fract_z
Si Si1 0.869389 0.886116 0.224856
Si Si2 0.779344 0.129583 0.958098
Si Si3 0.188306 0.257174 0.902114
Si Si4 0.921612 0.738485 0.497379
Si Si5 0.113748 0.183533 0.288146
Si Si6 0.387891 0.469909 0.590092
O O1 0.770034 0.889657 0.339152
O O2 0.836298 0.821211 0.150822
O O3 0.000000 0.882118 0.250000
O O4 0.843057 0.963219 0.171733
O O5 0.898411 0.183083 0.941433
O O6 0.662486 0.172714 0.028233
O O7 0.790670 0.055080 0.026386
O O8 0.266216 0.312825 0.810848
O O9 0.056741 0.291424 0.953782
O O10 0.250000 0.250000 0.000000
O O11 0.878296 0.753348 0.625055
O O12 0.087098 0.101139 0.340982
O O13 0.000000 0.208651 0.250000
O O14 0.500000 0.500000 0.500000
#
# Coordination Sequence:
#
# PCOD8139320 Si02
#       6
#     8   8   8   8   8   8
#     4  12  21  37  62  92 125 166 209 262 328 373
#     4  10  21  37  60  89 124 163 211 265 315 379
#     4  12  24  37  64  97 132 167 215 270 321 386
#     4  10  20  39  59  89 127 162 212 260 314 383
#     4  11  22  37  61  94 122 162 212 262 321 375
#     4  11  23  36  60  94 124 157 209 280 318 369
#
# _framework density 18.854582000000001
#
# number of rings (size 3 to 8) (size 9 to 14) (size 15 to 20)
#    0.000    1.000    6.667    1.500    0.000    0.000 
#    0.000    0.000    0.000    8.000    0.000    0.000 
#    0.000    0.000    0.000    0.000    0.000    0.000 
#
# Total GULP energy -297405.617972 kJ/mol
# GULP energy per Si atom -12391.900749 kJ/mol
# Density = 1.881167 g / cm^3
# Si number density = 18.854582 Si / 1000 Ang^3
#
#
#
# Elastic Constant Matrix: (Units=GPa)
#
#
# Indices 1 2 3 4 5 6 
#
# 1 108.6099 44.8709 48.2032 0.0000 -4.7762 0.0000
# 2 44.8709 99.9776 52.9398 0.0000 9.3175 0.0000
# 3 48.2032 52.9398 133.8262 0.0000 1.5179 0.0000
# 4 0.0000 0.0000 0.0000 39.6008 0.0000 7.0749
# 5 -4.7762 9.3175 1.5179 0.0000 37.3578 0.0000
# 6 0.0000 0.0000 0.0000 7.0749 0.0000 27.4049
#
#
#
# Elastic Compliance Matrix: (Units=1/GPa)
#
#
# Indices 1 2 3 4 5 6 
#
# 1 0.012347 -0.004337 -0.002763 0.000000 0.002773 0.000000
# 2 -0.004337 0.014510 -0.004133 0.000000 -0.004006 0.000000
# 3 -0.002763 -0.004133 0.010099 0.000000 0.000267 0.000000
# 4 0.000000 0.000000 0.000000 0.026473 0.000000 -0.006834
# 5 0.002773 -0.004006 0.000267 0.000000 0.028111 0.000000
# 6 0.000000 0.000000 0.000000 -0.006834 0.000000 0.038254
#
#
# Mechanical properties :
#
#
# Convention : Reuss Voigt Hill
#
# Bulk Modulus (GPa) = 69.00481 70.49351 69.74916
# Shear Modulus (GPa) = 31.82875 33.96599 32.89737
#
# Velocity S-wave (km/s) = 4.11313 4.24898 4.18161
# Velocity P-wave (km/s) = 7.69643 7.84480 7.77097
#
# Compressibility (1/GPa) = 0.01449174
#
# Stress axis : x y z
#
# Youngs Moduli (GPa) = 80.98952 68.91721 99.01549
#
# Poissons Ratio (x) = 0.29888 0.27361
# Poissons Ratio (y) = 0.35123 0.40918
# Poissons Ratio (z) = 0.22380 0.28480
#
# Static dielectric constant tensor:
#      x y z
#    x 3.441720 0.000000 0.236870 
#    y 0.000000 3.444050 0.000000 
#    z 0.236870 0.000000 4.634230 
# 
# 
# High freq. dielectric constant tensor:
#      x y z
#    x 1.715910 0.000000 0.007900 
#    y 0.000000 1.711110 0.000000 
#    z 0.007900 0.000000 1.760340 
# 
# From -- ./inp_files/87221.got.cif
#   From: 2010.06.25/outbox.cif.g09.slc.cpg/sg15_44_cif.got.tgz:87221.got - 2010.06.28 07:06:18.
