data_PCOD8139624
_publ_section_title
;
Structure prediction by ZEFSAII (Michael W. Deem and Ramdas Pophale) SiO2 
 PCOD8139624
Probable space group: C 2/C
;
_chemical_formula_sum "Si O2"
_cell_formula_units_Z 48
_cell_length_a 18.567944
_cell_length_b 10.023719
_cell_length_c 17.578197
_cell_angle_alpha 90.000000
_cell_angle_beta 44.350466
_cell_angle_gamma 90.000000
_cell_volume 2287.032875
_symmetry_space_group_name_H-M "C 2/C"
_symmetry_group_IT_number 15
_symmetry_cell_setting 'monoclinic'
loop_
_space_group_symop_operation_xyz
x,y,z
-x,y,1/2-z
-x,-y,-z
x,-y,1/2+z
1/2+x,1/2+y,z
1/2-x,1/2+y,1/2-z
1/2-x,1/2-y,-z
1/2+x,1/2-y,1/2+z
loop_
_atom_site_type_symbol
_atom_site_label
_atom_site_fract_x
_atom_site_fract_y
_atom_site_fract_z
Si Si1 0.183146 0.296400 0.436797
Si Si2 0.407949 0.654965 0.766799
Si Si3 0.639165 0.131014 0.796333
Si Si4 0.342144 0.506325 0.580583
Si Si5 0.993579 0.405044 0.665831
Si Si6 0.956278 0.909239 0.640469
O O1 0.293548 0.342062 0.386778
O O2 0.170325 0.351428 0.360694
O O3 0.172982 0.136045 0.449447
O O4 0.106787 0.369071 0.551233
O O5 0.500000 0.710942 0.750000
O O6 0.417104 0.779140 0.700421
O O7 0.441207 0.506399 0.722490
O O8 0.590585 0.267765 0.801612
O O9 0.736802 0.088650 0.670828
O O10 0.549635 0.023372 0.853911
O O11 0.390574 0.481127 0.625572
O O12 0.422300 0.597680 0.472196
O O13 0.000000 0.450150 0.750000
#
# Coordination Sequence:
#
# PCOD8139624 Si02
#       6
#     8   8   8   8   8   8
#     4  11  22  41  70  96 129 171 222 273 318 384
#     4  11  23  39  64  94 128 173 217 260 324 395
#     4  11  23  39  69  98 131 166 219 277 322 387
#     4  10  20  39  65  93 130 165 213 273 323 377
#     4  11  25  42  64  97 130 173 219 268 322 389
#     4  10  22  39  61  94 130 168 209 269 328 381
#
# _framework density 20.987891999999999
#
# number of rings (size 3 to 8) (size 9 to 14) (size 15 to 20)
#    0.000    1.333    5.000    0.500    0.000    6.000 
#    0.000    0.000    0.000    4.000    0.000    0.000 
#    0.000    0.000    0.000    0.000    0.000    0.000 
#
# Total GULP energy -297412.615540 kJ/mol
# GULP energy per Si atom -12392.192314 kJ/mol
# Density = 2.094012 g / cm^3
# Si number density = 20.987892 Si / 1000 Ang^3
#
#
#
# Elastic Constant Matrix: (Units=GPa)
#
#
# Indices 1 2 3 4 5 6 
#
# 1 68.2491 37.5487 40.8671 0.0000 -23.1991 0.0000
# 2 37.5487 143.4422 61.6437 0.0000 -20.0178 0.0000
# 3 40.8671 61.6437 136.1554 0.0000 -44.5034 0.0000
# 4 0.0000 0.0000 0.0000 35.9297 0.0000 -8.0650
# 5 -23.1991 -20.0178 -44.5034 0.0000 30.7026 0.0000
# 6 0.0000 0.0000 0.0000 -8.0650 0.0000 23.1560
#
#
#
# Elastic Compliance Matrix: (Units=1/GPa)
#
#
# Indices 1 2 3 4 5 6 
#
# 1 0.021358 -0.003536 -0.000548 0.000000 0.013038 0.000000
# 2 -0.003536 0.009241 -0.003851 0.000000 -0.002229 0.000000
# 3 -0.000548 -0.003851 0.015766 0.000000 0.019928 0.000000
# 4 0.000000 0.000000 0.000000 0.030193 0.000000 0.010516
# 5 0.013038 -0.002229 0.019928 0.000000 0.069855 0.000000
# 6 0.000000 0.000000 0.000000 0.010516 0.000000 0.046848
#
#
# Mechanical properties :
#
#
# Convention : Reuss Voigt Hill
#
# Bulk Modulus (GPa) = 32.79192 69.77395 51.28294
# Shear Modulus (GPa) = 22.80035 31.81016 27.30525
#
# Velocity S-wave (km/s) = 3.29957 3.89735 3.61085
# Velocity P-wave (km/s) = 5.49312 7.31912 6.47085
#
# Compressibility (1/GPa) = 0.03049532
#
# Stress axis : x y z
#
# Youngs Moduli (GPa) = 46.82182 108.21433 63.42662
#
# Poissons Ratio (x) = 0.38261 0.03476
# Poissons Ratio (y) = 0.16555 0.24425
# Poissons Ratio (z) = 0.02566 0.41673
#
# Static dielectric constant tensor:
#      x y z
#    x 3.748890 0.000000 -0.236910 
#    y 0.000000 3.858580 0.000000 
#    z -0.236910 0.000000 3.787920 
# 
# 
# High freq. dielectric constant tensor:
#      x y z
#    x 1.809940 0.000000 -0.021100 
#    y 0.000000 1.825980 0.000000 
#    z -0.021100 0.000000 1.825720 
# 
# From -- ./inp_files/251764.got.cif
#   From: 2010.06.25/outbox.cif.g09.slc.cpg/sg15_126_cif.got.tgz:251764.got - 2010.06.28 07:06:18.
