data_PCOD8139565
_publ_section_title
;
Structure prediction by ZEFSAII (Michael W. Deem and Ramdas Pophale) SiO2 
 PCOD8139565
Probable space group: C 2/C
;
_chemical_formula_sum "Si O2"
_cell_formula_units_Z 48
_cell_length_a 14.090591
_cell_length_b 10.637888
_cell_length_c 14.789335
_cell_angle_alpha 90.000000
_cell_angle_beta 75.911440
_cell_angle_gamma 90.000000
_cell_volume 2150.153519
_symmetry_space_group_name_H-M "C 2/C"
_symmetry_group_IT_number 15
_symmetry_cell_setting 'monoclinic'
loop_
_space_group_symop_operation_xyz
x,y,z
-x,y,1/2-z
-x,-y,-z
x,-y,1/2+z
1/2+x,1/2+y,z
1/2-x,1/2+y,1/2-z
1/2-x,1/2-y,-z
1/2+x,1/2-y,1/2+z
loop_
_atom_site_type_symbol
_atom_site_label
_atom_site_fract_x
_atom_site_fract_y
_atom_site_fract_z
Si Si1 0.106170 0.918316 0.692093
Si Si2 0.261325 0.514846 0.990810
Si Si3 0.700798 0.658866 0.342604
Si Si4 0.398488 0.080025 0.252979
Si Si5 0.902801 0.594941 0.593369
Si Si6 0.109999 0.355967 0.104835
O O1 0.157286 0.007699 0.606074
O O2 0.171102 0.930448 0.766641
O O3 0.100878 0.782125 0.647082
O O4 0.000000 0.964940 0.750000
O O5 0.161664 0.588718 0.983383
O O6 0.316253 0.589622 0.057894
O O7 0.216721 0.379679 0.033388
O O8 0.816784 0.680068 0.301930
O O9 0.639793 0.784876 0.343678
O O10 0.500000 0.151570 0.250000
O O11 0.385359 0.034325 0.152659
O O12 0.399168 0.952806 0.311313
O O13 0.019962 0.618436 0.553841
#
# Coordination Sequence:
#
# PCOD8139565 Si02
#       6
#     8   8   8   8   8   8
#     4  12  22  42  66  88 125 173 207 247 306 373
#     4  11  25  38  63  97 123 156 211 261 307 360
#     4  11  22  39  64  90 130 163 203 257 311 364
#     4   9  18  35  63  89 116 158 209 251 301 362
#     4  11  19  39  64  88 122 162 201 255 314 360
#     4  10  20  39  64  90 114 160 216 254 295 365
#
# _framework density 22.323986999999999
#
# number of rings (size 3 to 8) (size 9 to 14) (size 15 to 20)
#    0.000    1.333    5.000    2.000    0.000    0.667 
#    0.000    0.833    0.000    0.000    0.000    0.000 
#    0.000    0.000    0.000    0.000    0.000    0.000 
#
# Total GULP energy -297383.525704 kJ/mol
# GULP energy per Si atom -12390.980238 kJ/mol
# Density = 2.227318 g / cm^3
# Si number density = 22.323987 Si / 1000 Ang^3
#
#
#
# Elastic Constant Matrix: (Units=GPa)
#
#
# Indices 1 2 3 4 5 6 
#
# 1 111.3692 9.0252 39.0956 0.0000 -16.3124 0.0000
# 2 9.0252 22.1907 1.4427 0.0000 -4.4758 0.0000
# 3 39.0956 1.4427 111.7108 0.0000 -0.3456 0.0000
# 4 0.0000 0.0000 0.0000 8.1816 0.0000 2.7122
# 5 -16.3124 -4.4758 -0.3456 0.0000 49.2992 0.0000
# 6 0.0000 0.0000 0.0000 2.7122 0.0000 18.9717
#
#
#
# Elastic Compliance Matrix: (Units=1/GPa)
#
#
# Indices 1 2 3 4 5 6 
#
# 1 0.011101 -0.003596 -0.003828 0.000000 0.003320 0.000000
# 2 -0.003596 0.047107 0.000660 0.000000 0.003091 0.000000
# 3 -0.003828 0.000660 0.010279 0.000000 -0.001135 0.000000
# 4 0.000000 0.000000 0.000000 0.128307 0.000000 -0.018343
# 5 0.003320 0.003091 -0.001135 0.000000 0.021655 0.000000
# 6 0.000000 0.000000 0.000000 -0.018343 0.000000 0.055332
#
#
# Mechanical properties :
#
#
# Convention : Reuss Voigt Hill
#
# Bulk Modulus (GPa) = 18.19577 38.26641 28.23109
# Shear Modulus (GPa) = 16.35962 28.33765 22.34864
#
# Velocity S-wave (km/s) = 2.71001 3.56670 3.16746
# Velocity P-wave (km/s) = 4.23801 5.84298 5.10398
#
# Compressibility (1/GPa) = 0.05495782
#
# Stress axis : x y z
#
# Youngs Moduli (GPa) = 90.08446 21.22822 97.28174
#
# Poissons Ratio (x) = 0.07634 0.37242
# Poissons Ratio (y) = 0.32397 -0.06419
# Poissons Ratio (z) = 0.34486 -0.01401
#
# Static dielectric constant tensor:
#      x y z
#    x 4.497580 0.000000 -0.128080 
#    y 0.000000 3.514970 0.000000 
#    z -0.128080 0.000000 4.126900 
# 
# 
# High freq. dielectric constant tensor:
#      x y z
#    x 1.894700 0.000000 0.004830 
#    y 0.000000 1.834090 0.000000 
#    z 0.004830 0.000000 1.886800 
# 
# From -- ./inp_files/151850.got.cif
#   From: 2010.06.25/outbox.cif.g09.slc.cpg/sg15_76_cif.got.tgz:151850.got - 2010.06.28 07:06:18.
