data_PCOD8139860
_publ_section_title
;
Structure prediction by ZEFSAII (Michael W. Deem and Ramdas Pophale) SiO2 
 PCOD8139860
Probable space group: C 2/C
;
_chemical_formula_sum "Si O2"
_cell_formula_units_Z 40
_cell_length_a 18.223680
_cell_length_b 10.837913
_cell_length_c 9.320330
_cell_angle_alpha 90.000000
_cell_angle_beta 100.450769
_cell_angle_gamma 90.000000
_cell_volume 1810.289988
_symmetry_space_group_name_H-M "C 2/C"
_symmetry_group_IT_number 15
_symmetry_cell_setting 'monoclinic'
loop_
_space_group_symop_operation_xyz
x,y,z
-x,y,1/2-z
-x,-y,-z
x,-y,1/2+z
1/2+x,1/2+y,z
1/2-x,1/2+y,1/2-z
1/2-x,1/2-y,-z
1/2+x,1/2-y,1/2+z
loop_
_atom_site_type_symbol
_atom_site_label
_atom_site_fract_x
_atom_site_fract_y
_atom_site_fract_z
Si Si1 0.666382 0.879035 0.406265
Si Si2 0.160996 0.128705 0.554379
Si Si3 0.453299 0.920632 0.591421
Si Si4 0.566472 0.244519 0.664009
Si Si5 0.081933 0.992528 0.269777
O O1 0.753424 0.908293 0.436186
O O2 0.647241 0.774451 0.519873
O O3 0.642151 0.820703 0.245644
O O4 0.624924 0.009088 0.412896
O O5 0.113264 0.041498 0.431875
O O6 0.136754 0.103926 0.710227
O O7 0.500000 0.895372 0.750000
O O8 0.442550 0.790672 0.506159
O O9 0.500000 0.000000 0.500000
O O10 0.500000 0.199613 0.750000
O O11 0.573013 0.390384 0.661460
O O12 0.000000 0.930919 0.250000
#
# Coordination Sequence:
#
# PCOD8139860 Si02
#       5
#     8   8   8   8   8
#     4  10  21  39  64  85 131 162 200 249 314 366
#     4  10  23  41  63  90 120 169 203 251 316 361
#     4  12  21  37  62  94 121 161 204 251 306 368
#     4  10  20  40  62  86 123 161 202 256 308 353
#     4  10  22  43  64  85 121 163 211 260 302 366
#
# _framework density 22.095904999999998
#
# number of rings (size 3 to 8) (size 9 to 14) (size 15 to 20)
#    0.000    1.600    4.000    0.600    2.800    0.000 
#    3.600    2.000    0.000    0.000    0.000    0.000 
#    0.000    0.000    0.000    0.000    0.000    0.000 
#
# Total GULP energy -247942.988547 kJ/mol
# GULP energy per Si atom -12397.149427 kJ/mol
# Density = 2.204561 g / cm^3
# Si number density = 22.095905 Si / 1000 Ang^3
#
#
#
# Elastic Constant Matrix: (Units=GPa)
#
#
# Indices 1 2 3 4 5 6 
#
# 1 108.0747 18.5836 26.7839 0.0000 14.4391 0.0000
# 2 18.5836 47.2073 22.0102 0.0000 -5.7170 0.0000
# 3 26.7839 22.0102 91.1891 0.0000 5.4593 0.0000
# 4 0.0000 0.0000 0.0000 33.8215 0.0000 -0.9190
# 5 14.4391 -5.7170 5.4593 0.0000 33.3788 0.0000
# 6 0.0000 0.0000 0.0000 -0.9190 0.0000 21.8463
#
#
#
# Elastic Compliance Matrix: (Units=1/GPa)
#
#
# Indices 1 2 3 4 5 6 
#
# 1 0.011140 -0.004095 -0.001972 0.000000 -0.005198 0.000000
# 2 -0.004095 0.026260 -0.005565 0.000000 0.007179 0.000000
# 3 -0.001972 -0.005565 0.013022 0.000000 -0.002230 0.000000
# 4 0.000000 0.000000 0.000000 0.029601 0.000000 0.001245
# 5 -0.005198 0.007179 -0.002230 0.000000 0.033802 0.000000
# 6 0.000000 0.000000 0.000000 0.001245 0.000000 0.045827
#
#
# Mechanical properties :
#
#
# Convention : Reuss Voigt Hill
#
# Bulk Modulus (GPa) = 36.82389 42.35850 39.59120
# Shear Modulus (GPa) = 26.04575 29.74888 27.89732
#
# Velocity S-wave (km/s) = 3.43703 3.67325 3.55710
# Velocity P-wave (km/s) = 5.69672 6.09936 5.90148
#
# Compressibility (1/GPa) = 0.02715628
#
# Stress axis : x y z
#
# Youngs Moduli (GPa) = 89.76376 38.08138 76.79131
#
# Poissons Ratio (x) = 0.15596 0.15147
# Poissons Ratio (y) = 0.36762 0.42736
# Poissons Ratio (z) = 0.17705 0.21193
#
# Static dielectric constant tensor:
#      x y z
#    x 3.998530 0.000000 0.012940 
#    y 0.000000 4.554150 0.000000 
#    z 0.012940 0.000000 4.447700 
# 
# 
# High freq. dielectric constant tensor:
#      x y z
#    x 1.864380 0.000000 0.016180 
#    y 0.000000 1.861950 0.000000 
#    z 0.016180 0.000000 1.866310 
# 
# From -- ./inp_files/46245.got.cif
#   From: 2010.06.25/outbox.cif.g09.slc.cpg/sg15_24_cif.got.tgz:46245.got - 2010.06.28 07:06:18.
