data_PCOD8139144
_publ_section_title
;
Structure prediction by ZEFSAII (Michael W. Deem and Ramdas Pophale) SiO2 
 PCOD8139144
Probable space group: C 2/C
;
_chemical_formula_sum "Si O2"
_cell_formula_units_Z 40
_cell_length_a 20.208517
_cell_length_b 8.854330
_cell_length_c 18.674730
_cell_angle_alpha 90.000000
_cell_angle_beta 38.956840
_cell_angle_gamma 90.000000
_cell_volume 2100.931918
_symmetry_space_group_name_H-M "C 2/C"
_symmetry_group_IT_number 15
_symmetry_cell_setting 'monoclinic'
loop_
_space_group_symop_operation_xyz
x,y,z
-x,y,1/2-z
-x,-y,-z
x,-y,1/2+z
1/2+x,1/2+y,z
1/2-x,1/2+y,1/2-z
1/2-x,1/2-y,-z
1/2+x,1/2-y,1/2+z
loop_
_atom_site_type_symbol
_atom_site_label
_atom_site_fract_x
_atom_site_fract_y
_atom_site_fract_z
Si Si1 0.752710 0.718485 0.580438
Si Si2 0.317672 0.064624 0.242413
Si Si3 0.060721 0.013139 0.773249
Si Si4 0.862256 0.780296 0.688886
Si Si5 0.971893 0.740955 0.452133
O O1 0.750000 0.750000 0.500000
O O2 0.721845 0.872206 0.648055
O O3 0.673606 0.586290 0.666034
O O4 0.868107 0.661685 0.506677
O O5 0.238207 0.117833 0.247413
O O6 0.434693 0.121280 0.127337
O O7 0.318912 0.884697 0.243745
O O8 0.000000 0.997196 0.750000
O O9 0.995352 0.111024 0.885314
O O10 0.080830 0.847699 0.789012
O O11 0.948939 0.785137 0.553184
#
# Coordination Sequence:
#
# PCOD8139144 Si02
#       5
#     8   8   8   8   8
#     4  10  20  39  61  86 118 154 195 233 293 351
#     4  10  22  38  63  88 114 154 197 245 286 348
#     4  11  22  38  58  88 121 156 193 239 293 353
#     4  11  22  40  60  89 119 150 202 244 290 340
#     4  10  20  38  66  84 113 159 195 238 294 349
#
# _framework density 19.039169999999999
#
# number of rings (size 3 to 8) (size 9 to 14) (size 15 to 20)
#    0.000    1.600    2.000    4.800    0.000    1.600 
#    3.600    1.000    0.000    0.000    0.000    0.000 
#    0.000    0.000    0.000    0.000    0.000    0.000 
#
# Total GULP energy -248044.296961 kJ/mol
# GULP energy per Si atom -12402.214848 kJ/mol
# Density = 1.899584 g / cm^3
# Si number density = 19.039170 Si / 1000 Ang^3
#
#
#
# Elastic Constant Matrix: (Units=GPa)
#
#
# Indices 1 2 3 4 5 6 
#
# 1 103.6991 54.5781 45.3655 0.0000 3.0575 0.0000
# 2 54.5781 123.9278 28.4195 0.0002 4.4455 -0.0002
# 3 45.3655 28.4195 98.9379 0.0001 -2.7004 0.0000
# 4 0.0000 0.0002 0.0001 14.4921 0.0000 -0.1147
# 5 3.0575 4.4455 -2.7004 0.0000 41.6002 0.0000
# 6 0.0000 -0.0002 0.0000 -0.1147 0.0000 29.7526
#
#
#
# Elastic Compliance Matrix: (Units=1/GPa)
#
#
# Indices 1 2 3 4 5 6 
#
# 1 0.014739 -0.005251 -0.005274 0.000000 -0.000865 0.000000
# 2 -0.005251 0.010558 -0.000647 0.000000 -0.000784 0.000000
# 3 -0.005274 -0.000647 0.012746 0.000000 0.001284 0.000000
# 4 0.000000 0.000000 0.000000 0.069005 0.000000 0.000266
# 5 -0.000865 -0.000784 0.001284 0.000000 0.024269 0.000000
# 6 0.000000 0.000000 0.000000 0.000266 0.000000 0.033612
#
#
# Mechanical properties :
#
#
# Convention : Reuss Voigt Hill
#
# Bulk Modulus (GPa) = 63.68789 64.81012 64.24900
# Shear Modulus (GPa) = 25.97325 30.38244 28.17784
#
# Velocity S-wave (km/s) = 3.69752 3.99906 3.85124
# Velocity P-wave (km/s) = 7.19392 7.44565 7.32086
#
# Compressibility (1/GPa) = 0.01570157
#
# Stress axis : x y z
#
# Youngs Moduli (GPa) = 67.84493 94.71383 78.45451
#
# Poissons Ratio (x) = 0.49733 0.41375
# Poissons Ratio (y) = 0.35625 0.05072
# Poissons Ratio (z) = 0.35780 0.06123
#
# Static dielectric constant tensor:
#      x y z
#    x 3.591720 0.000000 -0.139460 
#    y 0.000000 3.294520 0.000000 
#    z -0.139460 0.000000 3.592200 
# 
# 
# High freq. dielectric constant tensor:
#      x y z
#    x 1.750370 0.000000 -0.007360 
#    y 0.000000 1.723870 0.000000 
#    z -0.007360 0.000000 1.755610 
# 
# From -- ./inp_files/102662.got.cif
#   From: 2010.06.25/outbox.cif.g09.slc.cpg/sg15_52_cif.got.tgz:102662.got - 2010.06.28 07:06:18.
