data_PCOD8139695
_publ_section_title
;
Structure prediction by ZEFSAII (Michael W. Deem and Ramdas Pophale) SiO2 
 PCOD8139695
Probable space group: C 2/C
;
_chemical_formula_sum "Si O2"
_cell_formula_units_Z 60
_cell_length_a 20.513170
_cell_length_b 13.785328
_cell_length_c 20.510800
_cell_angle_alpha 90.000000
_cell_angle_beta 29.101261
_cell_angle_gamma 90.000000
_cell_volume 2820.885903
_symmetry_space_group_name_H-M "C 2/C"
_symmetry_group_IT_number 15
_symmetry_cell_setting 'monoclinic'
loop_
_space_group_symop_operation_xyz
x,y,z
-x,y,1/2-z
-x,-y,-z
x,-y,1/2+z
1/2+x,1/2+y,z
1/2-x,1/2+y,1/2-z
1/2-x,1/2-y,-z
1/2+x,1/2-y,1/2+z
loop_
_atom_site_type_symbol
_atom_site_label
_atom_site_fract_x
_atom_site_fract_y
_atom_site_fract_z
Si Si1 0.937362 0.905548 0.088832
Si Si2 0.778256 0.913537 0.355443
Si Si3 0.500000 0.337916 0.250000
Si Si4 0.690966 0.035311 0.133670
Si Si5 0.475860 0.238073 0.699992
Si Si6 0.816825 0.154693 0.566680
Si Si7 0.367488 0.285000 0.496144
Si Si8 0.423347 0.027208 0.901555
O O1 0.847891 0.939539 0.227231
O O2 0.842960 0.848555 0.120891
O O3 0.044731 0.828846 0.022169
O O4 0.000000 0.000000 0.000000
O O5 0.883459 0.906797 0.323376
O O6 0.688908 0.816751 0.430654
O O7 0.680094 0.005428 0.450222
O O8 0.446733 0.273301 0.357689
O O9 0.743135 0.143660 0.094354
O O10 0.636697 0.023638 0.109026
O O11 0.568240 0.019489 0.291605
O O12 0.803286 0.954462 0.050647
O O13 0.500000 0.285540 0.750000
O O14 0.317040 0.219764 0.827257
O O15 0.546005 0.305703 0.585344
O O16 0.562208 0.140192 0.623638
#
# Coordination Sequence:
#
# PCOD8139695 Si02
#       8
#     8   8   4   8   8   8   8   8
#     4  11  26  47  63  92 135 177 221 267 319 394
#     4  11  25  40  66  97 130 172 227 259 332 391
#     4  10  22  38  62 100 130 166 218 274 320 378
#     4  10  20  39  67  93 134 168 207 275 334 381
#     4  11  23  44  69 104 128 165 220 276 337 394
#     4  11  24  45  67  94 135 175 216 273 332 386
#     4  11  23  41  65  97 132 174 220 264 327 394
#     4  10  21  39  65 100 129 165 212 276 334 385
#
# _framework density 21.269915000000001
#
# number of rings (size 3 to 8) (size 9 to 14) (size 15 to 20)
#    0.000    1.333    5.333    0.800    5.600    1.067 
#    1.200    2.667    0.000    0.000    0.000    0.000 
#    0.000    0.000    0.000    0.000    0.000    0.000 
#
# Total GULP energy -371929.011399 kJ/mol
# GULP energy per Si atom -12397.633713 kJ/mol
# Density = 2.122150 g / cm^3
# Si number density = 21.269915 Si / 1000 Ang^3
#
#
#
# Elastic Constant Matrix: (Units=GPa)
#
#
# Indices 1 2 3 4 5 6 
#
# 1 115.4926 15.0365 29.9654 -0.0002 -1.4405 0.0001
# 2 15.0365 36.9763 33.8009 -0.0008 5.5350 0.0004
# 3 29.9654 33.8009 121.6445 -0.0014 7.3978 0.0009
# 4 -0.0002 -0.0008 -0.0014 17.7676 0.0008 14.2029
# 5 -1.4405 5.5350 7.3978 0.0008 24.6822 -0.0005
# 6 0.0001 0.0004 0.0009 14.2029 -0.0005 7.2033
#
#
#
# Elastic Compliance Matrix: (Units=1/GPa)
#
#
# Indices 1 2 3 4 5 6 
#
# 1 0.009455 -0.002506 -0.001732 0.000001 0.001633 -0.000001
# 2 -0.002506 0.037586 -0.009478 -0.000004 -0.005734 0.000007
# 3 -0.001732 -0.009478 0.011365 -0.000002 -0.001382 0.000003
# 4 0.000001 -0.000004 -0.000002 -0.097689 0.000009 0.192615
# 5 0.001633 -0.005734 -0.001382 0.000009 0.042310 -0.000014
# 6 -0.000001 0.000007 0.000003 0.192615 -0.000014 -0.240958
#
#
# Mechanical properties :
#
#
# Convention : Reuss Voigt Hill
#
# Bulk Modulus (GPa) = 32.28534 47.96878 40.12706
# Shear Modulus (GPa) = -24.97808 22.95132 -1.01338
#
# Velocity S-wave (km/s) = -3.43058 3.28845 -0.69099
# Velocity P-wave (km/s) = 0.69283 6.08440 4.27434
#
# Compressibility (1/GPa) = 0.03097381
#
# Stress axis : x y z
#
# Youngs Moduli (GPa) = 105.76904 26.60592 87.99006
#
# Poissons Ratio (x) = 0.06667 0.15240
# Poissons Ratio (y) = 0.26505 0.83395
# Poissons Ratio (z) = 0.18319 0.25216
#
# Static dielectric constant tensor:
#      x y z
#    x 3.883560 0.000000 -0.167090 
#    y 0.000000 3.670080 0.000000 
#    z -0.167090 0.000000 4.282350 
# 
# 
# High freq. dielectric constant tensor:
#      x y z
#    x 1.827350 0.000000 -0.011000 
#    y 0.000000 1.820020 0.000000 
#    z -0.011000 0.000000 1.849480 
# 
# From -- ./inp_files/253036.got.cif
#   From: 2010.06.25/outbox.cif.g09.slc.cpg/sg15_127_cif.got.tgz:253036.got - 2010.06.28 07:06:18.
