data_PCOD8139631
_publ_section_title
;
Structure prediction by ZEFSAII (Michael W. Deem and Ramdas Pophale) SiO2 
 PCOD8139631
Probable space group: C 2/C
;
_chemical_formula_sum "Si O2"
_cell_formula_units_Z 64
_cell_length_a 29.250447
_cell_length_b 9.684895
_cell_length_c 17.867595
_cell_angle_alpha 90.000000
_cell_angle_beta 38.548153
_cell_angle_gamma 90.000000
_cell_volume 3154.289534
_symmetry_space_group_name_H-M "C 2/C"
_symmetry_group_IT_number 15
_symmetry_cell_setting 'monoclinic'
loop_
_space_group_symop_operation_xyz
x,y,z
-x,y,1/2-z
-x,-y,-z
x,-y,1/2+z
1/2+x,1/2+y,z
1/2-x,1/2+y,1/2-z
1/2-x,1/2-y,-z
1/2+x,1/2-y,1/2+z
loop_
_atom_site_type_symbol
_atom_site_label
_atom_site_fract_x
_atom_site_fract_y
_atom_site_fract_z
Si Si1 0.045951 0.017846 0.866309
Si Si2 0.804216 0.990340 0.759374
Si Si3 0.340232 0.543619 0.550793
Si Si4 0.345478 0.091718 0.576930
Si Si5 0.913062 0.687207 0.941193
Si Si6 0.448271 0.320372 0.383453
Si Si7 0.692779 0.821493 0.211076
Si Si8 0.074079 0.731588 0.747081
O O1 0.128380 0.061482 0.783454
O O2 0.054194 0.884414 0.802250
O O3 0.003395 0.139841 0.879337
O O4 0.000000 0.000000 0.000000
O O5 0.785224 0.839875 0.817238
O O6 0.821794 0.959443 0.649666
O O7 0.737349 0.099765 0.850149
O O8 0.387078 0.675747 0.518046
O O9 0.391985 0.444705 0.434186
O O10 0.266082 0.588388 0.601961
O O11 0.400983 0.186360 0.461209
O O12 0.346668 0.131463 0.662333
O O13 0.366688 0.934218 0.536196
O O14 0.896427 0.726509 0.875584
O O15 0.997653 0.648756 0.847415
O O16 0.500000 0.279197 0.250000
O O17 0.634225 0.846956 0.220236
#
# Coordination Sequence:
#
# PCOD8139631 Si02
#       8
#     8   8   8   8   8   8   8   8
#     4  11  19  39  69  96 122 162 224 270 307 382
#     4  10  20  39  65  95 125 158 218 272 321 370
#     4  11  20  38  63  93 120 164 213 259 316 376
#     4  11  24  41  63  90 130 171 202 264 333 375
#     4  11  22  39  62  90 129 164 203 257 326 381
#     4  12  24  40  62  93 128 172 209 257 324 392
#     4  10  21  40  65  96 121 162 220 270 311 380
#     4  10  22  38  63  94 126 164 215 262 316 379
#
# _framework density 20.289831
#
# number of rings (size 3 to 8) (size 9 to 14) (size 15 to 20)
#    0.000    1.250    5.000    1.500    1.750    1.000 
#    2.250    1.875    0.000    0.000    0.000    0.000 
#    0.000    0.000    0.000    0.000    0.000    0.000 
#
# Total GULP energy -396678.720907 kJ/mol
# GULP energy per Si atom -12396.210028 kJ/mol
# Density = 2.024365 g / cm^3
# Si number density = 20.289831 Si / 1000 Ang^3
#
#
#
# Elastic Constant Matrix: (Units=GPa)
#
#
# Indices 1 2 3 4 5 6 
#
# 1 137.9807 12.3766 37.0733 -0.0005 -16.8232 -0.0015
# 2 12.3766 55.6645 16.2257 0.0060 -0.1504 -0.0068
# 3 37.0733 16.2257 87.8576 0.0073 -9.0303 -0.0065
# 4 -0.0005 0.0060 0.0073 44.9589 -0.0065 -10.1338
# 5 -16.8232 -0.1504 -9.0303 -0.0065 31.1690 0.0020
# 6 -0.0015 -0.0068 -0.0065 -10.1338 0.0020 22.6405
#
#
#
# Elastic Compliance Matrix: (Units=1/GPa)
#
#
# Indices 1 2 3 4 5 6 
#
# 1 0.008620 -0.001013 -0.003064 0.000001 0.003760 0.000000
# 2 -0.001013 0.019134 -0.003250 -0.000001 -0.001396 0.000004
# 3 -0.003064 -0.003250 0.013506 -0.000001 0.002244 0.000002
# 4 0.000001 -0.000001 -0.000001 0.024738 0.000005 0.011073
# 5 0.003760 -0.001396 0.002244 0.000005 0.034756 0.000000
# 6 0.000000 0.000004 0.000002 0.011073 0.000000 0.049125
#
#
# Mechanical properties :
#
#
# Convention : Reuss Voigt Hill
#
# Bulk Modulus (GPa) = 37.58578 45.87267 41.72923
# Shear Modulus (GPa) = 28.83509 34.14216 31.48862
#
# Velocity S-wave (km/s) = 3.77392 4.10655 3.94374
# Velocity P-wave (km/s) = 6.12818 6.71884 6.43029
#
# Compressibility (1/GPa) = 0.02660580
#
# Stress axis : x y z
#
# Youngs Moduli (GPa) = 116.01077 52.26432 74.04351
#
# Poissons Ratio (x) = 0.05296 0.22685
# Poissons Ratio (y) = 0.11756 0.24060
# Poissons Ratio (z) = 0.35542 0.16983
#
# Static dielectric constant tensor:
#      x y z
#    x 3.659430 -0.000010 -0.322780 
#    y -0.000010 3.465540 0.000000 
#    z -0.322780 0.000000 3.852850 
# 
# 
# High freq. dielectric constant tensor:
#      x y z
#    x 1.791000 0.000000 -0.019870 
#    y 0.000000 1.769900 0.000000 
#    z -0.019870 0.000000 1.807420 
# 
# From -- ./inp_files/224596.got.cif
#   From: 2010.06.25/outbox.cif.g09.slc.cpg/sg15_113_cif.got.tgz:224596.got - 2010.06.28 07:06:18.
