data_PCOD8139098
_publ_section_title
;
Structure prediction by ZEFSAII (Michael W. Deem and Ramdas Pophale) SiO2 
 PCOD8139098
Probable space group: C 2/C
;
_chemical_formula_sum "Si O2"
_cell_formula_units_Z 40
_cell_length_a 22.752984
_cell_length_b 14.506243
_cell_length_c 18.652258
_cell_angle_alpha 90.000000
_cell_angle_beta 18.554698
_cell_angle_gamma 90.000000
_cell_volume 1959.017551
_symmetry_space_group_name_H-M "C 2/C"
_symmetry_group_IT_number 15
_symmetry_cell_setting 'monoclinic'
loop_
_space_group_symop_operation_xyz
x,y,z
-x,y,1/2-z
-x,-y,-z
x,-y,1/2+z
1/2+x,1/2+y,z
1/2-x,1/2+y,1/2-z
1/2-x,1/2-y,-z
1/2+x,1/2-y,1/2+z
loop_
_atom_site_type_symbol
_atom_site_label
_atom_site_fract_x
_atom_site_fract_y
_atom_site_fract_z
Si Si1 0.230864 0.328023 0.238058
Si Si2 0.000000 0.478558 0.750000
Si Si3 0.121288 0.365879 0.210132
Si Si4 0.402740 0.628739 0.124113
Si Si5 0.000000 0.222971 0.250000
Si Si6 0.258382 0.556859 0.835712
O O1 0.125198 0.368017 0.291380
O O2 0.149859 0.384467 0.400152
O O3 0.201087 0.219095 0.283749
O O4 0.453375 0.345853 0.977689
O O5 0.920760 0.534681 0.774027
O O6 0.165294 0.420552 0.520897
O O7 0.975630 0.289904 0.348114
O O8 0.321890 0.339657 0.947506
O O9 0.251944 0.554177 0.326366
O O10 0.523985 0.586186 0.917504
#
# Coordination Sequence:
#
# PCOD8139098 Si02
#       6
#     8   4   8   8   4   8
#     4  10  20  38  65  86 112 159 201 238 291 361
#     4  11  24  38  54  80 131 156 192 245 304 326
#     4  10  21  31  56  84 118 155 184 238 302 367
#     4   9  21  40  64  85 122 149 200 246 294 344
#     4   9  20  32  46  90 125 138 186 235 304 370
#     4   9  23  41  58  88 125 151 194 258 285 348
#
# _framework density 20.418398
#
# number of rings (size 3 to 8) (size 9 to 14) (size 15 to 20)
#    1.200    1.200    0.000    1.200   14.000    0.800 
#    0.000    1.000    0.000    0.000    0.000    0.000 
#    0.000    0.000    0.000    0.000    0.000    0.000 
#
# Total GULP energy -247808.739809 kJ/mol
# GULP energy per Si atom -12390.436990 kJ/mol
# Density = 2.037192 g / cm^3
# Si number density = 20.418398 Si / 1000 Ang^3
#
#
#
# Elastic Constant Matrix: (Units=GPa)
#
#
# Indices 1 2 3 4 5 6 
#
# 1 85.3336 43.4352 35.8923 0.0006 12.3328 -0.0079
# 2 43.4352 96.8958 16.4028 -0.0064 9.9004 0.0007
# 3 35.8923 16.4028 79.1418 -0.0046 28.9145 0.0023
# 4 0.0006 -0.0064 -0.0046 24.0930 -0.0026 -4.5020
# 5 12.3328 9.9004 28.9145 -0.0026 38.7129 0.0039
# 6 -0.0079 0.0007 0.0023 -4.5020 0.0039 26.7557
#
#
#
# Elastic Compliance Matrix: (Units=1/GPa)
#
#
# Indices 1 2 3 4 5 6 
#
# 1 0.018178 -0.007061 -0.007323 -0.000003 0.001484 0.000006
# 2 -0.007061 0.013501 0.001160 0.000003 -0.002070 -0.000002
# 3 -0.007323 0.001160 0.020591 0.000003 -0.013343 -0.000002
# 4 -0.000003 0.000003 0.000003 0.042853 0.000000 0.007211
# 5 0.001484 -0.002070 -0.013343 0.000000 0.035854 -0.000004
# 6 0.000006 -0.000002 -0.000002 0.007211 -0.000004 0.038589
#
#
# Mechanical properties :
#
#
# Convention : Reuss Voigt Hill
#
# Bulk Modulus (GPa) = 38.72503 50.31464 44.51983
# Shear Modulus (GPa) = 24.43551 28.95504 26.69527
#
# Velocity S-wave (km/s) = 3.46315 3.76983 3.61974
# Velocity P-wave (km/s) = 5.91592 6.60637 6.27066
#
# Compressibility (1/GPa) = 0.02582309
#
# Stress axis : x y z
#
# Youngs Moduli (GPa) = 55.01055 74.07114 48.56442
#
# Poissons Ratio (x) = 0.52300 0.35564
# Poissons Ratio (y) = 0.38841 -0.05635
# Poissons Ratio (z) = 0.40285 -0.08595
#
# Static dielectric constant tensor:
#      x y z
#    x 3.542950 -0.000010 0.003300 
#    y -0.000010 3.541550 0.000020 
#    z 0.003300 0.000020 3.623190 
# 
# 
# High freq. dielectric constant tensor:
#      x y z
#    x 1.773200 0.000000 -0.003450 
#    y 0.000000 1.778090 0.000000 
#    z -0.003450 0.000000 1.801090 
# 
# From -- ./inp_files/219814.got.cif
#   From: 2010.06.25/outbox.cif.g09.slc.cpg/sg15_110_cif.got.tgz:219814.got - 2010.06.28 07:06:18.
