data_PCOD8139398
_publ_section_title
;
Structure prediction by ZEFSAII (Michael W. Deem and Ramdas Pophale) SiO2 
 PCOD8139398
Probable space group: C 2/C
;
_chemical_formula_sum "Si O2"
_cell_formula_units_Z 56
_cell_length_a 28.188237
_cell_length_b 13.846596
_cell_length_c 14.930699
_cell_angle_alpha 90.000000
_cell_angle_beta 26.984075
_cell_angle_gamma 90.000000
_cell_volume 2644.239896
_symmetry_space_group_name_H-M "C 2/C"
_symmetry_group_IT_number 15
_symmetry_cell_setting 'monoclinic'
loop_
_space_group_symop_operation_xyz
x,y,z
-x,y,1/2-z
-x,-y,-z
x,-y,1/2+z
1/2+x,1/2+y,z
1/2-x,1/2+y,1/2-z
1/2-x,1/2-y,-z
1/2+x,1/2-y,1/2+z
loop_
_atom_site_type_symbol
_atom_site_label
_atom_site_fract_x
_atom_site_fract_y
_atom_site_fract_z
Si Si1 0.380966 0.991809 0.486479
Si Si2 0.445925 0.749228 0.245023
Si Si3 0.568106 0.235945 0.275807
Si Si4 0.553731 0.093437 0.448444
Si Si5 0.751445 0.824798 0.858142
Si Si6 0.649636 0.206160 0.954556
Si Si7 0.023625 0.111947 0.451400
O O1 0.500000 0.003518 0.250000
O O2 0.368804 0.944866 0.605426
O O3 0.318008 0.921199 0.527853
O O4 0.319736 0.093535 0.589449
O O5 0.500000 0.768896 0.250000
O O6 0.319386 0.748902 0.466316
O O7 0.487909 0.647981 0.132334
O O8 0.471213 0.833434 0.131750
O O9 0.609122 0.151011 0.273263
O O10 0.457149 0.205550 0.421643
O O11 0.559881 0.336463 0.343122
O O12 0.645590 0.249841 0.061814
O O13 0.500000 0.000000 0.500000
O O14 0.765987 0.772071 0.737735
O O15 0.860336 0.854687 0.717718
O O16 0.000000 0.000000 0.500000
#
# Coordination Sequence:
#
# PCOD8139398 Si02
#       7
#     8   8   8   8   8   8   8
#     4  12  20  39  67  92 128 167 211 267 324 383
#     4  11  22  42  70  94 129 169 216 275 325 376
#     4   9  19  37  63  85 118 168 209 254 311 378
#     4  11  18  33  65  95 121 162 208 258 328 372
#     4  11  23  41  63 101 127 162 222 269 313 388
#     4  10  20  39  61  89 125 165 207 260 317 370
#     4  10  24  45  65  88 131 177 214 257 325 395
#
# _framework density 21.178108999999999
#
# number of rings (size 3 to 8) (size 9 to 14) (size 15 to 20)
#    0.000    1.429    5.714    0.429    0.000    1.143 
#    7.714    0.714    0.000    0.000    0.000    0.000 
#    0.000    0.000    0.000    0.000    0.000    0.000 
#
# Total GULP energy -346998.214532 kJ/mol
# GULP energy per Si atom -12392.793376 kJ/mol
# Density = 2.112991 g / cm^3
# Si number density = 21.178109 Si / 1000 Ang^3
#
#
#
# Elastic Constant Matrix: (Units=GPa)
#
#
# Indices 1 2 3 4 5 6 
#
# 1 75.2782 28.8095 23.6590 0.0000 26.8173 0.0000
# 2 28.8095 152.2932 44.1253 0.0000 23.2247 0.0000
# 3 23.6590 44.1253 86.5634 0.0000 24.1808 0.0000
# 4 0.0000 0.0000 0.0000 22.8407 0.0000 5.6332
# 5 26.8173 23.2247 24.1808 0.0000 32.5074 0.0000
# 6 0.0000 0.0000 0.0000 5.6332 0.0000 28.2625
#
#
#
# Elastic Compliance Matrix: (Units=1/GPa)
#
#
# Indices 1 2 3 4 5 6 
#
# 1 0.019078 -0.001249 -0.000543 0.000000 -0.014442 0.000000
# 2 -0.001249 0.008070 -0.003092 0.000000 -0.002435 0.000000
# 3 -0.000543 -0.003092 0.015822 0.000000 -0.009112 0.000000
# 4 0.000000 0.000000 0.000000 0.046045 0.000000 -0.009178
# 5 -0.014442 -0.002435 -0.009112 0.000000 0.051194 0.000000
# 6 0.000000 0.000000 0.000000 -0.009178 0.000000 0.037212
#
#
# Mechanical properties :
#
#
# Convention : Reuss Voigt Hill
#
# Bulk Modulus (GPa) = 30.11965 56.36916 43.24440
# Shear Modulus (GPa) = 25.21991 31.22484 28.22238
#
# Velocity S-wave (km/s) = 3.45461 3.84395 3.65447
# Velocity P-wave (km/s) = 5.49230 6.80997 6.18632
#
# Compressibility (1/GPa) = 0.03320092
#
# Stress axis : x y z
#
# Youngs Moduli (GPa) = 52.41742 123.91924 63.20216
#
# Poissons Ratio (x) = 0.15480 0.03433
# Poissons Ratio (y) = 0.06548 0.19542
# Poissons Ratio (z) = 0.02848 0.38315
#
# Static dielectric constant tensor:
#      x y z
#    x 4.336140 0.000000 0.258100 
#    y 0.000000 3.993540 0.000000 
#    z 0.258100 0.000000 3.880850 
# 
# 
# High freq. dielectric constant tensor:
#      x y z
#    x 1.832740 0.000000 0.027020 
#    y 0.000000 1.833070 0.000000 
#    z 0.027020 0.000000 1.808540 
# 
# From -- ./inp_files/178339.got.cif
#   From: 2010.06.25/outbox.cif.g09.slc.cpg/sg15_90_cif.got.tgz:178339.got - 2010.06.28 07:06:18.
