data_PCOD8139683
_publ_section_title
;
Structure prediction by ZEFSAII (Michael W. Deem and Ramdas Pophale) SiO2 
 PCOD8139683
Probable space group: C 2/C
;
_chemical_formula_sum "Si O2"
_cell_formula_units_Z 56
_cell_length_a 30.244246
_cell_length_b 7.464615
_cell_length_c 14.255546
_cell_angle_alpha 90.000000
_cell_angle_beta 50.568761
_cell_angle_gamma 90.000000
_cell_volume 2485.817293
_symmetry_space_group_name_H-M "C 2/C"
_symmetry_group_IT_number 15
_symmetry_cell_setting 'monoclinic'
loop_
_space_group_symop_operation_xyz
x,y,z
-x,y,1/2-z
-x,-y,-z
x,-y,1/2+z
1/2+x,1/2+y,z
1/2-x,1/2+y,1/2-z
1/2-x,1/2-y,-z
1/2+x,1/2-y,1/2+z
loop_
_atom_site_type_symbol
_atom_site_label
_atom_site_fract_x
_atom_site_fract_y
_atom_site_fract_z
Si Si1 0.906040 0.743008 0.219718
Si Si2 0.901565 0.737518 0.017020
Si Si3 0.519232 0.915874 0.625189
Si Si4 0.714319 0.917684 0.585363
Si Si5 0.411398 0.575711 0.904982
Si Si6 0.214008 0.576114 0.401293
Si Si7 0.790621 0.836378 0.640714
O O1 0.895965 0.823291 0.129398
O O2 0.853213 0.617531 0.318997
O O3 0.910293 0.899307 0.293447
O O4 0.963064 0.620896 0.138871
O O5 0.838920 0.694955 0.061257
O O6 0.938298 0.556539 0.979709
O O7 0.934162 0.878111 0.903871
O O8 0.500000 0.998745 0.750000
O O9 0.550122 0.726358 0.599707
O O10 0.750000 0.750000 0.500000
O O11 0.740753 0.949742 0.652770
O O12 0.722336 0.085769 0.503320
O O13 0.349705 0.569291 0.037423
O O14 0.202089 0.368812 0.396077
O O15 0.272763 0.642921 0.273624
#
# Coordination Sequence:
#
# PCOD8139683 Si02
#       7
#     8   8   8   8   8   8   8
#     4  11  22  44  70  98 137 183 221 288 343 393
#     4  12  24  43  72 100 131 182 235 270 343 414
#     4  10  23  46  70  96 138 179 223 283 341 399
#     4  10  20  39  67  91 136 180 213 277 349 387
#     4  11  24  42  68 100 139 177 222 288 340 396
#     4  11  21  39  66  99 131 179 227 275 338 403
#     4  11  21  38  66  94 139 177 220 282 341 401
#
# _framework density 22.527801
#
# number of rings (size 3 to 8) (size 9 to 14) (size 15 to 20)
#    0.000    1.143    5.714    2.143    2.000    2.286 
#    0.000    8.571    0.000    0.000    0.000    0.000 
#    0.000    0.000    0.000    0.000    0.000    0.000 
#
# Total GULP energy -347067.992193 kJ/mol
# GULP energy per Si atom -12395.285435 kJ/mol
# Density = 2.247653 g / cm^3
# Si number density = 22.527801 Si / 1000 Ang^3
#
#
#
# Elastic Constant Matrix: (Units=GPa)
#
#
# Indices 1 2 3 4 5 6 
#
# 1 94.1432 30.8633 37.2101 0.0000 -7.8735 0.0002
# 2 30.8633 68.1230 31.5570 -0.0016 5.2423 0.0013
# 3 37.2101 31.5570 97.0868 0.0003 4.0763 -0.0003
# 4 0.0000 -0.0016 0.0003 31.3650 0.0001 5.4328
# 5 -7.8735 5.2423 4.0763 0.0001 42.3640 0.0001
# 6 0.0002 0.0013 -0.0003 5.4328 0.0001 14.0371
#
#
#
# Elastic Compliance Matrix: (Units=1/GPa)
#
#
# Indices 1 2 3 4 5 6 
#
# 1 0.014073 -0.004808 -0.003982 0.000000 0.003593 0.000000
# 2 -0.004808 0.019033 -0.004225 0.000001 -0.002842 -0.000002
# 3 -0.003982 -0.004225 0.013262 0.000000 -0.001493 0.000001
# 4 0.000000 0.000001 0.000000 0.034174 0.000000 -0.013226
# 5 0.003593 -0.002842 -0.001493 0.000000 0.024768 0.000000
# 6 0.000000 -0.000002 0.000001 -0.013226 0.000000 0.076359
#
#
# Mechanical properties :
#
#
# Convention : Reuss Voigt Hill
#
# Bulk Modulus (GPa) = 49.16477 50.95707 50.06092
# Shear Modulus (GPa) = 23.31261 28.20140 25.75700
#
# Velocity S-wave (km/s) = 3.22038 3.54199 3.38500
# Velocity P-wave (km/s) = 5.97488 6.27665 6.12762
#
# Compressibility (1/GPa) = 0.02033977
#
# Stress axis : x y z
#
# Youngs Moduli (GPa) = 71.06045 52.53991 75.40361
#
# Poissons Ratio (x) = 0.25259 0.30024
# Poissons Ratio (y) = 0.34163 0.31855
# Poissons Ratio (z) = 0.28294 0.22196
#
# Static dielectric constant tensor:
#      x y z
#    x 4.765530 0.000000 0.451090 
#    y 0.000000 3.798920 0.000000 
#    z 0.451090 0.000000 4.492020 
# 
# 
# High freq. dielectric constant tensor:
#      x y z
#    x 1.890480 0.000000 0.000880 
#    y 0.000000 1.864720 0.000000 
#    z 0.000880 0.000000 1.898590 
# 
# From -- ./inp_files/180760.got.cif
#   From: 2010.06.25/outbox.cif.g09.slc.cpg/sg15_91_cif.got.tgz:180760.got - 2010.06.28 07:06:18.
