data_PCOD8139651
_publ_section_title
;
Structure prediction by ZEFSAII (Michael W. Deem and Ramdas Pophale) SiO2 
 PCOD8139651
Probable space group: C 2/C
;
_chemical_formula_sum "Si O2"
_cell_formula_units_Z 56
_cell_length_a 11.930961
_cell_length_b 14.160960
_cell_length_c 29.141379
_cell_angle_alpha 90.000000
_cell_angle_beta 28.507473
_cell_angle_gamma 90.000000
_cell_volume 2349.878634
_symmetry_space_group_name_H-M "C 2/C"
_symmetry_group_IT_number 15
_symmetry_cell_setting 'monoclinic'
loop_
_space_group_symop_operation_xyz
x,y,z
-x,y,1/2-z
-x,-y,-z
x,-y,1/2+z
1/2+x,1/2+y,z
1/2-x,1/2+y,1/2-z
1/2-x,1/2-y,-z
1/2+x,1/2-y,1/2+z
loop_
_atom_site_type_symbol
_atom_site_label
_atom_site_fract_x
_atom_site_fract_y
_atom_site_fract_z
Si Si1 0.629401 0.742591 0.352323
Si Si2 0.754977 0.041139 0.161583
Si Si3 0.858130 0.898463 0.528790
Si Si4 0.471266 0.725950 0.856794
Si Si5 0.322928 0.839751 0.533641
Si Si6 0.726377 0.733998 0.858977
Si Si7 0.322468 0.462906 0.446089
O O1 0.767863 0.649755 0.316861
O O2 0.818644 0.799797 0.253899
O O3 0.555899 0.802664 0.423655
O O4 0.399546 0.716706 0.406010
O O5 0.500000 0.994292 0.250000
O O6 0.882932 0.035931 0.065484
O O7 0.900236 0.987548 0.148558
O O8 0.697061 0.808942 0.600485
O O9 0.730719 0.951061 0.531739
O O10 0.119018 0.862986 0.419134
O O11 0.582379 0.758745 0.865132
O O12 0.307630 0.632765 0.921789
O O13 0.324448 0.819760 0.587445
O O14 0.313093 0.952548 0.530135
O O15 0.000000 0.720442 0.750000
#
# Coordination Sequence:
#
# PCOD8139651 Si02
#       7
#     8   8   8   8   8   8   8
#     4  10  20  39  66  89 126 174 207 257 324 388
#     4  11  21  38  67  96 126 160 216 264 318 373
#     4  11  23  43  64  90 133 172 203 260 327 384
#     4  11  23  43  65  92 132 172 211 254 331 382
#     4  10  21  40  62  94 127 161 218 267 311 369
#     4  11  21  37  66  91 121 171 218 253 308 387
#     4  10  24  38  60  99 130 158 212 272 311 369
#
# _framework density 23.831018
#
# number of rings (size 3 to 8) (size 9 to 14) (size 15 to 20)
#    0.000    1.429    4.286    2.143    0.000    3.429 
#    0.000    2.857    3.143    0.000    0.000    0.000 
#    0.000    0.000    0.000    0.000    0.000    0.000 
#
# Total GULP energy -347172.472980 kJ/mol
# GULP energy per Si atom -12399.016892 kJ/mol
# Density = 2.377678 g / cm^3
# Si number density = 23.831018 Si / 1000 Ang^3
#
#
#
# Elastic Constant Matrix: (Units=GPa)
#
#
# Indices 1 2 3 4 5 6 
#
# 1 47.8185 13.8979 15.7464 -0.0058 22.3041 0.0029
# 2 13.8979 81.1143 12.5579 0.0048 10.5785 0.0046
# 3 15.7464 12.5579 134.3527 0.0009 19.0116 0.0026
# 4 -0.0058 0.0048 0.0009 23.4115 0.0054 5.0308
# 5 22.3041 10.5785 19.0116 0.0054 39.0745 -0.0044
# 6 0.0029 0.0046 0.0026 5.0308 -0.0044 37.5241
#
#
#
# Elastic Compliance Matrix: (Units=1/GPa)
#
#
# Indices 1 2 3 4 5 6 
#
# 1 0.029275 -0.002848 -0.000977 0.000013 -0.015464 -0.000005
# 2 -0.002848 0.013129 -0.000666 -0.000003 -0.001604 -0.000001
# 3 -0.000977 -0.000666 0.008071 0.000001 -0.003189 -0.000001
# 4 0.000013 -0.000003 0.000001 0.043981 -0.000013 -0.005897
# 5 -0.015464 -0.001604 -0.003189 -0.000013 0.036405 0.000008
# 6 -0.000005 -0.000001 -0.000001 -0.005897 0.000008 0.027440
#
#
# Mechanical properties :
#
#
# Convention : Reuss Voigt Hill
#
# Bulk Modulus (GPa) = 24.10057 38.63221 31.36639
# Shear Modulus (GPa) = 27.60701 34.74091 31.17396
#
# Velocity S-wave (km/s) = 3.40729 3.82226 3.62073
# Velocity P-wave (km/s) = 5.06108 5.97709 5.53806
#
# Compressibility (1/GPa) = 0.04149279
#
# Stress axis : x y z
#
# Youngs Moduli (GPa) = 34.15921 76.16937 123.89864
#
# Poissons Ratio (x) = 0.21692 0.12100
# Poissons Ratio (y) = 0.09728 0.08256
# Poissons Ratio (z) = 0.03336 0.05075
#
# Static dielectric constant tensor:
#      x y z
#    x 4.264400 0.000000 0.131100 
#    y 0.000000 4.268270 0.000020 
#    z 0.131100 0.000020 4.302730 
# 
# 
# High freq. dielectric constant tensor:
#      x y z
#    x 1.946990 0.000000 0.003910 
#    y 0.000000 1.942060 0.000000 
#    z 0.003910 0.000000 1.947850 
# 
# From -- ./inp_files/311333.got.cif
#   From: 2010.06.25/outbox.cif.g09.slc.cpg/sg15_156_cif.got.tgz:311333.got - 2010.06.28 07:06:18.
