data_PCOD8139197
_publ_section_title
;
Structure prediction by ZEFSAII (Michael W. Deem and Ramdas Pophale) SiO2 
 PCOD8139197
Probable space group: C 2/C
;
_chemical_formula_sum "Si O2"
_cell_formula_units_Z 52
_cell_length_a 12.817211
_cell_length_b 28.533526
_cell_length_c 8.461781
_cell_angle_alpha 90.000000
_cell_angle_beta 124.141563
_cell_angle_gamma 90.000000
_cell_volume 2561.293061
_symmetry_space_group_name_H-M "C 2/C"
_symmetry_group_IT_number 15
_symmetry_cell_setting 'monoclinic'
loop_
_space_group_symop_operation_xyz
x,y,z
-x,y,1/2-z
-x,-y,-z
x,-y,1/2+z
1/2+x,1/2+y,z
1/2-x,1/2+y,1/2-z
1/2-x,1/2-y,-z
1/2+x,1/2-y,1/2+z
loop_
_atom_site_type_symbol
_atom_site_label
_atom_site_fract_x
_atom_site_fract_y
_atom_site_fract_z
Si Si1 0.886191 0.617445 0.065109
Si Si2 0.711104 0.448821 0.252099
Si Si3 0.000000 0.891054 0.250000
Si Si4 0.744590 0.770150 0.667676
Si Si5 0.534864 0.780984 0.954096
Si Si6 0.144778 0.044417 0.340429
Si Si7 0.319860 0.365838 0.848152
O O1 0.935520 0.663604 0.016160
O O2 0.792105 0.632200 0.123002
O O3 0.000000 0.591613 0.250000
O O4 0.836787 0.579492 0.899988
O O5 0.598251 0.424787 0.249122
O O6 0.716400 0.502382 0.313064
O O7 0.706402 0.445298 0.060473
O O8 0.057174 0.858344 0.436396
O O9 0.750000 0.750000 0.500000
O O10 0.594389 0.768575 0.566981
O O11 0.797090 0.823068 0.710733
O O12 0.837308 0.742817 0.868207
O O13 0.500000 0.763110 0.750000
O O14 0.160518 0.088303 0.239380
O O15 0.000000 0.031610 0.250000
#
# Coordination Sequence:
#
# PCOD8139197 Si02
#       7
#     8   8   4   8   8   8   8
#     4  10  22  45  69  92 132 175 230 272 333 403
#     4  11  22  39  68  99 133 180 219 273 334 407
#     4  10  20  38  66  98 132 174 222 274 330 404
#     4  12  27  45  71 103 143 177 233 289 351 408
#     4  11  24  47  73  98 133 186 227 286 339 419
#     4  12  23  41  65 102 145 174 220 277 346 398
#     4  11  24  41  66 101 135 174 226 280 339 404
#
# _framework density 20.302246
#
# number of rings (size 3 to 8) (size 9 to 14) (size 15 to 20)
#    0.000    0.923    5.385    3.231    3.231    2.462 
#    0.000    3.846    0.000    0.000    0.000    0.000 
#    0.000    0.000    0.000    0.000    0.000    0.000 
#
# Total GULP energy -322198.494155 kJ/mol
# GULP energy per Si atom -12392.249775 kJ/mol
# Density = 2.025604 g / cm^3
# Si number density = 20.302246 Si / 1000 Ang^3
#
#
#
# Elastic Constant Matrix: (Units=GPa)
#
#
# Indices 1 2 3 4 5 6 
#
# 1 82.8437 43.2394 50.8272 0.0000 4.4573 0.0000
# 2 43.2394 103.1995 69.5703 0.0000 5.3690 0.0000
# 3 50.8272 69.5703 172.5635 0.0000 4.7685 0.0000
# 4 0.0000 0.0000 0.0000 33.9277 0.0000 7.3151
# 5 4.4573 5.3690 4.7685 0.0000 40.2236 0.0000
# 6 0.0000 0.0000 0.0000 7.3151 0.0000 27.5811
#
#
#
# Elastic Compliance Matrix: (Units=1/GPa)
#
#
# Indices 1 2 3 4 5 6 
#
# 1 0.016424 -0.004934 -0.002826 0.000000 -0.000826 0.000000
# 2 -0.004934 0.014841 -0.004505 0.000000 -0.000900 0.000000
# 3 -0.002826 -0.004505 0.008446 0.000000 -0.000087 0.000000
# 4 0.000000 0.000000 0.000000 0.031262 0.000000 -0.008291
# 5 -0.000826 -0.000900 -0.000087 0.000000 0.025083 0.000000
# 6 0.000000 0.000000 0.000000 -0.008291 0.000000 0.038456
#
#
# Mechanical properties :
#
#
# Convention : Reuss Voigt Hill
#
# Bulk Modulus (GPa) = 65.86753 76.20896 71.03824
# Shear Modulus (GPa) = 30.46884 33.34445 31.90665
#
# Velocity S-wave (km/s) = 3.87817 4.05705 3.96862
# Velocity P-wave (km/s) = 7.25035 7.71783 7.48774
#
# Compressibility (1/GPa) = 0.01518199
#
# Stress axis : x y z
#
# Youngs Moduli (GPa) = 60.88604 67.38049 118.39916
#
# Poissons Ratio (x) = 0.33243 0.33457
# Poissons Ratio (y) = 0.30039 0.53342
# Poissons Ratio (z) = 0.17205 0.30357
#
# Static dielectric constant tensor:
#      x y z
#    x 3.819180 0.000000 0.324850 
#    y 0.000000 3.760470 0.000000 
#    z 0.324850 0.000000 4.195290 
# 
# 
# High freq. dielectric constant tensor:
#      x y z
#    x 1.790320 0.000000 0.003040 
#    y 0.000000 1.793340 0.000000 
#    z 0.003040 0.000000 1.813140 
# 
# From -- ./inp_files/43658.got.cif
#   From: 2010.06.25/outbox.cif.g09.slc.cpg/sg15_22_cif.got.tgz:43658.got - 2010.06.28 07:06:18.
