data_PCOD8139522
_publ_section_title
;
Structure prediction by ZEFSAII (Michael W. Deem and Ramdas Pophale) SiO2 
 PCOD8139522
Probable space group: C 2/C
;
_chemical_formula_sum "Si O2"
_cell_formula_units_Z 40
_cell_length_a 8.854917
_cell_length_b 22.441210
_cell_length_c 9.778837
_cell_angle_alpha 90.000000
_cell_angle_beta 90.450601
_cell_angle_gamma 90.000000
_cell_volume 1943.142009
_symmetry_space_group_name_H-M "C 2/C"
_symmetry_group_IT_number 15
_symmetry_cell_setting 'monoclinic'
loop_
_space_group_symop_operation_xyz
x,y,z
-x,y,1/2-z
-x,-y,-z
x,-y,1/2+z
1/2+x,1/2+y,z
1/2-x,1/2+y,1/2-z
1/2-x,1/2-y,-z
1/2+x,1/2-y,1/2+z
loop_
_atom_site_type_symbol
_atom_site_label
_atom_site_fract_x
_atom_site_fract_y
_atom_site_fract_z
Si Si1 0.243956 0.502986 0.497622
Si Si2 0.495027 0.084132 0.600160
Si Si3 0.567273 0.294385 0.899049
Si Si4 0.986544 0.080295 0.100311
Si Si5 0.422829 0.809345 0.898522
O O1 0.131188 0.468118 0.395839
O O2 0.374529 0.536627 0.418109
O O3 0.327638 0.453929 0.590190
O O4 0.156488 0.552321 0.583895
O O5 0.500000 0.115378 0.750000
O O6 0.463169 0.129282 0.476777
O O7 0.500000 0.278659 0.750000
O O8 0.512093 0.355792 0.976853
O O9 0.745979 0.300482 0.878049
O O10 0.516013 0.243646 0.004982
O O11 0.000000 0.106675 0.250000
O O12 0.500000 0.809262 0.750000
#
# Coordination Sequence:
#
# PCOD8139522 Si02
#       5
#     8   8   8   8   8
#     4  10  22  38  62  93 129 166 210 249 315 368
#     4  11  23  40  63  96 130 169 206 261 306 379
#     4  10  23  45  67  93 126 164 210 264 315 373
#     4  10  20  39  63  92 124 166 203 260 308 378
#     4  11  25  44  67  94 125 166 213 262 317 376
#
# _framework density 20.585218000000001
#
# number of rings (size 3 to 8) (size 9 to 14) (size 15 to 20)
#    0.000    1.600    2.000    1.800    5.600    4.000 
#    7.200    1.000    0.000    0.000    0.000    0.000 
#    0.000    0.000    0.000    0.000    0.000    0.000 
#
# Total GULP energy -247784.679291 kJ/mol
# GULP energy per Si atom -12389.233965 kJ/mol
# Density = 2.053836 g / cm^3
# Si number density = 20.585218 Si / 1000 Ang^3
#
#
#
# Elastic Constant Matrix: (Units=GPa)
#
#
# Indices 1 2 3 4 5 6 
#
# 1 85.2997 26.4897 33.0011 0.0000 6.6817 0.0000
# 2 26.4897 125.1626 49.3345 0.0000 3.3583 0.0000
# 3 33.0011 49.3345 133.3506 0.0000 2.6087 0.0000
# 4 0.0000 0.0000 0.0000 4.9045 0.0000 -44.8045
# 5 6.6817 3.3583 2.6087 0.0000 21.0847 0.0000
# 6 0.0000 0.0000 0.0000 -44.8045 0.0000 -67.3643
#
#
#
# Elastic Compliance Matrix: (Units=1/GPa)
#
#
# Indices 1 2 3 4 5 6 
#
# 1 0.013574 -0.001730 -0.002647 0.000000 -0.003699 0.000000
# 2 -0.001730 0.009598 -0.003111 0.000000 -0.000595 0.000000
# 3 -0.002647 -0.003111 0.009301 0.000000 0.000183 0.000000
# 4 0.000000 0.000000 0.000000 0.028815 0.000000 -0.019165
# 5 -0.003699 -0.000595 0.000183 0.000000 0.048672 0.000000
# 6 0.000000 0.000000 0.000000 -0.019165 0.000000 -0.002098
#
#
# Mechanical properties :
#
#
# Convention : Reuss Voigt Hill
#
# Bulk Modulus (GPa) = 57.15119 62.38484 59.76802
# Shear Modulus (GPa) = 38.85852 7.39081 23.12466
#
# Velocity S-wave (km/s) = 4.34947 1.89688 3.35530
# Velocity P-wave (km/s) = 7.28336 5.93034 6.64140
#
# Compressibility (1/GPa) = 0.01749745
#
# Stress axis : x y z
#
# Youngs Moduli (GPa) = 73.66771 104.18762 107.51045
#
# Poissons Ratio (x) = 0.18029 0.28456
# Poissons Ratio (y) = 0.12748 0.33447
# Poissons Ratio (z) = 0.19498 0.32413
#
# Static dielectric constant tensor:
#      x y z
#    x 3.966100 0.000000 0.197970 
#    y 0.000000 3.983420 0.000000 
#    z 0.197970 0.000000 3.524940 
# 
# 
# High freq. dielectric constant tensor:
#      x y z
#    x 1.812730 0.000000 0.017800 
#    y 0.000000 1.825100 0.000000 
#    z 0.017800 0.000000 1.789130 
# 
# From -- ./inp_files/23491.got.cif
#   From: 2010.06.25/outbox.cif.g09.slc.cpg/sg15_12_cif.got.tgz:23491.got - 2010.06.28 07:06:18.
