data_PCOD8139313
_publ_section_title
;
Structure prediction by ZEFSAII (Michael W. Deem and Ramdas Pophale) SiO2 
 PCOD8139313
Probable space group: C 2/C
;
_chemical_formula_sum "Si O2"
_cell_formula_units_Z 56
_cell_length_a 9.037643
_cell_length_b 19.056959
_cell_length_c 29.474557
_cell_angle_alpha 90.000000
_cell_angle_beta 33.412742
_cell_angle_gamma 90.000000
_cell_volume 2795.404350
_symmetry_space_group_name_H-M "C 2/C"
_symmetry_group_IT_number 15
_symmetry_cell_setting 'monoclinic'
loop_
_space_group_symop_operation_xyz
x,y,z
-x,y,1/2-z
-x,-y,-z
x,-y,1/2+z
1/2+x,1/2+y,z
1/2-x,1/2+y,1/2-z
1/2-x,1/2-y,-z
1/2+x,1/2-y,1/2+z
loop_
_atom_site_type_symbol
_atom_site_label
_atom_site_fract_x
_atom_site_fract_y
_atom_site_fract_z
Si Si1 0.971433 0.004768 0.191533
Si Si2 0.484975 0.917057 0.073348
Si Si3 0.074979 0.029021 0.567250
Si Si4 0.000000 0.660390 0.750000
Si Si5 0.138940 0.670954 0.977271
Si Si6 0.085851 0.272400 0.875543
Si Si7 0.500000 0.622293 0.250000
Si Si8 0.960930 0.567365 0.841911
O O1 0.072974 0.077718 0.186703
O O2 0.681030 0.994430 0.290006
O O3 0.177894 0.942659 0.150848
O O4 0.952675 0.010816 0.142140
O O5 0.517844 0.853682 0.028324
O O6 0.553639 0.890280 0.106593
O O7 0.679295 0.982792 0.013632
O O8 0.177715 0.106770 0.552348
O O9 0.833742 0.036341 0.593017
O O10 0.765777 0.703393 0.833447
O O11 0.097995 0.612540 0.766622
O O12 0.310066 0.742844 0.924173
O O13 0.937942 0.693147 0.068644
O O14 0.239592 0.329047 0.804891
#
# Coordination Sequence:
#
# PCOD8139313 Si02
#       8
#     8   8   8   4   8   8   4   8
#     4  11  20  36  58  88 124 152 201 257 309 364
#     4  11  22  36  60  93 123 154 198 265 314 358
#     4  11  21  37  60  89 126 158 198 255 319 371
#     4  11  20  40  58  86 114 165 204 236 304 375
#     4  10  20  39  59  87 114 162 210 246 300 364
#     4  10  21  36  63  80 117 162 210 244 285 372
#     4  11  20  34  58  94 114 155 212 248 302 363
#     4  12  21  37  60  92 123 158 197 257 318 370
#
# _framework density 20.032879000000001
#
# number of rings (size 3 to 8) (size 9 to 14) (size 15 to 20)
#    0.000    1.143    4.286    4.714    0.000    0.000 
#    0.000    0.714    0.000    6.857    0.000    0.000 
#    0.000    0.000    0.000    0.000    0.000    0.000 
#
# Total GULP energy -346963.466900 kJ/mol
# GULP energy per Si atom -12391.552389 kJ/mol
# Density = 1.998728 g / cm^3
# Si number density = 20.032879 Si / 1000 Ang^3
#
#
#
# Elastic Constant Matrix: (Units=GPa)
#
#
# Indices 1 2 3 4 5 6 
#
# 1 136.4400 37.7639 42.4736 0.0422 17.4000 -0.0907
# 2 37.7639 84.4396 31.9260 0.0776 12.9415 -0.0452
# 3 42.4736 31.9260 83.6791 0.1288 5.9180 -0.2352
# 4 0.0422 0.0776 0.1288 37.6282 -0.1438 2.1979
# 5 17.4000 12.9415 5.9180 -0.1438 33.3963 0.1037
# 6 -0.0907 -0.0452 -0.2352 2.1979 0.1037 24.1158
#
#
#
# Elastic Compliance Matrix: (Units=1/GPa)
#
#
# Indices 1 2 3 4 5 6 
#
# 1 0.009574 -0.002351 -0.003721 -0.000007 -0.003418 0.000011
# 2 -0.002351 0.015113 -0.004299 -0.000028 -0.003870 -0.000003
# 3 -0.003721 -0.004299 0.015418 -0.000044 0.000872 0.000129
# 4 -0.000007 -0.000028 -0.000044 0.026719 0.000145 -0.002436
# 5 -0.003418 -0.003870 0.000872 0.000145 0.033070 -0.000167
# 6 0.000011 -0.000003 0.000129 -0.002436 -0.000167 0.041691
#
#
# Mechanical properties :
#
#
# Convention : Reuss Voigt Hill
#
# Bulk Modulus (GPa) = 51.64440 58.76506 55.20473
# Shear Modulus (GPa) = 29.62419 31.85440 30.73929
#
# Velocity S-wave (km/s) = 3.84966 3.99194 3.92145
# Velocity P-wave (km/s) = 6.75245 7.11656 6.93690
#
# Compressibility (1/GPa) = 0.01936318
#
# Stress axis : x y z
#
# Youngs Moduli (GPa) = 104.44768 66.16920 64.85956
#
# Poissons Ratio (x) = 0.15558 0.24133
# Poissons Ratio (y) = 0.24558 0.27882
# Poissons Ratio (z) = 0.38863 0.28445
#
# Static dielectric constant tensor:
#      x y z
#    x 3.669700 -0.000050 0.033350 
#    y -0.000050 3.585520 -0.000050 
#    z 0.033350 -0.000050 3.907650 
# 
# 
# High freq. dielectric constant tensor:
#      x y z
#    x 1.762300 0.000010 0.004410 
#    y 0.000010 1.765380 -0.000020 
#    z 0.004410 -0.000020 1.801610 
# 
# From -- ./inp_files/192048.got.cif
#   From: 2010.06.25/outbox.cif.g09.slc.cpg/sg15_97_cif.got.tgz:192048.got - 2010.06.28 07:06:18.
