data_PCOD8139325
_publ_section_title
;
Structure prediction by ZEFSAII (Michael W. Deem and Ramdas Pophale) SiO2 
 PCOD8139325
Probable space group: C 2/C
;
_chemical_formula_sum "Si O2"
_cell_formula_units_Z 56
_cell_length_a 27.375260
_cell_length_b 9.076424
_cell_length_c 11.802272
_cell_angle_alpha 90.000000
_cell_angle_beta 119.404732
_cell_angle_gamma 90.000000
_cell_volume 2554.719286
_symmetry_space_group_name_H-M "C 2/C"
_symmetry_group_IT_number 15
_symmetry_cell_setting 'monoclinic'
loop_
_space_group_symop_operation_xyz
x,y,z
-x,y,1/2-z
-x,-y,-z
x,-y,1/2+z
1/2+x,1/2+y,z
1/2-x,1/2+y,1/2-z
1/2-x,1/2-y,-z
1/2+x,1/2-y,1/2+z
loop_
_atom_site_type_symbol
_atom_site_label
_atom_site_fract_x
_atom_site_fract_y
_atom_site_fract_z
Si Si1 0.366733 0.586768 0.778536
Si Si2 0.432177 0.704483 0.295491
Si Si3 0.809995 0.514479 0.235208
Si Si4 0.357060 0.171332 0.087185
Si Si5 0.555804 0.263183 0.949655
Si Si6 0.082260 0.454175 0.036026
Si Si7 0.252510 0.197389 0.806691
O O1 0.388338 0.421355 0.782146
O O2 0.378591 0.688929 0.683428
O O3 0.299647 0.589999 0.720924
O O4 0.399278 0.650907 0.924063
O O5 0.420952 0.747252 0.152100
O O6 0.496488 0.649896 0.384935
O O7 0.425511 0.849235 0.365222
O O8 0.838919 0.534260 0.146564
O O9 0.857122 0.530998 0.384822
O O10 0.766267 0.636643 0.223870
O O11 0.778642 0.357515 0.216195
O O12 0.412405 0.136441 0.075432
O O13 0.300601 0.204931 0.955731
O O14 0.541178 0.095787 0.978951
#
# Coordination Sequence:
#
# PCOD8139325 Si02
#       7
#     8   8   8   8   8   8   8
#     4  11  23  43  67  96 134 175 212 283 333 393
#     4  11  27  42  69  97 129 174 227 273 337 393
#     4  10  20  39  59  95 124 169 216 258 324 389
#     4  10  22  41  67  95 133 172 218 265 333 401
#     4  11  24  46  66  96 134 165 231 279 326 399
#     4  11  22  44  68  93 133 175 217 274 330 401
#     4  10  22  37  65  92 131 171 214 269 321 402
#
# _framework density 21.920217000000001
#
# number of rings (size 3 to 8) (size 9 to 14) (size 15 to 20)
#    0.000    1.429    2.857    3.429    6.000    1.143 
#    0.000    1.429    0.000    0.000    0.000    0.000 
#    0.000    0.000    0.000    0.000    0.000    0.000 
#
# Total GULP energy -346874.506329 kJ/mol
# GULP energy per Si atom -12388.375226 kJ/mol
# Density = 2.187033 g / cm^3
# Si number density = 21.920217 Si / 1000 Ang^3
#
#
#
# Elastic Constant Matrix: (Units=GPa)
#
#
# Indices 1 2 3 4 5 6 
#
# 1 34.8480 15.1342 34.3584 0.0000 -4.4694 0.0000
# 2 15.1342 53.0267 60.7610 0.0000 -13.9626 0.0000
# 3 34.3584 60.7610 98.5781 0.0000 -7.3628 0.0000
# 4 0.0000 0.0000 0.0000 33.1664 0.0000 -3.6648
# 5 -4.4694 -13.9626 -7.3628 0.0000 38.0613 0.0000
# 6 0.0000 0.0000 0.0000 -3.6648 0.0000 13.6738
#
#
#
# Elastic Compliance Matrix: (Units=1/GPa)
#
#
# Indices 1 2 3 4 5 6 
#
# 1 0.051136 0.025250 -0.032719 0.000000 0.008938 0.000000
# 2 0.025250 0.088183 -0.061404 0.000000 0.023436 0.000000
# 3 -0.032719 -0.061404 0.058268 0.000000 -0.015096 0.000000
# 4 0.000000 0.000000 0.000000 0.031071 0.000000 0.008328
# 5 0.008938 0.023436 -0.015096 0.000000 0.033000 0.000000
# 6 0.000000 0.000000 0.000000 0.008328 0.000000 0.075364
#
#
# Mechanical properties :
#
#
# Convention : Reuss Voigt Hill
#
# Bulk Modulus (GPa) = 16.71073 45.21774 30.96424
# Shear Modulus (GPa) = 10.10682 22.06024 16.08353
#
# Velocity S-wave (km/s) = 2.14959 3.17580 2.71168
# Velocity P-wave (km/s) = 3.71497 5.84130 4.89498
#
# Compressibility (1/GPa) = 0.05984177
#
# Stress axis : x y z
#
# Youngs Moduli (GPa) = 19.55588 11.34003 17.16200
#
# Poissons Ratio (x) = -0.28634 0.56152
# Poissons Ratio (y) = -0.49379 1.05382
# Poissons Ratio (z) = 0.63984 0.69632
#
# Static dielectric constant tensor:
#      x y z
#    x 4.068710 0.000000 -0.000180 
#    y 0.000000 4.052120 0.000000 
#    z -0.000180 0.000000 4.165690 
# 
# 
# High freq. dielectric constant tensor:
#      x y z
#    x 1.866210 0.000000 0.002920 
#    y 0.000000 1.854400 0.000000 
#    z 0.002920 0.000000 1.867170 
# 
# From -- ./inp_files/125973.got.cif
#   From: 2010.06.25/outbox.cif.g09.slc.cpg/sg15_63_cif.got.tgz:125973.got - 2010.06.28 07:06:18.
