data_PCOD8139410
_publ_section_title
;
Structure prediction by ZEFSAII (Michael W. Deem and Ramdas Pophale) SiO2 
 PCOD8139410
Probable space group: C 2/C
;
_chemical_formula_sum "Si O2"
_cell_formula_units_Z 48
_cell_length_a 20.257433
_cell_length_b 9.555490
_cell_length_c 13.351343
_cell_angle_alpha 90.000000
_cell_angle_beta 69.654202
_cell_angle_gamma 90.000000
_cell_volume 2423.177172
_symmetry_space_group_name_H-M "C 2/C"
_symmetry_group_IT_number 15
_symmetry_cell_setting 'monoclinic'
loop_
_space_group_symop_operation_xyz
x,y,z
-x,y,1/2-z
-x,-y,-z
x,-y,1/2+z
1/2+x,1/2+y,z
1/2-x,1/2+y,1/2-z
1/2-x,1/2-y,-z
1/2+x,1/2-y,1/2+z
loop_
_atom_site_type_symbol
_atom_site_label
_atom_site_fract_x
_atom_site_fract_y
_atom_site_fract_z
Si Si1 0.932239 0.380707 0.115781
Si Si2 0.675887 0.617897 0.884018
Si Si3 0.830955 0.557825 0.838452
Si Si4 0.410367 0.870250 0.487522
Si Si5 0.346066 0.689412 0.031959
Si Si6 0.193323 0.238580 0.663386
O O1 0.884512 0.357761 0.239029
O O2 0.912965 0.272512 0.038017
O O3 0.012883 0.350852 0.102894
O O4 0.919933 0.538299 0.082561
O O5 0.756471 0.638750 0.877376
O O6 0.650429 0.463053 0.921867
O O7 0.670859 0.642127 0.767722
O O8 0.624431 0.722345 0.968894
O O9 0.859955 0.550933 0.935763
O O10 0.822852 0.399937 0.803686
O O11 0.276632 0.776706 0.099938
O O12 0.349800 0.680936 0.909436
#
# Coordination Sequence:
#
# PCOD8139410 Si02
#       6
#     8   8   8   8   8   8
#     4  11  22  40  63  87 128 162 204 248 306 373
#     4  11  23  38  65  94 124 158 208 262 302 363
#     4  11  21  39  66  88 124 165 208 255 301 365
#     4  11  24  39  60  94 123 161 205 253 304 368
#     4  10  22  39  63  89 124 165 197 262 309 358
#     4  10  20  39  61  92 123 159 211 249 310 365
#
# _framework density 19.808705
#
# number of rings (size 3 to 8) (size 9 to 14) (size 15 to 20)
#    0.000    1.333    5.000    1.000    0.000    2.000 
#    0.000    0.833    0.000    0.000    0.000    0.000 
#    0.000    0.000    0.000    0.000    0.000    0.000 
#
# Total GULP energy -297704.821350 kJ/mol
# GULP energy per Si atom -12404.367556 kJ/mol
# Density = 1.976362 g / cm^3
# Si number density = 19.808705 Si / 1000 Ang^3
#
#
#
# Elastic Constant Matrix: (Units=GPa)
#
#
# Indices 1 2 3 4 5 6 
#
# 1 85.1499 35.0441 28.0667 0.0000 -2.6961 0.0000
# 2 35.0441 87.7592 24.0829 0.0000 -3.7266 0.0000
# 3 28.0667 24.0829 69.5087 0.0000 3.7047 0.0000
# 4 0.0000 0.0000 0.0000 32.0604 0.0000 2.1287
# 5 -2.6961 -3.7266 3.7047 0.0000 34.1085 0.0000
# 6 0.0000 0.0000 0.0000 2.1287 0.0000 27.1593
#
#
#
# Elastic Compliance Matrix: (Units=1/GPa)
#
#
# Indices 1 2 3 4 5 6 
#
# 1 0.015257 -0.004790 -0.004564 0.000000 0.001178 0.000000
# 2 -0.004790 0.014214 -0.003071 0.000000 0.001508 0.000000
# 3 -0.004564 -0.003071 0.017432 0.000000 -0.002590 0.000000
# 4 0.000000 0.000000 0.000000 0.031354 0.000000 -0.002457
# 5 0.001178 0.001508 -0.002590 0.000000 0.029857 0.000000
# 6 0.000000 0.000000 0.000000 -0.002457 0.000000 0.037012
#
#
# Mechanical properties :
#
#
# Convention : Reuss Voigt Hill
#
# Bulk Modulus (GPa) = 45.34506 46.31169 45.82837
# Shear Modulus (GPa) = 28.19636 29.01390 28.60513
#
# Velocity S-wave (km/s) = 3.77693 3.83130 3.80421
# Velocity P-wave (km/s) = 6.47777 6.55759 6.51780
#
# Compressibility (1/GPa) = 0.02205312
#
# Stress axis : x y z
#
# Youngs Moduli (GPa) = 65.54382 70.35127 57.36717
#
# Poissons Ratio (x) = 0.33698 0.26181
# Poissons Ratio (y) = 0.31396 0.17618
# Poissons Ratio (z) = 0.29913 0.21606
#
# Static dielectric constant tensor:
#      x y z
#    x 3.634230 0.000000 0.023380 
#    y 0.000000 3.375220 0.000000 
#    z 0.023380 0.000000 3.513790 
# 
# 
# High freq. dielectric constant tensor:
#      x y z
#    x 1.770570 0.000000 0.007070 
#    y 0.000000 1.760240 0.000000 
#    z 0.007070 0.000000 1.772980 
# 
# From -- ./inp_files/116733.got.cif
#   From: 2010.06.25/outbox.cif.g09.slc.cpg/sg15_59_cif.got.tgz:116733.got - 2010.06.28 07:06:18.
