data_PCOD8139454
_publ_section_title
;
Structure prediction by ZEFSAII (Michael W. Deem and Ramdas Pophale) SiO2 
 PCOD8139454
Probable space group: C 2/C
;
_chemical_formula_sum "Si O2"
_cell_formula_units_Z 64
_cell_length_a 16.670360
_cell_length_b 8.831848
_cell_length_c 19.724417
_cell_angle_alpha 90.000000
_cell_angle_beta 92.543753
_cell_angle_gamma 90.000000
_cell_volume 2901.166036
_symmetry_space_group_name_H-M "C 2/C"
_symmetry_group_IT_number 15
_symmetry_cell_setting 'monoclinic'
loop_
_space_group_symop_operation_xyz
x,y,z
-x,y,1/2-z
-x,-y,-z
x,-y,1/2+z
1/2+x,1/2+y,z
1/2-x,1/2+y,1/2-z
1/2-x,1/2-y,-z
1/2+x,1/2-y,1/2+z
loop_
_atom_site_type_symbol
_atom_site_label
_atom_site_fract_x
_atom_site_fract_y
_atom_site_fract_z
Si Si1 0.939503 0.802547 0.304146
Si Si2 0.289441 0.157366 0.089661
Si Si3 0.221532 0.739144 0.267314
Si Si4 0.998807 0.124429 0.178693
Si Si5 0.709173 0.041686 0.549670
Si Si6 0.466661 0.170903 0.076344
Si Si7 0.463326 0.131489 0.926714
Si Si8 0.185758 0.061336 0.331879
O O1 0.856117 0.723499 0.282999
O O2 0.000000 0.739351 0.250000
O O3 0.965174 0.755505 0.379778
O O4 0.939405 0.985446 0.305228
O O5 0.274279 0.118385 0.169029
O O6 0.226507 0.282958 0.064940
O O7 0.378605 0.231039 0.092261
O O8 0.283321 0.020494 0.033177
O O9 0.294275 0.701048 0.218226
O O10 0.220253 0.908191 0.298414
O O11 0.909497 0.063667 0.155762
O O12 0.000000 0.215311 0.250000
O O13 0.039616 0.231902 0.125766
O O14 0.617146 0.028481 0.570593
O O15 0.767435 0.927744 0.593569
O O16 0.468264 0.989435 0.091072
O O17 0.484830 0.207926 0.998938
#
# Coordination Sequence:
#
# PCOD8139454 Si02
#       8
#     8   8   8   8   8   8   8   8
#     4  11  19  38  62  86 119 160 199 245 299 363
#     4   9  18  34  61  85 119 152 205 241 304 355
#     4  11  22  38  61  90 119 164 201 257 300 372
#     4  11  24  42  59  87 127 162 197 256 305 362
#     4   9  19  38  61  88 116 162 199 255 296 369
#     4  10  20  39  62  92 121 157 202 252 298 364
#     4  10  23  39  62  91 124 154 201 256 305 351
#     4  11  23  39  60  86 128 157 207 250 313 359
#
# _framework density 22.060096000000001
#
# number of rings (size 3 to 8) (size 9 to 14) (size 15 to 20)
#    0.000    1.750    3.750    1.500    3.500    2.000 
#    0.000    1.250    0.000    8.250    0.000    0.000 
#    0.000    0.000    0.000    0.000    0.000    0.000 
#
# Total GULP energy -396452.542342 kJ/mol
# GULP energy per Si atom -12389.141948 kJ/mol
# Density = 2.200989 g / cm^3
# Si number density = 22.060096 Si / 1000 Ang^3
#
#
#
# Elastic Constant Matrix: (Units=GPa)
#
#
# Indices 1 2 3 4 5 6 
#
# 1 57.5737 -2.4797 19.1957 0.0000 11.6614 0.0000
# 2 -2.4797 24.0523 17.8940 0.0000 -6.7880 0.0000
# 3 19.1957 17.8940 126.3362 0.0000 21.5644 0.0000
# 4 0.0000 0.0000 0.0000 24.7511 0.0000 -0.7059
# 5 11.6614 -6.7880 21.5644 0.0000 35.3238 0.0000
# 6 0.0000 0.0000 0.0000 -0.7059 0.0000 14.8473
#
#
#
# Elastic Compliance Matrix: (Units=1/GPa)
#
#
# Indices 1 2 3 4 5 6 
#
# 1 0.019204 0.002695 -0.002574 0.000000 -0.004250 0.000000
# 2 0.002695 0.054560 -0.010912 0.000000 0.016256 0.000000
# 3 -0.002574 -0.010912 0.011236 0.000000 -0.008106 0.000000
# 4 0.000000 0.000000 0.000000 0.040457 0.000000 0.001924
# 5 -0.004250 0.016256 -0.008106 0.000000 0.037785 0.000000
# 6 0.000000 0.000000 0.000000 0.001924 0.000000 0.067444
#
#
# Mechanical properties :
#
#
# Convention : Reuss Voigt Hill
#
# Bulk Modulus (GPa) = 15.76830 30.79800 23.28315
# Shear Modulus (GPa) = 18.28772 26.54125 22.41449
#
# Velocity S-wave (km/s) = 2.88235 3.47239 3.19104
# Velocity P-wave (km/s) = 4.27091 5.48342 4.91470
#
# Compressibility (1/GPa) = 0.06341840
#
# Stress axis : x y z
#
# Youngs Moduli (GPa) = 52.07163 18.32842 89.00153
#
# Poissons Ratio (x) = -0.04940 0.22911
# Poissons Ratio (y) = -0.14036 0.97120
# Poissons Ratio (z) = 0.13404 0.20000
#
# Static dielectric constant tensor:
#      x y z
#    x 3.895070 0.000000 0.200910 
#    y 0.000000 3.438280 0.000000 
#    z 0.200910 0.000000 4.492670 
# 
# 
# High freq. dielectric constant tensor:
#      x y z
#    x 1.868170 0.000000 0.019580 
#    y 0.000000 1.814170 0.000000 
#    z 0.019580 0.000000 1.889680 
# 
# From -- ./inp_files/247460.got.cif
#   From: 2010.06.25/outbox.cif.g09.slc.cpg/sg15_124_cif.got.tgz:247460.got - 2010.06.28 07:06:18.
