data_PCOD8139891
_publ_section_title
;
Structure prediction by ZEFSAII (Michael W. Deem and Ramdas Pophale) SiO2 
 PCOD8139891
Probable space group: C 2/C
;
_chemical_formula_sum "Si O2"
_cell_formula_units_Z 44
_cell_length_a 25.182083
_cell_length_b 11.982460
_cell_length_c 20.112502
_cell_angle_alpha 90.000000
_cell_angle_beta 158.703847
_cell_angle_gamma 90.000000
_cell_volume 2204.124058
_symmetry_space_group_name_H-M "C 2/C"
_symmetry_group_IT_number 15
_symmetry_cell_setting 'monoclinic'
loop_
_space_group_symop_operation_xyz
x,y,z
-x,y,1/2-z
-x,-y,-z
x,-y,1/2+z
1/2+x,1/2+y,z
1/2-x,1/2+y,1/2-z
1/2-x,1/2-y,-z
1/2+x,1/2-y,1/2+z
loop_
_atom_site_type_symbol
_atom_site_label
_atom_site_fract_x
_atom_site_fract_y
_atom_site_fract_z
Si Si1 0.401354 0.695784 0.692670
Si Si2 0.000000 0.018300 0.250000
Si Si3 0.212746 0.143031 0.593313
Si Si4 0.544161 0.826258 0.473455
Si Si5 0.038826 0.830104 0.089503
Si Si6 0.221244 0.993415 0.732396
O O1 0.500000 0.751293 0.750000
O O2 0.250000 0.750000 0.500000
O O3 0.408541 0.560560 0.694366
O O4 0.451801 0.723409 0.826313
O O5 0.118134 0.093953 0.423687
O O6 0.132132 0.255050 0.522013
O O7 0.223203 0.055051 0.664745
O O8 0.374839 0.167350 0.754590
O O9 0.557680 0.773228 0.562278
O O10 0.616887 0.949556 0.560519
O O11 0.164604 0.923126 0.223892
O O12 0.881334 0.884725 0.893036
#
# Coordination Sequence:
#
# PCOD8139891 Si02
#       6
#     8   4   8   8   8   8
#     4  10  23  41  63  88 124 167 203 248 310 368
#     4  10  24  42  60  82 132 162 204 250 302 372
#     4  11  23  41  61  90 125 163 208 257 308 367
#     4  11  23  38  66  96 120 161 213 255 313 372
#     4  10  21  38  66  91 128 160 201 262 313 355
#     4  10  20  40  62  95 124 157 203 264 306 364
#
# _framework density 19.962579000000002
#
# number of rings (size 3 to 8) (size 9 to 14) (size 15 to 20)
#    0.545    1.091    3.636    0.545    5.091    0.727 
#    3.273    0.000    0.000    0.000    0.000    0.000 
#    0.000    0.000    0.000    0.000    0.000    0.000 
#
# Total GULP energy -272757.077295 kJ/mol
# GULP energy per Si atom -12398.048968 kJ/mol
# Density = 1.991714 g / cm^3
# Si number density = 19.962579 Si / 1000 Ang^3
#
#
#
# Elastic Constant Matrix: (Units=GPa)
#
#
# Indices 1 2 3 4 5 6 
#
# 1 60.3412 13.6757 61.1816 0.0000 10.1919 0.0000
# 2 13.6757 58.5765 48.3725 -0.0002 8.5466 -0.0001
# 3 61.1816 48.3725 150.7715 -0.0002 16.1471 -0.0001
# 4 0.0000 -0.0002 -0.0002 41.4987 -0.0001 6.8025
# 5 10.1919 8.5466 16.1471 -0.0001 36.0454 -0.0001
# 6 0.0000 -0.0001 -0.0001 6.8025 -0.0001 9.9326
#
#
#
# Elastic Compliance Matrix: (Units=1/GPa)
#
#
# Indices 1 2 3 4 5 6 
#
# 1 0.029243 0.004319 -0.012875 0.000000 -0.003525 0.000000
# 2 0.004319 0.024042 -0.009165 0.000000 -0.002816 0.000000
# 3 -0.012875 -0.009165 0.014889 0.000000 -0.000856 0.000000
# 4 0.000000 0.000000 0.000000 0.027144 0.000000 -0.018590
# 5 -0.003525 -0.002816 -0.000856 0.000000 0.029791 0.000000
# 6 0.000000 0.000000 0.000000 -0.018590 0.000000 0.113410
#
#
# Mechanical properties :
#
#
# Convention : Reuss Voigt Hill
#
# Bulk Modulus (GPa) = 30.54946 57.34985 43.94965
# Shear Modulus (GPa) = 17.55177 27.25932 22.40555
#
# Velocity S-wave (km/s) = 2.96840 3.69930 3.35382
# Velocity P-wave (km/s) = 5.20434 6.85839 6.08780
#
# Compressibility (1/GPa) = 0.03273380
#
# Stress axis : x y z
#
# Youngs Moduli (GPa) = 34.19634 41.59323 67.16385
#
# Poissons Ratio (x) = -0.17964 0.86471
# Poissons Ratio (y) = -0.14769 0.61553
# Poissons Ratio (z) = 0.44026 0.38118
#
# Static dielectric constant tensor:
#      x y z
#    x 3.766650 0.000000 0.088810 
#    y 0.000000 3.816050 0.000000 
#    z 0.088810 0.000000 3.687890 
# 
# 
# High freq. dielectric constant tensor:
#      x y z
#    x 1.776260 0.000000 0.013590 
#    y 0.000000 1.773740 0.000000 
#    z 0.013590 0.000000 1.774990 
# 
# From -- ./inp_files/257557.got.cif
#   From: 2010.06.25/outbox.cif.g09.slc.cpg/sg15_129_cif.got.tgz:257557.got - 2010.06.28 07:06:18.
