data_PCOD8139085
_publ_section_title
;
Structure prediction by ZEFSAII (Michael W. Deem and Ramdas Pophale) SiO2 
 PCOD8139085
Probable space group: C 2/C
;
_chemical_formula_sum "Si O2"
_cell_formula_units_Z 52
_cell_length_a 24.632592
_cell_length_b 11.525225
_cell_length_c 14.354137
_cell_angle_alpha 90.000000
_cell_angle_beta 143.607495
_cell_angle_gamma 90.000000
_cell_volume 2417.802989
_symmetry_space_group_name_H-M "C 2/C"
_symmetry_group_IT_number 15
_symmetry_cell_setting 'monoclinic'
loop_
_space_group_symop_operation_xyz
x,y,z
-x,y,1/2-z
-x,-y,-z
x,-y,1/2+z
1/2+x,1/2+y,z
1/2-x,1/2+y,1/2-z
1/2-x,1/2-y,-z
1/2+x,1/2-y,1/2+z
loop_
_atom_site_type_symbol
_atom_site_label
_atom_site_fract_x
_atom_site_fract_y
_atom_site_fract_z
Si Si1 0.781675 0.530168 0.905382
Si Si2 0.411914 0.982115 0.752435
Si Si3 0.148330 0.370576 0.649191
Si Si4 0.089696 0.921993 0.637920
Si Si5 0.836623 0.228015 0.428589
Si Si6 0.000000 0.308777 0.750000
Si Si7 0.486358 0.760604 0.337797
O O1 0.831492 0.423538 0.924136
O O2 0.673674 0.509928 0.768110
O O3 0.802524 0.639672 0.866759
O O4 0.823367 0.544540 0.066206
O O5 0.396961 0.959163 0.840890
O O6 0.491623 0.893598 0.828446
O O7 0.439960 0.114299 0.780236
O O8 0.244004 0.336830 0.829881
O O9 0.080166 0.264230 0.529124
O O10 0.111678 0.831905 0.585602
O O11 0.077889 0.841043 0.711813
O O12 0.000000 0.000000 0.500000
O O13 0.910908 0.227515 0.615019
O O14 0.500000 0.726040 0.250000
#
# Coordination Sequence:
#
# PCOD8139085 Si02
#       7
#     8   8   8   8   8   4   8
#     4  10  22  43  60  96 132 162 232 266 318 404
#     4  11  21  39  67  95 126 169 220 277 323 386
#     4  11  22  38  64  93 128 173 216 270 330 389
#     4  11  25  43  63  95 135 174 216 271 326 396
#     4  10  22  41  65  90 129 173 212 272 324 382
#     4  10  20  38  64  96 130 164 228 268 318 402
#     4  12  22  42  66  95 129 171 215 269 334 384
#
# _framework density 21.50713
#
# number of rings (size 3 to 8) (size 9 to 14) (size 15 to 20)
#    0.000    1.231    2.308    4.154    0.000    4.308 
#    9.692    0.000    0.000    0.000    0.000    0.000 
#    0.000    0.000    0.000    0.000    0.000    0.000 
#
# Total GULP energy -322244.310413 kJ/mol
# GULP energy per Si atom -12394.011939 kJ/mol
# Density = 2.145818 g / cm^3
# Si number density = 21.507130 Si / 1000 Ang^3
#
#
#
# Elastic Constant Matrix: (Units=GPa)
#
#
# Indices 1 2 3 4 5 6 
#
# 1 114.9322 38.9288 49.2492 0.0000 6.0496 0.0000
# 2 38.9288 80.8101 38.3435 0.0000 8.9140 0.0000
# 3 49.2492 38.3435 115.9204 0.0000 18.1182 0.0000
# 4 0.0000 0.0000 0.0000 38.9540 0.0000 5.6918
# 5 6.0496 8.9140 18.1182 0.0000 34.0170 0.0000
# 6 0.0000 0.0000 0.0000 5.6918 0.0000 39.2746
#
#
#
# Elastic Compliance Matrix: (Units=1/GPa)
#
#
# Indices 1 2 3 4 5 6 
#
# 1 0.011592 -0.003894 -0.003790 0.000000 0.000977 0.000000
# 2 -0.003894 0.016046 -0.003386 0.000000 -0.001709 0.000000
# 3 -0.003790 -0.003386 0.012122 0.000000 -0.004895 0.000000
# 4 0.000000 0.000000 0.000000 0.026227 0.000000 -0.003801
# 5 0.000977 -0.001709 -0.004895 0.000000 0.032278 0.000000
# 6 0.000000 0.000000 0.000000 -0.003801 0.000000 0.026013
#
#
# Mechanical properties :
#
#
# Convention : Reuss Voigt Hill
#
# Bulk Modulus (GPa) = 56.75313 62.74510 59.74911
# Shear Modulus (GPa) = 32.83209 34.79186 33.81198
#
# Velocity S-wave (km/s) = 3.91137 4.02641 3.96931
# Velocity P-wave (km/s) = 6.84425 7.13116 6.98918
#
# Compressibility (1/GPa) = 0.01762017
#
# Stress axis : x y z
#
# Youngs Moduli (GPa) = 86.26500 62.32209 82.49603
#
# Poissons Ratio (x) = 0.24268 0.31264
# Poissons Ratio (y) = 0.33591 0.27934
# Poissons Ratio (z) = 0.32692 0.21103
#
# Static dielectric constant tensor:
#      x y z
#    x 3.855030 0.000000 0.244140 
#    y 0.000000 3.860070 0.000000 
#    z 0.244140 0.000000 4.054760 
# 
# 
# High freq. dielectric constant tensor:
#      x y z
#    x 1.844630 0.000000 0.014830 
#    y 0.000000 1.836100 0.000000 
#    z 0.014830 0.000000 1.852370 
# 
# From -- ./inp_files/173190.got.cif
#   From: 2010.06.25/outbox.cif.g09.slc.cpg/sg15_87_cif.got.tgz:173190.got - 2010.06.28 07:06:18.
