data_PCOD8139053
_publ_section_title
;
Structure prediction by ZEFSAII (Michael W. Deem and Ramdas Pophale) SiO2 
 PCOD8139053
Probable space group: C 2/C
;
_chemical_formula_sum "Si O2"
_cell_formula_units_Z 52
_cell_length_a 14.045162
_cell_length_b 12.787155
_cell_length_c 14.988254
_cell_angle_alpha 90.000000
_cell_angle_beta 81.733749
_cell_angle_gamma 90.000000
_cell_volume 2663.888764
_symmetry_space_group_name_H-M "C 2/C"
_symmetry_group_IT_number 15
_symmetry_cell_setting 'monoclinic'
loop_
_space_group_symop_operation_xyz
x,y,z
-x,y,1/2-z
-x,-y,-z
x,-y,1/2+z
1/2+x,1/2+y,z
1/2-x,1/2+y,1/2-z
1/2-x,1/2-y,-z
1/2+x,1/2-y,1/2+z
loop_
_atom_site_type_symbol
_atom_site_label
_atom_site_fract_x
_atom_site_fract_y
_atom_site_fract_z
Si Si1 0.550043 0.479000 0.899786
Si Si2 0.228120 0.454620 0.621534
Si Si3 0.798587 0.231675 0.784748
Si Si4 0.191843 0.660489 0.958536
Si Si5 0.525651 0.238285 0.876699
Si Si6 0.642848 0.838781 0.192867
Si Si7 0.500000 0.629868 0.750000
O O1 0.663757 0.498609 0.891340
O O2 0.531610 0.362399 0.868410
O O3 0.502101 0.558192 0.836823
O O4 0.500000 0.500000 0.000000
O O5 0.219527 0.347939 0.677741
O O6 0.195133 0.440342 0.522357
O O7 0.158010 0.537907 0.676577
O O8 0.747264 0.145397 0.856905
O O9 0.745938 0.218727 0.695489
O O10 0.910325 0.208031 0.763584
O O11 0.080532 0.696830 0.958159
O O12 0.250000 0.750000 0.000000
O O13 0.412660 0.206382 0.887462
O O14 0.577457 0.182545 0.787273
#
# Coordination Sequence:
#
# PCOD8139053 Si02
#       7
#     8   8   8   8   8   8   4
#     4  12  24  39  67  96 120 164 221 256 307 376
#     4  11  21  39  63  90 124 164 207 256 310 382
#     4  10  21  38  61  88 129 161 205 262 314 367
#     4   9  17  35  61  83 119 165 199 249 308 371
#     4  10  21  39  63  88 123 168 199 255 318 370
#     4  10  20  38  64  91 122 162 207 254 309 372
#     4  12  24  36  64  98 120 164 214 266 310 362
#
# _framework density 19.520333999999998
#
# number of rings (size 3 to 8) (size 9 to 14) (size 15 to 20)
#    0.000    1.538    6.154    1.846    2.154    1.846 
#    0.000    0.769    6.769    0.000    0.000    0.000 
#    0.000    0.000    0.000    0.000    0.000    0.000 
#
# Total GULP energy -322212.137708 kJ/mol
# GULP energy per Si atom -12392.774527 kJ/mol
# Density = 1.947590 g / cm^3
# Si number density = 19.520334 Si / 1000 Ang^3
#
#
#
# Elastic Constant Matrix: (Units=GPa)
#
#
# Indices 1 2 3 4 5 6 
#
# 1 170.0637 43.2138 45.1536 0.0000 26.8372 0.0000
# 2 43.2138 78.5166 33.2994 0.0000 -7.2379 0.0000
# 3 45.1536 33.2994 72.4433 0.0000 3.8551 0.0000
# 4 0.0000 0.0000 0.0000 28.0598 0.0000 -0.9139
# 5 26.8372 -7.2379 3.8551 0.0000 35.7267 0.0000
# 6 0.0000 0.0000 0.0000 -0.9139 0.0000 29.6868
#
#
#
# Elastic Compliance Matrix: (Units=1/GPa)
#
#
# Indices 1 2 3 4 5 6 
#
# 1 0.008958 -0.004213 -0.003262 0.000000 -0.007231 0.000000
# 2 -0.004213 0.018395 -0.006232 0.000000 0.007564 0.000000
# 3 -0.003262 -0.006232 0.018746 0.000000 -0.000835 0.000000
# 4 0.000000 0.000000 0.000000 0.035674 0.000000 0.001098
# 5 -0.007231 0.007564 -0.000835 0.000000 0.035044 0.000000
# 6 0.000000 0.000000 0.000000 0.001098 0.000000 0.033719
#
#
# Mechanical properties :
#
#
# Convention : Reuss Voigt Hill
#
# Bulk Modulus (GPa) = 53.51945 62.70636 58.11291
# Shear Modulus (GPa) = 27.14744 31.98512 29.56628
#
# Velocity S-wave (km/s) = 3.73329 4.05230 3.89606
# Velocity P-wave (km/s) = 6.78676 7.35447 7.07631
#
# Compressibility (1/GPa) = 0.01868480
#
# Stress axis : x y z
#
# Youngs Moduli (GPa) = 111.63343 54.36131 53.34443
#
# Poissons Ratio (x) = 0.22904 0.17400
# Poissons Ratio (y) = 0.47035 0.33244
# Poissons Ratio (z) = 0.36414 0.33878
#
# Static dielectric constant tensor:
#      x y z
#    x 4.342010 0.000000 0.633000 
#    y 0.000000 3.479420 0.000000 
#    z 0.633000 0.000000 4.068390 
# 
# 
# High freq. dielectric constant tensor:
#      x y z
#    x 1.780060 0.000000 0.027120 
#    y 0.000000 1.743830 0.000000 
#    z 0.027120 0.000000 1.741830 
# 
# From -- ./inp_files/203548.got.cif
#   From: 2010.06.25/outbox.cif.g09.slc.cpg/sg15_102_cif.got.tgz:203548.got - 2010.06.28 07:06:18.
