data_PCOD8139048
_publ_section_title
;
Structure prediction by ZEFSAII (Michael W. Deem and Ramdas Pophale) SiO2 
 PCOD8139048
Probable space group: C 2/C
;
_chemical_formula_sum "Si O2"
_cell_formula_units_Z 60
_cell_length_a 17.516600
_cell_length_b 12.838081
_cell_length_c 23.914519
_cell_angle_alpha 90.000000
_cell_angle_beta 31.717077
_cell_angle_gamma 90.000000
_cell_volume 2827.290143
_symmetry_space_group_name_H-M "C 2/C"
_symmetry_group_IT_number 15
_symmetry_cell_setting 'monoclinic'
loop_
_space_group_symop_operation_xyz
x,y,z
-x,y,1/2-z
-x,-y,-z
x,-y,1/2+z
1/2+x,1/2+y,z
1/2-x,1/2+y,1/2-z
1/2-x,1/2-y,-z
1/2+x,1/2-y,1/2+z
loop_
_atom_site_type_symbol
_atom_site_label
_atom_site_fract_x
_atom_site_fract_y
_atom_site_fract_z
Si Si1 0.955111 0.282796 0.886642
Si Si2 0.494684 0.903951 0.461160
Si Si3 0.500000 0.002879 0.250000
Si Si4 0.661802 0.987986 0.047701
Si Si5 0.709425 0.572262 0.772655
Si Si6 0.039373 0.933218 0.161429
Si Si7 0.277913 0.888468 0.808303
Si Si8 0.504536 0.291279 0.471279
O O1 0.887010 0.392106 0.912345
O O2 0.902178 0.186606 0.880707
O O3 0.132102 0.288009 0.770509
O O4 0.916019 0.259310 0.975061
O O5 0.654566 0.871009 0.340827
O O6 0.431369 0.800286 0.529809
O O7 0.500000 0.000000 0.500000
O O8 0.390245 0.933315 0.475708
O O9 0.584443 0.933037 0.149915
O O10 0.631626 0.069967 0.194813
O O11 0.835932 0.986967 0.937142
O O12 0.594741 0.544912 0.795713
O O13 0.777054 0.469271 0.757729
O O14 0.639155 0.640019 0.866093
O O15 0.000000 0.956610 0.250000
O O16 0.111275 0.864137 0.925492
#
# Coordination Sequence:
#
# PCOD8139048 Si02
#       8
#     8   8   4   8   8   8   8   8
#     4  10  21  35  56  93 130 165 206 254 339 396
#     4  12  22  42  65  92 133 180 220 261 324 401
#     4  10  20  38  64  90 126 166 216 262 334 390
#     4  11  22  38  60  92 129 176 208 263 331 391
#     4  11  23  43  61  96 132 173 221 264 332 388
#     4  11  24  36  61  99 135 163 210 272 330 392
#     4  11  22  40  63  93 129 173 213 273 328 389
#     4  11  22  36  63  94 129 170 217 274 317 384
#
# _framework density 21.221734000000001
#
# number of rings (size 3 to 8) (size 9 to 14) (size 15 to 20)
#    0.000    1.067    4.000    4.800    5.600    0.000 
#    0.000    0.000    0.000    3.200    3.467    0.000 
#    0.000    0.000    0.000    0.000    0.000    0.000 
#
# Total GULP energy -371864.144594 kJ/mol
# GULP energy per Si atom -12395.471486 kJ/mol
# Density = 2.117343 g / cm^3
# Si number density = 21.221734 Si / 1000 Ang^3
#
#
#
# Elastic Constant Matrix: (Units=GPa)
#
#
# Indices 1 2 3 4 5 6 
#
# 1 113.1735 32.2978 27.7404 0.0005 4.7836 -0.0003
# 2 32.2978 43.5301 30.9012 -0.0016 2.0995 0.0005
# 3 27.7404 30.9012 121.0408 -0.0037 8.7880 0.0017
# 4 0.0005 -0.0016 -0.0037 27.3336 0.0012 -1.1865
# 5 4.7836 2.0995 8.7880 0.0012 40.3845 -0.0003
# 6 -0.0003 0.0005 0.0017 -1.1865 -0.0003 28.7593
#
#
#
# Elastic Compliance Matrix: (Units=1/GPa)
#
#
# Indices 1 2 3 4 5 6 
#
# 1 0.011265 -0.007973 -0.000487 -0.000001 -0.000814 0.000000
# 2 -0.007973 0.033701 -0.006826 0.000001 0.000678 0.000000
# 3 -0.000487 -0.006826 0.010248 0.000001 -0.001817 0.000000
# 4 -0.000001 0.000001 0.000001 0.036651 -0.000001 0.001512
# 5 -0.000814 0.000678 -0.001817 -0.000001 0.025219 0.000000
# 6 0.000000 0.000000 0.000000 0.001512 0.000000 0.034834
#
#
# Mechanical properties :
#
#
# Convention : Reuss Voigt Hill
#
# Bulk Modulus (GPa) = 40.58103 51.06927 45.82515
# Shear Modulus (GPa) = 26.21869 31.74915 28.98392
#
# Velocity S-wave (km/s) = 3.51873 3.87210 3.69964
# Velocity P-wave (km/s) = 5.97265 6.64136 6.31586
#
# Compressibility (1/GPa) = 0.02464206
#
# Stress axis : x y z
#
# Youngs Moduli (GPa) = 88.76849 29.67247 97.58158
#
# Poissons Ratio (x) = 0.23659 0.04754
# Poissons Ratio (y) = 0.70778 0.66606
# Poissons Ratio (z) = 0.04324 0.20253
#
# Static dielectric constant tensor:
#      x y z
#    x 3.785390 0.000000 0.201800 
#    y 0.000000 3.496140 0.000010 
#    z 0.201800 0.000010 4.348170 
# 
# 
# High freq. dielectric constant tensor:
#      x y z
#    x 1.829160 0.000000 0.012890 
#    y 0.000000 1.789710 0.000000 
#    z 0.012890 0.000000 1.859200 
# 
# From -- ./inp_files/277532.got.cif
#   From: 2010.06.25/outbox.cif.g09.slc.cpg/sg15_139_cif.got.tgz:277532.got - 2010.06.28 07:06:18.
