data_PCOD8139030
_publ_section_title
;
Structure prediction by ZEFSAII (Michael W. Deem and Ramdas Pophale) SiO2 
 PCOD8139030
Probable space group: C 2/C
;
_chemical_formula_sum "Si O2"
_cell_formula_units_Z 36
_cell_length_a 22.516305
_cell_length_b 13.967120
_cell_length_c 5.467172
_cell_angle_alpha 90.000000
_cell_angle_beta 119.958402
_cell_angle_gamma 90.000000
_cell_volume 1489.632869
_symmetry_space_group_name_H-M "C 2/C"
_symmetry_group_IT_number 15
_symmetry_cell_setting 'monoclinic'
loop_
_space_group_symop_operation_xyz
x,y,z
-x,y,1/2-z
-x,-y,-z
x,-y,1/2+z
1/2+x,1/2+y,z
1/2-x,1/2+y,1/2-z
1/2-x,1/2-y,-z
1/2+x,1/2-y,1/2+z
loop_
_atom_site_type_symbol
_atom_site_label
_atom_site_fract_x
_atom_site_fract_y
_atom_site_fract_z
Si Si1 0.064907 0.235544 0.999435
Si Si2 0.686943 0.237612 0.048949
Si Si3 0.132109 0.900720 0.253116
Si Si4 0.500000 0.594205 0.250000
Si Si5 0.272607 0.953433 0.665960
O O1 0.118951 0.299733 0.262059
O O2 0.030762 0.157876 0.102318
O O3 0.106633 0.182677 0.875166
O O4 0.000000 0.295059 0.750000
O O5 0.672620 0.343110 0.124271
O O6 0.705549 0.158177 0.291310
O O7 0.750000 0.250000 0.000000
O O8 0.188879 0.967085 0.502144
O O9 0.065796 0.962934 0.007966
O O10 0.302048 0.998892 0.475689
#
# Coordination Sequence:
#
# PCOD8139030 Si02
#       5
#     8   8   8   4   8
#     4   9  18  34  63  93 117 149 212 271 303 352
#     4  11  21  38  66  92 119 165 218 258 305 367
#     4  10  20  38  64  88 121 161 215 254 307 370
#     4   8  18  34  60  92 116 152 208 270 296 362
#     4  12  27  40  58  93 136 167 202 259 319 370
#
# _framework density 24.167027000000001
#
# number of rings (size 3 to 8) (size 9 to 14) (size 15 to 20)
#    0.000    1.778    2.222    2.000    6.222    0.000 
#    0.000    1.111    0.000    1.333    0.000    0.000 
#    0.000    0.000    0.000    0.000    0.000    0.000 
#
# Total GULP energy -222992.101981 kJ/mol
# GULP energy per Si atom -12388.450110 kJ/mol
# Density = 2.411202 g / cm^3
# Si number density = 24.167027 Si / 1000 Ang^3
#
#
#
# Elastic Constant Matrix: (Units=GPa)
#
#
# Indices 1 2 3 4 5 6 
#
# 1 82.5916 2.9712 30.3235 0.0000 -4.0248 0.0000
# 2 2.9712 59.3699 24.7757 0.0000 2.5677 0.0000
# 3 30.3235 24.7757 147.4935 0.0000 17.7765 0.0000
# 4 0.0000 0.0000 0.0000 41.8720 0.0000 13.1328
# 5 -4.0248 2.5677 17.7765 0.0000 49.3236 0.0000
# 6 0.0000 0.0000 0.0000 13.1328 0.0000 -17.4431
#
#
#
# Elastic Compliance Matrix: (Units=1/GPa)
#
#
# Indices 1 2 3 4 5 6 
#
# 1 0.013330 0.000529 -0.003091 0.000000 0.002174 0.000000
# 2 0.000529 0.018135 -0.003185 0.000000 0.000247 0.000000
# 3 -0.003091 -0.003185 0.008322 0.000000 -0.003086 0.000000
# 4 0.000000 0.000000 0.000000 0.019320 0.000000 0.014546
# 5 0.002174 0.000247 -0.003086 0.000000 0.021551 0.000000
# 6 0.000000 0.000000 0.000000 0.014546 0.000000 -0.046378
#
#
# Mechanical properties :
#
#
# Convention : Reuss Voigt Hill
#
# Bulk Modulus (GPa) = 35.34444 45.06619 40.20532
# Shear Modulus (GPa) = 90.56879 30.17614 60.37246
#
# Velocity S-wave (km/s) = 6.12842 3.53746 5.00356
# Velocity P-wave (km/s) = 8.04572 5.94753 7.07484
#
# Compressibility (1/GPa) = 0.02829299
#
# Stress axis : x y z
#
# Youngs Moduli (GPa) = 75.02037 55.14054 120.15695
#
# Poissons Ratio (x) = -0.02917 0.37145
# Poissons Ratio (y) = -0.03968 0.38269
# Poissons Ratio (z) = 0.23192 0.17562
#
# Static dielectric constant tensor:
#      x y z
#    x 4.556460 0.000000 0.551570 
#    y 0.000000 3.783660 0.000000 
#    z 0.551570 0.000000 5.570040 
# 
# 
# High freq. dielectric constant tensor:
#      x y z
#    x 1.967250 0.000000 -0.002950 
#    y 0.000000 1.889370 0.000000 
#    z -0.002950 0.000000 2.000940 
# 
# From -- ./inp_files/9702.got.cif
#   From: 2010.06.25/outbox.cif.g09.slc.cpg/sg15_5_cif.got.tgz:9702.got - 2010.06.28 07:06:18.
