data_PCOD8139132
_publ_section_title
;
Structure prediction by ZEFSAII (Michael W. Deem and Ramdas Pophale) SiO2 
 PCOD8139132
Probable space group: C 2/C
;
_chemical_formula_sum "Si O2"
_cell_formula_units_Z 44
_cell_length_a 30.110644
_cell_length_b 14.221118
_cell_length_c 15.316751
_cell_angle_alpha 90.000000
_cell_angle_beta 161.971232
_cell_angle_gamma 90.000000
_cell_volume 2029.893909
_symmetry_space_group_name_H-M "C 2/C"
_symmetry_group_IT_number 15
_symmetry_cell_setting 'monoclinic'
loop_
_space_group_symop_operation_xyz
x,y,z
-x,y,1/2-z
-x,-y,-z
x,-y,1/2+z
1/2+x,1/2+y,z
1/2-x,1/2+y,1/2-z
1/2-x,1/2-y,-z
1/2+x,1/2-y,1/2+z
loop_
_atom_site_type_symbol
_atom_site_label
_atom_site_fract_x
_atom_site_fract_y
_atom_site_fract_z
Si Si1 0.500000 0.249243 0.750000
Si Si2 0.704607 0.199150 0.664718
Si Si3 0.901539 0.401651 0.193345
Si Si4 0.500000 0.364590 0.250000
Si Si5 0.385454 0.777687 0.310356
Si Si6 0.932640 0.076735 0.437903
Si Si7 0.000000 0.544476 0.250000
O O1 0.376483 0.309297 0.470184
O O2 0.597088 0.189629 0.865827
O O3 0.640884 0.297033 0.507666
O O4 0.658350 0.183885 0.678024
O O5 0.639309 0.108797 0.494282
O O6 0.959555 0.365459 0.396609
O O7 0.008785 0.479517 0.353473
O O8 0.738357 0.437618 0.887763
O O9 0.511810 0.431864 0.357600
O O10 0.479875 0.682377 0.495477
O O11 0.250000 0.750000 0.000000
O O12 0.000000 0.000000 0.500000
#
# Coordination Sequence:
#
# PCOD8139132 Si02
#       7
#     4   8   8   4   8   8   4
#     4  11  18  37  69  91 114 176 219 256 326 396
#     4  10  20  38  68  88 122 166 219 262 322 387
#     4  10  21  40  60  88 132 165 209 267 321 396
#     4   9  18  41  62  94 128 172 207 276 318 379
#     4   9  17  38  60  85 116 171 204 258 315 387
#     4  10  20  38  65  97 134 167 218 270 323 385
#     4  10  24  40  57  97 128 156 216 274 320 379
#
# _framework density 21.676010000000002
#
# number of rings (size 3 to 8) (size 9 to 14) (size 15 to 20)
#    0.000    2.182    5.455    0.000    0.000    2.182 
#    6.545    3.636    0.000    6.545    0.000    0.000 
#    0.000    0.000    0.000    0.000    0.000    0.000 
#
# Total GULP energy -272546.533162 kJ/mol
# GULP energy per Si atom -12388.478780 kJ/mol
# Density = 2.162667 g / cm^3
# Si number density = 21.676010 Si / 1000 Ang^3
#
#
#
# Elastic Constant Matrix: (Units=GPa)
#
#
# Indices 1 2 3 4 5 6 
#
# 1 105.9383 52.1112 22.7727 0.0000 -11.5868 0.0000
# 2 52.1112 94.7935 31.7294 0.0000 4.3148 0.0000
# 3 22.7727 31.7294 103.4057 0.0000 10.2077 0.0000
# 4 0.0000 0.0000 0.0000 17.4717 0.0000 -3.3879
# 5 -11.5868 4.3148 10.2077 0.0000 39.1122 0.0000
# 6 0.0000 0.0000 0.0000 -3.3879 0.0000 40.5368
#
#
#
# Elastic Compliance Matrix: (Units=1/GPa)
#
#
# Indices 1 2 3 4 5 6 
#
# 1 0.013987 -0.007494 -0.001305 0.000000 0.005311 0.000000
# 2 -0.007494 0.015777 -0.002874 0.000000 -0.003211 0.000000
# 3 -0.001305 -0.002874 0.011134 0.000000 -0.002975 0.000000
# 4 0.000000 0.000000 0.000000 0.058178 0.000000 0.004862
# 5 0.005311 -0.003211 -0.002975 0.000000 0.028271 0.000000
# 6 0.000000 0.000000 0.000000 0.004862 0.000000 0.025075
#
#
# Mechanical properties :
#
#
# Convention : Reuss Voigt Hill
#
# Bulk Modulus (GPa) = 56.97400 57.48490 57.22945
# Shear Modulus (GPa) = 27.53004 32.59243 30.06123
#
# Velocity S-wave (km/s) = 3.56767 3.88186 3.72807
# Velocity P-wave (km/s) = 6.58122 6.83150 6.70753
#
# Compressibility (1/GPa) = 0.01755186
#
# Stress axis : x y z
#
# Youngs Moduli (GPa) = 71.49345 63.38302 89.81851
#
# Poissons Ratio (x) = 0.47500 0.11722
# Poissons Ratio (y) = 0.53579 0.25812
# Poissons Ratio (z) = 0.09331 0.18215
#
# Static dielectric constant tensor:
#      x y z
#    x 4.284620 0.000000 -0.389340 
#    y 0.000000 4.076020 0.000000 
#    z -0.389340 0.000000 3.844790 
# 
# 
# High freq. dielectric constant tensor:
#      x y z
#    x 1.845250 0.000000 -0.012640 
#    y 0.000000 1.845700 0.000000 
#    z -0.012640 0.000000 1.827210 
# 
# From -- ./inp_files/182400.got.cif
#   From: 2010.06.25/outbox.cif.g09.slc.cpg/sg15_92_cif.got.tgz:182400.got - 2010.06.28 07:06:18.
