data_PCOD8139025
_publ_section_title
;
Structure prediction by ZEFSAII (Michael W. Deem and Ramdas Pophale) SiO2 
 PCOD8139025
Probable space group: C 2/C
;
_chemical_formula_sum "Si O2"
_cell_formula_units_Z 48
_cell_length_a 10.715678
_cell_length_b 17.329713
_cell_length_c 15.001020
_cell_angle_alpha 90.000000
_cell_angle_beta 62.011666
_cell_angle_gamma 90.000000
_cell_volume 2459.879017
_symmetry_space_group_name_H-M "C 2/C"
_symmetry_group_IT_number 15
_symmetry_cell_setting 'monoclinic'
loop_
_space_group_symop_operation_xyz
x,y,z
-x,y,1/2-z
-x,-y,-z
x,-y,1/2+z
1/2+x,1/2+y,z
1/2-x,1/2+y,1/2-z
1/2-x,1/2-y,-z
1/2+x,1/2-y,1/2+z
loop_
_atom_site_type_symbol
_atom_site_label
_atom_site_fract_x
_atom_site_fract_y
_atom_site_fract_z
Si Si1 0.889215 0.049316 0.480995
Si Si2 0.385264 0.590421 0.864829
Si Si3 0.896517 0.159504 0.046913
Si Si4 0.587326 0.106730 0.138641
Si Si5 0.094487 0.662763 0.945149
Si Si6 0.421777 0.930458 0.365282
O O1 0.748596 0.073481 0.582579
O O2 0.977732 0.127358 0.431618
O O3 0.854570 0.998289 0.405553
O O4 0.000000 0.000000 0.500000
O O5 0.500000 0.592149 0.750000
O O6 0.434678 0.646558 0.929204
O O7 0.238538 0.619123 0.872547
O O8 0.752229 0.111065 0.110030
O O9 0.880762 0.247371 0.081628
O O10 0.500000 0.141774 0.250000
O O11 0.537206 0.019770 0.133549
O O12 0.555092 0.156935 0.062460
O O13 0.970080 0.624824 0.929398
O O14 0.500000 0.900056 0.250000
#
# Coordination Sequence:
#
# PCOD8139025 Si02
#       6
#     8   8   8   8   8   8
#     4  10  20  41  60  85 120 156 199 246 298 361
#     4  10  21  36  67  90 114 158 208 244 294 359
#     4  10  22  39  59  87 126 155 190 252 310 356
#     4  10  20  38  64  88 116 158 206 248 296 351
#     4  11  23  38  59  94 121 152 206 253 297 361
#     4  11  23  39  65  88 120 162 204 249 301 352
#
# _framework density 19.513154
#
# number of rings (size 3 to 8) (size 9 to 14) (size 15 to 20)
#    0.000    1.667    5.000    2.500    4.667    3.333 
#    0.000    0.833    0.000    0.000    0.000    0.000 
#    0.000    0.000    0.000    0.000    0.000    0.000 
#
# Total GULP energy -297470.157595 kJ/mol
# GULP energy per Si atom -12394.589900 kJ/mol
# Density = 1.946874 g / cm^3
# Si number density = 19.513154 Si / 1000 Ang^3
#
#
#
# Elastic Constant Matrix: (Units=GPa)
#
#
# Indices 1 2 3 4 5 6 
#
# 1 100.2499 50.4021 49.9948 0.0000 -23.1759 0.0000
# 2 50.4021 96.4283 31.6470 0.0000 -0.6300 0.0000
# 3 49.9948 31.6470 156.3180 0.0000 -23.2279 0.0000
# 4 0.0000 0.0000 0.0000 9.1943 0.0000 -1.4821
# 5 -23.1759 -0.6300 -23.2279 0.0000 15.2901 0.0000
# 6 0.0000 0.0000 0.0000 -1.4821 0.0000 27.8469
#
#
#
# Elastic Compliance Matrix: (Units=1/GPa)
#
#
# Indices 1 2 3 4 5 6 
#
# 1 0.025157 -0.012972 0.000216 0.000000 0.037925 0.000000
# 2 -0.012972 0.017973 -0.002973 0.000000 -0.023438 0.000000
# 3 0.000216 -0.002973 0.008990 0.000000 0.013861 0.000000
# 4 0.000000 0.000000 0.000000 0.109704 0.000000 0.005839
# 5 0.037925 -0.023438 0.013861 0.000000 0.142978 0.000000
# 6 0.000000 0.000000 0.000000 0.005839 0.000000 0.036221
#
#
# Mechanical properties :
#
#
# Convention : Reuss Voigt Hill
#
# Bulk Modulus (GPa) = 48.39847 68.56487 58.48167
# Shear Modulus (GPa) = 13.17979 25.19640 19.18810
#
# Velocity S-wave (km/s) = 2.60172 3.59730 3.13923
# Velocity P-wave (km/s) = 5.82084 7.24349 6.57078
#
# Compressibility (1/GPa) = 0.02066181
#
# Stress axis : x y z
#
# Youngs Moduli (GPa) = 39.75032 55.63793 111.23833
#
# Poissons Ratio (x) = 0.72175 -0.02400
# Poissons Ratio (y) = 0.51565 0.33066
# Poissons Ratio (z) = -0.00858 0.16539
#
# Static dielectric constant tensor:
#      x y z
#    x 3.670710 0.000000 -0.161370 
#    y 0.000000 3.864070 0.000000 
#    z -0.161370 0.000000 3.529500 
# 
# 
# High freq. dielectric constant tensor:
#      x y z
#    x 1.747020 0.000000 -0.019520 
#    y 0.000000 1.755840 0.000000 
#    z -0.019520 0.000000 1.751680 
# 
# From -- ./inp_files/199016.got.cif
#   From: 2010.06.25/outbox.cif.g09.slc.cpg/sg15_100_cif.got.tgz:199016.got - 2010.06.28 07:06:18.
