data_PCOD8139257
_publ_section_title
;
Structure prediction by ZEFSAII (Michael W. Deem and Ramdas Pophale) SiO2 
 PCOD8139257
Probable space group: C 2/C
;
_chemical_formula_sum "Si O2"
_cell_formula_units_Z 64
_cell_length_a 14.205203
_cell_length_b 12.479915
_cell_length_c 26.585670
_cell_angle_alpha 90.000000
_cell_angle_beta 39.058289
_cell_angle_gamma 90.000000
_cell_volume 2969.774845
_symmetry_space_group_name_H-M "C 2/C"
_symmetry_group_IT_number 15
_symmetry_cell_setting 'monoclinic'
loop_
_space_group_symop_operation_xyz
x,y,z
-x,y,1/2-z
-x,-y,-z
x,-y,1/2+z
1/2+x,1/2+y,z
1/2-x,1/2+y,1/2-z
1/2-x,1/2-y,-z
1/2+x,1/2-y,1/2+z
loop_
_atom_site_type_symbol
_atom_site_label
_atom_site_fract_x
_atom_site_fract_y
_atom_site_fract_z
Si Si1 0.141134 0.816035 0.656600
Si Si2 0.648969 0.059695 0.215492
Si Si3 0.334079 0.249474 0.598676
Si Si4 0.409627 0.756409 0.958907
Si Si5 0.788360 0.161362 0.672808
Si Si6 0.975672 0.693872 0.642106
Si Si7 0.329300 0.988038 0.089324
Si Si8 0.453950 0.961321 0.635025
O O1 0.252725 0.737005 0.639848
O O2 0.223116 0.925986 0.606179
O O3 0.000000 0.841702 0.750000
O O4 0.094633 0.764167 0.622828
O O5 0.500000 0.016595 0.250000
O O6 0.705527 0.164935 0.163526
O O7 0.611467 0.094039 0.288037
O O8 0.768915 0.963050 0.165042
O O9 0.415306 0.286133 0.513958
O O10 0.450173 0.242431 0.596945
O O11 0.266551 0.133091 0.610858
O O12 0.542279 0.685621 0.878704
O O13 0.439203 0.882738 0.940283
O O14 0.250000 0.750000 0.000000
O O15 0.681745 0.189284 0.763567
O O16 0.039872 0.572559 0.611995
O O17 0.317397 0.012522 0.154141
O O18 0.500000 0.000000 0.000000
#
# Coordination Sequence:
#
# PCOD8139257 Si02
#       8
#     8   8   8   8   8   8   8   8
#     4  10  20  38  69  98 124 167 227 271 330 400
#     4  11  23  41  65  95 128 173 224 280 332 396
#     4  11  24  40  62  96 133 166 220 270 331 405
#     4  12  24  41  64  91 130 183 212 262 339 409
#     4  10  20  42  66  91 129 166 220 275 326 393
#     4   9  21  39  68 100 120 167 220 282 332 389
#     4  11  21  42  66  91 135 179 210 275 342 402
#     4  10  20  41  69  86 130 173 211 271 341 387
#
# _framework density 21.550453999999998
#
# number of rings (size 3 to 8) (size 9 to 14) (size 15 to 20)
#    0.000    1.500    2.500    3.375    1.750    1.000 
#    2.250    8.125    0.000    0.000    0.000    0.000 
#    0.000    0.000    0.000    0.000    0.000    0.000 
#
# Total GULP energy -396629.227494 kJ/mol
# GULP energy per Si atom -12394.663359 kJ/mol
# Density = 2.150140 g / cm^3
# Si number density = 21.550454 Si / 1000 Ang^3
#
#
#
# Elastic Constant Matrix: (Units=GPa)
#
#
# Indices 1 2 3 4 5 6 
#
# 1 100.3933 49.4293 51.9860 0.0000 -2.8109 0.0000
# 2 49.4293 132.4192 34.7931 0.0000 -18.1709 0.0000
# 3 51.9860 34.7931 77.8450 0.0000 0.7434 0.0000
# 4 0.0000 0.0000 0.0000 35.6946 0.0000 -0.7570
# 5 -2.8109 -18.1709 0.7434 0.0000 40.2731 0.0000
# 6 0.0000 0.0000 0.0000 -0.7570 0.0000 37.7301
#
#
#
# Elastic Compliance Matrix: (Units=1/GPa)
#
#
# Indices 1 2 3 4 5 6 
#
# 1 0.016726 -0.003808 -0.009464 0.000000 -0.000376 0.000000
# 2 -0.003808 0.010095 -0.002010 0.000000 0.004326 0.000000
# 3 -0.009464 -0.002010 0.020083 0.000000 -0.001938 0.000000
# 4 0.000000 0.000000 0.000000 0.028027 0.000000 0.000562
# 5 -0.000376 0.004326 -0.001938 0.000000 0.026792 0.000000
# 6 0.000000 0.000000 0.000000 0.000562 0.000000 0.026515
#
#
# Mechanical properties :
#
#
# Convention : Reuss Voigt Hill
#
# Bulk Modulus (GPa) = 61.20233 64.78603 62.99418
# Shear Modulus (GPa) = 30.44120 34.36949 32.40534
#
# Velocity S-wave (km/s) = 3.76247 3.99788 3.88196
# Velocity P-wave (km/s) = 6.88013 7.17206 7.02761
#
# Compressibility (1/GPa) = 0.01633925
#
# Stress axis : x y z
#
# Youngs Moduli (GPa) = 59.78642 99.05725 49.79261
#
# Poissons Ratio (x) = 0.37725 0.47125
# Poissons Ratio (y) = 0.22769 0.10009
# Poissons Ratio (z) = 0.56583 0.19911
#
# Static dielectric constant tensor:
#      x y z
#    x 3.919230 0.000000 0.395570 
#    y 0.000000 4.344030 0.000000 
#    z 0.395570 0.000000 4.008950 
# 
# 
# High freq. dielectric constant tensor:
#      x y z
#    x 1.837350 0.000000 0.023810 
#    y 0.000000 1.853320 0.000000 
#    z 0.023810 0.000000 1.833640 
# 
# From -- ./inp_files/296112.got.cif
#   From: 2010.06.25/outbox.cif.g09.slc.cpg/sg15_149_cif.got.tgz:296112.got - 2010.06.28 07:06:18.
