data_PCOD8139848
_publ_section_title
;
Structure prediction by ZEFSAII (Michael W. Deem and Ramdas Pophale) SiO2 
 PCOD8139848
Probable space group: C 2/C
;
_chemical_formula_sum "Si O2"
_cell_formula_units_Z 44
_cell_length_a 27.822750
_cell_length_b 11.738381
_cell_length_c 8.449515
_cell_angle_alpha 90.000000
_cell_angle_beta 61.947030
_cell_angle_gamma 90.000000
_cell_volume 2435.349189
_symmetry_space_group_name_H-M "C 2/C"
_symmetry_group_IT_number 15
_symmetry_cell_setting 'monoclinic'
loop_
_space_group_symop_operation_xyz
x,y,z
-x,y,1/2-z
-x,-y,-z
x,-y,1/2+z
1/2+x,1/2+y,z
1/2-x,1/2+y,1/2-z
1/2-x,1/2-y,-z
1/2+x,1/2-y,1/2+z
loop_
_atom_site_type_symbol
_atom_site_label
_atom_site_fract_x
_atom_site_fract_y
_atom_site_fract_z
Si Si1 0.820919 0.310872 0.782143
Si Si2 0.202365 0.130678 0.432775
Si Si3 0.894442 0.846873 0.003821
Si Si4 0.500000 0.960058 0.750000
Si Si5 0.063810 0.372523 0.939420
Si Si6 0.140385 0.955623 0.741025
O O1 0.767619 0.379363 0.810686
O O2 0.835145 0.209914 0.634434
O O3 0.873088 0.396153 0.708247
O O4 0.812188 0.252540 0.967423
O O5 0.173893 0.125836 0.306378
O O6 0.182969 0.024552 0.567445
O O7 0.941362 0.756000 0.980106
O O8 0.900282 0.961013 0.100348
O O9 0.897121 0.876772 0.813831
O O10 0.546563 0.038102 0.599959
O O11 0.526133 0.879958 0.842963
#
# Coordination Sequence:
#
# PCOD8139848 Si02
#       6
#     8   8   8   4   8   8
#     4   8  17  32  48  74 111 137 174 218 254 306
#     4   9  16  29  48  78 111 145 172 204 252 322
#     4   8  17  33  50  76 107 135 177 209 266 309
#     4  10  20  40  62  70 100 138 188 220 290 286
#     4   9  20  38  54  79 100 138 175 233 259 321
#     4   9  16  29  52  78 106 151 163 203 259 328
#
# _framework density 18.067222999999998
#
# number of rings (size 3 to 8) (size 9 to 14) (size 15 to 20)
#    1.091    2.182    0.000    0.000    0.000    2.182 
#    6.545    0.000    0.000    3.273    0.000    0.000 
#    0.000    0.000    0.000    0.000    0.000    0.000 
#
# Total GULP energy -272594.908759 kJ/mol
# GULP energy per Si atom -12390.677671 kJ/mol
# Density = 1.802610 g / cm^3
# Si number density = 18.067223 Si / 1000 Ang^3
#
#
#
# Elastic Constant Matrix: (Units=GPa)
#
#
# Indices 1 2 3 4 5 6 
#
# 1 99.1093 63.3491 54.9433 0.0000 16.1426 0.0000
# 2 63.3491 78.9592 37.3327 0.0000 20.6510 0.0000
# 3 54.9433 37.3327 82.5605 0.0000 24.4604 0.0000
# 4 0.0000 0.0000 0.0000 15.0516 0.0000 3.8366
# 5 16.1426 20.6510 24.4604 0.0000 39.5363 0.0000
# 6 0.0000 0.0000 0.0000 3.8366 0.0000 37.2300
#
#
#
# Elastic Compliance Matrix: (Units=1/GPa)
#
#
# Indices 1 2 3 4 5 6 
#
# 1 0.026695 -0.017372 -0.011472 0.000000 0.005272 0.000000
# 2 -0.017372 0.028189 0.001317 0.000000 -0.008445 0.000000
# 3 -0.011472 0.001317 0.022000 0.000000 -0.009615 0.000000
# 4 0.000000 0.000000 0.000000 0.068230 0.000000 -0.007031
# 5 0.005272 -0.008445 -0.009615 0.000000 0.033500 0.000000
# 6 0.000000 0.000000 0.000000 -0.007031 0.000000 0.027585
#
#
# Mechanical properties :
#
#
# Convention : Reuss Voigt Hill
#
# Bulk Modulus (GPa) = 45.81055 63.54212 54.67634
# Shear Modulus (GPa) = 18.61994 25.36384 21.99189
#
# Velocity S-wave (km/s) = 3.21377 3.75088 3.49266
# Velocity P-wave (km/s) = 6.25953 7.34881 6.82593
#
# Compressibility (1/GPa) = 0.02182903
#
# Stress axis : x y z
#
# Youngs Moduli (GPa) = 37.46068 35.47518 45.45492
#
# Poissons Ratio (x) = 0.61628 0.52144
# Poissons Ratio (y) = 0.65077 -0.05984
# Poissons Ratio (z) = 0.42973 -0.04670
#
# Static dielectric constant tensor:
#      x y z
#    x 3.080170 0.000000 0.059510 
#    y 0.000000 3.164510 0.000000 
#    z 0.059510 0.000000 3.365020 
# 
# 
# High freq. dielectric constant tensor:
#      x y z
#    x 1.674950 0.000000 0.008610 
#    y 0.000000 1.682590 0.000000 
#    z 0.008610 0.000000 1.700560 
# 
# From -- ./inp_files/68733.got.cif
#   From: 2010.06.25/outbox.cif.g09.slc.cpg/sg15_35_cif.got.tgz:68733.got - 2010.06.28 07:06:18.
