data_PCOD8139413
_publ_section_title
;
Structure prediction by ZEFSAII (Michael W. Deem and Ramdas Pophale) SiO2 
 PCOD8139413
Probable space group: C 2/C
;
_chemical_formula_sum "Si O2"
_cell_formula_units_Z 64
_cell_length_a 11.458170
_cell_length_b 31.600789
_cell_length_c 18.009093
_cell_angle_alpha 90.000000
_cell_angle_beta 29.171608
_cell_angle_gamma 90.000000
_cell_volume 3178.444580
_symmetry_space_group_name_H-M "C 2/C"
_symmetry_group_IT_number 15
_symmetry_cell_setting 'monoclinic'
loop_
_space_group_symop_operation_xyz
x,y,z
-x,y,1/2-z
-x,-y,-z
x,-y,1/2+z
1/2+x,1/2+y,z
1/2-x,1/2+y,1/2-z
1/2-x,1/2-y,-z
1/2+x,1/2-y,1/2+z
loop_
_atom_site_type_symbol
_atom_site_label
_atom_site_fract_x
_atom_site_fract_y
_atom_site_fract_z
Si Si1 0.078401 0.122136 0.927984
Si Si2 0.969727 0.987583 0.181235
Si Si3 0.381898 0.878770 0.626508
Si Si4 0.151482 0.428584 0.599025
Si Si5 0.621544 0.288765 0.974287
Si Si6 0.576194 0.917426 0.375630
Si Si7 0.545966 0.210520 0.347940
Si Si8 0.931577 0.922791 0.910843
O O1 0.305792 0.113030 0.750296
O O2 0.055120 0.172637 0.947568
O O3 0.124721 0.099090 0.979871
O O4 0.834199 0.106090 0.027890
O O5 0.944205 0.030948 0.148433
O O6 0.000000 0.999384 0.250000
O O7 0.734033 0.959501 0.299078
O O8 0.210891 0.964483 0.021942
O O9 0.462366 0.903961 0.654336
O O10 0.559053 0.890403 0.460818
O O11 0.379764 0.829157 0.643384
O O12 0.107917 0.893172 0.764287
O O13 0.000000 0.449653 0.750000
O O14 0.467459 0.248719 0.086016
O O15 0.796522 0.300267 0.945628
O O16 0.761648 0.277074 0.821404
O O17 0.313331 0.931053 0.496880
#
# Coordination Sequence:
#
# PCOD8139413 Si02
#       8
#     8   8   8   8   8   8   8   8
#     4  11  23  42  66  92 138 172 214 266 335 392
#     4  11  25  43  66  97 130 167 224 292 331 374
#     4  12  22  42  67  95 132 179 213 273 335 395
#     4  11  21  39  67  94 126 176 216 266 331 397
#     4  10  20  39  62 105 130 168 206 276 333 388
#     4  11  27  42  65  99 127 173 231 272 326 398
#     4  10  21  36  67  98 138 160 215 269 334 395
#     4  12  26  43  67  89 132 184 217 271 329 399
#
# _framework density 20.135635000000001
#
# number of rings (size 3 to 8) (size 9 to 14) (size 15 to 20)
#    0.000    1.000    5.000    1.500    3.500    4.000 
#    0.000    0.000    0.000    4.500    0.000    0.000 
#    0.000    0.000    0.000    0.000    0.000    0.000 
#
# Total GULP energy -396895.468316 kJ/mol
# GULP energy per Si atom -12402.983385 kJ/mol
# Density = 2.008981 g / cm^3
# Si number density = 20.135635 Si / 1000 Ang^3
#
#
#
# Elastic Constant Matrix: (Units=GPa)
#
#
# Indices 1 2 3 4 5 6 
#
# 1 71.3935 46.3657 35.1497 -0.0002 5.7389 0.0000
# 2 46.3657 159.0845 63.2159 -0.0001 10.2264 0.0001
# 3 35.1497 63.2159 132.5625 -0.0012 13.7191 0.0004
# 4 -0.0002 -0.0001 -0.0012 27.2994 0.0004 8.8988
# 5 5.7389 10.2264 13.7191 0.0004 38.7304 -0.0001
# 6 0.0000 0.0001 0.0004 8.8988 -0.0001 27.7098
#
#
#
# Elastic Compliance Matrix: (Units=1/GPa)
#
#
# Indices 1 2 3 4 5 6 
#
# 1 0.018105 -0.004139 -0.002763 0.000000 -0.000611 0.000000
# 2 -0.004139 0.008724 -0.002998 0.000000 -0.000628 0.000000
# 3 -0.002763 -0.002998 0.009946 0.000001 -0.002322 0.000000
# 4 0.000000 0.000000 0.000001 0.040914 -0.000001 -0.013139
# 5 -0.000611 -0.000628 -0.002322 -0.000001 0.026898 0.000000
# 6 0.000000 0.000000 0.000000 -0.013139 0.000000 0.040308
#
#
# Mechanical properties :
#
#
# Convention : Reuss Voigt Hill
#
# Bulk Modulus (GPa) = 58.91323 72.50033 65.70678
# Shear Modulus (GPa) = 29.35067 33.30188 31.32628
#
# Velocity S-wave (km/s) = 3.82206 4.07120 3.94860
# Velocity P-wave (km/s) = 6.98564 7.62783 7.31379
#
# Compressibility (1/GPa) = 0.01697412
#
# Stress axis : x y z
#
# Youngs Moduli (GPa) = 55.23413 114.62687 100.54110
#
# Poissons Ratio (x) = 0.47448 0.27784
# Poissons Ratio (y) = 0.22863 0.30139
# Poissons Ratio (z) = 0.15263 0.34361
#
# Static dielectric constant tensor:
#      x y z
#    x 3.531910 0.000000 0.122780 
#    y 0.000000 3.623620 0.000000 
#    z 0.122780 0.000000 3.880010 
# 
# 
# High freq. dielectric constant tensor:
#      x y z
#    x 1.772920 0.000000 0.011800 
#    y 0.000000 1.781420 0.000000 
#    z 0.011800 0.000000 1.803710 
# 
# From -- ./inp_files/201469.got.cif
#   From: 2010.06.25/outbox.cif.g09.slc.cpg/sg15_101_cif.got.tgz:201469.got - 2010.06.28 07:06:18.
