data_PCOD8139886
_publ_section_title
;
Structure prediction by ZEFSAII (Michael W. Deem and Ramdas Pophale) SiO2 
 PCOD8139886
Probable space group: C 2/C
;
_chemical_formula_sum "Si O2"
_cell_formula_units_Z 36
_cell_length_a 8.609271
_cell_length_b 13.362539
_cell_length_c 17.394779
_cell_angle_alpha 90.000000
_cell_angle_beta 135.201532
_cell_angle_gamma 90.000000
_cell_volume 1410.023368
_symmetry_space_group_name_H-M "C 2/C"
_symmetry_group_IT_number 15
_symmetry_cell_setting 'monoclinic'
loop_
_space_group_symop_operation_xyz
x,y,z
-x,y,1/2-z
-x,-y,-z
x,-y,1/2+z
1/2+x,1/2+y,z
1/2-x,1/2+y,1/2-z
1/2-x,1/2-y,-z
1/2+x,1/2-y,1/2+z
loop_
_atom_site_type_symbol
_atom_site_label
_atom_site_fract_x
_atom_site_fract_y
_atom_site_fract_z
Si Si1 0.237839 0.619244 0.010954
Si Si2 0.838890 0.602503 0.031490
Si Si3 0.902152 0.744241 0.819288
Si Si4 0.500000 0.860801 0.750000
Si Si5 0.411423 0.711493 0.918807
O O1 0.219643 0.503703 0.027904
O O2 0.387300 0.647932 0.988305
O O3 0.990981 0.658566 0.907961
O O4 0.381106 0.683702 0.124764
O O5 0.916639 0.576583 0.146663
O O6 0.031449 0.666262 0.054897
O O7 0.617681 0.666691 0.945715
O O8 0.705105 0.794813 0.796002
O O9 0.809363 0.695808 0.708621
#
# Coordination Sequence:
#
# PCOD8139886 Si02
#       5
#     8   8   8   4   8
#     4  11  22  41  65  94 125 171 215 268 315 394
#     4  10  22  37  67  96 124 163 225 254 331 383
#     4  10  23  37  62  92 130 165 214 263 329 374
#     4  10  20  40  62  92 126 166 204 270 316 394
#     4  10  21  39  63  95 131 163 208 280 313 382
#
# _framework density 25.531492
#
# number of rings (size 3 to 8) (size 9 to 14) (size 15 to 20)
#    0.000    1.778    2.222    1.333    3.111    1.778 
#    0.000    4.444    9.778    0.000    0.000    0.000 
#    0.000    0.000    0.000    0.000    0.000    0.000 
#
# Total GULP energy -223024.446458 kJ/mol
# GULP energy per Si atom -12390.247025 kJ/mol
# Density = 2.547338 g / cm^3
# Si number density = 25.531492 Si / 1000 Ang^3
#
#
#
# Elastic Constant Matrix: (Units=GPa)
#
#
# Indices 1 2 3 4 5 6 
#
# 1 57.1200 -4.1304 23.2434 0.0000 12.6833 0.0000
# 2 -4.1304 145.1098 30.9250 0.0000 14.5779 0.0000
# 3 23.2434 30.9250 177.3455 0.0000 14.9546 0.0000
# 4 0.0000 0.0000 0.0000 28.5005 0.0000 -1.2423
# 5 12.6833 14.5779 14.9546 0.0000 48.3832 0.0000
# 6 0.0000 0.0000 0.0000 -1.2423 0.0000 25.9746
#
#
#
# Elastic Compliance Matrix: (Units=1/GPa)
#
#
# Indices 1 2 3 4 5 6 
#
# 1 0.019699 0.001572 -0.002444 0.000000 -0.004882 0.000000
# 2 0.001572 0.007442 -0.001314 0.000000 -0.002248 0.000000
# 3 -0.002444 -0.001314 0.006264 0.000000 -0.000899 0.000000
# 4 0.000000 0.000000 0.000000 0.035160 0.000000 0.001682
# 5 -0.004882 -0.002248 -0.000899 0.000000 0.022904 0.000000
# 6 0.000000 0.000000 0.000000 0.001682 0.000000 0.038580
#
#
# Mechanical properties :
#
#
# Convention : Reuss Voigt Hill
#
# Bulk Modulus (GPa) = 34.44384 53.29457 43.86921
# Shear Modulus (GPa) = 34.69827 42.54082 38.61955
#
# Velocity S-wave (km/s) = 3.69051 4.08635 3.89347
# Velocity P-wave (km/s) = 5.62849 6.57143 6.11815
#
# Compressibility (1/GPa) = 0.02903276
#
# Stress axis : x y z
#
# Youngs Moduli (GPa) = 50.76292 134.37231 159.64050
#
# Poissons Ratio (x) = -0.21125 0.39021
# Poissons Ratio (y) = -0.07981 0.20980
# Poissons Ratio (z) = 0.12408 0.17659
#
# Static dielectric constant tensor:
#      x y z
#    x 4.997960 0.000000 -0.051020 
#    y 0.000000 4.245410 0.000000 
#    z -0.051020 0.000000 5.574250 
# 
# 
# High freq. dielectric constant tensor:
#      x y z
#    x 2.063920 0.000000 0.015380 
#    y 0.000000 1.979040 0.000000 
#    z 0.015380 0.000000 2.040330 
# 
# From -- ./inp_files/84497.got.cif
#   From: 2010.06.25/outbox.cif.g09.slc.cpg/sg15_43_cif.got.tgz:84497.got - 2010.06.28 07:06:18.
