data_PCOD8139567
_publ_section_title
;
Structure prediction by ZEFSAII (Michael W. Deem and Ramdas Pophale) SiO2 
 PCOD8139567
Probable space group: C 2/C
;
_chemical_formula_sum "Si O2"
_cell_formula_units_Z 48
_cell_length_a 7.843665
_cell_length_b 17.642392
_cell_length_c 16.490553
_cell_angle_alpha 90.000000
_cell_angle_beta 124.032292
_cell_angle_gamma 90.000000
_cell_volume 1891.127188
_symmetry_space_group_name_H-M "C 2/C"
_symmetry_group_IT_number 15
_symmetry_cell_setting 'monoclinic'
loop_
_space_group_symop_operation_xyz
x,y,z
-x,y,1/2-z
-x,-y,-z
x,-y,1/2+z
1/2+x,1/2+y,z
1/2-x,1/2+y,1/2-z
1/2-x,1/2-y,-z
1/2+x,1/2-y,1/2+z
loop_
_atom_site_type_symbol
_atom_site_label
_atom_site_fract_x
_atom_site_fract_y
_atom_site_fract_z
Si Si1 0.822796 0.523341 0.641309
Si Si2 0.576354 0.440903 0.361556
Si Si3 0.906978 0.816428 0.810098
Si Si4 0.681002 0.280035 0.361651
Si Si5 0.274852 0.914737 0.960868
Si Si6 0.490165 0.132802 0.124213
O O1 0.601205 0.536605 0.622420
O O2 0.843655 0.582159 0.572384
O O3 0.000000 0.547208 0.750000
O O4 0.849672 0.437106 0.616619
O O5 0.500000 0.446884 0.250000
O O6 0.684332 0.359895 0.410785
O O7 0.760125 0.500485 0.420554
O O8 0.881125 0.742308 0.860804
O O9 0.688585 0.859907 0.737289
O O10 0.000000 0.787777 0.750000
O O11 0.052719 0.875582 0.893880
O O12 0.500000 0.290785 0.250000
O O13 0.639199 0.210371 0.411123
O O14 0.441879 0.871754 0.951248
#
# Coordination Sequence:
#
# PCOD8139567 Si02
#       6
#     8   8   8   8   8   8
#     4  12  24  41  64  89 123 170 216 264 317 372
#     4  11  23  40  63  98 131 160 205 266 318 366
#     4   9  18  37  67  96 125 169 216 253 307 387
#     4   9  19  38  62  94 134 170 199 247 318 383
#     4  11  22  39  64  95 122 162 219 266 306 372
#     4  10  20  39  64  90 124 169 209 248 309 388
#
# _framework density 25.381688
#
# number of rings (size 3 to 8) (size 9 to 14) (size 15 to 20)
#    0.000    1.667    0.000    7.000    0.000    0.000 
#    0.000   23.333    0.000    4.000    0.000    3.500 
#    0.000    0.000    0.000    0.000    0.000    0.000 
#
# Total GULP energy -297619.787355 kJ/mol
# GULP energy per Si atom -12400.824473 kJ/mol
# Density = 2.532392 g / cm^3
# Si number density = 25.381688 Si / 1000 Ang^3
#
#
#
# Elastic Constant Matrix: (Units=GPa)
#
#
# Indices 1 2 3 4 5 6 
#
# 1 131.2125 78.3417 22.7449 0.0000 -25.5293 0.0000
# 2 78.3417 144.3937 34.4575 0.0000 -12.3379 0.0000
# 3 22.7449 34.4575 80.9403 0.0000 -18.5026 0.0000
# 4 0.0000 0.0000 0.0000 13.6735 0.0000 -7.0397
# 5 -25.5293 -12.3379 -18.5026 0.0000 36.6329 0.0000
# 6 0.0000 0.0000 0.0000 -7.0397 0.0000 23.6672
#
#
#
# Elastic Compliance Matrix: (Units=1/GPa)
#
#
# Indices 1 2 3 4 5 6 
#
# 1 0.012744 -0.006501 0.000809 0.000000 0.007100 0.000000
# 2 -0.006501 0.011061 -0.003466 0.000000 -0.002556 0.000000
# 3 0.000809 -0.003466 0.015223 0.000000 0.007085 0.000000
# 4 0.000000 0.000000 0.000000 0.086359 0.000000 0.025687
# 5 0.007100 -0.002556 0.007085 0.000000 0.034964 0.000000
# 6 0.000000 0.000000 0.000000 0.025687 0.000000 0.049893
#
#
# Mechanical properties :
#
#
# Convention : Reuss Voigt Hill
#
# Bulk Modulus (GPa) = 48.28007 69.73719 59.00863
# Shear Modulus (GPa) = 21.23474 29.52822 25.38148
#
# Velocity S-wave (km/s) = 2.89557 3.41452 3.16570
# Velocity P-wave (km/s) = 5.49927 6.56356 6.05484
#
# Compressibility (1/GPa) = 0.02071248
#
# Stress axis : x y z
#
# Youngs Moduli (GPa) = 78.47038 90.40526 65.69134
#
# Poissons Ratio (x) = 0.58769 -0.05317
# Poissons Ratio (y) = 0.51011 0.22772
# Poissons Ratio (z) = -0.06352 0.31338
#
# Static dielectric constant tensor:
#      x y z
#    x 4.662550 0.000000 -0.143910 
#    y 0.000000 4.880210 0.000000 
#    z -0.143910 0.000000 4.607900 
# 
# 
# High freq. dielectric constant tensor:
#      x y z
#    x 2.021520 0.000000 -0.007070 
#    y 0.000000 2.006290 0.000000 
#    z -0.007070 0.000000 2.022700 
# 
# From -- ./inp_files/190646.got.cif
#   From: 2010.06.25/outbox.cif.g09.slc.cpg/sg15_96_cif.got.tgz:190646.got - 2010.06.28 07:06:18.
