data_PCOD8139337
_publ_section_title
;
Structure prediction by ZEFSAII (Michael W. Deem and Ramdas Pophale) SiO2 
 PCOD8139337
Probable space group: C 2/C
;
_chemical_formula_sum "Si O2"
_cell_formula_units_Z 60
_cell_length_a 10.716818
_cell_length_b 30.952376
_cell_length_c 9.716442
_cell_angle_alpha 90.000000
_cell_angle_beta 77.689855
_cell_angle_gamma 90.000000
_cell_volume 3148.945605
_symmetry_space_group_name_H-M "C 2/C"
_symmetry_group_IT_number 15
_symmetry_cell_setting 'monoclinic'
loop_
_space_group_symop_operation_xyz
x,y,z
-x,y,1/2-z
-x,-y,-z
x,-y,1/2+z
1/2+x,1/2+y,z
1/2-x,1/2+y,1/2-z
1/2-x,1/2-y,-z
1/2+x,1/2-y,1/2+z
loop_
_atom_site_type_symbol
_atom_site_label
_atom_site_fract_x
_atom_site_fract_y
_atom_site_fract_z
Si Si1 0.851638 0.282705 0.800336
Si Si2 0.500000 0.363845 0.250000
Si Si3 0.227385 0.193102 0.793304
Si Si4 0.855978 0.089705 0.295409
Si Si5 0.108541 0.656897 0.961988
Si Si6 0.197827 0.088035 0.509710
Si Si7 0.809766 0.662604 0.054981
Si Si8 0.089855 0.003466 0.609627
O O1 0.779785 0.238019 0.788037
O O2 0.791338 0.314927 0.704794
O O3 0.000000 0.273547 0.750000
O O4 0.832562 0.305265 0.952958
O O5 0.402072 0.333609 0.191618
O O6 0.425523 0.390919 0.385088
O O7 0.348902 0.168476 0.701557
O O8 0.259109 0.195343 0.948526
O O9 0.804074 0.090100 0.153863
O O10 0.773471 0.119066 0.418905
O O11 0.000000 0.107144 0.250000
O O12 0.849266 0.042149 0.363107
O O13 0.170024 0.610697 0.982050
O O14 0.957978 0.651184 0.002300
O O15 0.202689 0.037857 0.554596
O O16 0.000000 0.021979 0.750000
O O17 0.000000 0.000000 0.500000
#
# Coordination Sequence:
#
# PCOD8139337 Si02
#       8
#     8   4   8   8   8   8   8   8
#     4  10  20  39  60  86 121 164 205 250 305 356
#     4  10  22  34  62  92 126 158 198 258 302 366
#     4  11  21  38  60  89 122 155 212 257 300 347
#     4  11  22  38  62  91 121 151 204 251 308 364
#     4  10  23  39  63  83 123 171 203 241 308 367
#     4  11  20  38  60  91 121 161 198 243 311 365
#     4  11  23  40  61  89 122 163 205 251 299 367
#     4  11  21  35  60  91 124 150 195 257 308 356
#
# _framework density 19.053996000000001
#
# number of rings (size 3 to 8) (size 9 to 14) (size 15 to 20)
#    0.000    1.333    5.333    2.000    0.000    0.000 
#    0.000    2.000    0.000    0.000    0.000    0.000 
#    0.000    0.000    0.000    0.000    0.000    0.000 
#
# Total GULP energy -371828.822260 kJ/mol
# GULP energy per Si atom -12394.294075 kJ/mol
# Density = 1.901063 g / cm^3
# Si number density = 19.053996 Si / 1000 Ang^3
#
#
#
# Elastic Constant Matrix: (Units=GPa)
#
#
# Indices 1 2 3 4 5 6 
#
# 1 84.4561 49.4122 26.6722 0.0000 -3.0939 0.0000
# 2 49.4122 107.0313 19.3831 0.0000 -3.8481 0.0000
# 3 26.6722 19.3831 75.0072 0.0000 6.9568 0.0000
# 4 0.0000 0.0000 0.0000 27.1190 0.0000 -5.6545
# 5 -3.0939 -3.8481 6.9568 0.0000 25.1276 0.0000
# 6 0.0000 0.0000 0.0000 -5.6545 0.0000 19.6664
#
#
#
# Elastic Compliance Matrix: (Units=1/GPa)
#
#
# Indices 1 2 3 4 5 6 
#
# 1 0.017598 -0.007205 -0.004613 0.000000 0.002341 0.000000
# 2 -0.007205 0.012878 -0.000889 0.000000 0.001331 0.000000
# 3 -0.004613 -0.000889 0.015670 0.000000 -0.005043 0.000000
# 4 0.000000 0.000000 0.000000 0.039226 0.000000 0.011278
# 5 0.002341 0.001331 -0.005043 0.000000 0.041685 0.000000
# 6 0.000000 0.000000 0.000000 0.011278 0.000000 0.054091
#
#
# Mechanical properties :
#
#
# Convention : Reuss Voigt Hill
#
# Bulk Modulus (GPa) = 48.23521 50.82550 49.53035
# Shear Modulus (GPa) = 23.42204 25.78441 24.60322
#
# Velocity S-wave (km/s) = 3.50986 3.68262 3.59728
# Velocity P-wave (km/s) = 6.46494 6.69437 6.58066
#
# Compressibility (1/GPa) = 0.02073175
#
# Stress axis : x y z
#
# Youngs Moduli (GPa) = 56.82323 77.65043 63.81632
#
# Poissons Ratio (x) = 0.55947 0.29439
# Poissons Ratio (y) = 0.40941 0.05676
# Poissons Ratio (z) = 0.26213 0.06906
#
# Static dielectric constant tensor:
#      x y z
#    x 3.324480 0.000000 0.086630 
#    y 0.000000 3.800030 0.000000 
#    z 0.086630 0.000000 3.699640 
# 
# 
# High freq. dielectric constant tensor:
#      x y z
#    x 1.724710 0.000000 0.008210 
#    y 0.000000 1.741230 0.000000 
#    z 0.008210 0.000000 1.757110 
# 
# From -- ./inp_files/35644.got.cif
#   From: 2010.06.25/outbox.cif.g09.slc.cpg/sg15_18_cif.got.tgz:35644.got - 2010.06.28 07:06:18.
