data_PCOD8139876
_publ_section_title
;
Structure prediction by ZEFSAII (Michael W. Deem and Ramdas Pophale) SiO2 
 PCOD8139876
Probable space group: C 2/C
;
_chemical_formula_sum "Si O2"
_cell_formula_units_Z 56
_cell_length_a 15.924277
_cell_length_b 15.847407
_cell_length_c 12.139261
_cell_angle_alpha 90.000000
_cell_angle_beta 116.741980
_cell_angle_gamma 90.000000
_cell_volume 2735.785467
_symmetry_space_group_name_H-M "C 2/C"
_symmetry_group_IT_number 15
_symmetry_cell_setting 'monoclinic'
loop_
_space_group_symop_operation_xyz
x,y,z
-x,y,1/2-z
-x,-y,-z
x,-y,1/2+z
1/2+x,1/2+y,z
1/2-x,1/2+y,1/2-z
1/2-x,1/2-y,-z
1/2+x,1/2-y,1/2+z
loop_
_atom_site_type_symbol
_atom_site_label
_atom_site_fract_x
_atom_site_fract_y
_atom_site_fract_z
Si Si1 0.985632 0.331914 0.524141
Si Si2 0.257778 0.371648 0.425234
Si Si3 0.116960 0.831189 0.634717
Si Si4 0.500000 0.429522 0.750000
Si Si5 0.404452 0.488584 0.008632
Si Si6 0.574976 0.926939 0.211821
Si Si7 0.200968 0.310393 0.615517
Si Si8 0.000000 0.410470 0.750000
O O1 0.935953 0.249514 0.445817
O O2 0.956746 0.411243 0.431814
O O3 0.098172 0.327192 0.602684
O O4 0.950668 0.352274 0.627789
O O5 0.328125 0.443596 0.426241
O O6 0.172017 0.380056 0.290789
O O7 0.225538 0.378975 0.534381
O O8 0.307312 0.281946 0.442368
O O9 0.052061 0.870018 0.692763
O O10 0.132694 0.895146 0.541286
O O11 0.220119 0.810755 0.742729
O O12 0.424741 0.492742 0.649247
O O13 0.500000 0.500000 0.000000
O O14 0.500000 0.882787 0.250000
O O15 0.578291 0.027961 0.238400
#
# Coordination Sequence:
#
# PCOD8139876 Si02
#       8
#     8   8   8   4   8   8   8   4
#     4  12  24  45  67  98 134 172 227 273 340 399
#     4  11  21  39  66 100 132 165 227 285 331 391
#     4  11  24  38  66  95 132 175 220 278 330 395
#     4  10  20  40  62  90 132 172 224 274 318 384
#     4  10  22  39  60  94 131 175 212 268 337 393
#     4  10  22  40  68  98 126 173 218 277 332 394
#     4  11  22  37  68 102 127 172 222 287 334 385
#     4  10  26  44  66  90 136 180 208 272 346 408
#
# _framework density 20.469442999999998
#
# number of rings (size 3 to 8) (size 9 to 14) (size 15 to 20)
#    0.429    0.857    4.286    2.143    5.000    0.571 
#    0.000    0.714    0.000    0.000    0.000    0.000 
#    0.000    0.000    0.000    0.000    0.000    0.000 
#
# Total GULP energy -347031.325099 kJ/mol
# GULP energy per Si atom -12393.975896 kJ/mol
# Density = 2.042285 g / cm^3
# Si number density = 20.469443 Si / 1000 Ang^3
#
#
#
# Elastic Constant Matrix: (Units=GPa)
#
#
# Indices 1 2 3 4 5 6 
#
# 1 76.9628 44.1713 50.9225 0.0000 19.8247 0.0000
# 2 44.1713 110.1298 64.6160 0.0000 -5.1352 0.0000
# 3 50.9225 64.6160 164.1550 0.0000 3.1831 0.0000
# 4 0.0000 0.0000 0.0000 42.1782 0.0000 -5.5496
# 5 19.8247 -5.1352 3.1831 0.0000 35.7545 0.0000
# 6 0.0000 0.0000 0.0000 -5.5496 0.0000 25.7812
#
#
#
# Elastic Compliance Matrix: (Units=1/GPa)
#
#
# Indices 1 2 3 4 5 6 
#
# 1 0.023711 -0.007804 -0.004014 0.000000 -0.013910 0.000000
# 2 -0.007804 0.014537 -0.003432 0.000000 0.006720 0.000000
# 3 -0.004014 -0.003432 0.008669 0.000000 0.000961 0.000000
# 4 0.000000 0.000000 0.000000 0.024400 0.000000 0.005252
# 5 -0.013910 0.006720 0.000961 0.000000 0.036561 0.000000
# 6 0.000000 0.000000 0.000000 0.005252 0.000000 0.039919
#
#
# Mechanical properties :
#
#
# Convention : Reuss Voigt Hill
#
# Bulk Modulus (GPa) = 60.90668 74.51858 67.71263
# Shear Modulus (GPa) = 27.20822 33.51196 30.36009
#
# Velocity S-wave (km/s) = 3.64979 4.05059 3.85540
# Velocity P-wave (km/s) = 6.89789 7.63938 7.27808
#
# Compressibility (1/GPa) = 0.01641856
#
# Stress axis : x y z
#
# Youngs Moduli (GPa) = 42.17451 68.79032 115.35171
#
# Poissons Ratio (x) = 0.53682 0.46301
# Poissons Ratio (y) = 0.32912 0.39585
# Poissons Ratio (z) = 0.16929 0.23607
#
# Static dielectric constant tensor:
#      x y z
#    x 3.126220 0.000000 -0.074640 
#    y 0.000000 3.791470 0.000000 
#    z -0.074640 0.000000 4.009390 
# 
# 
# High freq. dielectric constant tensor:
#      x y z
#    x 1.778280 0.000000 0.014400 
#    y 0.000000 1.796710 0.000000 
#    z 0.014400 0.000000 1.811510 
# 
# From -- ./inp_files/105822.got.cif
#   From: 2010.06.25/outbox.cif.g09.slc.cpg/sg15_53_cif.got.tgz:105822.got - 2010.06.28 07:06:18.
