data_PCOD8139213
_publ_section_title
;
Structure prediction by ZEFSAII (Michael W. Deem and Ramdas Pophale) SiO2 
 PCOD8139213
Probable space group: C 2/C
;
_chemical_formula_sum "Si O2"
_cell_formula_units_Z 52
_cell_length_a 5.965699
_cell_length_b 14.979667
_cell_length_c 23.623474
_cell_angle_alpha 90.000000
_cell_angle_beta 79.028339
_cell_angle_gamma 90.000000
_cell_volume 2072.504755
_symmetry_space_group_name_H-M "C 2/C"
_symmetry_group_IT_number 15
_symmetry_cell_setting 'monoclinic'
loop_
_space_group_symop_operation_xyz
x,y,z
-x,y,1/2-z
-x,-y,-z
x,-y,1/2+z
1/2+x,1/2+y,z
1/2-x,1/2+y,1/2-z
1/2-x,1/2-y,-z
1/2+x,1/2-y,1/2+z
loop_
_atom_site_type_symbol
_atom_site_label
_atom_site_fract_x
_atom_site_fract_y
_atom_site_fract_z
Si Si1 0.324947 0.822514 0.952349
Si Si2 0.110372 0.554359 0.644272
Si Si3 0.307738 0.066773 0.556589
Si Si4 0.464257 0.299774 0.136646
Si Si5 0.000000 0.292813 0.750000
Si Si6 0.219619 0.941677 0.710552
Si Si7 0.003087 0.921509 0.607319
O O1 0.541242 0.788267 0.904576
O O2 0.109618 0.839412 0.920844
O O3 0.250000 0.750000 0.000000
O O4 0.386671 0.907554 0.988851
O O5 0.217064 0.652030 0.653756
O O6 0.300845 0.480140 0.643824
O O7 0.034901 0.553117 0.582484
O O8 0.902686 0.522587 0.695147
O O9 0.153800 0.137100 0.599151
O O10 0.158395 0.977581 0.556222
O O11 0.554370 0.269892 0.193819
O O12 0.210146 0.358666 0.753275
O O13 0.162578 0.895791 0.652795
O O14 0.000000 0.987940 0.750000
#
# Coordination Sequence:
#
# PCOD8139213 Si02
#       7
#     8   8   8   8   4   8   8
#     4  10  20  38  67  96 137 186 226 285 343 407
#     4  10  22  43  64  98 133 175 228 285 346 413
#     4   9  21  41  65  96 136 181 230 281 340 408
#     4  10  23  43  63  99 138 172 229 286 348 412
#     4  12  26  46  68 100 132 176 230 284 352 412
#     4  11  23  42  68  93 129 179 235 282 343 418
#     4  10  21  41  63  97 135 176 234 287 336 410
#
# _framework density 25.090413000000002
#
# number of rings (size 3 to 8) (size 9 to 14) (size 15 to 20)
#    0.000    1.846    0.000    3.231    0.000    4.923 
#   23.538    6.154    0.000    0.000    0.000    0.000 
#    0.000    0.000    0.000    0.000    0.000    0.000 
#
# Total GULP energy -322216.562494 kJ/mol
# GULP energy per Si atom -12392.944711 kJ/mol
# Density = 2.503331 g / cm^3
# Si number density = 25.090413 Si / 1000 Ang^3
#
#
#
# Elastic Constant Matrix: (Units=GPa)
#
#
# Indices 1 2 3 4 5 6 
#
# 1 122.5573 57.5065 55.8547 0.0000 3.7158 0.0000
# 2 57.5065 95.5659 64.3586 0.0000 -1.6726 0.0000
# 3 55.8547 64.3586 147.6745 0.0000 -1.7489 0.0000
# 4 0.0000 0.0000 0.0000 45.8220 0.0000 12.9636
# 5 3.7158 -1.6726 -1.7489 0.0000 37.5021 0.0000
# 6 0.0000 0.0000 0.0000 12.9636 0.0000 44.9502
#
#
#
# Elastic Compliance Matrix: (Units=1/GPa)
#
#
# Indices 1 2 3 4 5 6 
#
# 1 0.011832 -0.005832 -0.001951 0.000000 -0.001523 0.000000
# 2 -0.005832 0.017691 -0.005491 0.000000 0.001111 0.000000
# 3 -0.001951 -0.005491 0.009908 0.000000 0.000410 0.000000
# 4 0.000000 0.000000 0.000000 0.023762 0.000000 -0.006853
# 5 -0.001523 0.001111 0.000410 0.000000 0.026885 0.000000
# 6 0.000000 0.000000 0.000000 -0.006853 0.000000 0.024223
#
#
# Mechanical properties :
#
#
# Convention : Reuss Voigt Hill
#
# Bulk Modulus (GPa) = 77.63268 80.13748 78.88508
# Shear Modulus (GPa) = 34.44893 38.19339 36.32116
#
# Velocity S-wave (km/s) = 3.70941 3.90581 3.80888
# Velocity P-wave (km/s) = 7.02529 7.23528 7.13106
#
# Compressibility (1/GPa) = 0.01288117
#
# Stress axis : x y z
#
# Youngs Moduli (GPa) = 84.52010 56.52694 100.93328
#
# Poissons Ratio (x) = 0.32967 0.19695
# Poissons Ratio (y) = 0.49293 0.55421
# Poissons Ratio (z) = 0.16493 0.31038
#
# Static dielectric constant tensor:
#      x y z
#    x 4.688270 0.000000 0.282020 
#    y 0.000000 4.915990 0.000000 
#    z 0.282020 0.000000 4.950180 
# 
# 
# High freq. dielectric constant tensor:
#      x y z
#    x 1.995110 0.000000 0.007540 
#    y 0.000000 1.995380 0.000000 
#    z 0.007540 0.000000 2.011610 
# 
# From -- ./inp_files/285814.got.cif
#   From: 2010.06.25/outbox.cif.g09.slc.cpg/sg15_143_cif.got.tgz:285814.got - 2010.06.28 07:06:18.
