data_PCOD8139817
_publ_section_title
;
Structure prediction by ZEFSAII (Michael W. Deem and Ramdas Pophale) SiO2 
 PCOD8139817
Probable space group: C 2/C
;
_chemical_formula_sum "Si O2"
_cell_formula_units_Z 52
_cell_length_a 23.938010
_cell_length_b 5.278675
_cell_length_c 17.764551
_cell_angle_alpha 90.000000
_cell_angle_beta 102.368163
_cell_angle_gamma 90.000000
_cell_volume 2192.648679
_symmetry_space_group_name_H-M "C 2/C"
_symmetry_group_IT_number 15
_symmetry_cell_setting 'monoclinic'
loop_
_space_group_symop_operation_xyz
x,y,z
-x,y,1/2-z
-x,-y,-z
x,-y,1/2+z
1/2+x,1/2+y,z
1/2-x,1/2+y,1/2-z
1/2-x,1/2-y,-z
1/2+x,1/2-y,1/2+z
loop_
_atom_site_type_symbol
_atom_site_label
_atom_site_fract_x
_atom_site_fract_y
_atom_site_fract_z
Si Si1 0.647466 0.826844 0.354875
Si Si2 0.550695 0.810417 0.883047
Si Si3 0.756024 0.001498 0.453415
Si Si4 0.500000 0.556888 0.250000
Si Si5 0.876874 0.044407 0.007816
Si Si6 0.102044 0.824802 0.691831
Si Si7 0.923858 0.345902 0.896508
O O1 0.588100 0.973019 0.354441
O O2 0.705134 0.998894 0.376548
O O3 0.649612 0.610112 0.418459
O O4 0.648390 0.704020 0.271919
O O5 0.542207 0.606439 0.814570
O O6 0.582981 0.697608 0.966204
O O7 0.489974 0.899951 0.898311
O O8 0.750000 0.750000 0.500000
O O9 0.821124 0.011183 0.438234
O O10 0.750000 0.250000 0.500000
O O11 0.460496 0.732409 0.290450
O O12 0.913977 0.273210 0.981464
O O13 0.111292 0.602480 0.632783
O O14 0.101684 0.106299 0.657413
#
# Coordination Sequence:
#
# PCOD8139817 Si02
#       7
#     8   8   8   4   8   8   8
#     4  11  22  40  71  91 121 171 225 263 311 379
#     4  11  21  38  65  91 130 162 211 257 324 378
#     4  10  22  40  64  94 121 159 216 272 307 360
#     4  10  20  40  60  96 124 172 210 270 310 390
#     4  11  24  42  62  94 128 165 212 266 318 376
#     4  11  23  42  60  92 129 169 210 258 313 385
#     4  11  27  39  61  94 137 165 201 258 333 384
#
# _framework density 23.715609000000001
#
# number of rings (size 3 to 8) (size 9 to 14) (size 15 to 20)
#    0.000    1.231    3.077    3.231    4.308    1.231 
#    0.000    1.538    0.000    0.000    0.000    0.000 
#    0.000    0.000    0.000    0.000    0.000    0.000 
#
# Total GULP energy -322202.817198 kJ/mol
# GULP energy per Si atom -12392.416046 kJ/mol
# Density = 2.366163 g / cm^3
# Si number density = 23.715609 Si / 1000 Ang^3
#
#
#
# Elastic Constant Matrix: (Units=GPa)
#
#
# Indices 1 2 3 4 5 6 
#
# 1 85.3546 3.5327 17.1204 0.0000 31.5202 0.0000
# 2 3.5327 76.2129 -7.5489 0.0000 14.6023 0.0000
# 3 17.1204 -7.5489 67.0998 0.0000 21.6927 0.0000
# 4 0.0000 0.0000 0.0000 32.6782 0.0000 -0.1400
# 5 31.5202 14.6023 21.6927 0.0000 36.4382 0.0000
# 6 0.0000 0.0000 0.0000 -0.1400 0.0000 25.4482
#
#
#
# Elastic Compliance Matrix: (Units=1/GPa)
#
#
# Indices 1 2 3 4 5 6 
#
# 1 0.017657 0.002586 0.001311 0.000000 -0.017091 0.000000
# 2 0.002586 0.015648 0.004769 0.000000 -0.011347 0.000000
# 3 0.001311 0.004769 0.019924 0.000000 -0.014907 0.000000
# 4 0.000000 0.000000 0.000000 0.030602 0.000000 0.000168
# 5 -0.017091 -0.011347 -0.014907 0.000000 0.055649 0.000000
# 6 0.000000 0.000000 0.000000 0.000168 0.000000 0.039297
#
#
# Mechanical properties :
#
#
# Convention : Reuss Voigt Hill
#
# Bulk Modulus (GPa) = 14.17217 28.31951 21.24584
# Shear Modulus (GPa) = 27.03205 33.28380 30.15793
#
# Velocity S-wave (km/s) = 3.37982 3.75034 3.56989
# Velocity P-wave (km/s) = 4.60649 5.54262 5.09609
#
# Compressibility (1/GPa) = 0.07056083
#
# Stress axis : x y z
#
# Youngs Moduli (GPa) = 56.63409 63.90747 50.18988
#
# Poissons Ratio (x) = -0.16526 -0.06580
# Poissons Ratio (y) = -0.14645 -0.23935
# Poissons Ratio (z) = -0.07425 -0.30476
#
# Static dielectric constant tensor:
#      x y z
#    x 4.718340 0.000000 0.388220 
#    y 0.000000 4.103800 0.000000 
#    z 0.388220 0.000000 4.565620 
# 
# 
# High freq. dielectric constant tensor:
#      x y z
#    x 1.926000 0.000000 0.018880 
#    y 0.000000 1.941930 0.000000 
#    z 0.018880 0.000000 1.935540 
# 
# From -- ./inp_files/256390.got.cif
#   From: 2010.06.25/outbox.cif.g09.slc.cpg/sg15_129_cif.got.tgz:256390.got - 2010.06.28 07:06:18.
