data_PCOD8139308
_publ_section_title
;
Structure prediction by ZEFSAII (Michael W. Deem and Ramdas Pophale) SiO2 
 PCOD8139308
Probable space group: C 2/C
;
_chemical_formula_sum "Si O2"
_cell_formula_units_Z 40
_cell_length_a 10.004114
_cell_length_b 15.080021
_cell_length_c 16.078671
_cell_angle_alpha 90.000000
_cell_angle_beta 51.523193
_cell_angle_gamma 90.000000
_cell_volume 1898.955889
_symmetry_space_group_name_H-M "C 2/C"
_symmetry_group_IT_number 15
_symmetry_cell_setting 'monoclinic'
loop_
_space_group_symop_operation_xyz
x,y,z
-x,y,1/2-z
-x,-y,-z
x,-y,1/2+z
1/2+x,1/2+y,z
1/2-x,1/2+y,1/2-z
1/2-x,1/2-y,-z
1/2+x,1/2-y,1/2+z
loop_
_atom_site_type_symbol
_atom_site_label
_atom_site_fract_x
_atom_site_fract_y
_atom_site_fract_z
Si Si1 0.254026 0.410753 0.449325
Si Si2 0.178951 1.000000 0.250000
Si Si3 0.589064 0.347383 0.395046
Si Si4 0.652675 0.410753 0.550675
Si Si5 0.620843 0.152616 0.395047
O O1 0.325607 0.442910 0.332563
O O2 0.395181 0.348897 0.437256
O O3 0.237093 0.500000 0.512909
O O4 0.078843 0.358026 0.506863
O O5 0.204764 0.926553 0.312346
O O6 0.329458 0.073444 0.187653
O O7 0.009271 0.057091 0.332563
O O8 0.592571 0.358024 0.493136
O O9 0.657166 0.249999 0.342833
O O10 0.769694 0.348899 0.562744
#
# Coordination Sequence:
#
# PCOD8139308 Si02
#       5
#     8   8   8   8   8
#     4  10  20  39  59  83 118 155 191 239 291 344
#     4  10  21  40  61  82 119 160 193 236 293 346
#     4  11  22  38  61  88 117 154 195 240 290 343
#     4  10  20  39  59  83 118 155 191 239 291 344
#     4  11  22  38  61  88 117 154 195 240 290 343
#
# _framework density 21.064207
#
# number of rings (size 3 to 8) (size 9 to 14) (size 15 to 20)
#    0.000    1.600    0.000   11.400    0.000    1.600 
#    0.000   21.000    0.000    0.000    0.000    0.000 
#    0.000    0.000    0.000    0.000    0.000    0.000 
#
# Total GULP energy -247776.939099 kJ/mol
# GULP energy per Si atom -12388.846955 kJ/mol
# Density = 2.101626 g / cm^3
# Si number density = 21.064207 Si / 1000 Ang^3
#
#
#
# Elastic Constant Matrix: (Units=GPa)
#
#
# Indices 1 2 3 4 5 6 
#
# 1 104.6790 71.1109 52.7770 -0.0001 2.5090 0.0001
# 2 71.1109 160.0933 54.8135 0.0001 1.4558 -0.0001
# 3 52.7770 54.8135 92.3890 0.0001 -1.4120 -0.0001
# 4 -0.0001 0.0001 0.0001 23.7153 -0.0001 0.5977
# 5 2.5090 1.4558 -1.4120 -0.0001 12.2614 0.0000
# 6 0.0001 -0.0001 -0.0001 0.5977 0.0000 30.3996
#
#
#
# Elastic Compliance Matrix: (Units=1/GPa)
#
#
# Indices 1 2 3 4 5 6 
#
# 1 0.016244 -0.005005 -0.006363 0.000000 -0.003462 0.000000
# 2 -0.005005 0.009408 -0.002728 0.000000 -0.000407 0.000000
# 3 -0.006363 -0.002728 0.016130 0.000000 0.003484 0.000000
# 4 0.000000 0.000000 0.000000 0.042188 0.000000 -0.000829
# 5 -0.003462 -0.000407 0.003484 0.000000 0.082715 0.000000
# 6 0.000000 0.000000 0.000000 -0.000829 0.000000 0.032911
#
#
# Mechanical properties :
#
#
# Convention : Reuss Voigt Hill
#
# Bulk Modulus (GPa) = 73.58738 79.39602 76.49170
# Shear Modulus (GPa) = 21.52216 25.17259 23.34737
#
# Velocity S-wave (km/s) = 3.19994 3.46069 3.33286
# Velocity P-wave (km/s) = 6.97592 7.33094 7.15563
#
# Compressibility (1/GPa) = 0.01358929
#
# Stress axis : x y z
#
# Youngs Moduli (GPa) = 61.56010 106.29796 61.99479
#
# Poissons Ratio (x) = 0.53207 0.39446
# Poissons Ratio (y) = 0.30814 0.16914
# Poissons Ratio (z) = 0.39169 0.29001
#
# Static dielectric constant tensor:
#      x y z
#    x 3.918610 0.000000 0.031550 
#    y 0.000000 4.153440 0.000000 
#    z 0.031550 0.000000 3.565760 
# 
# 
# High freq. dielectric constant tensor:
#      x y z
#    x 1.824520 0.000000 0.002150 
#    y 0.000000 1.833740 0.000000 
#    z 0.002150 0.000000 1.800430 
# 
# From -- ./inp_files/143284.got.cif
#   From: 2010.06.25/outbox.cif.g09.slc.cpg/sg15_72_cif.got.tgz:143284.got - 2010.06.28 07:06:18.
