data_PCOD8139588
_publ_section_title
;
Structure prediction by ZEFSAII (Michael W. Deem and Ramdas Pophale) SiO2 
 PCOD8139588
Probable space group: C 2/C
;
_chemical_formula_sum "Si O2"
_cell_formula_units_Z 48
_cell_length_a 9.181395
_cell_length_b 22.320641
_cell_length_c 11.936469
_cell_angle_alpha 90.000000
_cell_angle_beta 106.678409
_cell_angle_gamma 90.000000
_cell_volume 2343.286050
_symmetry_space_group_name_H-M "C 2/C"
_symmetry_group_IT_number 15
_symmetry_cell_setting 'monoclinic'
loop_
_space_group_symop_operation_xyz
x,y,z
-x,y,1/2-z
-x,-y,-z
x,-y,1/2+z
1/2+x,1/2+y,z
1/2-x,1/2+y,1/2-z
1/2-x,1/2-y,-z
1/2+x,1/2-y,1/2+z
loop_
_atom_site_type_symbol
_atom_site_label
_atom_site_fract_x
_atom_site_fract_y
_atom_site_fract_z
Si Si1 0.106115 0.280752 0.168524
Si Si2 0.407013 0.858530 0.981230
Si Si3 0.170967 0.887884 0.297811
Si Si4 0.323548 0.826608 0.730923
Si Si5 0.184327 0.424737 0.948013
Si Si6 0.837561 0.553905 0.653354
O O1 0.215982 0.336120 0.218476
O O2 0.210420 0.224220 0.160096
O O3 0.000000 0.265886 0.250000
O O4 0.000657 0.299284 0.039966
O O5 0.293955 0.837341 0.857249
O O6 0.517004 0.909449 0.955517
O O7 0.320949 0.889075 0.066180
O O8 0.193487 0.909134 0.429939
O O9 0.206969 0.941966 0.219497
O O10 0.000000 0.864971 0.250000
O O11 0.500000 0.808223 0.750000
O O12 0.280697 0.886889 0.655678
O O13 0.191655 0.494385 0.922946
O O14 0.000000 0.553836 0.750000
#
# Coordination Sequence:
#
# PCOD8139588 Si02
#       6
#     8   8   8   8   8   8
#     4  11  21  42  62  93 121 164 218 257 308 377
#     4  10  20  39  64  96 120 163 213 258 312 363
#     4  11  24  41  63  90 125 171 206 256 321 370
#     4  10  23  39  60  97 129 162 203 262 324 366
#     4  10  23  38  65  96 126 165 211 257 311 372
#     4  12  20  40  69  93 123 164 218 258 304 376
#
# _framework density 20.484057
#
# number of rings (size 3 to 8) (size 9 to 14) (size 15 to 20)
#    0.000    1.333    5.000    2.500    2.333    8.667 
#    3.000    0.833    0.000    0.000    0.000    0.000 
#    0.000    0.000    0.000    0.000    0.000    0.000 
#
# Total GULP energy -297616.504937 kJ/mol
# GULP energy per Si atom -12400.687706 kJ/mol
# Density = 2.043743 g / cm^3
# Si number density = 20.484057 Si / 1000 Ang^3
#
#
#
# Elastic Constant Matrix: (Units=GPa)
#
#
# Indices 1 2 3 4 5 6 
#
# 1 63.4087 19.6037 32.9863 0.0000 -0.9547 0.0000
# 2 19.6037 90.0756 46.1798 0.0000 5.6763 0.0000
# 3 32.9863 46.1798 144.4231 0.0000 1.2888 0.0000
# 4 0.0000 0.0000 0.0000 28.0785 0.0000 -5.0415
# 5 -0.9547 5.6763 1.2888 0.0000 18.3883 0.0000
# 6 0.0000 0.0000 0.0000 -5.0415 0.0000 15.2082
#
#
#
# Elastic Compliance Matrix: (Units=1/GPa)
#
#
# Indices 1 2 3 4 5 6 
#
# 1 0.018319 -0.002337 -0.003454 0.000000 0.001915 0.000000
# 2 -0.002337 0.013848 -0.003857 0.000000 -0.004126 0.000000
# 3 -0.003454 -0.003857 0.008943 0.000000 0.000385 0.000000
# 4 0.000000 0.000000 0.000000 0.037868 0.000000 0.012553
# 5 0.001915 -0.004126 0.000385 0.000000 0.055728 0.000000
# 6 0.000000 0.000000 0.000000 0.012553 0.000000 0.069915
#
#
# Mechanical properties :
#
#
# Convention : Reuss Voigt Hill
#
# Bulk Modulus (GPa) = 45.84305 55.04968 50.44636
# Shear Modulus (GPa) = 21.62731 25.61084 23.61907
#
# Velocity S-wave (km/s) = 3.25285 3.53977 3.39934
# Velocity P-wave (km/s) = 6.04454 6.60601 6.33150
#
# Compressibility (1/GPa) = 0.02181356
#
# Stress axis : x y z
#
# Youngs Moduli (GPa) = 54.58887 72.21296 111.81974
#
# Poissons Ratio (x) = 0.16874 0.38622
# Poissons Ratio (y) = 0.12756 0.43133
# Poissons Ratio (z) = 0.18855 0.27855
#
# Static dielectric constant tensor:
#      x y z
#    x 3.550820 0.000000 -0.132840 
#    y 0.000000 3.650840 0.000000 
#    z -0.132840 0.000000 4.055190 
# 
# 
# High freq. dielectric constant tensor:
#      x y z
#    x 1.769050 0.000000 -0.010230 
#    y 0.000000 1.793340 0.000000 
#    z -0.010230 0.000000 1.819000 
# 
# From -- ./inp_files/79140.got.cif
#   From: 2010.06.25/outbox.cif.g09.slc.cpg/sg15_40_cif.got.tgz:79140.got - 2010.06.28 07:06:18.
