data_PCOD8139572
_publ_section_title
;
Structure prediction by ZEFSAII (Michael W. Deem and Ramdas Pophale) SiO2 
 PCOD8139572
Probable space group: C 2/C
;
_chemical_formula_sum "Si O2"
_cell_formula_units_Z 60
_cell_length_a 18.251433
_cell_length_b 16.948311
_cell_length_c 17.793494
_cell_angle_alpha 90.000000
_cell_angle_beta 148.219477
_cell_angle_gamma 90.000000
_cell_volume 2898.815778
_symmetry_space_group_name_H-M "C 2/C"
_symmetry_group_IT_number 15
_symmetry_cell_setting 'monoclinic'
loop_
_space_group_symop_operation_xyz
x,y,z
-x,y,1/2-z
-x,-y,-z
x,-y,1/2+z
1/2+x,1/2+y,z
1/2-x,1/2+y,1/2-z
1/2-x,1/2-y,-z
1/2+x,1/2-y,1/2+z
loop_
_atom_site_type_symbol
_atom_site_label
_atom_site_fract_x
_atom_site_fract_y
_atom_site_fract_z
Si Si1 0.105556 0.095082 0.029607
Si Si2 0.395481 0.300194 0.276985
Si Si3 0.000000 0.680396 0.250000
Si Si4 0.040355 0.073214 0.447519
Si Si5 0.635178 0.842090 0.657984
Si Si6 0.249343 0.571493 0.119907
Si Si7 0.853963 0.177729 0.086348
Si Si8 0.365163 0.901870 0.496941
O O1 0.253479 0.124010 0.186264
O O2 0.986122 0.097770 0.989820
O O3 0.042000 0.152271 0.909946
O O4 0.131969 0.006334 0.022962
O O5 0.405339 0.234987 0.220291
O O6 0.369328 0.252448 0.332604
O O7 0.272789 0.359741 0.152541
O O8 0.099841 0.624996 0.387583
O O9 0.117358 0.145469 0.472710
O O10 0.894270 0.048046 0.283718
O O11 0.673003 0.862884 0.605206
O O12 0.486881 0.880466 0.545647
O O13 0.280425 0.606934 0.065941
O O14 0.153838 0.495595 0.023970
O O15 0.000000 0.204027 0.250000
O O16 0.750000 0.250000 0.000000
#
# Coordination Sequence:
#
# PCOD8139572 Si02
#       8
#     8   8   4   8   8   8   8   8
#     4  10  20  39  64  92 120 161 209 251 315 368
#     4  11  22  39  64  91 121 166 202 252 320 376
#     4  10  24  38  58  92 130 154 208 262 304 378
#     4   9  20  40  66  87 120 162 211 256 298 382
#     4  10  22  37  59  94 127 153 204 262 304 370
#     4  10  21  41  63  87 124 166 205 251 311 374
#     4  10  23  43  61  89 124 163 210 257 309 367
#     4  11  22  41  61  90 126 164 205 252 319 369
#
# _framework density 20.698107
#
# number of rings (size 3 to 8) (size 9 to 14) (size 15 to 20)
#    0.000    1.867    1.333    2.400    1.867    4.267 
#    6.000    0.000    0.000    0.000    0.000    0.000 
#    0.000    0.000    0.000    0.000    0.000    0.000 
#
# Total GULP energy -371994.220037 kJ/mol
# GULP energy per Si atom -12399.807335 kJ/mol
# Density = 2.065100 g / cm^3
# Si number density = 20.698107 Si / 1000 Ang^3
#
#
#
# Elastic Constant Matrix: (Units=GPa)
#
#
# Indices 1 2 3 4 5 6 
#
# 1 69.9434 15.6548 8.9053 -0.0005 -7.0065 -0.0003
# 2 15.6548 95.2263 25.1237 -0.0006 -4.1007 -0.0006
# 3 8.9053 25.1237 67.9727 -0.0008 2.5142 -0.0008
# 4 -0.0005 -0.0006 -0.0008 22.3034 -0.0009 0.5039
# 5 -7.0065 -4.1007 2.5142 -0.0009 20.9293 -0.0007
# 6 -0.0003 -0.0006 -0.0008 0.5039 -0.0007 24.3785
#
#
#
# Elastic Compliance Matrix: (Units=1/GPa)
#
#
# Indices 1 2 3 4 5 6 
#
# 1 0.015416 -0.001927 -0.001491 0.000000 0.004962 0.000000
# 2 -0.001927 0.012044 -0.004281 0.000000 0.002229 0.000000
# 3 -0.001491 -0.004281 0.016613 0.000000 -0.003334 0.000000
# 4 0.000000 0.000000 0.000000 0.044857 0.000002 -0.000927
# 5 0.004962 0.002229 -0.003334 0.000002 0.050278 0.000001
# 6 0.000000 0.000000 0.000000 -0.000927 0.000001 0.041039
#
#
# Mechanical properties :
#
#
# Convention : Reuss Voigt Hill
#
# Bulk Modulus (GPa) = 34.87598 36.94556 35.91077
# Shear Modulus (GPa) = 24.36606 25.75279 25.05943
#
# Velocity S-wave (km/s) = 3.43477 3.53116 3.48330
# Velocity P-wave (km/s) = 5.71110 5.87486 5.79356
#
# Compressibility (1/GPa) = 0.02867303
#
# Stress axis : x y z
#
# Youngs Moduli (GPa) = 64.86970 83.03087 60.19410
#
# Poissons Ratio (x) = 0.16002 0.08974
# Poissons Ratio (y) = 0.12502 0.25772
# Poissons Ratio (z) = 0.09671 0.35550
#
# Static dielectric constant tensor:
#      x y z
#    x 3.920660 -0.000010 -0.225920 
#    y -0.000010 3.873830 0.000010 
#    z -0.225920 0.000010 3.933020 
# 
# 
# High freq. dielectric constant tensor:
#      x y z
#    x 1.806690 0.000000 0.000990 
#    y 0.000000 1.816030 0.000000 
#    z 0.000990 0.000000 1.804910 
# 
# From -- ./inp_files/211780.got.cif
#   From: 2010.06.25/outbox.cif.g09.slc.cpg/sg15_106_cif.got.tgz:211780.got - 2010.06.28 07:06:18.
