data_PCOD8139004
_publ_section_title
;
Structure prediction by ZEFSAII (Michael W. Deem and Ramdas Pophale) SiO2 
 PCOD8139004
Probable space group: C 2/C
;
_chemical_formula_sum "Si O2"
_cell_formula_units_Z 56
_cell_length_a 17.594870
_cell_length_b 19.187405
_cell_length_c 15.083886
_cell_angle_alpha 90.000000
_cell_angle_beta 28.782861
_cell_angle_gamma 90.000000
_cell_volume 2451.908111
_symmetry_space_group_name_H-M "C 2/C"
_symmetry_group_IT_number 15
_symmetry_cell_setting 'monoclinic'
loop_
_space_group_symop_operation_xyz
x,y,z
-x,y,1/2-z
-x,-y,-z
x,-y,1/2+z
1/2+x,1/2+y,z
1/2-x,1/2+y,1/2-z
1/2-x,1/2-y,-z
1/2+x,1/2-y,1/2+z
loop_
_atom_site_type_symbol
_atom_site_label
_atom_site_fract_x
_atom_site_fract_y
_atom_site_fract_z
Si Si1 0.749952 0.629768 0.372506
Si Si2 0.317536 0.007370 0.708966
Si Si3 0.500000 0.584590 0.750000
Si Si4 0.177983 0.646224 0.549825
Si Si5 0.849217 0.201804 0.202538
Si Si6 0.000000 0.610034 0.250000
Si Si7 0.732574 0.004200 0.933515
Si Si8 0.205770 0.159798 0.880959
O O1 0.772325 0.546910 0.331897
O O2 0.588869 0.636597 0.592235
O O3 0.739076 0.672357 0.293743
O O4 0.891036 0.655841 0.294321
O O5 0.267820 0.084275 0.789741
O O6 0.500000 0.000000 0.500000
O O7 0.229513 0.987538 0.707963
O O8 0.395067 0.531037 0.804001
O O9 0.245716 0.680982 0.392795
O O10 0.172930 0.563458 0.545583
O O11 0.292051 0.666553 0.514702
O O12 0.000000 0.673416 0.750000
O O13 0.832654 0.285420 0.210719
O O14 0.029119 0.175477 0.026000
O O15 0.897468 0.563819 0.422088
#
# Coordination Sequence:
#
# PCOD8139004 Si02
#       8
#     8   8   4   8   8   4   8   8
#     4  11  24  44  73 105 142 185 244 304 370 431
#     4  12  24  42  74 107 141 186 247 302 363 429
#     4  10  24  38  62 101 141 176 242 304 360 422
#     4  12  24  42  69 105 150 194 242 290 362 440
#     4  12  28  47  73 105 150 197 242 297 371 443
#     4  10  20  38  64 103 135 184 230 304 356 424
#     4  11  21  36  64  99 143 180 234 294 358 415
#     4  12  28  46  72 105 150 196 241 297 363 438
#
# _framework density 22.839355000000001
#
# number of rings (size 3 to 8) (size 9 to 14) (size 15 to 20)
#    0.000    0.571    3.571    5.143    6.000    1.143 
#    0.000    0.000    0.000   14.571    0.000    0.000 
#    0.000    0.000    0.000    0.000    0.000    0.000 
#
# Total GULP energy -347194.224334 kJ/mol
# GULP energy per Si atom -12399.793726 kJ/mol
# Density = 2.278737 g / cm^3
# Si number density = 22.839355 Si / 1000 Ang^3
#
#
#
# Elastic Constant Matrix: (Units=GPa)
#
#
# Indices 1 2 3 4 5 6 
#
# 1 157.1214 42.8137 53.8448 0.0452 10.2311 0.0786
# 2 42.8137 96.7147 31.5061 0.3698 2.5851 1.0808
# 3 53.8448 31.5061 120.7980 0.4713 -8.9431 1.4199
# 4 0.0452 0.3698 0.4713 348.3785 -0.0856 1088.7873
# 5 10.2311 2.5851 -8.9431 -0.0856 29.7418 -0.2111
# 6 0.0786 1.0808 1.4199 1088.7873 -0.2111 3603.6035
#
#
#
# Elastic Compliance Matrix: (Units=1/GPa)
#
#
# Indices 1 2 3 4 5 6 
#
# 1 0.008457 -0.002544 -0.003381 0.000000 -0.003705 0.000002
# 2 -0.002544 0.012172 -0.002101 -0.000021 -0.000815 0.000003
# 3 -0.003381 -0.002101 0.010670 -0.000010 0.004554 0.000000
# 4 0.000000 -0.000021 -0.000010 0.051509 0.000037 -0.015563
# 5 -0.003705 -0.000815 0.004554 0.000037 0.036337 -0.000010
# 6 0.000002 0.000003 0.000000 -0.015563 -0.000010 0.004980
#
#
# Mechanical properties :
#
#
# Convention : Reuss Voigt Hill
#
# Bulk Modulus (GPa) = 65.57855 70.10703 67.84279
# Shear Modulus (GPa) = 34.42100 812.77605 423.59853
#
# Velocity S-wave (km/s) = 3.88634 18.88489 13.63346
# Velocity P-wave (km/s) = 6.99382 22.50069 16.66125
#
# Compressibility (1/GPa) = 0.01524889
#
# Stress axis : x y z
#
# Youngs Moduli (GPa) = 118.23966 82.15588 93.71713
#
# Poissons Ratio (x) = 0.20897 0.31683
# Poissons Ratio (y) = 0.30076 0.19691
# Poissons Ratio (z) = 0.39973 0.17262
#
# Static dielectric constant tensor:
#      x y z
#    x 4.287130 -0.000180 -0.081070 
#    y -0.000180 4.014700 0.000020 
#    z -0.081070 0.000020 4.184220 
# 
# 
# High freq. dielectric constant tensor:
#      x y z
#    x 1.925960 0.000000 0.000750 
#    y 0.000000 1.881850 0.000010 
#    z 0.000750 0.000010 1.905840 
# 
# From -- ./inp_files/163801.got.cif
#   From: 2010.06.25/outbox.cif.g09.slc.cpg/sg15_82_cif.got.tgz:163801.got - 2010.06.28 07:06:18.
