data_PCOD8139802
_publ_section_title
;
Structure prediction by ZEFSAII (Michael W. Deem and Ramdas Pophale) SiO2 
 PCOD8139802
Probable space group: C 2/C
;
_chemical_formula_sum "Si O2"
_cell_formula_units_Z 60
_cell_length_a 11.416297
_cell_length_b 15.386129
_cell_length_c 16.105680
_cell_angle_alpha 90.000000
_cell_angle_beta 98.538303
_cell_angle_gamma 90.000000
_cell_volume 2797.650520
_symmetry_space_group_name_H-M "C 2/C"
_symmetry_group_IT_number 15
_symmetry_cell_setting 'monoclinic'
loop_
_space_group_symop_operation_xyz
x,y,z
-x,y,1/2-z
-x,-y,-z
x,-y,1/2+z
1/2+x,1/2+y,z
1/2-x,1/2+y,1/2-z
1/2-x,1/2-y,-z
1/2+x,1/2-y,1/2+z
loop_
_atom_site_type_symbol
_atom_site_label
_atom_site_fract_x
_atom_site_fract_y
_atom_site_fract_z
Si Si1 0.292928 0.457515 0.115020
Si Si2 0.740786 0.769885 0.596999
Si Si3 0.540653 0.391376 0.846749
Si Si4 0.664292 0.285713 0.613018
Si Si5 0.927711 0.423732 0.900733
Si Si6 0.157520 0.352413 0.983116
Si Si7 0.712889 0.852426 0.256986
Si Si8 0.000000 0.476396 0.250000
O O1 0.407446 0.517221 0.113857
O O2 0.174062 0.511674 0.081196
O O3 0.295758 0.413529 0.207205
O O4 0.278063 0.385323 0.042467
O O5 0.750000 0.750000 0.500000
O O6 0.860940 0.816556 0.638641
O O7 0.626307 0.826983 0.607222
O O8 0.724717 0.683283 0.652465
O O9 0.500000 0.407547 0.750000
O O10 0.425671 0.365917 0.887079
O O11 0.795255 0.323682 0.603283
O O12 0.612544 0.229294 0.531755
O O13 0.667775 0.229301 0.697637
O O14 0.046788 0.419238 0.969597
O O15 0.974000 0.456155 0.818624
O O16 0.608293 0.912463 0.280487
#
# Coordination Sequence:
#
# PCOD8139802 Si02
#       8
#     8   8   8   8   8   8   8   4
#     4   9  22  39  60  92 126 163 205 259 318 368
#     4  11  23  39  66  96 122 161 216 265 310 369
#     4  11  21  39  63  90 125 169 206 255 313 380
#     4  10  21  37  64  88 120 170 213 247 313 374
#     4  10  22  38  61  91 128 160 210 263 312 365
#     4  10  21  39  61  91 126 163 209 258 309 370
#     4  10  20  40  60  89 125 163 210 260 307 377
#     4  10  22  36  64  92 120 170 210 248 322 366
#
# _framework density 21.446566000000001
#
# number of rings (size 3 to 8) (size 9 to 14) (size 15 to 20)
#    0.000    1.867    1.333    2.000    1.867    5.867 
#    0.000    5.333    0.000    0.000    0.000    0.000 
#    0.000    0.000    0.000    0.000    0.000    0.000 
#
# Total GULP energy -371709.478650 kJ/mol
# GULP energy per Si atom -12390.315955 kJ/mol
# Density = 2.139775 g / cm^3
# Si number density = 21.446566 Si / 1000 Ang^3
#
#
#
# Elastic Constant Matrix: (Units=GPa)
#
#
# Indices 1 2 3 4 5 6 
#
# 1 65.5979 34.4761 51.2896 0.0000 -7.8365 0.0000
# 2 34.4761 101.3510 55.4251 0.0000 -6.5808 0.0000
# 3 51.2896 55.4251 104.2455 0.0000 -0.2864 0.0000
# 4 0.0000 0.0000 0.0000 27.5799 0.0000 1.9678
# 5 -7.8365 -6.5808 -0.2864 0.0000 29.6776 0.0000
# 6 0.0000 0.0000 0.0000 1.9678 0.0000 31.9274
#
#
#
# Elastic Compliance Matrix: (Units=1/GPa)
#
#
# Indices 1 2 3 4 5 6 
#
# 1 0.026363 -0.002072 -0.011852 0.000000 0.006387 0.000000
# 2 -0.002072 0.014349 -0.006603 0.000000 0.002571 0.000000
# 3 -0.011852 -0.006603 0.018922 0.000000 -0.004411 0.000000
# 4 0.000000 0.000000 0.000000 0.036418 0.000000 -0.002245
# 5 0.006387 0.002571 -0.004411 0.000000 0.035910 0.000000
# 6 0.000000 0.000000 0.000000 -0.002245 0.000000 0.031459
#
#
# Mechanical properties :
#
#
# Convention : Reuss Voigt Hill
#
# Bulk Modulus (GPa) = 53.81572 61.50846 57.66209
# Shear Modulus (GPa) = 23.73400 26.50389 25.11894
#
# Velocity S-wave (km/s) = 3.33025 3.51922 3.42604
# Velocity P-wave (km/s) = 6.31940 6.72721 6.52649
#
# Compressibility (1/GPa) = 0.01858193
#
# Stress axis : x y z
#
# Youngs Moduli (GPa) = 37.93214 69.69035 52.84767
#
# Poissons Ratio (x) = 0.14438 0.62633
# Poissons Ratio (y) = 0.07859 0.34894
# Poissons Ratio (z) = 0.44956 0.46015
#
# Static dielectric constant tensor:
#      x y z
#    x 3.967510 0.000000 0.025520 
#    y 0.000000 4.104050 0.000000 
#    z 0.025520 0.000000 3.818140 
# 
# 
# High freq. dielectric constant tensor:
#      x y z
#    x 1.826630 0.000000 -0.007280 
#    y 0.000000 1.850490 0.000000 
#    z -0.007280 0.000000 1.835960 
# 
# From -- ./inp_files/197919.got.cif
#   From: 2010.06.25/outbox.cif.g09.slc.cpg/sg15_99_cif.got.tgz:197919.got - 2010.06.28 07:06:18.
