data_PCOD8139538
_publ_section_title
;
Structure prediction by ZEFSAII (Michael W. Deem and Ramdas Pophale) SiO2 
 PCOD8139538
Probable space group: C 2/C
;
_chemical_formula_sum "Si O2"
_cell_formula_units_Z 40
_cell_length_a 10.990851
_cell_length_b 9.872671
_cell_length_c 14.191076
_cell_angle_alpha 90.000000
_cell_angle_beta 83.144742
_cell_angle_gamma 90.000000
_cell_volume 1528.851573
_symmetry_space_group_name_H-M "C 2/C"
_symmetry_group_IT_number 15
_symmetry_cell_setting 'monoclinic'
loop_
_space_group_symop_operation_xyz
x,y,z
-x,y,1/2-z
-x,-y,-z
x,-y,1/2+z
1/2+x,1/2+y,z
1/2-x,1/2+y,1/2-z
1/2-x,1/2-y,-z
1/2+x,1/2-y,1/2+z
loop_
_atom_site_type_symbol
_atom_site_label
_atom_site_fract_x
_atom_site_fract_y
_atom_site_fract_z
Si Si1 0.081125 0.330648 0.082914
Si Si2 0.198934 0.339582 0.884093
Si Si3 0.356519 0.667151 0.037033
Si Si4 0.165174 0.429183 0.686598
Si Si5 0.490518 0.660800 0.848897
O O1 0.162569 0.201517 0.105322
O O2 0.082105 0.443254 0.164557
O O3 0.945452 0.273934 0.080027
O O4 0.133508 0.403536 0.982620
O O5 0.193904 0.441270 0.795623
O O6 0.126837 0.200456 0.867653
O O7 0.297187 0.567123 0.119804
O O8 0.250000 0.750000 0.000000
O O9 0.425244 0.585948 0.943974
O O10 0.087728 0.295784 0.669634
O O11 0.500000 0.573880 0.750000
#
# Coordination Sequence:
#
# PCOD8139538 Si02
#       5
#     8   8   8   8   8
#     4  10  21  41  66  89 136 177 208 285 334 388
#     4   9  20  40  59  90 132 169 217 265 335 404
#     4   9  19  35  61  95 127 164 220 271 323 401
#     4  10  20  39  63  96 126 169 225 265 333 398
#     4   8  16  35  56  82 126 164 206 263 320 385
#
# _framework density 26.163429000000001
#
# number of rings (size 3 to 8) (size 9 to 14) (size 15 to 20)
#    0.000    2.800    0.000    0.000    0.000    8.000 
#   25.200    9.000    4.400    0.000    0.000    0.000 
#    0.000    0.000    0.000    0.000    0.000    0.000 
#
# Total GULP energy -247839.648915 kJ/mol
# GULP energy per Si atom -12391.982446 kJ/mol
# Density = 2.610388 g / cm^3
# Si number density = 26.163429 Si / 1000 Ang^3
#
#
#
# Elastic Constant Matrix: (Units=GPa)
#
#
# Indices 1 2 3 4 5 6 
#
# 1 144.9806 17.9113 54.0198 0.0000 8.5082 0.0000
# 2 17.9113 45.2793 35.9216 0.0000 10.3819 0.0000
# 3 54.0198 35.9216 198.0414 0.0000 9.7265 0.0000
# 4 0.0000 0.0000 0.0000 26.1602 0.0000 8.0906
# 5 8.5082 10.3819 9.7265 0.0000 44.0232 0.0000
# 6 0.0000 0.0000 0.0000 8.0906 0.0000 11.5371
#
#
#
# Elastic Compliance Matrix: (Units=1/GPa)
#
#
# Indices 1 2 3 4 5 6 
#
# 1 0.007803 -0.001464 -0.001826 0.000000 -0.000759 0.000000
# 2 -0.001464 0.027259 -0.004290 0.000000 -0.005198 0.000000
# 3 -0.001826 -0.004290 0.006327 0.000000 -0.000033 0.000000
# 4 0.000000 0.000000 0.000000 0.048813 0.000000 -0.034231
# 5 -0.000759 -0.005198 -0.000033 0.000000 0.024095 0.000000
# 6 0.000000 0.000000 0.000000 -0.034231 0.000000 0.110682
#
#
# Mechanical properties :
#
#
# Convention : Reuss Voigt Hill
#
# Bulk Modulus (GPa) = 38.12366 67.11185 52.61775
# Shear Modulus (GPa) = 20.08986 35.04067 27.56526
#
# Velocity S-wave (km/s) = 2.77404 3.66361 3.24941
# Velocity P-wave (km/s) = 4.98632 6.60324 5.85090
#
# Compressibility (1/GPa) = 0.02623043
#
# Stress axis : x y z
#
# Youngs Moduli (GPa) = 128.15338 36.68469 158.04926
#
# Poissons Ratio (x) = 0.05372 0.28853
# Poissons Ratio (y) = 0.18766 0.67799
# Poissons Ratio (z) = 0.23395 0.15737
#
# Static dielectric constant tensor:
#      x y z
#    x 5.167550 0.000000 -0.476030 
#    y 0.000000 3.720690 0.000000 
#    z -0.476030 0.000000 6.222110 
# 
# 
# High freq. dielectric constant tensor:
#      x y z
#    x 2.066620 0.000000 0.004720 
#    y 0.000000 1.979110 0.000000 
#    z 0.004720 0.000000 2.073950 
# 
# From -- ./inp_files/141751.got.cif
#   From: 2010.06.25/outbox.cif.g09.slc.cpg/sg15_71_cif.got.tgz:141751.got - 2010.06.28 07:06:18.
