data_PCOD8139533
_publ_section_title
;
Structure prediction by ZEFSAII (Michael W. Deem and Ramdas Pophale) SiO2 
 PCOD8139533
Probable space group: C 2/C
;
_chemical_formula_sum "Si O2"
_cell_formula_units_Z 56
_cell_length_a 16.845550
_cell_length_b 16.492725
_cell_length_c 10.046098
_cell_angle_alpha 90.000000
_cell_angle_beta 115.992185
_cell_angle_gamma 90.000000
_cell_volume 2508.788768
_symmetry_space_group_name_H-M "C 2/C"
_symmetry_group_IT_number 15
_symmetry_cell_setting 'monoclinic'
loop_
_space_group_symop_operation_xyz
x,y,z
-x,y,1/2-z
-x,-y,-z
x,-y,1/2+z
1/2+x,1/2+y,z
1/2-x,1/2+y,1/2-z
1/2-x,1/2-y,-z
1/2+x,1/2-y,1/2+z
loop_
_atom_site_type_symbol
_atom_site_label
_atom_site_fract_x
_atom_site_fract_y
_atom_site_fract_z
Si Si1 0.129918 0.748285 0.040078
Si Si2 0.144761 0.072151 0.628982
Si Si3 0.593025 0.054578 0.365656
Si Si4 0.840783 0.531370 0.817697
Si Si5 0.441457 0.821520 0.453361
Si Si6 0.176354 0.794974 0.781546
Si Si7 0.597167 0.545177 0.309296
O O1 0.109138 0.837544 0.080470
O O2 0.219925 0.715700 0.173673
O O3 0.145005 0.750011 0.892919
O O4 0.046157 0.692451 0.014355
O O5 0.245985 0.073265 0.746880
O O6 0.089539 0.033496 0.709549
O O7 0.133346 0.022397 0.482385
O O8 0.500000 0.018306 0.250000
O O9 0.635362 0.999519 0.515705
O O10 0.580582 0.147274 0.410786
O O11 0.655479 0.044013 0.282301
O O12 0.910007 0.604472 0.833270
O O13 0.383879 0.741238 0.381441
O O14 0.161211 0.891100 0.782902
O O15 0.500000 0.584296 0.250000
#
# Coordination Sequence:
#
# PCOD8139533 Si02
#       7
#     8   8   8   8   8   8   8
#     4  10  20  39  64  96 129 179 221 270 329 394
#     4  11  22  43  69 101 132 171 227 280 331 399
#     4  10  22  40  59  97 135 175 214 267 334 404
#     4  10  22  41  66  98 135 169 220 273 337 395
#     4  10  22  38  66  93 135 168 221 274 332 394
#     4  10  20  39  63  95 132 171 227 273 322 392
#     4  11  24  41  69 100 135 174 225 278 336 393
#
# _framework density 22.321529000000002
#
# number of rings (size 3 to 8) (size 9 to 14) (size 15 to 20)
#    0.857    0.857    1.429    3.857    0.000    2.286 
#    0.000    2.143    0.000    3.429    0.000    0.000 
#    0.000    0.000    0.000    0.000    0.000    0.000 
#
# Total GULP energy -346976.921563 kJ/mol
# GULP energy per Si atom -12392.032913 kJ/mol
# Density = 2.227072 g / cm^3
# Si number density = 22.321529 Si / 1000 Ang^3
#
#
#
# Elastic Constant Matrix: (Units=GPa)
#
#
# Indices 1 2 3 4 5 6 
#
# 1 85.6259 31.6775 43.9245 0.0000 21.2708 0.0000
# 2 31.6775 54.6690 31.2995 0.0000 -2.1006 0.0000
# 3 43.9245 31.2995 147.5893 0.0000 3.4546 0.0000
# 4 0.0000 0.0000 0.0000 28.0581 0.0000 -8.4386
# 5 21.2708 -2.1006 3.4546 0.0000 38.7707 0.0000
# 6 0.0000 0.0000 0.0000 -8.4386 0.0000 22.8308
#
#
#
# Elastic Compliance Matrix: (Units=1/GPa)
#
#
# Indices 1 2 3 4 5 6 
#
# 1 0.019971 -0.009957 -0.003570 0.000000 -0.011178 0.000000
# 2 -0.009957 0.025875 -0.002690 0.000000 0.007104 0.000000
# 3 -0.003570 -0.002690 0.008384 0.000000 0.001066 0.000000
# 4 0.000000 0.000000 0.000000 0.040098 0.000000 0.014821
# 5 -0.011178 0.007104 0.001066 0.000000 0.032215 0.000000
# 6 0.000000 0.000000 0.000000 0.014821 0.000000 0.049278
#
#
# Mechanical properties :
#
#
# Convention : Reuss Voigt Hill
#
# Bulk Modulus (GPa) = 45.88482 55.74302 50.81392
# Shear Modulus (GPa) = 23.19970 29.99744 26.59857
#
# Velocity S-wave (km/s) = 3.22738 3.66987 3.45572
# Velocity P-wave (km/s) = 5.87273 6.55624 6.22387
#
# Compressibility (1/GPa) = 0.02179370
#
# Stress axis : x y z
#
# Youngs Moduli (GPa) = 50.07356 38.64774 119.27961
#
# Poissons Ratio (x) = 0.38483 0.42585
# Poissons Ratio (y) = 0.49860 0.32088
# Poissons Ratio (z) = 0.17877 0.10397
#
# Static dielectric constant tensor:
#      x y z
#    x 3.792050 0.000000 0.124000 
#    y 0.000000 3.671040 0.000000 
#    z 0.124000 0.000000 4.209500 
# 
# 
# High freq. dielectric constant tensor:
#      x y z
#    x 1.865030 0.000000 0.022350 
#    y 0.000000 1.853340 0.000000 
#    z 0.022350 0.000000 1.888750 
# 
# From -- ./inp_files/105813.got.cif
#   From: 2010.06.25/outbox.cif.g09.slc.cpg/sg15_53_cif.got.tgz:105813.got - 2010.06.28 07:06:18.
