data_PCOD8139047
_publ_section_title
;
Structure prediction by ZEFSAII (Michael W. Deem and Ramdas Pophale) SiO2 
 PCOD8139047
Probable space group: C 2/C
;
_chemical_formula_sum "Si O2"
_cell_formula_units_Z 40
_cell_length_a 8.748013
_cell_length_b 22.448244
_cell_length_c 9.171820
_cell_angle_alpha 90.000000
_cell_angle_beta 88.176323
_cell_angle_gamma 90.000000
_cell_volume 1800.227074
_symmetry_space_group_name_H-M "C 2/C"
_symmetry_group_IT_number 15
_symmetry_cell_setting 'monoclinic'
loop_
_space_group_symop_operation_xyz
x,y,z
-x,y,1/2-z
-x,-y,-z
x,-y,1/2+z
1/2+x,1/2+y,z
1/2-x,1/2+y,1/2-z
1/2-x,1/2-y,-z
1/2+x,1/2-y,1/2+z
loop_
_atom_site_type_symbol
_atom_site_label
_atom_site_fract_x
_atom_site_fract_y
_atom_site_fract_z
Si Si1 0.266584 0.678098 0.627682
Si Si2 0.824352 0.202161 0.293722
Si Si3 0.000000 0.906290 0.250000
Si Si4 0.317660 0.427417 0.733441
Si Si5 0.739340 0.972055 0.423923
Si Si6 0.500000 0.100460 0.750000
O O1 0.263600 0.735505 0.740139
O O2 0.293801 0.697663 0.464165
O O3 0.408314 0.635863 0.647082
O O4 0.110764 0.641519 0.651776
O O5 0.762778 0.141666 0.217903
O O6 0.000000 0.212134 0.250000
O O7 0.106014 0.947021 0.149069
O O8 0.500000 0.428325 0.750000
O O9 0.255258 0.465056 0.597230
O O10 0.237889 0.458014 0.877705
O O11 0.589512 0.939788 0.365654
#
# Coordination Sequence:
#
# PCOD8139047 Si02
#       6
#     8   8   4   8   8   4
#     4  10  21  42  64  92 128 174 210 273 323 392
#     4  10  21  40  65  92 128 170 216 266 324 386
#     4  10  20  38  64  90 124 168 222 262 324 380
#     4  11  23  40  67  96 129 171 225 273 316 392
#     4  11  24  41  66  96 131 176 218 273 326 386
#     4  10  24  44  64  92 140 170 218 266 338 392
#
# _framework density 22.21942
#
# number of rings (size 3 to 8) (size 9 to 14) (size 15 to 20)
#    0.000    1.600    2.000    3.000    5.600    0.800 
#    7.200    3.000    0.000    0.000    0.000    0.000 
#    0.000    0.000    0.000    0.000    0.000    0.000 
#
# Total GULP energy -247809.917156 kJ/mol
# GULP energy per Si atom -12390.495858 kJ/mol
# Density = 2.216885 g / cm^3
# Si number density = 22.219420 Si / 1000 Ang^3
#
#
#
# Elastic Constant Matrix: (Units=GPa)
#
#
# Indices 1 2 3 4 5 6 
#
# 1 87.5044 15.2988 14.0976 0.0000 4.7990 0.0000
# 2 15.2988 93.6672 -4.6169 0.0000 13.7899 0.0000
# 3 14.0976 -4.6169 66.0236 0.0000 11.8488 0.0000
# 4 0.0000 0.0000 0.0000 33.1090 0.0000 -1.5846
# 5 4.7990 13.7899 11.8488 0.0000 16.0651 0.0000
# 6 0.0000 0.0000 0.0000 -1.5846 0.0000 41.5519
#
#
#
# Elastic Compliance Matrix: (Units=1/GPa)
#
#
# Indices 1 2 3 4 5 6 
#
# 1 0.012248 -0.002183 -0.002821 0.000000 0.000296 0.000000
# 2 -0.002183 0.013208 0.003812 0.000000 -0.013496 0.000000
# 3 -0.002821 0.003812 0.018961 0.000000 -0.016414 0.000000
# 4 0.000000 0.000000 0.000000 0.030258 0.000000 0.001154
# 5 0.000296 -0.013496 -0.016414 0.000000 0.085849 0.000000
# 6 0.000000 0.000000 0.000000 0.001154 0.000000 0.024110
#
#
# Mechanical properties :
#
#
# Convention : Reuss Voigt Hill
#
# Bulk Modulus (GPa) = 23.79159 32.97268 28.38213
# Shear Modulus (GPa) = 24.87201 32.97292 28.92246
#
# Velocity S-wave (km/s) = 3.34935 3.85641 3.61179
# Velocity P-wave (km/s) = 5.06836 5.89075 5.49497
#
# Compressibility (1/GPa) = 0.04203166
#
# Stress axis : x y z
#
# Youngs Moduli (GPa) = 81.64651 75.71455 52.74082
#
# Poissons Ratio (x) = 0.16529 0.14878
# Poissons Ratio (y) = 0.17824 -0.20104
# Poissons Ratio (z) = 0.23032 -0.28861
#
# Static dielectric constant tensor:
#      x y z
#    x 3.736580 0.000000 -0.227980 
#    y 0.000000 4.931800 0.000000 
#    z -0.227980 0.000000 3.867130 
# 
# 
# High freq. dielectric constant tensor:
#      x y z
#    x 1.862610 0.000000 -0.022080 
#    y 0.000000 1.907780 0.000000 
#    z -0.022080 0.000000 1.859030 
# 
# From -- ./inp_files/23539.got.cif
#   From: 2010.06.25/outbox.cif.g09.slc.cpg/sg15_12_cif.got.tgz:23539.got - 2010.06.28 07:06:18.
