data_PCOD8139600
_publ_section_title
;
Structure prediction by ZEFSAII (Michael W. Deem and Ramdas Pophale) SiO2 
 PCOD8139600
Probable space group: C 2/C
;
_chemical_formula_sum "Si O2"
_cell_formula_units_Z 56
_cell_length_a 7.676447
_cell_length_b 25.901417
_cell_length_c 15.153737
_cell_angle_alpha 90.000000
_cell_angle_beta 102.354443
_cell_angle_gamma 90.000000
_cell_volume 2943.256860
_symmetry_space_group_name_H-M "C 2/C"
_symmetry_group_IT_number 15
_symmetry_cell_setting 'monoclinic'
loop_
_space_group_symop_operation_xyz
x,y,z
-x,y,1/2-z
-x,-y,-z
x,-y,1/2+z
1/2+x,1/2+y,z
1/2-x,1/2+y,1/2-z
1/2-x,1/2-y,-z
1/2+x,1/2-y,1/2+z
loop_
_atom_site_type_symbol
_atom_site_label
_atom_site_fract_x
_atom_site_fract_y
_atom_site_fract_z
Si Si1 0.282826 0.190178 0.998447
Si Si2 0.099953 0.077279 0.169414
Si Si3 0.411490 0.828603 0.104697
Si Si4 0.500000 0.743133 0.250000
Si Si5 0.455134 0.377566 0.472215
Si Si6 0.632918 0.461881 0.182522
Si Si7 0.692081 0.827692 0.800324
Si Si8 0.000000 0.587010 0.750000
O O1 0.325537 0.170735 0.098406
O O2 0.250000 0.250000 0.000000
O O3 0.455322 0.181122 0.959521
O O4 0.112225 0.157349 0.946716
O O5 0.268286 0.112401 0.216873
O O6 0.000000 0.071506 0.250000
O O7 0.149760 0.019574 0.144708
O O8 0.991497 0.104324 0.077081
O O9 0.401849 0.778582 0.166911
O O10 0.217311 0.840562 0.044236
O O11 0.487944 0.878104 0.162456
O O12 0.650928 0.708521 0.220190
O O13 0.428443 0.425985 0.404909
O O14 0.500000 0.456308 0.250000
O O15 0.826403 0.448000 0.240805
O O16 0.500000 0.807859 0.750000
#
# Coordination Sequence:
#
# PCOD8139600 Si02
#       8
#     8   8   8   4   8   8   8   4
#     4  11  23  39  57  91 117 155 203 235 289 356
#     4  10  22  40  61  86 118 156 200 243 298 355
#     4  10  22  38  63  87 120 156 197 245 292 348
#     4  11  22  40  58  88 120 154 200 241 294 356
#     4  10  23  40  61  88 122 156 197 249 292 349
#     4  10  20  39  65  88 119 155 195 247 302 348
#     4  11  25  39  58  83 121 156 194 245 293 352
#     4   9  20  38  60  94 118 152 198 243 294 352
#
# _framework density 19.026543
#
# number of rings (size 3 to 8) (size 9 to 14) (size 15 to 20)
#    0.000    1.714    2.143    1.286    5.000    0.571 
#    0.000    0.000    0.000    8.571    0.000    0.000 
#    0.000    0.000    0.000    0.000    0.000    0.000 
#
# Total GULP energy -347042.477955 kJ/mol
# GULP energy per Si atom -12394.374213 kJ/mol
# Density = 1.898324 g / cm^3
# Si number density = 19.026543 Si / 1000 Ang^3
#
#
#
# Elastic Constant Matrix: (Units=GPa)
#
#
# Indices 1 2 3 4 5 6 
#
# 1 113.3812 51.7075 42.4735 0.0000 1.1522 0.0000
# 2 51.7075 129.7419 32.0959 0.0000 0.6434 0.0000
# 3 42.4735 32.0959 72.6113 0.0000 -7.6750 0.0000
# 4 0.0000 0.0000 0.0000 39.8586 0.0000 11.4793
# 5 1.1522 0.6434 -7.6750 0.0000 35.0072 0.0000
# 6 0.0000 0.0000 0.0000 11.4793 0.0000 -144.7666
#
#
#
# Elastic Compliance Matrix: (Units=1/GPa)
#
#
# Indices 1 2 3 4 5 6 
#
# 1 0.012729 -0.003569 -0.006046 0.000000 -0.001679 0.000000
# 2 -0.003569 0.009691 -0.002254 0.000000 -0.000555 0.000000
# 3 -0.006046 -0.002254 0.018765 0.000000 0.004354 0.000000
# 4 0.000000 0.000000 0.000000 0.024529 0.000000 0.001945
# 5 -0.001679 -0.000555 0.004354 0.000000 0.029586 0.000000
# 6 0.000000 0.000000 0.000000 0.001945 0.000000 -0.006753
#
#
# Mechanical properties :
#
#
# Convention : Reuss Voigt Hill
#
# Bulk Modulus (GPa) = 57.31817 63.14315 60.23066
# Shear Modulus (GPa) = 42.33705 -1.34965 20.49370
#
# Velocity S-wave (km/s) = 4.72227 -0.84314 3.28550
# Velocity P-wave (km/s) = 7.74106 5.68428 6.79099
#
# Compressibility (1/GPa) = 0.01744647
#
# Stress axis : x y z
#
# Youngs Moduli (GPa) = 78.55826 103.19349 53.29040
#
# Poissons Ratio (x) = 0.36832 0.32218
# Poissons Ratio (y) = 0.28039 0.12013
# Poissons Ratio (z) = 0.47494 0.23263
#
# Static dielectric constant tensor:
#      x y z
#    x 6.734610 0.000000 -0.833630 
#    y 0.000000 3.883480 0.000000 
#    z -0.833630 0.000000 3.843380 
# 
# 
# High freq. dielectric constant tensor:
#      x y z
#    x 1.741560 0.000000 -0.003780 
#    y 0.000000 1.756270 0.000000 
#    z -0.003780 0.000000 1.746890 
# 
# From -- ./inp_files/130816.got.cif
#   From: 2010.06.25/outbox.cif.g09.slc.cpg/sg15_66_cif.got.tgz:130816.got - 2010.06.28 07:06:18.
