data_PCOD8139097
_publ_section_title
;
Structure prediction by ZEFSAII (Michael W. Deem and Ramdas Pophale) SiO2 
 PCOD8139097
Probable space group: C 2/C
;
_chemical_formula_sum "Si O2"
_cell_formula_units_Z 64
_cell_length_a 15.843983
_cell_length_b 24.788824
_cell_length_c 14.961087
_cell_angle_alpha 90.000000
_cell_angle_beta 31.990777
_cell_angle_gamma 90.000000
_cell_volume 3113.015262
_symmetry_space_group_name_H-M "C 2/C"
_symmetry_group_IT_number 15
_symmetry_cell_setting 'monoclinic'
loop_
_space_group_symop_operation_xyz
x,y,z
-x,y,1/2-z
-x,-y,-z
x,-y,1/2+z
1/2+x,1/2+y,z
1/2-x,1/2+y,1/2-z
1/2-x,1/2-y,-z
1/2+x,1/2-y,1/2+z
loop_
_atom_site_type_symbol
_atom_site_label
_atom_site_fract_x
_atom_site_fract_y
_atom_site_fract_z
Si Si1 0.715492 0.890159 0.871878
Si Si2 0.144888 0.694229 0.946991
Si Si3 0.839447 0.400754 0.194303
Si Si4 0.188280 0.585038 0.584274
Si Si5 0.314132 0.034634 0.396678
Si Si6 0.769075 0.691194 0.290948
Si Si7 0.315000 0.511889 0.177696
Si Si8 0.823385 0.144160 0.940951
O O1 0.776975 0.839072 0.759952
O O2 0.805726 0.944752 0.764811
O O3 0.529184 0.901491 0.026388
O O4 0.754267 0.879100 0.942433
O O5 0.216179 0.647504 0.819436
O O6 0.196028 0.749550 0.854641
O O7 0.215686 0.685890 0.981885
O O8 0.957716 0.693382 0.128816
O O9 0.761798 0.392028 0.363298
O O10 0.776522 0.457255 0.211411
O O11 0.249451 0.523663 0.514798
O O12 0.000000 0.583201 0.750000
O O13 0.500000 0.042730 0.250000
O O14 0.273658 0.038827 0.327732
O O15 0.224919 0.081883 0.531027
O O16 0.694458 0.657822 0.439137
O O17 0.500000 0.500000 0.000000
O O18 0.000000 0.153943 0.750000
#
# Coordination Sequence:
#
# PCOD8139097 Si02
#       8
#     8   8   8   8   8   8   8   8
#     4  10  20  38  65  84 121 165 205 253 309 375
#     4  11  24  39  65  83 122 163 206 262 306 376
#     4   9  21  38  61  90 116 161 209 250 307 378
#     4   8  17  36  60  88 116 154 205 250 293 363
#     4  10  21  38  59  88 129 167 208 250 304 384
#     4  11  23  43  60  90 118 163 214 253 315 370
#     4  11  23  36  60  93 130 158 206 264 310 366
#     4  12  25  38  60  89 124 160 203 260 313 370
#
# _framework density 20.558845999999999
#
# number of rings (size 3 to 8) (size 9 to 14) (size 15 to 20)
#    0.000    1.750    1.250    3.375    5.250    1.000 
#    0.000    2.500    0.000    0.000    0.000    0.000 
#    0.000    0.000    0.000    0.000    0.000    0.000 
#
# Total GULP energy -396740.669344 kJ/mol
# GULP energy per Si atom -12398.145917 kJ/mol
# Density = 2.051205 g / cm^3
# Si number density = 20.558846 Si / 1000 Ang^3
#
#
#
# Elastic Constant Matrix: (Units=GPa)
#
#
# Indices 1 2 3 4 5 6 
#
# 1 49.5053 16.2850 32.4450 0.0547 10.8417 -0.0291
# 2 16.2850 110.5985 52.2913 0.0230 16.8547 -0.0192
# 3 32.4450 52.2913 101.2311 0.0754 17.1876 -0.0495
# 4 0.0547 0.0230 0.0754 45.2020 -0.0693 4.1807
# 5 10.8417 16.8547 17.1876 -0.0693 32.3324 0.0490
# 6 -0.0291 -0.0192 -0.0495 4.1807 0.0490 25.1883
#
#
#
# Elastic Compliance Matrix: (Units=1/GPa)
#
#
# Indices 1 2 3 4 5 6 
#
# 1 0.026251 0.000619 -0.007897 -0.000029 -0.004927 0.000030
# 2 0.000619 0.012296 -0.005965 -0.000003 -0.003447 0.000006
# 3 -0.007897 -0.005965 0.015953 -0.000021 -0.002723 0.000026
# 4 -0.000029 -0.000003 -0.000021 0.022468 0.000076 -0.003729
# 5 -0.004927 -0.003447 -0.002723 0.000076 0.035826 -0.000096
# 6 0.000030 0.000006 0.000026 -0.003729 -0.000096 0.040320
#
#
# Mechanical properties :
#
#
# Convention : Reuss Voigt Hill
#
# Bulk Modulus (GPa) = 35.69516 51.48638 43.59077
# Shear Modulus (GPa) = 26.46399 31.23214 28.84807
#
# Velocity S-wave (km/s) = 3.59169 3.90187 3.74999
# Velocity P-wave (km/s) = 5.88222 6.73774 6.32446
#
# Compressibility (1/GPa) = 0.02801500
#
# Stress axis : x y z
#
# Youngs Moduli (GPa) = 38.09426 81.32759 62.68484
#
# Poissons Ratio (x) = -0.05036 0.49500
# Poissons Ratio (y) = -0.02359 0.37390
# Poissons Ratio (z) = 0.30082 0.48510
#
# Static dielectric constant tensor:
#      x y z
#    x 3.852880 -0.000100 0.283370 
#    y -0.000100 3.789010 0.000170 
#    z 0.283370 0.000170 3.766480 
# 
# 
# High freq. dielectric constant tensor:
#      x y z
#    x 1.797610 -0.000010 0.010480 
#    y -0.000010 1.795110 0.000020 
#    z 0.010480 0.000020 1.802750 
# 
# From -- ./inp_files/164221.got.cif
#   From: 2010.06.25/outbox.cif.g09.slc.cpg/sg15_83_cif.got.tgz:164221.got - 2010.06.28 07:06:18.
