data_PCOD8139239
_publ_section_title
;
Structure prediction by ZEFSAII (Michael W. Deem and Ramdas Pophale) SiO2 
 PCOD8139239
Probable space group: C 2/C
;
_chemical_formula_sum "Si O2"
_cell_formula_units_Z 48
_cell_length_a 11.722425
_cell_length_b 19.695142
_cell_length_c 27.125485
_cell_angle_alpha 90.000000
_cell_angle_beta 158.129612
_cell_angle_gamma 90.000000
_cell_volume 2332.866738
_symmetry_space_group_name_H-M "C 2/C"
_symmetry_group_IT_number 15
_symmetry_cell_setting 'monoclinic'
loop_
_space_group_symop_operation_xyz
x,y,z
-x,y,1/2-z
-x,-y,-z
x,-y,1/2+z
1/2+x,1/2+y,z
1/2-x,1/2+y,1/2-z
1/2-x,1/2-y,-z
1/2+x,1/2-y,1/2+z
loop_
_atom_site_type_symbol
_atom_site_label
_atom_site_fract_x
_atom_site_fract_y
_atom_site_fract_z
Si Si1 0.382941 0.817536 0.617081
Si Si2 0.070488 0.685921 0.473658
Si Si3 0.000000 0.495414 0.250000
Si Si4 0.741482 0.059544 0.104782
Si Si5 0.316506 0.618142 0.937253
Si Si6 0.421463 0.404380 0.859452
Si Si7 0.000000 0.274926 0.250000
O O1 0.315960 0.736659 0.598247
O O2 0.304683 0.839376 0.529094
O O3 0.729885 0.835577 0.771143
O O4 0.165004 0.863836 0.563111
O O5 0.971011 0.624613 0.468680
O O6 0.773706 0.729605 0.340143
O O7 0.773052 0.450870 0.125778
O O8 0.800143 0.538215 0.207969
O O9 0.000000 0.044725 0.250000
O O10 0.924381 0.069624 0.128159
O O11 0.500000 0.000000 0.000000
O O12 0.089116 0.678856 0.832250
O O13 0.308659 0.610702 0.993225
#
# Coordination Sequence:
#
# PCOD8139239 Si02
#       7
#     8   8   4   8   8   8   4
#     4  10  20  38  68  92 124 171 219 276 327 403
#     4  10  20  42  66  91 127 182 218 265 347 395
#     4  11  24  36  64  92 133 174 212 280 331 396
#     4  12  28  47  70  97 141 187 228 273 343 418
#     4  10  22  37  59  99 126 163 224 274 340 383
#     4  12  23  40  66  96 136 168 225 276 337 395
#     4   9  18  40  62  88 127 170 216 268 337 406
#
# _framework density 20.575543
#
# number of rings (size 3 to 8) (size 9 to 14) (size 15 to 20)
#    0.000    1.333    4.167    0.500    4.667    0.000 
#    0.000   12.500    0.000    0.000    0.000    0.000 
#    0.000    0.000    0.000    0.000    0.000    0.000 
#
# Total GULP energy -297551.679422 kJ/mol
# GULP energy per Si atom -12397.986643 kJ/mol
# Density = 2.052871 g / cm^3
# Si number density = 20.575543 Si / 1000 Ang^3
#
#
#
# Elastic Constant Matrix: (Units=GPa)
#
#
# Indices 1 2 3 4 5 6 
#
# 1 145.8947 57.0319 45.5370 0.0241 -10.9313 -0.0075
# 2 57.0319 129.7938 63.4080 -0.0286 -1.5606 0.0039
# 3 45.5370 63.4080 111.2821 -0.0810 -17.5177 0.0128
# 4 0.0241 -0.0286 -0.0810 20.5428 -0.0188 5.1697
# 5 -10.9313 -1.5606 -17.5177 -0.0188 34.2278 0.0031
# 6 -0.0075 0.0039 0.0128 5.1697 0.0031 22.1247
#
#
#
# Elastic Compliance Matrix: (Units=1/GPa)
#
#
# Indices 1 2 3 4 5 6 
#
# 1 0.008655 -0.003038 -0.001519 -0.000021 0.001848 0.000009
# 2 -0.003038 0.012006 -0.006161 -0.000008 -0.003576 0.000003
# 3 -0.001519 -0.006161 0.014137 0.000061 0.006469 -0.000023
# 4 -0.000021 -0.000008 0.000061 0.051720 0.000053 -0.012085
# 5 0.001848 -0.003576 0.006469 0.000053 0.032954 -0.000019
# 6 0.000009 0.000003 -0.000023 -0.012085 -0.000019 0.048022
#
#
# Mechanical properties :
#
#
# Convention : Reuss Voigt Hill
#
# Bulk Modulus (GPa) = 74.84711 79.88049 77.36380
# Shear Modulus (GPa) = 25.85517 30.11198 27.98358
#
# Velocity S-wave (km/s) = 3.54870 3.82970 3.69187
# Velocity P-wave (km/s) = 7.29703 7.64610 7.47360
#
# Compressibility (1/GPa) = 0.01336057
#
# Stress axis : x y z
#
# Youngs Moduli (GPa) = 115.54404 83.28941 70.73816
#
# Poissons Ratio (x) = 0.25307 0.10748
# Poissons Ratio (y) = 0.35107 0.43580
# Poissons Ratio (z) = 0.17555 0.51312
#
# Static dielectric constant tensor:
#      x y z
#    x 3.796200 0.000020 0.114600 
#    y 0.000020 3.869580 -0.000090 
#    z 0.114600 -0.000090 3.941020 
# 
# 
# High freq. dielectric constant tensor:
#      x y z
#    x 1.807680 0.000000 0.002670 
#    y 0.000000 1.806950 -0.000010 
#    z 0.002670 -0.000010 1.802400 
# 
# From -- ./inp_files/293837.got.cif
#   From: 2010.06.25/outbox.cif.g09.slc.cpg/sg15_147_cif.got.tgz:293837.got - 2010.06.28 07:06:18.
