data_PCOD8139694
_publ_section_title
;
Structure prediction by ZEFSAII (Michael W. Deem and Ramdas Pophale) SiO2 
 PCOD8139694
Probable space group: C 2/C
;
_chemical_formula_sum "Si O2"
_cell_formula_units_Z 48
_cell_length_a 18.314368
_cell_length_b 8.928020
_cell_length_c 18.126773
_cell_angle_alpha 90.000000
_cell_angle_beta 133.784789
_cell_angle_gamma 90.000000
_cell_volume 2139.789593
_symmetry_space_group_name_H-M "C 2/C"
_symmetry_group_IT_number 15
_symmetry_cell_setting 'monoclinic'
loop_
_space_group_symop_operation_xyz
x,y,z
-x,y,1/2-z
-x,-y,-z
x,-y,1/2+z
1/2+x,1/2+y,z
1/2-x,1/2+y,1/2-z
1/2-x,1/2-y,-z
1/2+x,1/2-y,1/2+z
loop_
_atom_site_type_symbol
_atom_site_label
_atom_site_fract_x
_atom_site_fract_y
_atom_site_fract_z
Si Si1 0.562474 0.400316 0.957795
Si Si2 0.152097 0.658983 0.224335
Si Si3 0.672782 0.344369 0.897987
Si Si4 0.732112 0.158313 0.813628
Si Si5 0.039693 0.231294 0.983829
Si Si6 0.755269 0.823509 0.083196
O O1 0.571215 0.361606 0.876569
O O2 0.523431 0.569505 0.935192
O O3 0.672263 0.396285 0.072183
O O4 0.485938 0.286816 0.946375
O O5 0.233462 0.738533 0.229242
O O6 0.175345 0.484563 0.243069
O O7 0.158667 0.737994 0.309268
O O8 0.039690 0.663124 0.113073
O O9 0.653435 0.253122 0.809116
O O10 0.720335 0.502936 0.908291
O O11 0.750000 0.250000 0.000000
O O12 0.149137 0.303362 0.051433
O O13 0.750000 0.750000 0.000000
#
# Coordination Sequence:
#
# PCOD8139694 Si02
#       6
#     8   8   8   8   8   8
#     4   9  18  40  67  99 129 172 214 274 338 396
#     4  11  23  40  68  97 132 169 222 269 334 396
#     4  10  20  39  67  93 133 178 217 264 340 393
#     4  10  20  40  64  98 130 174 215 275 324 399
#     4  10  21  39  71  99 131 168 224 273 332 400
#     4  12  22  41  68  96 130 176 217 278 332 390
#
# _framework density 22.432112
#
# number of rings (size 3 to 8) (size 9 to 14) (size 15 to 20)
#    0.000    1.667    3.333    2.000    0.000    0.667 
#    0.000   13.333    3.667    0.000    0.000    0.000 
#    0.000    0.000    0.000    0.000    0.000    0.000 
#
# Total GULP energy -297595.685217 kJ/mol
# GULP energy per Si atom -12399.820217 kJ/mol
# Density = 2.238106 g / cm^3
# Si number density = 22.432112 Si / 1000 Ang^3
#
#
#
# Elastic Constant Matrix: (Units=GPa)
#
#
# Indices 1 2 3 4 5 6 
#
# 1 138.5874 47.3286 30.7180 0.0000 -14.0248 0.0000
# 2 47.3286 151.1405 31.7197 0.0000 -9.9536 0.0000
# 3 30.7180 31.7197 50.9282 0.0000 -19.8660 0.0000
# 4 0.0000 0.0000 0.0000 35.2870 0.0000 -7.9591
# 5 -14.0248 -9.9536 -19.8660 0.0000 33.5897 0.0000
# 6 0.0000 0.0000 0.0000 -7.9591 0.0000 35.5939
#
#
#
# Elastic Compliance Matrix: (Units=1/GPa)
#
#
# Indices 1 2 3 4 5 6 
#
# 1 0.008791 -0.001903 -0.003777 0.000000 0.000873 0.000000
# 2 -0.001903 0.008036 -0.004210 0.000000 -0.000903 0.000000
# 3 -0.003777 -0.004210 0.030461 0.000000 0.015191 0.000000
# 4 0.000000 0.000000 0.000000 0.029844 0.000000 0.006673
# 5 0.000873 -0.000903 0.015191 0.000000 0.038853 0.000000
# 6 0.000000 0.000000 0.000000 0.006673 0.000000 0.029587
#
#
# Mechanical properties :
#
#
# Convention : Reuss Voigt Hill
#
# Bulk Modulus (GPa) = 36.35044 62.24319 49.29682
# Shear Modulus (GPa) = 28.64990 36.28676 32.46833
#
# Velocity S-wave (km/s) = 3.57765 4.02634 3.80860
# Velocity P-wave (km/s) = 5.77113 7.03013 6.43151
#
# Compressibility (1/GPa) = 0.02750998
#
# Stress axis : x y z
#
# Youngs Moduli (GPa) = 113.75382 124.43664 32.82857
#
# Poissons Ratio (x) = 0.23677 0.12399
# Poissons Ratio (y) = 0.21644 0.13820
# Poissons Ratio (z) = 0.42962 0.52385
#
# Static dielectric constant tensor:
#      x y z
#    x 4.593550 0.000000 -0.497400 
#    y 0.000000 4.138590 0.000000 
#    z -0.497400 0.000000 3.920690 
# 
# 
# High freq. dielectric constant tensor:
#      x y z
#    x 1.889670 0.000000 -0.021710 
#    y 0.000000 1.889650 0.000000 
#    z -0.021710 0.000000 1.873670 
# 
# From -- ./inp_files/214082.got.cif
#   From: 2010.06.25/outbox.cif.g09.slc.cpg/sg15_108_cif.got.tgz:214082.got - 2010.06.28 07:06:18.
