data_PCOD8139473
_publ_section_title
;
Structure prediction by ZEFSAII (Michael W. Deem and Ramdas Pophale) SiO2 
 PCOD8139473
Probable space group: C 2/C
;
_chemical_formula_sum "Si O2"
_cell_formula_units_Z 44
_cell_length_a 12.703289
_cell_length_b 21.984982
_cell_length_c 9.163634
_cell_angle_alpha 90.000000
_cell_angle_beta 120.359267
_cell_angle_gamma 90.000000
_cell_volume 2208.294597
_symmetry_space_group_name_H-M "C 2/C"
_symmetry_group_IT_number 15
_symmetry_cell_setting 'monoclinic'
loop_
_space_group_symop_operation_xyz
x,y,z
-x,y,1/2-z
-x,-y,-z
x,-y,1/2+z
1/2+x,1/2+y,z
1/2-x,1/2+y,1/2-z
1/2-x,1/2-y,-z
1/2+x,1/2-y,1/2+z
loop_
_atom_site_type_symbol
_atom_site_label
_atom_site_fract_x
_atom_site_fract_y
_atom_site_fract_z
Si Si1 0.130323 0.465932 0.908113
Si Si2 0.194344 0.567941 0.763136
Si Si3 0.110824 0.152087 0.736209
Si Si4 0.500000 0.838958 0.250000
Si Si5 0.946544 0.275390 0.924978
Si Si6 0.676458 0.172075 0.413607
O O1 0.220254 0.518581 0.908060
O O2 0.171768 0.400101 0.884456
O O3 0.000000 0.483644 0.750000
O O4 0.131990 0.467952 0.084496
O O5 0.321458 0.598648 0.803564
O O6 0.104890 0.620949 0.752105
O O7 0.055265 0.202096 0.586265
O O8 0.000000 0.122349 0.750000
O O9 0.199277 0.187604 0.913442
O O10 0.562516 0.795635 0.414154
O O11 0.828312 0.299302 0.751500
O O12 0.065029 0.304792 0.934104
#
# Coordination Sequence:
#
# PCOD8139473 Si02
#       6
#     8   8   8   4   8   8
#     4  11  19  37  63  93 124 153 209 268 326 359
#     4  11  25  37  61  97 124 167 206 264 323 368
#     4  11  23  42  64  90 130 173 216 251 311 386
#     4  12  22  38  60 104 136 146 206 272 332 372
#     4  11  21  37  67  91 132 159 203 271 314 378
#     4  10  20  39  63 102 110 169 221 250 325 364
#
# _framework density 19.924878
#
# number of rings (size 3 to 8) (size 9 to 14) (size 15 to 20)
#    0.000    1.091    8.182    1.091    2.545    0.727 
#    0.000    3.636    0.000    0.000    0.000    0.000 
#    0.000    0.000    0.000    0.000    0.000    0.000 
#
# Total GULP energy -272743.254970 kJ/mol
# GULP energy per Si atom -12397.420680 kJ/mol
# Density = 1.987953 g / cm^3
# Si number density = 19.924878 Si / 1000 Ang^3
#
#
#
# Elastic Constant Matrix: (Units=GPa)
#
#
# Indices 1 2 3 4 5 6 
#
# 1 109.5795 51.1968 40.6078 0.0000 -5.2684 0.0000
# 2 51.1968 112.1510 47.1361 0.0000 -12.4050 0.0000
# 3 40.6078 47.1361 117.9169 0.0000 -22.8615 0.0000
# 4 0.0000 0.0000 0.0000 30.5112 0.0000 -12.8591
# 5 -5.2684 -12.4050 -22.8615 0.0000 27.6800 0.0000
# 6 0.0000 0.0000 0.0000 -12.8591 0.0000 31.1192
#
#
#
# Elastic Compliance Matrix: (Units=1/GPa)
#
#
# Indices 1 2 3 4 5 6 
#
# 1 0.012216 -0.004648 -0.002741 0.000000 -0.002022 0.000000
# 2 -0.004648 0.012539 -0.002969 0.000000 0.002282 0.000000
# 3 -0.002741 -0.002969 0.012207 0.000000 0.008230 0.000000
# 4 0.000000 0.000000 0.000000 0.039686 0.000000 0.016399
# 5 -0.002022 0.002282 0.008230 0.000000 0.043562 0.000000
# 6 0.000000 0.000000 0.000000 0.016399 0.000000 0.038911
#
#
# Mechanical properties :
#
#
# Convention : Reuss Voigt Hill
#
# Bulk Modulus (GPa) = 61.55553 68.61431 65.08492
# Shear Modulus (GPa) = 26.99020 31.24252 29.11636
#
# Velocity S-wave (km/s) = 3.68448 3.96411 3.82685
# Velocity P-wave (km/s) = 7.00438 7.44738 7.22928
#
# Compressibility (1/GPa) = 0.01624549
#
# Stress axis : x y z
#
# Youngs Moduli (GPa) = 81.85995 79.75251 81.92184
#
# Poissons Ratio (x) = 0.37071 0.22453
# Poissons Ratio (y) = 0.38051 0.24322
# Poissons Ratio (z) = 0.22436 0.23678
#
# Static dielectric constant tensor:
#      x y z
#    x 3.448680 0.000000 -0.041290 
#    y 0.000000 3.639250 0.000000 
#    z -0.041290 0.000000 3.927740 
# 
# 
# High freq. dielectric constant tensor:
#      x y z
#    x 1.751530 0.000000 -0.006520 
#    y 0.000000 1.784640 0.000000 
#    z -0.006520 0.000000 1.771730 
# 
# From -- ./inp_files/32226.got.cif
#   From: 2010.06.25/outbox.cif.g09.slc.cpg/sg15_17_cif.got.tgz:32226.got - 2010.06.28 07:06:18.
