data_PCOD8139737
_publ_section_title
;
Structure prediction by ZEFSAII (Michael W. Deem and Ramdas Pophale) SiO2 
 PCOD8139737
Probable space group: C 2/C
;
_chemical_formula_sum "Si O2"
_cell_formula_units_Z 64
_cell_length_a 11.125535
_cell_length_b 17.246551
_cell_length_c 16.161243
_cell_angle_alpha 90.000000
_cell_angle_beta 90.256736
_cell_angle_gamma 90.000000
_cell_volume 3100.941418
_symmetry_space_group_name_H-M "C 2/C"
_symmetry_group_IT_number 15
_symmetry_cell_setting 'monoclinic'
loop_
_space_group_symop_operation_xyz
x,y,z
-x,y,1/2-z
-x,-y,-z
x,-y,1/2+z
1/2+x,1/2+y,z
1/2-x,1/2+y,1/2-z
1/2-x,1/2-y,-z
1/2+x,1/2-y,1/2+z
loop_
_atom_site_type_symbol
_atom_site_label
_atom_site_fract_x
_atom_site_fract_y
_atom_site_fract_z
Si Si1 0.529575 0.518054 0.404654
Si Si2 0.201142 0.727270 0.412100
Si Si3 0.233470 0.583098 0.166667
Si Si4 0.916602 0.137866 0.681087
Si Si5 0.994086 0.605528 0.429602
Si Si6 0.324787 0.925490 0.263248
Si Si7 0.391619 0.652314 0.304150
Si Si8 0.522137 0.925618 0.388377
O O1 0.500000 0.500000 0.500000
O O2 0.666822 0.549355 0.397779
O O3 0.516925 0.435983 0.358712
O O4 0.437909 0.578460 0.359237
O O5 0.250000 0.750000 0.500000
O O6 0.119985 0.799725 0.386277
O O7 0.324048 0.714340 0.360934
O O8 0.114199 0.652564 0.406004
O O9 0.128386 0.630770 0.118550
O O10 0.171372 0.516713 0.220238
O O11 0.293333 0.635817 0.234760
O O12 0.803825 0.110719 0.732632
O O13 0.000000 0.177997 0.750000
O O14 0.968790 0.621633 0.526501
O O15 0.016389 0.516072 0.410538
O O16 0.409068 0.891866 0.336580
O O17 0.364280 0.909315 0.169494
O O18 0.500000 0.689009 0.250000
#
# Coordination Sequence:
#
# PCOD8139737 Si02
#       8
#     8   8   8   8   8   8   8   8
#     4  10  20  39  69  95 126 165 217 274 323 380
#     4  12  26  43  62  89 130 174 212 262 334 408
#     4   9  19  34  61  93 118 155 211 267 309 375
#     4  11  24  39  60  92 129 163 211 259 322 393
#     4  10  21  35  58  91 127 155 209 260 323 376
#     4   9  17  35  57  86 120 157 201 250 314 370
#     4  10  22  42  66  89 118 168 224 262 313 389
#     4   9  18  34  60  91 117 157 204 267 307 367
#
# _framework density 20.638894000000001
#
# number of rings (size 3 to 8) (size 9 to 14) (size 15 to 20)
#    0.000    2.000    0.000    4.125    1.750    7.000 
#    4.500    0.000    0.000    3.000    0.000    0.000 
#    0.000    0.000    0.000    0.000    0.000    0.000 
#
# Total GULP energy -396511.691397 kJ/mol
# GULP energy per Si atom -12390.990356 kJ/mol
# Density = 2.059192 g / cm^3
# Si number density = 20.638894 Si / 1000 Ang^3
#
#
#
# Elastic Constant Matrix: (Units=GPa)
#
#
# Indices 1 2 3 4 5 6 
#
# 1 110.1667 25.2035 66.6607 0.0000 11.8932 0.0000
# 2 25.2035 47.8424 22.8812 0.0000 4.1114 0.0000
# 3 66.6607 22.8812 141.0575 0.0000 3.9290 0.0000
# 4 0.0000 0.0000 0.0000 20.7272 0.0000 8.2257
# 5 11.8932 4.1114 3.9290 0.0000 36.9047 0.0000
# 6 0.0000 0.0000 0.0000 8.2257 0.0000 17.4490
#
#
#
# Elastic Compliance Matrix: (Units=1/GPa)
#
#
# Indices 1 2 3 4 5 6 
#
# 1 0.013927 -0.004274 -0.005794 0.000000 -0.003395 0.000000
# 2 -0.004274 0.024141 -0.001865 0.000000 -0.001114 0.000000
# 3 -0.005794 -0.001865 0.010102 0.000000 0.000999 0.000000
# 4 0.000000 0.000000 0.000000 0.059349 0.000000 -0.027978
# 5 -0.003395 -0.001114 0.000999 0.000000 0.028209 0.000000
# 6 0.000000 0.000000 0.000000 -0.027978 0.000000 0.070499
#
#
# Mechanical properties :
#
#
# Convention : Reuss Voigt Hill
#
# Bulk Modulus (GPa) = 41.14479 58.72861 49.93670
# Shear Modulus (GPa) = 20.99117 27.30425 24.14771
#
# Velocity S-wave (km/s) = 3.19261 3.64119 3.42425
# Velocity P-wave (km/s) = 5.79389 6.79667 6.31522
#
# Compressibility (1/GPa) = 0.02430442
#
# Stress axis : x y z
#
# Youngs Moduli (GPa) = 71.80134 41.42271 98.98970
#
# Poissons Ratio (x) = 0.17705 0.57353
# Poissons Ratio (y) = 0.30689 0.18463
# Poissons Ratio (z) = 0.41601 0.07726
#
# Static dielectric constant tensor:
#      x y z
#    x 4.614190 0.000000 -0.014530 
#    y 0.000000 3.589240 0.000000 
#    z -0.014530 0.000000 4.033580 
# 
# 
# High freq. dielectric constant tensor:
#      x y z
#    x 1.819220 0.000000 0.002490 
#    y 0.000000 1.775260 0.000000 
#    z 0.002490 0.000000 1.821170 
# 
# From -- ./inp_files/146096.got.cif
#   From: 2010.06.25/outbox.cif.g09.slc.cpg/sg15_74_cif.got.tgz:146096.got - 2010.06.28 07:06:18.
