data_PCOD8139140
_publ_section_title
;
Structure prediction by ZEFSAII (Michael W. Deem and Ramdas Pophale) SiO2 
 PCOD8139140
Probable space group: C 2/C
;
_chemical_formula_sum "Si O2"
_cell_formula_units_Z 64
_cell_length_a 14.852927
_cell_length_b 9.141463
_cell_length_c 23.609812
_cell_angle_alpha 90.000000
_cell_angle_beta 77.840112
_cell_angle_gamma 90.000000
_cell_volume 3133.756902
_symmetry_space_group_name_H-M "C 2/C"
_symmetry_group_IT_number 15
_symmetry_cell_setting 'monoclinic'
loop_
_space_group_symop_operation_xyz
x,y,z
-x,y,1/2-z
-x,-y,-z
x,-y,1/2+z
1/2+x,1/2+y,z
1/2-x,1/2+y,1/2-z
1/2-x,1/2-y,-z
1/2+x,1/2-y,1/2+z
loop_
_atom_site_type_symbol
_atom_site_label
_atom_site_fract_x
_atom_site_fract_y
_atom_site_fract_z
Si Si1 0.606449 0.525213 0.998472
Si Si2 0.848124 0.969418 0.790632
Si Si3 0.098732 0.128466 0.608592
Si Si4 0.903111 0.239510 0.592206
Si Si5 0.282201 0.455564 0.182344
Si Si6 0.276642 0.692039 0.092179
Si Si7 0.345349 0.036163 0.636673
Si Si8 0.598965 0.149610 0.752399
O O1 0.621808 0.686904 0.969119
O O2 0.675335 0.404994 0.961995
O O3 0.500000 0.500000 0.000000
O O4 0.626593 0.507801 0.062829
O O5 0.747228 0.953763 0.831221
O O6 0.894900 0.816623 0.769208
O O7 0.909076 0.063729 0.826781
O O8 0.839718 0.055203 0.732737
O O9 0.169420 0.266164 0.594307
O O10 0.999369 0.179794 0.602019
O O11 0.819725 0.175936 0.640030
O O12 0.908445 0.413852 0.598426
O O13 0.289398 0.612140 0.150909
O O14 0.174190 0.440382 0.208036
O O15 0.327898 0.847117 0.089580
O O16 0.392128 0.123642 0.681784
O O17 0.500000 0.085205 0.750000
#
# Coordination Sequence:
#
# PCOD8139140 Si02
#       8
#     8   8   8   8   8   8   8   8
#     4   9  20  40  63  87 115 160 202 246 301 360
#     4  10  21  38  57  86 120 158 199 237 302 363
#     4  10  22  36  63  91 115 155 205 250 291 359
#     4  10  21  39  63  85 122 154 206 240 300 358
#     4  10  21  39  56  83 117 167 186 240 302 357
#     4  10  20  38  66  81 123 153 201 244 304 352
#     4  10  21  39  57  89 118 157 193 243 305 347
#     4  11  23  34  56  84 124 150 197 244 290 356
#
# _framework density 20.422771000000001
#
# number of rings (size 3 to 8) (size 9 to 14) (size 15 to 20)
#    0.000    2.000    2.500    0.375    3.500    1.000 
#    0.000    5.000    2.750    0.000    0.000    0.000 
#    0.000    0.000    0.000    0.000    0.000    0.000 
#
# Total GULP energy -396465.586610 kJ/mol
# GULP energy per Si atom -12389.549582 kJ/mol
# Density = 2.037629 g / cm^3
# Si number density = 20.422771 Si / 1000 Ang^3
#
#
#
# Elastic Constant Matrix: (Units=GPa)
#
#
# Indices 1 2 3 4 5 6 
#
# 1 73.4960 20.0263 21.7226 0.0000 10.6490 0.0000
# 2 20.0263 86.3632 12.4014 0.0000 -0.8690 0.0000
# 3 21.7226 12.4014 53.1220 0.0000 3.9413 0.0000
# 4 0.0000 0.0000 0.0000 26.4075 0.0000 -3.9590
# 5 10.6490 -0.8690 3.9413 0.0000 22.8909 0.0000
# 6 0.0000 0.0000 0.0000 -3.9590 0.0000 26.0537
#
#
#
# Elastic Compliance Matrix: (Units=1/GPa)
#
#
# Indices 1 2 3 4 5 6 
#
# 1 0.017226 -0.003240 -0.005758 0.000000 -0.007145 0.000000
# 2 -0.003240 0.012610 -0.001789 0.000000 0.002294 0.000000
# 3 -0.005758 -0.001789 0.021680 0.000000 -0.001122 0.000000
# 4 0.000000 0.000000 0.000000 0.038751 0.000000 0.005888
# 5 -0.007145 0.002294 -0.001122 0.000000 0.047290 0.000000
# 6 0.000000 0.000000 0.000000 0.005888 0.000000 0.039277
#
#
# Mechanical properties :
#
#
# Convention : Reuss Voigt Hill
#
# Bulk Modulus (GPa) = 33.39666 35.69796 34.54731
# Shear Modulus (GPa) = 23.99374 25.65916 24.82645
#
# Velocity S-wave (km/s) = 3.43133 3.54842 3.49037
# Velocity P-wave (km/s) = 5.66453 5.85712 5.76163
#
# Compressibility (1/GPa) = 0.02994312
#
# Stress axis : x y z
#
# Youngs Moduli (GPa) = 58.05202 79.30071 46.12557
#
# Poissons Ratio (x) = 0.25690 0.26557
# Poissons Ratio (y) = 0.18806 0.08253
# Poissons Ratio (z) = 0.33424 0.14190
#
# Static dielectric constant tensor:
#      x y z
#    x 3.696820 0.000000 0.000680 
#    y 0.000000 3.752800 0.000000 
#    z 0.000680 0.000000 3.920920 
# 
# 
# High freq. dielectric constant tensor:
#      x y z
#    x 1.796090 0.000000 -0.000710 
#    y 0.000000 1.786570 0.000000 
#    z -0.000710 0.000000 1.798140 
# 
# From -- ./inp_files/273151.got.cif
#   From: 2010.06.25/outbox.cif.g09.slc.cpg/sg15_137_cif.got.tgz:273151.got - 2010.06.28 07:06:18.
