data_PCOD8139369
_publ_section_title
;
Structure prediction by ZEFSAII (Michael W. Deem and Ramdas Pophale) SiO2 
 PCOD8139369
Probable space group: C 2/C
;
_chemical_formula_sum "Si O2"
_cell_formula_units_Z 36
_cell_length_a 12.374119
_cell_length_b 24.410389
_cell_length_c 9.299290
_cell_angle_alpha 90.000000
_cell_angle_beta 40.933085
_cell_angle_gamma 90.000000
_cell_volume 1840.337744
_symmetry_space_group_name_H-M "C 2/C"
_symmetry_group_IT_number 15
_symmetry_cell_setting 'monoclinic'
loop_
_space_group_symop_operation_xyz
x,y,z
-x,y,1/2-z
-x,-y,-z
x,-y,1/2+z
1/2+x,1/2+y,z
1/2-x,1/2+y,1/2-z
1/2-x,1/2-y,-z
1/2+x,1/2-y,1/2+z
loop_
_atom_site_type_symbol
_atom_site_label
_atom_site_fract_x
_atom_site_fract_y
_atom_site_fract_z
Si Si1 0.000000 0.228929 0.250000
Si Si2 0.204590 0.676096 0.428043
Si Si3 0.422591 0.097282 0.172861
Si Si4 0.356826 0.923782 0.305836
Si Si5 0.881959 0.985152 0.489332
O O1 0.887461 0.266139 0.465246
O O2 0.898131 0.189636 0.244459
O O3 0.158719 0.650692 0.319395
O O4 0.160221 0.636237 0.606185
O O5 0.500000 0.110750 0.250000
O O6 0.275482 0.052722 0.318521
O O7 0.581819 0.078654 0.920590
O O8 0.500000 0.956032 0.250000
O O9 0.187684 0.956396 0.493708
O O10 0.000000 0.958291 0.250000
O O11 0.000000 0.000000 0.500000
#
# Coordination Sequence:
#
# PCOD8139369 Si02
#       5
#     4   8   8   8   8
#     4  10  20  40  68  92 108 146 220 260 286 340
#     4  10  21  39  67  89 114 152 206 255 296 346
#     4  11  22  40  57  87 128 165 190 241 315 374
#     4  10  20  39  61  83 116 168 202 237 290 362
#     4  12  24  36  57  90 123 161 207 244 291 347
#
# _framework density 19.561626
#
# number of rings (size 3 to 8) (size 9 to 14) (size 15 to 20)
#    0.000    1.333    3.333    5.333    4.667    0.000 
#    0.000    1.111    0.000    0.000    0.000    0.000 
#    0.000    0.000    0.000    0.000    0.000    0.000 
#
# Total GULP energy -223056.418655 kJ/mol
# GULP energy per Si atom -12392.023259 kJ/mol
# Density = 1.951710 g / cm^3
# Si number density = 19.561626 Si / 1000 Ang^3
#
#
#
# Elastic Constant Matrix: (Units=GPa)
#
#
# Indices 1 2 3 4 5 6 
#
# 1 173.8274 58.2015 50.1858 0.0000 2.7395 0.0000
# 2 58.2015 75.5092 31.8501 0.0000 -5.7603 0.0000
# 3 50.1858 31.8501 96.1818 0.0000 7.5605 0.0000
# 4 0.0000 0.0000 0.0000 19.2604 0.0000 -7.2474
# 5 2.7395 -5.7603 7.5605 0.0000 40.7413 0.0000
# 6 0.0000 0.0000 0.0000 -7.2474 0.0000 42.3503
#
#
#
# Elastic Compliance Matrix: (Units=1/GPa)
#
#
# Indices 1 2 3 4 5 6 
#
# 1 0.008292 -0.005418 -0.002464 0.000000 -0.000866 0.000000
# 2 -0.005418 0.019348 -0.003880 0.000000 0.003820 0.000000
# 3 -0.002464 -0.003880 0.013190 0.000000 -0.002831 0.000000
# 4 0.000000 0.000000 0.000000 0.055493 0.000000 0.009497
# 5 -0.000866 0.003820 -0.002831 0.000000 0.025669 0.000000
# 6 0.000000 0.000000 0.000000 0.009497 0.000000 0.025238
#
#
# Mechanical properties :
#
#
# Convention : Reuss Voigt Hill
#
# Bulk Modulus (GPa) = 57.78720 69.55479 63.67099
# Shear Modulus (GPa) = 28.32493 34.15582 31.24037
#
# Velocity S-wave (km/s) = 3.80937 4.18312 4.00061
# Velocity P-wave (km/s) = 6.99669 7.67889 7.34571
#
# Compressibility (1/GPa) = 0.01730487
#
# Stress axis : x y z
#
# Youngs Moduli (GPa) = 120.59736 51.68600 75.81370
#
# Poissons Ratio (x) = 0.28003 0.18683
# Poissons Ratio (y) = 0.65340 0.29417
# Poissons Ratio (z) = 0.29720 0.20055
#
# Static dielectric constant tensor:
#      x y z
#    x 3.895240 0.000000 -0.231560 
#    y 0.000000 3.488870 0.000000 
#    z -0.231560 0.000000 3.601640 
# 
# 
# High freq. dielectric constant tensor:
#      x y z
#    x 1.778780 0.000000 -0.020020 
#    y 0.000000 1.749980 0.000000 
#    z -0.020020 0.000000 1.755960 
# 
# From -- ./inp_files/31662.got.cif
#   From: 2010.06.25/outbox.cif.g09.slc.cpg/sg15_16_cif.got.tgz:31662.got - 2010.06.28 07:06:18.
