data_PCOD8139268
_publ_section_title
;
Structure prediction by ZEFSAII (Michael W. Deem and Ramdas Pophale) SiO2 
 PCOD8139268
Probable space group: C 2/C
;
_chemical_formula_sum "Si O2"
_cell_formula_units_Z 60
_cell_length_a 13.731425
_cell_length_b 23.025378
_cell_length_c 9.748025
_cell_angle_alpha 90.000000
_cell_angle_beta 118.029944
_cell_angle_gamma 90.000000
_cell_volume 2720.527874
_symmetry_space_group_name_H-M "C 2/C"
_symmetry_group_IT_number 15
_symmetry_cell_setting 'monoclinic'
loop_
_space_group_symop_operation_xyz
x,y,z
-x,y,1/2-z
-x,-y,-z
x,-y,1/2+z
1/2+x,1/2+y,z
1/2-x,1/2+y,1/2-z
1/2-x,1/2-y,-z
1/2+x,1/2-y,1/2+z
loop_
_atom_site_type_symbol
_atom_site_label
_atom_site_fract_x
_atom_site_fract_y
_atom_site_fract_z
Si Si1 0.689856 0.265023 0.202059
Si Si2 0.107822 0.464873 0.030226
Si Si3 0.000000 0.262822 0.750000
Si Si4 0.356302 0.835795 0.466007
Si Si5 0.935396 0.963731 0.567252
Si Si6 0.790293 0.845830 0.867801
Si Si7 0.471381 0.332893 0.574338
Si Si8 0.269556 0.025912 0.157843
O O1 0.603017 0.275890 0.269422
O O2 0.801813 0.301121 0.303030
O O3 0.721297 0.196426 0.219192
O O4 0.625418 0.286633 0.024259
O O5 0.098096 0.396868 0.059725
O O6 0.205496 0.489904 0.188927
O O7 0.127310 0.467755 0.878356
O O8 0.000000 0.500000 0.000000
O O9 0.961773 0.302650 0.596574
O O10 0.257838 0.841068 0.511570
O O11 0.922450 0.896726 0.516849
O O12 0.000000 0.970416 0.750000
O O13 0.815626 0.992150 0.495832
O O14 0.000000 0.000000 0.500000
O O15 0.776784 0.912793 0.813944
O O16 0.918902 0.826581 0.947520
O O17 0.500000 0.321414 0.750000
#
# Coordination Sequence:
#
# PCOD8139268 Si02
#       8
#     8   8   4   8   8   8   8   8
#     4  11  21  39  65  92 124 163 214 264 321 384
#     4  11  25  40  67  91 130 172 215 263 324 390
#     4  10  20  38  70  94 128 158 212 276 322 380
#     4  10  22  39  63  95 123 161 213 267 324 378
#     4  11  22  40  64  95 130 166 209 265 329 391
#     4  10  22  40  62  91 125 165 209 267 325 377
#     4  11  24  40  62  91 131 170 213 264 325 391
#     4  11  23  43  65  96 130 168 215 270 328 386
#
# _framework density 22.054544
#
# number of rings (size 3 to 8) (size 9 to 14) (size 15 to 20)
#    0.000    1.333    1.333    5.200    7.467    1.600 
#    1.200    0.000    0.000    0.000    0.000    0.000 
#    0.000    0.000    0.000    0.000    0.000    0.000 
#
# Total GULP energy -371906.765375 kJ/mol
# GULP energy per Si atom -12396.892179 kJ/mol
# Density = 2.200435 g / cm^3
# Si number density = 22.054544 Si / 1000 Ang^3
#
#
#
# Elastic Constant Matrix: (Units=GPa)
#
#
# Indices 1 2 3 4 5 6 
#
# 1 76.9306 28.2524 17.5556 0.0000 17.4080 0.0000
# 2 28.2524 138.1814 58.7240 0.0000 22.1252 0.0000
# 3 17.5556 58.7240 89.8948 0.0000 21.4871 0.0000
# 4 0.0000 0.0000 0.0000 38.2218 0.0000 5.4993
# 5 17.4080 22.1252 21.4871 0.0000 35.8521 0.0000
# 6 0.0000 0.0000 0.0000 5.4993 0.0000 35.9421
#
#
#
# Elastic Compliance Matrix: (Units=1/GPa)
#
#
# Indices 1 2 3 4 5 6 
#
# 1 0.015150 -0.002063 -0.000183 0.000000 -0.005973 0.000000
# 2 -0.002063 0.010518 -0.006018 0.000000 -0.001882 0.000000
# 3 -0.000183 -0.006018 0.016553 0.000000 -0.006118 0.000000
# 4 0.000000 0.000000 0.000000 0.026752 0.000000 -0.004093
# 5 -0.005973 -0.001882 -0.006118 0.000000 0.035621 0.000000
# 6 0.000000 0.000000 0.000000 -0.004093 0.000000 0.028449
#
#
# Mechanical properties :
#
#
# Convention : Reuss Voigt Hill
#
# Bulk Modulus (GPa) = 38.92198 57.11898 48.02048
# Shear Modulus (GPa) = 31.61858 35.36819 33.49339
#
# Velocity S-wave (km/s) = 3.79047 4.00893 3.90123
# Velocity P-wave (km/s) = 6.06986 6.88359 6.48950
#
# Compressibility (1/GPa) = 0.02569242
#
# Stress axis : x y z
#
# Youngs Moduli (GPa) = 66.00741 95.07952 60.41055
#
# Poissons Ratio (x) = 0.19618 0.01106
# Poissons Ratio (y) = 0.13620 0.36354
# Poissons Ratio (z) = 0.01208 0.57217
#
# Static dielectric constant tensor:
#      x y z
#    x 2.662480 0.000000 -1.944970 
#    y 0.000000 4.396490 0.000000 
#    z -1.944970 0.000000 0.206290 
# 
# 
# High freq. dielectric constant tensor:
#      x y z
#    x 1.863890 0.000000 0.017750 
#    y 0.000000 1.876590 0.000000 
#    z 0.017750 0.000000 1.854490 
# 
# From -- ./inp_files/42685.got.cif
#   From: 2010.06.25/outbox.cif.g09.slc.cpg/sg15_22_cif.got.tgz:42685.got - 2010.06.28 07:06:18.
