data_PCOD8139375
_publ_section_title
;
Structure prediction by ZEFSAII (Michael W. Deem and Ramdas Pophale) SiO2 
 PCOD8139375
Probable space group: C 2/C
;
_chemical_formula_sum "Si O2"
_cell_formula_units_Z 40
_cell_length_a 12.728532
_cell_length_b 11.834822
_cell_length_c 13.800709
_cell_angle_alpha 90.000000
_cell_angle_beta 107.902733
_cell_angle_gamma 90.000000
_cell_volume 1978.274876
_symmetry_space_group_name_H-M "C 2/C"
_symmetry_group_IT_number 15
_symmetry_cell_setting 'monoclinic'
loop_
_space_group_symop_operation_xyz
x,y,z
-x,y,1/2-z
-x,-y,-z
x,-y,1/2+z
1/2+x,1/2+y,z
1/2-x,1/2+y,1/2-z
1/2-x,1/2-y,-z
1/2+x,1/2-y,1/2+z
loop_
_atom_site_type_symbol
_atom_site_label
_atom_site_fract_x
_atom_site_fract_y
_atom_site_fract_z
Si Si1 0.576073 0.656091 0.965307
Si Si2 0.858702 0.017568 0.862132
Si Si3 0.033147 0.381460 0.054182
Si Si4 0.200918 0.632075 0.957565
Si Si5 0.764261 0.950083 0.134270
O O1 0.466334 0.593435 0.901188
O O2 0.664924 0.643855 0.904021
O O3 0.622402 0.601528 0.078373
O O4 0.547786 0.787208 0.974030
O O5 0.753906 0.084399 0.875013
O O6 0.833582 0.996846 0.742133
O O7 0.151276 0.391708 0.141638
O O8 0.931150 0.350594 0.095991
O O9 0.000000 0.500000 0.000000
O O10 0.250000 0.750000 0.000000
O O11 0.231699 0.550439 0.054275
#
# Coordination Sequence:
#
# PCOD8139375 Si02
#       5
#     8   8   8   8   8
#     4  10  20  39  61  87 123 155 197 255 302 348
#     4  10  21  37  62  91 115 158 205 248 299 356
#     4  10  21  39  61  84 121 159 193 249 308 352
#     4  10  20  39  61  84 125 160 194 250 303 355
#     4  10  22  37  60  92 117 156 208 241 299 368
#
# _framework density 20.219638
#
# number of rings (size 3 to 8) (size 9 to 14) (size 15 to 20)
#    0.000    2.000    2.000    1.200    0.000    2.400 
#    0.000    0.000    8.800    0.000    0.000    0.000 
#    0.000    0.000    0.000    0.000    0.000    0.000 
#
# Total GULP energy -247899.653291 kJ/mol
# GULP energy per Si atom -12394.982665 kJ/mol
# Density = 2.017362 g / cm^3
# Si number density = 20.219638 Si / 1000 Ang^3
#
#
#
# Elastic Constant Matrix: (Units=GPa)
#
#
# Indices 1 2 3 4 5 6 
#
# 1 159.0774 35.9469 20.8300 0.0000 10.9603 0.0000
# 2 35.9469 102.6982 11.1185 0.0000 -1.2074 0.0000
# 3 20.8300 11.1185 87.6534 0.0000 4.3268 0.0000
# 4 0.0000 0.0000 0.0000 11.6865 0.0000 -1.0394
# 5 10.9603 -1.2074 4.3268 0.0000 20.0941 0.0000
# 6 0.0000 0.0000 0.0000 -1.0394 0.0000 31.3839
#
#
#
# Elastic Compliance Matrix: (Units=1/GPa)
#
#
# Indices 1 2 3 4 5 6 
#
# 1 0.007267 -0.002456 -0.001225 0.000000 -0.003847 0.000000
# 2 -0.002456 0.010718 -0.000883 0.000000 0.002174 0.000000
# 3 -0.001225 -0.000883 0.011908 0.000000 -0.001949 0.000000
# 4 0.000000 0.000000 0.000000 0.085822 0.000000 0.002842
# 5 -0.003847 0.002174 -0.001949 0.000000 0.052415 0.000000
# 6 0.000000 0.000000 0.000000 0.002842 0.000000 0.031958
#
#
# Mechanical properties :
#
#
# Convention : Reuss Voigt Hill
#
# Bulk Modulus (GPa) = 48.16150 53.91333 51.03741
# Shear Modulus (GPa) = 23.13343 31.40181 27.26762
#
# Velocity S-wave (km/s) = 3.38613 3.94513 3.67627
# Velocity P-wave (km/s) = 6.25770 6.89012 6.58151
#
# Compressibility (1/GPa) = 0.02076347
#
# Stress axis : x y z
#
# Youngs Moduli (GPa) = 137.61206 93.29971 83.97714
#
# Poissons Ratio (x) = 0.22916 0.10291
# Poissons Ratio (y) = 0.33799 0.07417
# Poissons Ratio (z) = 0.16863 0.08240
#
# Static dielectric constant tensor:
#      x y z
#    x 4.611460 0.000000 0.164410 
#    y 0.000000 3.620970 0.000000 
#    z 0.164410 0.000000 3.304380 
# 
# 
# High freq. dielectric constant tensor:
#      x y z
#    x 1.821420 0.000000 0.011070 
#    y 0.000000 1.787680 0.000000 
#    z 0.011070 0.000000 1.755490 
# 
# From -- ./inp_files/141888.got.cif
#   From: 2010.06.25/outbox.cif.g09.slc.cpg/sg15_71_cif.got.tgz:141888.got - 2010.06.28 07:06:18.
