data_PCOD8139623
_publ_section_title
;
Structure prediction by ZEFSAII (Michael W. Deem and Ramdas Pophale) SiO2 
 PCOD8139623
Probable space group: C 2/C
;
_chemical_formula_sum "Si O2"
_cell_formula_units_Z 36
_cell_length_a 14.233475
_cell_length_b 15.547002
_cell_length_c 8.556820
_cell_angle_alpha 90.000000
_cell_angle_beta 115.340893
_cell_angle_gamma 90.000000
_cell_volume 1711.320788
_symmetry_space_group_name_H-M "C 2/C"
_symmetry_group_IT_number 15
_symmetry_cell_setting 'monoclinic'
loop_
_space_group_symop_operation_xyz
x,y,z
-x,y,1/2-z
-x,-y,-z
x,-y,1/2+z
1/2+x,1/2+y,z
1/2-x,1/2+y,1/2-z
1/2-x,1/2-y,-z
1/2+x,1/2-y,1/2+z
loop_
_atom_site_type_symbol
_atom_site_label
_atom_site_fract_x
_atom_site_fract_y
_atom_site_fract_z
Si Si1 0.102234 0.049967 0.511672
Si Si2 0.493739 0.706035 0.930367
Si Si3 0.901009 0.383467 0.933090
Si Si4 0.500000 0.000598 0.250000
Si Si5 0.169595 0.100407 0.222576
O O1 0.107166 0.067533 0.330777
O O2 0.102076 0.141947 0.598738
O O3 0.193087 0.984833 0.632389
O O4 0.000000 0.000000 0.500000
O O5 0.500000 0.715873 0.750000
O O6 0.470325 0.797919 0.990240
O O7 0.600955 0.671213 0.082191
O O8 0.927640 0.438903 0.801115
O O9 0.779547 0.357219 0.843796
O O10 0.921736 0.440268 0.099474
#
# Coordination Sequence:
#
# PCOD8139623 Si02
#       5
#     8   8   8   4   8
#     4  10  20  39  65  93 130 161 206 269 313 377
#     4  11  23  41  63  97 131 164 213 272 317 374
#     4  11  24  45  67  92 128 171 216 266 319 390
#     4  10  24  46  66  88 132 170 214 268 324 376
#     4  11  23  41  67  98 127 173 214 256 334 382
#
# _framework density 21.036380999999999
#
# number of rings (size 3 to 8) (size 9 to 14) (size 15 to 20)
#    0.000    1.333    1.111    6.667    3.111    1.778 
#    8.000    0.000    0.000    0.000    0.000    0.000 
#    0.000    0.000    0.000    0.000    0.000    0.000 
#
# Total GULP energy -223122.781857 kJ/mol
# GULP energy per Si atom -12395.710103 kJ/mol
# Density = 2.098850 g / cm^3
# Si number density = 21.036381 Si / 1000 Ang^3
#
#
#
# Elastic Constant Matrix: (Units=GPa)
#
#
# Indices 1 2 3 4 5 6 
#
# 1 91.7571 43.0180 57.7120 0.0000 14.6836 0.0000
# 2 43.0180 155.8676 42.0782 0.0000 2.1052 0.0000
# 3 57.7120 42.0782 81.6911 0.0000 -3.8045 0.0000
# 4 0.0000 0.0000 0.0000 55.0980 0.0000 -10.2733
# 5 14.6836 2.1052 -3.8045 0.0000 36.7327 0.0000
# 6 0.0000 0.0000 0.0000 -10.2733 0.0000 29.3559
#
#
#
# Elastic Compliance Matrix: (Units=1/GPa)
#
#
# Indices 1 2 3 4 5 6 
#
# 1 0.023943 -0.002034 -0.016387 0.000000 -0.011152 0.000000
# 2 -0.002034 0.007650 -0.002498 0.000000 0.000116 0.000000
# 3 -0.016387 -0.002498 0.025540 0.000000 0.009339 0.000000
# 4 0.000000 0.000000 0.000000 0.019416 0.000000 0.006795
# 5 -0.011152 0.000116 0.009339 0.000000 0.032642 0.000000
# 6 0.000000 0.000000 0.000000 0.006795 0.000000 0.036443
#
#
# Mechanical properties :
#
#
# Convention : Reuss Voigt Hill
#
# Bulk Modulus (GPa) = 65.38003 68.32582 66.85292
# Shear Modulus (GPa) = 25.96460 36.67115 31.31787
#
# Velocity S-wave (km/s) = 3.51703 4.17972 3.86262
# Velocity P-wave (km/s) = 6.90215 7.47287 7.19317
#
# Compressibility (1/GPa) = 0.01529519
#
# Stress axis : x y z
#
# Youngs Moduli (GPa) = 41.76567 130.72177 39.15463
#
# Poissons Ratio (x) = 0.26584 0.64162
# Poissons Ratio (y) = 0.08494 0.09782
# Poissons Ratio (z) = 0.68441 0.32658
#
# Static dielectric constant tensor:
#      x y z
#    x 3.629580 0.000000 -0.080490 
#    y 0.000000 4.260320 0.000000 
#    z -0.080490 0.000000 4.014140 
# 
# 
# High freq. dielectric constant tensor:
#      x y z
#    x 1.809950 0.000000 -0.013220 
#    y 0.000000 1.834850 0.000000 
#    z -0.013220 0.000000 1.832450 
# 
# From -- ./inp_files/37649.got.cif
#   From: 2010.06.25/outbox.cif.g09.slc.cpg/sg15_19_cif.got.tgz:37649.got - 2010.06.28 07:06:18.
