data_PCOD8139023
_publ_section_title
;
Structure prediction by ZEFSAII (Michael W. Deem and Ramdas Pophale) SiO2 
 PCOD8139023
Probable space group: C 2/C
;
_chemical_formula_sum "Si O2"
_cell_formula_units_Z 36
_cell_length_a 15.513069
_cell_length_b 13.157821
_cell_length_c 13.346738
_cell_angle_alpha 90.000000
_cell_angle_beta 139.052990
_cell_angle_gamma 90.000000
_cell_volume 1785.407129
_symmetry_space_group_name_H-M "C 2/C"
_symmetry_group_IT_number 15
_symmetry_cell_setting 'monoclinic'
loop_
_space_group_symop_operation_xyz
x,y,z
-x,y,1/2-z
-x,-y,-z
x,-y,1/2+z
1/2+x,1/2+y,z
1/2-x,1/2+y,1/2-z
1/2-x,1/2-y,-z
1/2+x,1/2-y,1/2+z
loop_
_atom_site_type_symbol
_atom_site_label
_atom_site_fract_x
_atom_site_fract_y
_atom_site_fract_z
Si Si1 0.500000 0.035128 0.750000
Si Si2 0.311172 0.823232 0.839069
Si Si3 0.817932 0.453641 0.422609
Si Si4 0.642819 0.282020 0.326155
Si Si5 0.924357 0.680739 0.845443
O O1 0.407221 0.106224 0.736576
O O2 0.400953 0.967088 0.597636
O O3 0.349119 0.797924 0.758021
O O4 0.174557 0.773427 0.752551
O O5 0.291323 0.943056 0.838861
O O6 0.424973 0.779810 0.012974
O O7 0.679334 0.396671 0.321963
O O8 0.905589 0.381302 0.431037
O O9 0.500000 0.282610 0.250000
O O10 0.750000 0.250000 0.500000
#
# Coordination Sequence:
#
# PCOD8139023 Si02
#       5
#     4   8   8   8   8
#     4  10  20  38  64  88 114 168 206 244 300 382
#     4  10  21  43  57  89 127 158 200 259 306 362
#     4  10  23  39  62  90 125 161 205 250 313 359
#     4  11  24  40  65  96 121 164 211 255 304 367
#     4  10  22  38  61  87 120 161 204 248 310 357
#
# _framework density 20.163468000000002
#
# number of rings (size 3 to 8) (size 9 to 14) (size 15 to 20)
#    0.000    1.778    0.000    5.333    7.778    3.556 
#    6.000    3.333    0.000    0.000    0.000    0.000 
#    0.000    0.000    0.000    0.000    0.000    0.000 
#
# Total GULP energy -223178.280179 kJ/mol
# GULP energy per Si atom -12398.793343 kJ/mol
# Density = 2.011757 g / cm^3
# Si number density = 20.163468 Si / 1000 Ang^3
#
#
#
# Elastic Constant Matrix: (Units=GPa)
#
#
# Indices 1 2 3 4 5 6 
#
# 1 99.8467 42.2614 46.2276 0.0000 7.3443 0.0000
# 2 42.2614 117.3838 63.5239 0.0000 11.4837 0.0000
# 3 46.2276 63.5239 115.9459 0.0000 5.2225 0.0000
# 4 0.0000 0.0000 0.0000 19.5234 0.0000 -5.2401
# 5 7.3443 11.4837 5.2225 0.0000 40.1044 0.0000
# 6 0.0000 0.0000 0.0000 -5.2401 0.0000 29.9181
#
#
#
# Elastic Compliance Matrix: (Units=1/GPa)
#
#
# Indices 1 2 3 4 5 6 
#
# 1 0.012882 -0.002521 -0.003703 0.000000 -0.001155 0.000000
# 2 -0.002521 0.012882 -0.005942 0.000000 -0.002453 0.000000
# 3 -0.003703 -0.005942 0.013328 0.000000 0.000644 0.000000
# 4 0.000000 0.000000 0.000000 0.053747 0.000000 0.009414
# 5 -0.001155 -0.002453 0.000644 0.000000 0.025765 0.000000
# 6 0.000000 0.000000 0.000000 0.009414 0.000000 0.035073
#
#
# Mechanical properties :
#
#
# Convention : Reuss Voigt Hill
#
# Bulk Modulus (GPa) = 67.75224 70.80024 69.27624
# Shear Modulus (GPa) = 27.33292 29.98675 28.65984
#
# Velocity S-wave (km/s) = 3.68580 3.86058 3.77420
# Velocity P-wave (km/s) = 7.19638 7.42034 7.30922
#
# Compressibility (1/GPa) = 0.01475966
#
# Stress axis : x y z
#
# Youngs Moduli (GPa) = 77.62985 77.62472 75.03195
#
# Poissons Ratio (x) = 0.19569 0.27782
# Poissons Ratio (y) = 0.19570 0.44587
# Poissons Ratio (z) = 0.28744 0.46128
#
# Static dielectric constant tensor:
#      x y z
#    x 3.723610 0.000000 -0.095860 
#    y 0.000000 3.806350 0.000000 
#    z -0.095860 0.000000 3.679090 
# 
# 
# High freq. dielectric constant tensor:
#      x y z
#    x 1.794760 0.000000 -0.007910 
#    y 0.000000 1.784650 0.000000 
#    z -0.007910 0.000000 1.791550 
# 
# From -- ./inp_files/46614.got.cif
#   From: 2010.06.25/outbox.cif.g09.slc.cpg/sg15_24_cif.got.tgz:46614.got - 2010.06.28 07:06:18.
