data_PCOD8139059
_publ_section_title
;
Structure prediction by ZEFSAII (Michael W. Deem and Ramdas Pophale) SiO2 
 PCOD8139059
Probable space group: C 2/C
;
_chemical_formula_sum "Si O2"
_cell_formula_units_Z 44
_cell_length_a 19.724561
_cell_length_b 11.423383
_cell_length_c 12.149159
_cell_angle_alpha 90.000000
_cell_angle_beta 124.333569
_cell_angle_gamma 90.000000
_cell_volume 2260.509534
_symmetry_space_group_name_H-M "C 2/C"
_symmetry_group_IT_number 15
_symmetry_cell_setting 'monoclinic'
loop_
_space_group_symop_operation_xyz
x,y,z
-x,y,1/2-z
-x,-y,-z
x,-y,1/2+z
1/2+x,1/2+y,z
1/2-x,1/2+y,1/2-z
1/2-x,1/2-y,-z
1/2+x,1/2-y,1/2+z
loop_
_atom_site_type_symbol
_atom_site_label
_atom_site_fract_x
_atom_site_fract_y
_atom_site_fract_z
Si Si1 0.500000 0.154477 0.750000
Si Si2 0.543428 0.334670 0.969823
Si Si3 0.543367 0.595793 0.899512
Si Si4 0.277765 0.761141 0.856372
Si Si5 0.266877 0.348187 0.926246
Si Si6 0.678996 0.085255 0.904241
O O1 0.503466 0.234648 0.860370
O O2 0.580424 0.074018 0.815007
O O3 0.525193 0.459083 0.898338
O O4 0.497636 0.326288 0.043697
O O5 0.640427 0.316874 0.073231
O O6 0.500000 0.640059 0.750000
O O7 0.639351 0.616099 0.982779
O O8 0.255197 0.805602 0.715526
O O9 0.205159 0.679186 0.835609
O O10 0.288125 0.872768 0.946322
O O11 0.211888 0.458224 0.907452
O O12 0.250000 0.250000 0.000000
#
# Coordination Sequence:
#
# PCOD8139059 Si02
#       6
#     4   8   8   8   8   8
#     4  10  20  42  64  92 120 168 216 250 320 388
#     4  10  20  38  64  92 120 166 210 262 313 377
#     4  11  22  37  63  94 128 158 211 268 315 368
#     4  10  22  43  66  89 129 167 217 258 324 380
#     4  12  26  41  64  97 130 170 213 266 321 377
#     4  10  23  42  67  92 125 172 207 264 316 389
#
# _framework density 19.464637
#
# number of rings (size 3 to 8) (size 9 to 14) (size 15 to 20)
#    0.000    1.455    2.727    2.182    2.545    2.909 
#    4.909    1.818    0.000    0.000    0.000    0.000 
#    0.000    0.000    0.000    0.000    0.000    0.000 
#
# Total GULP energy -272892.671819 kJ/mol
# GULP energy per Si atom -12404.212355 kJ/mol
# Density = 1.942034 g / cm^3
# Si number density = 19.464637 Si / 1000 Ang^3
#
#
#
# Elastic Constant Matrix: (Units=GPa)
#
#
# Indices 1 2 3 4 5 6 
#
# 1 135.0572 50.0522 68.5076 0.0000 -12.1354 0.0000
# 2 50.0522 74.7925 52.4131 0.0000 -16.5250 0.0000
# 3 68.5076 52.4131 147.0848 0.0000 -19.8123 0.0000
# 4 0.0000 0.0000 0.0000 52.5192 0.0000 -33.7591
# 5 -12.1354 -16.5250 -19.8123 0.0000 33.1573 0.0000
# 6 0.0000 0.0000 0.0000 -33.7591 0.0000 45.7494
#
#
#
# Elastic Compliance Matrix: (Units=1/GPa)
#
#
# Indices 1 2 3 4 5 6 
#
# 1 0.010945 -0.005092 -0.003356 0.000000 -0.000537 0.000000
# 2 -0.005092 0.021174 -0.004354 0.000000 0.006088 0.000000
# 3 -0.003356 -0.004354 0.010283 0.000000 0.002746 0.000000
# 4 0.000000 0.000000 0.000000 0.036222 0.000000 0.026728
# 5 -0.000537 0.006088 0.002746 0.000000 0.034638 0.000000
# 6 0.000000 0.000000 0.000000 0.026728 0.000000 0.041581
#
#
# Mechanical properties :
#
#
# Convention : Reuss Voigt Hill
#
# Bulk Modulus (GPa) = 59.52425 77.65335 68.58880
# Shear Modulus (GPa) = 26.87518 38.68262 32.77890
#
# Velocity S-wave (km/s) = 3.71983 4.46278 4.10814
# Velocity P-wave (km/s) = 7.00690 8.15699 7.60372
#
# Compressibility (1/GPa) = 0.01679988
#
# Stress axis : x y z
#
# Youngs Moduli (GPa) = 91.36379 47.22845 97.24570
#
# Poissons Ratio (x) = 0.24047 0.32635
# Poissons Ratio (y) = 0.46519 0.42337
# Poissons Ratio (z) = 0.30661 0.20562
#
# Static dielectric constant tensor:
#      x y z
#    x 3.834840 0.000000 -0.013070 
#    y 0.000000 3.405430 0.000000 
#    z -0.013070 0.000000 3.685320 
# 
# 
# High freq. dielectric constant tensor:
#      x y z
#    x 1.779300 0.000000 -0.001360 
#    y 0.000000 1.746220 0.000000 
#    z -0.001360 0.000000 1.767040 
# 
# From -- ./inp_files/103869.got.cif
#   From: 2010.06.25/outbox.cif.g09.slc.cpg/sg15_52_cif.got.tgz:103869.got - 2010.06.28 07:06:18.
