data_PCOD8139650
_publ_section_title
;
Structure prediction by ZEFSAII (Michael W. Deem and Ramdas Pophale) SiO2 
 PCOD8139650
Probable space group: C 2/C
;
_chemical_formula_sum "Si O2"
_cell_formula_units_Z 48
_cell_length_a 7.665484
_cell_length_b 12.054106
_cell_length_c 25.255233
_cell_angle_alpha 90.000000
_cell_angle_beta 116.176572
_cell_angle_gamma 90.000000
_cell_volume 2094.261076
_symmetry_space_group_name_H-M "C 2/C"
_symmetry_group_IT_number 15
_symmetry_cell_setting 'monoclinic'
loop_
_space_group_symop_operation_xyz
x,y,z
-x,y,1/2-z
-x,-y,-z
x,-y,1/2+z
1/2+x,1/2+y,z
1/2-x,1/2+y,1/2-z
1/2-x,1/2-y,-z
1/2+x,1/2-y,1/2+z
loop_
_atom_site_type_symbol
_atom_site_label
_atom_site_fract_x
_atom_site_fract_y
_atom_site_fract_z
Si Si1 0.722560 0.075351 0.775483
Si Si2 0.073400 0.547170 0.406757
Si Si3 0.409189 0.405201 0.866214
Si Si4 0.127029 0.042077 0.969467
Si Si5 0.185905 0.339567 0.156544
Si Si6 0.031226 0.784129 0.123785
O O1 0.500000 0.038556 0.750000
O O2 0.767537 0.127782 0.724743
O O3 0.766056 0.165238 0.827830
O O4 0.855619 0.966170 0.803627
O O5 0.241803 0.558994 0.385523
O O6 0.155320 0.551023 0.478100
O O7 0.934862 0.653728 0.379878
O O8 0.952126 0.435006 0.384786
O O9 0.610277 0.455722 0.917487
O O10 0.436435 0.275218 0.859228
O O11 0.042373 0.161938 0.940960
O O12 0.000000 0.000000 0.000000
O O13 0.371622 0.317507 0.145859
#
# Coordination Sequence:
#
# PCOD8139650 Si02
#       6
#     8   8   8   8   8   8
#     4  11  22  41  63  87 126 169 210 258 320 386
#     4  10  20  39  66  89 125 167 207 258 327 376
#     4   9  21  40  61  90 127 162 212 262 315 379
#     4   9  19  40  65  89 124 169 207 260 320 380
#     4  11  23  38  63  94 123 168 207 264 326 374
#     4  10  23  41  61  95 126 161 213 268 313 383
#
# _framework density 22.919778000000001
#
# number of rings (size 3 to 8) (size 9 to 14) (size 15 to 20)
#    0.000    2.000    1.667    1.000    2.333    1.333 
#    6.000    0.000    0.000    0.000    0.000    0.000 
#    0.000    0.000    0.000    0.000    0.000    0.000 
#
# Total GULP energy -297475.982483 kJ/mol
# GULP energy per Si atom -12394.832603 kJ/mol
# Density = 2.286761 g / cm^3
# Si number density = 22.919778 Si / 1000 Ang^3
#
#
#
# Elastic Constant Matrix: (Units=GPa)
#
#
# Indices 1 2 3 4 5 6 
#
# 1 14.4490 14.8871 14.9261 0.0000 -3.3341 0.0000
# 2 14.8871 208.1791 79.2781 0.0000 15.5882 0.0000
# 3 14.9261 79.2781 171.3136 0.0000 22.6692 0.0000
# 4 0.0000 0.0000 0.0000 30.0816 0.0000 1.4782
# 5 -3.3341 15.5882 22.6692 0.0000 33.1540 0.0000
# 6 0.0000 0.0000 0.0000 1.4782 0.0000 30.9424
#
#
#
# Elastic Compliance Matrix: (Units=1/GPa)
#
#
# Indices 1 2 3 4 5 6 
#
# 1 0.085093 -0.004427 -0.007447 0.000000 0.015731 0.000000
# 2 -0.004427 0.006091 -0.002194 0.000000 -0.001809 0.000000
# 3 -0.007447 -0.002194 0.008206 0.000000 -0.005329 0.000000
# 4 0.000000 0.000000 0.000000 0.033321 0.000000 -0.001592
# 5 0.015731 -0.001809 -0.005329 0.000000 0.036238 0.000000
# 6 0.000000 0.000000 0.000000 -0.001592 0.000000 0.032394
#
#
# Mechanical properties :
#
#
# Convention : Reuss Voigt Hill
#
# Bulk Modulus (GPa) = 14.03410 68.01381 41.02395
# Shear Modulus (GPa) = 19.74491 37.82563 28.78527
#
# Velocity S-wave (km/s) = 2.93828 4.06686 3.54773
# Velocity P-wave (km/s) = 4.20092 7.19664 5.89234
#
# Compressibility (1/GPa) = 0.07125502
#
# Stress axis : x y z
#
# Youngs Moduli (GPa) = 11.75191 164.17781 121.85784
#
# Poissons Ratio (x) = 0.72683 0.90744
# Poissons Ratio (y) = 0.05203 0.26730
# Poissons Ratio (z) = 0.08751 0.36014
#
# Static dielectric constant tensor:
#      x y z
#    x 3.818350 0.000000 0.350260 
#    y 0.000000 4.330220 0.000000 
#    z 0.350260 0.000000 6.149050 
# 
# 
# High freq. dielectric constant tensor:
#      x y z
#    x 1.874220 0.000000 0.005020 
#    y 0.000000 1.909550 0.000000 
#    z 0.005020 0.000000 1.924030 
# 
# From -- ./inp_files/263259.got.cif
#   From: 2010.06.25/outbox.cif.g09.slc.cpg/sg15_132_cif.got.tgz:263259.got - 2010.06.28 07:06:18.
