data_PCOD8139709
_publ_section_title
;
Structure prediction by ZEFSAII (Michael W. Deem and Ramdas Pophale) SiO2 
 PCOD8139709
Probable space group: C 2/C
;
_chemical_formula_sum "Si O2"
_cell_formula_units_Z 40
_cell_length_a 10.157561
_cell_length_b 10.730264
_cell_length_c 13.634758
_cell_angle_alpha 90.000000
_cell_angle_beta 104.570609
_cell_angle_gamma 90.000000
_cell_volume 1438.302071
_symmetry_space_group_name_H-M "C 2/C"
_symmetry_group_IT_number 15
_symmetry_cell_setting 'monoclinic'
loop_
_space_group_symop_operation_xyz
x,y,z
-x,y,1/2-z
-x,-y,-z
x,-y,1/2+z
1/2+x,1/2+y,z
1/2-x,1/2+y,1/2-z
1/2-x,1/2-y,-z
1/2+x,1/2-y,1/2+z
loop_
_atom_site_type_symbol
_atom_site_label
_atom_site_fract_x
_atom_site_fract_y
_atom_site_fract_z
Si Si1 0.304155 0.946852 0.553927
Si Si2 0.000000 0.980125 0.250000
Si Si3 0.500000 0.919610 0.750000
Si Si4 0.184642 0.216947 0.690250
Si Si5 0.631273 0.779101 0.101411
Si Si6 0.852902 0.850208 0.574981
O O1 0.417074 0.999475 0.652652
O O2 0.367845 0.906369 0.461566
O O3 0.238667 0.822158 0.584304
O O4 0.196827 0.057573 0.520683
O O5 0.110590 0.065753 0.323729
O O6 0.079510 0.898760 0.182170
O O7 0.606904 0.838236 0.710556
O O8 0.321241 0.187647 0.779257
O O9 0.234801 0.250911 0.587804
O O10 0.482168 0.724514 0.061904
#
# Coordination Sequence:
#
# PCOD8139709 Si02
#       6
#     8   4   4   8   8   8
#     4  10  22  41  71  99 143 186 230 294 348 404
#     4  11  22  40  70 103 144 187 220 294 350 411
#     4   9  22  44  64  89 148 185 224 300 344 395
#     4  10  21  40  65 104 142 176 232 288 349 423
#     4  10  20  39  68 106 134 180 238 285 350 427
#     4  12  22  41  74 103 136 187 236 277 357 430
#
# _framework density 27.810569000000001
#
# number of rings (size 3 to 8) (size 9 to 14) (size 15 to 20)
#    0.000    1.600    4.000    0.600    2.800    0.800 
#    0.000    5.000    0.000    0.000    0.000    0.000 
#    0.000    0.000    0.000    0.000    0.000    0.000 
#
# Total GULP energy -248032.855514 kJ/mol
# GULP energy per Si atom -12401.642776 kJ/mol
# Density = 2.774727 g / cm^3
# Si number density = 27.810569 Si / 1000 Ang^3
#
#
#
# Elastic Constant Matrix: (Units=GPa)
#
#
# Indices 1 2 3 4 5 6 
#
# 1 103.1185 11.2280 26.2094 0.0000 9.8069 0.0000
# 2 11.2280 78.3431 22.0894 0.0000 11.0646 0.0000
# 3 26.2094 22.0894 98.2567 0.0000 27.2118 0.0000
# 4 0.0000 0.0000 0.0000 47.4624 0.0000 3.2625
# 5 9.8069 11.0646 27.2118 0.0000 54.1927 0.0000
# 6 0.0000 0.0000 0.0000 3.2625 0.0000 22.5498
#
#
#
# Elastic Compliance Matrix: (Units=1/GPa)
#
#
# Indices 1 2 3 4 5 6 
#
# 1 0.010456 -0.000727 -0.002489 0.000000 -0.000494 0.000000
# 2 -0.000727 0.013777 -0.002510 0.000000 -0.001421 0.000000
# 3 -0.002489 -0.002510 0.012938 0.000000 -0.005534 0.000000
# 4 0.000000 0.000000 0.000000 0.021281 0.000000 -0.003079
# 5 -0.000494 -0.001421 -0.005534 0.000000 0.021611 0.000000
# 6 0.000000 0.000000 0.000000 -0.003079 0.000000 0.044792
#
#
# Mechanical properties :
#
#
# Convention : Reuss Voigt Hill
#
# Bulk Modulus (GPa) = 38.88029 44.30800 41.59414
# Shear Modulus (GPa) = 34.51140 39.52042 37.01591
#
# Velocity S-wave (km/s) = 3.52653 3.77378 3.65225
# Velocity P-wave (km/s) = 5.53106 5.91229 5.72485
#
# Compressibility (1/GPa) = 0.02571997
#
# Stress axis : x y z
#
# Youngs Moduli (GPa) = 95.63592 72.58527 77.29103
#
# Poissons Ratio (x) = 0.05277 0.19237
# Poissons Ratio (y) = 0.06953 0.19398
# Poissons Ratio (z) = 0.23803 0.18217
#
# Static dielectric constant tensor:
#      x y z
#    x 4.939050 0.000000 0.077220 
#    y 0.000000 4.922550 0.000000 
#    z 0.077220 0.000000 5.679740 
# 
# 
# High freq. dielectric constant tensor:
#      x y z
#    x 2.120490 0.000000 0.003170 
#    y 0.000000 2.129430 0.000000 
#    z 0.003170 0.000000 2.147380 
# 
# From -- ./inp_files/152315.got.cif
#   From: 2010.06.25/outbox.cif.g09.slc.cpg/sg15_77_cif.got.tgz:152315.got - 2010.06.28 07:06:18.
