data_PCOD8139338
_publ_section_title
;
Structure prediction by ZEFSAII (Michael W. Deem and Ramdas Pophale) SiO2 
 PCOD8139338
Probable space group: C 2/C
;
_chemical_formula_sum "Si O2"
_cell_formula_units_Z 56
_cell_length_a 11.365037
_cell_length_b 21.898560
_cell_length_c 12.934079
_cell_angle_alpha 90.000000
_cell_angle_beta 117.724373
_cell_angle_gamma 90.000000
_cell_volume 2849.451497
_symmetry_space_group_name_H-M "C 2/C"
_symmetry_group_IT_number 15
_symmetry_cell_setting 'monoclinic'
loop_
_space_group_symop_operation_xyz
x,y,z
-x,y,1/2-z
-x,-y,-z
x,-y,1/2+z
1/2+x,1/2+y,z
1/2-x,1/2+y,1/2-z
1/2-x,1/2-y,-z
1/2+x,1/2-y,1/2+z
loop_
_atom_site_type_symbol
_atom_site_label
_atom_site_fract_x
_atom_site_fract_y
_atom_site_fract_z
Si Si1 0.326773 0.285139 0.118852
Si Si2 0.711551 0.348867 0.073288
Si Si3 0.404768 0.246426 0.356682
Si Si4 0.695139 0.895527 0.173160
Si Si5 0.290217 0.469482 0.683588
Si Si6 0.909632 0.625005 0.472347
Si Si7 0.476004 0.449548 0.574934
O O1 0.310634 0.243790 0.216587
O O2 0.475919 0.289484 0.135891
O O3 0.272026 0.353077 0.121330
O O4 0.250000 0.250000 0.000000
O O5 0.665644 0.279516 0.075452
O O6 0.793261 0.371036 0.206153
O O7 0.806070 0.349303 0.013186
O O8 0.577170 0.387666 0.999106
O O9 0.448947 0.179261 0.409697
O O10 0.756160 0.962468 0.202460
O O11 0.540711 0.900070 0.080581
O O12 0.156729 0.429269 0.620764
O O13 0.361285 0.474620 0.602575
O O14 0.387255 0.437446 0.806989
O O15 0.500000 0.500000 0.500000
#
# Coordination Sequence:
#
# PCOD8139338 Si02
#       7
#     8   8   8   8   8   8   8
#     4  10  21  39  60  88 116 162 206 255 302 353
#     4  10  22  38  64  89 114 164 203 251 311 359
#     4  10  22  38  62  88 121 156 211 254 303 364
#     4  11  21  39  64  87 124 161 203 250 307 376
#     4  10  23  37  62  91 118 163 201 248 313 356
#     4  11  22  41  57  90 131 157 197 252 305 383
#     4  10  20  39  60  86 122 150 207 259 288 362
#
# _framework density 19.652906000000002
#
# number of rings (size 3 to 8) (size 9 to 14) (size 15 to 20)
#    0.000    1.714    2.857    1.286    2.000    2.286 
#    0.000    0.000    3.143    0.000    0.000    0.000 
#    0.000    0.000    0.000    0.000    0.000    0.000 
#
# Total GULP energy -347153.475842 kJ/mol
# GULP energy per Si atom -12398.338423 kJ/mol
# Density = 1.960818 g / cm^3
# Si number density = 19.652906 Si / 1000 Ang^3
#
#
#
# Elastic Constant Matrix: (Units=GPa)
#
#
# Indices 1 2 3 4 5 6 
#
# 1 63.2063 23.1122 22.6001 0.0000 7.9302 0.0000
# 2 23.1122 78.4003 30.2188 0.0000 8.6874 0.0000
# 3 22.6001 30.2188 106.2716 0.0000 17.3257 0.0000
# 4 0.0000 0.0000 0.0000 31.7840 0.0000 0.5276
# 5 7.9302 8.6874 17.3257 0.0000 36.3379 0.0000
# 6 0.0000 0.0000 0.0000 0.5276 0.0000 27.4773
#
#
#
# Elastic Compliance Matrix: (Units=1/GPa)
#
#
# Indices 1 2 3 4 5 6 
#
# 1 0.018493 -0.004320 -0.002401 0.000000 -0.001858 0.000000
# 2 -0.004320 0.015421 -0.003274 0.000000 -0.001183 0.000000
# 3 -0.002401 -0.003274 0.011535 0.000000 -0.004193 0.000000
# 4 0.000000 0.000000 0.000000 0.031472 0.000000 -0.000604
# 5 -0.001858 -0.001183 -0.004193 0.000000 0.030207 0.000000
# 6 0.000000 0.000000 0.000000 -0.000604 0.000000 0.036405
#
#
# Mechanical properties :
#
#
# Convention : Reuss Voigt Hill
#
# Bulk Modulus (GPa) = 39.27865 44.41559 41.84712
# Shear Modulus (GPa) = 29.06803 30.58298 29.82550
#
# Velocity S-wave (km/s) = 3.85004 3.94909 3.89988
# Velocity P-wave (km/s) = 6.30819 6.59112 6.45121
#
# Compressibility (1/GPa) = 0.02545913
#
# Stress axis : x y z
#
# Youngs Moduli (GPa) = 54.07550 64.84467 86.69272
#
# Poissons Ratio (x) = 0.28014 0.20818
# Poissons Ratio (y) = 0.23361 0.28379
# Poissons Ratio (z) = 0.12985 0.21227
#
# Static dielectric constant tensor:
#      x y z
#    x 3.709230 0.000000 0.216350 
#    y 0.000000 3.483800 0.000000 
#    z 0.216350 0.000000 3.962370 
# 
# 
# High freq. dielectric constant tensor:
#      x y z
#    x 1.761340 0.000000 0.002170 
#    y 0.000000 1.756800 0.000000 
#    z 0.002170 0.000000 1.784050 
# 
# From -- ./inp_files/90911.got.cif
#   From: 2010.06.25/outbox.cif.g09.slc.cpg/sg15_46_cif.got.tgz:90911.got - 2010.06.28 07:06:18.
