data_PCOD8139616
_publ_section_title
;
Structure prediction by ZEFSAII (Michael W. Deem and Ramdas Pophale) SiO2 
 PCOD8139616
Probable space group: C 2/C
;
_chemical_formula_sum "Si O2"
_cell_formula_units_Z 60
_cell_length_a 26.843412
_cell_length_b 8.925793
_cell_length_c 26.510630
_cell_angle_alpha 90.000000
_cell_angle_beta 153.802092
_cell_angle_gamma 90.000000
_cell_volume 2804.198897
_symmetry_space_group_name_H-M "C 2/C"
_symmetry_group_IT_number 15
_symmetry_cell_setting 'monoclinic'
loop_
_space_group_symop_operation_xyz
x,y,z
-x,y,1/2-z
-x,-y,-z
x,-y,1/2+z
1/2+x,1/2+y,z
1/2-x,1/2+y,1/2-z
1/2-x,1/2-y,-z
1/2+x,1/2-y,1/2+z
loop_
_atom_site_type_symbol
_atom_site_label
_atom_site_fract_x
_atom_site_fract_y
_atom_site_fract_z
Si Si1 0.935720 0.724932 0.047035
Si Si2 0.111470 0.448210 0.442425
Si Si3 0.015981 0.765963 0.599380
Si Si4 0.144853 0.387072 0.130666
Si Si5 0.315653 0.517172 0.921401
Si Si6 0.500000 0.188253 0.750000
Si Si7 0.673127 0.285364 0.828642
Si Si8 0.168178 0.670493 0.210540
O O1 0.912676 0.624835 0.075205
O O2 0.068180 0.736121 0.154236
O O3 0.875882 0.637931 0.946850
O O4 0.877727 0.883210 0.008015
O O5 0.086426 0.409776 0.361649
O O6 0.238880 0.409451 0.573279
O O7 0.025476 0.367067 0.402212
O O8 0.054650 0.704870 0.581005
O O9 0.121710 0.835170 0.727434
O O10 0.918643 0.881125 0.495646
O O11 0.130633 0.563949 0.129799
O O12 0.267797 0.314792 0.253829
O O13 0.232375 0.619825 0.879613
O O14 0.247666 0.443989 0.813842
O O15 0.574413 0.289437 0.780431
#
# Coordination Sequence:
#
# PCOD8139616 Si02
#       8
#     8   8   8   8   8   4   8   8
#     4  11  24  38  56  86 125 166 203 249 298 364
#     4  10  21  38  63  86 117 157 200 256 309 369
#     4  10  21  37  61  86 121 162 203 252 297 355
#     4  11  24  34  58  84 124 164 214 245 297 350
#     4  10  23  39  60  89 124 161 205 243 303 363
#     4  10  20  40  66  92 114 150 198 264 324 366
#     4  10  20  39  65  92 116 152 201 258 312 371
#     4  11  23  37  53  83 122 169 205 251 291 345
#
# _framework density 21.396485999999999
#
# number of rings (size 3 to 8) (size 9 to 14) (size 15 to 20)
#    0.000    1.600    2.667    1.600    5.600    2.133 
#    0.000    0.667    0.000    8.000    0.000    0.000 
#    0.000    0.000    0.000    0.000    0.000    0.000 
#
# Total GULP energy -371911.089907 kJ/mol
# GULP energy per Si atom -12397.036330 kJ/mol
# Density = 2.134779 g / cm^3
# Si number density = 21.396486 Si / 1000 Ang^3
#
#
#
# Elastic Constant Matrix: (Units=GPa)
#
#
# Indices 1 2 3 4 5 6 
#
# 1 51.4012 1.9489 6.9982 0.0000 13.7573 0.0000
# 2 1.9489 50.2058 3.8991 -0.0001 17.3751 0.0000
# 3 6.9982 3.8991 89.4990 -0.0002 16.8270 -0.0002
# 4 0.0000 -0.0001 -0.0002 34.1222 -0.0001 3.1414
# 5 13.7573 17.3751 16.8270 -0.0001 32.4530 -0.0001
# 6 0.0000 0.0000 -0.0002 3.1414 -0.0001 13.7374
#
#
#
# Elastic Compliance Matrix: (Units=1/GPa)
#
#
# Indices 1 2 3 4 5 6 
#
# 1 0.022300 0.002981 0.000226 0.000000 -0.011166 0.000000
# 2 0.002981 0.025041 0.001589 0.000000 -0.015495 0.000000
# 3 0.000226 0.001589 0.012481 0.000000 -0.007418 0.000000
# 4 0.000000 0.000000 0.000000 0.029937 0.000000 -0.006846
# 5 -0.011166 -0.015495 -0.007418 0.000000 0.047689 0.000000
# 6 0.000000 0.000000 0.000000 -0.006846 0.000000 0.074360
#
#
# Mechanical properties :
#
#
# Convention : Reuss Voigt Hill
#
# Bulk Modulus (GPa) = 14.40626 24.08873 19.24750
# Shear Modulus (GPa) = 22.18742 27.94651 25.06696
#
# Velocity S-wave (km/s) = 3.22369 3.61796 3.42650
# Velocity P-wave (km/s) = 4.53915 5.36055 4.96686
#
# Compressibility (1/GPa) = 0.06941426
#
# Stress axis : x y z
#
# Youngs Moduli (GPa) = 44.84377 39.93425 80.12120
#
# Poissons Ratio (x) = -0.11905 -0.01810
# Poissons Ratio (y) = -0.13369 -0.12732
# Poissons Ratio (z) = -0.01013 -0.06346
#
# Static dielectric constant tensor:
#      x y z
#    x 3.539980 0.000000 0.140360 
#    y 0.000000 3.853660 0.000000 
#    z 0.140360 0.000000 4.273990 
# 
# 
# High freq. dielectric constant tensor:
#      x y z
#    x 1.812790 0.000000 0.014580 
#    y 0.000000 1.823510 0.000000 
#    z 0.014580 0.000000 1.861440 
# 
# From -- ./inp_files/303101.got.cif
#   From: 2010.06.25/outbox.cif.g09.slc.cpg/sg15_152_cif.got.tgz:303101.got - 2010.06.28 07:06:18.
