data_PCOD8139845
_publ_section_title
;
Structure prediction by ZEFSAII (Michael W. Deem and Ramdas Pophale) SiO2 
 PCOD8139845
Probable space group: C 2/C
;
_chemical_formula_sum "Si O2"
_cell_formula_units_Z 44
_cell_length_a 12.055661
_cell_length_b 18.314819
_cell_length_c 12.212354
_cell_angle_alpha 90.000000
_cell_angle_beta 48.273179
_cell_angle_gamma 90.000000
_cell_volume 2012.435732
_symmetry_space_group_name_H-M "C 2/C"
_symmetry_group_IT_number 15
_symmetry_cell_setting 'monoclinic'
loop_
_space_group_symop_operation_xyz
x,y,z
-x,y,1/2-z
-x,-y,-z
x,-y,1/2+z
1/2+x,1/2+y,z
1/2-x,1/2+y,1/2-z
1/2-x,1/2-y,-z
1/2+x,1/2-y,1/2+z
loop_
_atom_site_type_symbol
_atom_site_label
_atom_site_fract_x
_atom_site_fract_y
_atom_site_fract_z
Si Si1 0.336981 0.600613 0.388999
Si Si2 0.671538 0.567727 0.647085
Si Si3 0.000000 0.705226 0.750000
Si Si4 0.126030 0.313024 0.571243
Si Si5 0.103715 0.715463 0.460032
Si Si6 0.264767 0.638233 0.672945
O O1 0.500000 0.627226 0.250000
O O2 0.303713 0.517373 0.381964
O O3 0.218501 0.648827 0.398544
O O4 0.337057 0.603018 0.519302
O O5 0.500000 0.592003 0.750000
O O6 0.777680 0.611969 0.492372
O O7 0.715681 0.583749 0.741766
O O8 0.908151 0.649195 0.736209
O O9 0.084090 0.750085 0.598503
O O10 0.250000 0.250000 0.500000
O O11 0.000000 0.312470 0.750000
O O12 0.045929 0.308316 0.505088
O O13 0.170895 0.780692 0.343792
#
# Coordination Sequence:
#
# PCOD8139845 Si02
#       6
#     8   8   4   8   8   8
#     4  10  25  42  69 102 137 184 237 292 360 418
#     4  11  25  48  68 100 144 192 234 288 360 428
#     4  10  20  40  62 100 128 168 224 284 346 382
#     4  12  26  45  70 105 143 191 236 287 353 428
#     4  11  24  40  71 102 130 182 230 297 348 409
#     4  11  23  41  68  97 136 173 232 298 342 422
#
# _framework density 21.864052000000001
#
# number of rings (size 3 to 8) (size 9 to 14) (size 15 to 20)
#    0.000    1.091    1.818    4.909    5.091    6.545 
#    6.545    0.000    0.000    0.000    0.000    0.000 
#    0.000    0.000    0.000    0.000    0.000    0.000 
#
# Total GULP energy -272617.540958 kJ/mol
# GULP energy per Si atom -12391.706407 kJ/mol
# Density = 2.181429 g / cm^3
# Si number density = 21.864052 Si / 1000 Ang^3
#
#
#
# Elastic Constant Matrix: (Units=GPa)
#
#
# Indices 1 2 3 4 5 6 
#
# 1 125.4069 36.3856 33.1735 0.0002 -7.7711 -0.0001
# 2 36.3856 110.3987 38.1886 0.0000 -9.4650 0.0000
# 3 33.1735 38.1886 115.3902 0.0001 -0.5159 -0.0001
# 4 0.0002 0.0000 0.0001 21.9667 -0.0003 -2.2359
# 5 -7.7711 -9.4650 -0.5159 -0.0003 42.1504 0.0002
# 6 -0.0001 0.0000 -0.0001 -2.2359 0.0002 20.5285
#
#
#
# Elastic Compliance Matrix: (Units=1/GPa)
#
#
# Indices 1 2 3 4 5 6 
#
# 1 0.009207 -0.002282 -0.001886 0.000000 0.001162 0.000000
# 2 -0.002282 0.011014 -0.002980 0.000000 0.002016 0.000000
# 3 -0.001886 -0.002980 0.010191 0.000000 -0.000892 0.000000
# 4 0.000000 0.000000 0.000000 0.046034 0.000000 0.005014
# 5 0.001162 0.002016 -0.000892 0.000000 0.024381 0.000000
# 6 0.000000 0.000000 0.000000 0.005014 0.000000 0.049259
#
#
# Mechanical properties :
#
#
# Convention : Reuss Voigt Hill
#
# Bulk Modulus (GPa) = 62.05582 62.96570 62.51076
# Shear Modulus (GPa) = 29.45438 33.15902 31.30670
#
# Velocity S-wave (km/s) = 3.67435 3.89858 3.78812
# Velocity P-wave (km/s) = 6.81508 7.00903 6.91273
#
# Compressibility (1/GPa) = 0.01611452
#
# Stress axis : x y z
#
# Youngs Moduli (GPa) = 108.60978 90.79398 98.12779
#
# Poissons Ratio (x) = 0.20723 0.18511
# Poissons Ratio (y) = 0.24789 0.29241
# Poissons Ratio (z) = 0.20489 0.27056
#
# Static dielectric constant tensor:
#      x y z
#    x 4.183920 0.000000 -0.013080 
#    y 0.000000 3.828350 0.000000 
#    z -0.013080 0.000000 4.475940 
# 
# 
# High freq. dielectric constant tensor:
#      x y z
#    x 1.875050 0.000000 -0.006720 
#    y 0.000000 1.854310 0.000000 
#    z -0.006720 0.000000 1.877000 
# 
# From -- ./inp_files/88711.got.cif
#   From: 2010.06.25/outbox.cif.g09.slc.cpg/sg15_45_cif.got.tgz:88711.got - 2010.06.28 07:06:18.
