data_PCOD8139332
_publ_section_title
;
Structure prediction by ZEFSAII (Michael W. Deem and Ramdas Pophale) SiO2 
 PCOD8139332
Probable space group: C 2/C
;
_chemical_formula_sum "Si O2"
_cell_formula_units_Z 56
_cell_length_a 20.017412
_cell_length_b 6.563445
_cell_length_c 22.329492
_cell_angle_alpha 90.000000
_cell_angle_beta 108.018726
_cell_angle_gamma 90.000000
_cell_volume 2789.836820
_symmetry_space_group_name_H-M "C 2/C"
_symmetry_group_IT_number 15
_symmetry_cell_setting 'monoclinic'
loop_
_space_group_symop_operation_xyz
x,y,z
-x,y,1/2-z
-x,-y,-z
x,-y,1/2+z
1/2+x,1/2+y,z
1/2-x,1/2+y,1/2-z
1/2-x,1/2-y,-z
1/2+x,1/2-y,1/2+z
loop_
_atom_site_type_symbol
_atom_site_label
_atom_site_fract_x
_atom_site_fract_y
_atom_site_fract_z
Si Si1 0.175159 0.017480 0.945432
Si Si2 0.909993 0.755544 0.286471
Si Si3 0.173771 0.865279 0.773560
Si Si4 0.663896 0.117827 0.882514
Si Si5 0.686039 0.933103 0.174433
Si Si6 0.070214 0.725435 0.345975
Si Si7 0.787665 0.190598 0.427243
O O1 0.111345 0.081841 0.884051
O O2 0.248394 0.122342 0.948454
O O3 0.182491 0.773233 0.941315
O O4 0.160737 0.078452 0.010880
O O5 0.869937 0.603803 0.320939
O O6 0.909707 0.682581 0.217833
O O7 0.988605 0.765285 0.333777
O O8 0.878168 0.982864 0.276361
O O9 0.136770 0.740596 0.816408
O O10 0.204843 0.709089 0.734932
O O11 0.239389 0.973017 0.824062
O O12 0.598653 0.978064 0.886844
O O13 0.731136 0.973912 0.886302
O O14 0.663868 0.789360 0.112086
#
# Coordination Sequence:
#
# PCOD8139332 Si02
#       7
#     8   8   8   8   8   8   8
#     4  10  20  39  60  85 122 156 196 242 284 343
#     4  11  23  38  57  86 117 152 195 242 294 348
#     4  12  21  35  60  87 118 150 186 242 300 345
#     4  11  19  37  62  88 117 154 194 241 295 344
#     4  12  22  36  57  89 121 147 187 239 300 353
#     4  10  22  40  57  84 118 154 203 240 284 351
#     4  10  22  35  59  93 119 153 196 240 291 346
#
# _framework density 20.072858
#
# number of rings (size 3 to 8) (size 9 to 14) (size 15 to 20)
#    0.000    1.143    5.714    2.143    0.000    1.143 
#    0.000    0.714    0.000    1.714    0.000    0.000 
#    0.000    0.000    0.000    0.000    0.000    0.000 
#
# Total GULP energy -347045.971500 kJ/mol
# GULP energy per Si atom -12394.498982 kJ/mol
# Density = 2.002717 g / cm^3
# Si number density = 20.072858 Si / 1000 Ang^3
#
#
#
# Elastic Constant Matrix: (Units=GPa)
#
#
# Indices 1 2 3 4 5 6 
#
# 1 77.3414 22.9948 11.2930 0.0000 13.7116 0.0000
# 2 22.9948 89.6851 3.3911 0.0000 3.5914 0.0000
# 3 11.2930 3.3911 55.1132 0.0000 -0.0097 0.0000
# 4 0.0000 0.0000 0.0000 26.6787 0.0000 -5.5765
# 5 13.7116 3.5914 -0.0097 0.0000 24.5548 0.0000
# 6 0.0000 0.0000 0.0000 -5.5765 0.0000 16.7440
#
#
#
# Elastic Compliance Matrix: (Units=1/GPa)
#
#
# Indices 1 2 3 4 5 6 
#
# 1 0.015939 -0.003636 -0.003044 0.000000 -0.008370 0.000000
# 2 -0.003636 0.012072 0.000002 0.000000 0.000265 0.000000
# 3 -0.003044 0.000002 0.018768 0.000000 0.001707 0.000000
# 4 0.000000 0.000000 0.000000 0.040288 0.000000 0.013417
# 5 -0.008370 0.000265 0.001707 0.000000 0.045361 0.000000
# 6 0.000000 0.000000 0.000000 0.013417 0.000000 0.064191
#
#
# Mechanical properties :
#
#
# Convention : Reuss Voigt Hill
#
# Bulk Modulus (GPa) = 29.91893 33.05528 31.48710
# Shear Modulus (GPa) = 22.61256 25.89289 24.25273
#
# Velocity S-wave (km/s) = 3.36001 3.59548 3.47974
# Velocity P-wave (km/s) = 5.47635 5.80862 5.64493
#
# Compressibility (1/GPa) = 0.03342366
#
# Stress axis : x y z
#
# Youngs Moduli (GPa) = 62.73848 82.83769 53.28137
#
# Poissons Ratio (x) = 0.30124 0.16217
# Poissons Ratio (y) = 0.22815 -0.00013
# Poissons Ratio (z) = 0.19096 -0.00020
#
# Static dielectric constant tensor:
#      x y z
#    x 3.264990 0.000000 -0.040860 
#    y 0.000000 3.877110 0.000000 
#    z -0.040860 0.000000 3.686280 
# 
# 
# High freq. dielectric constant tensor:
#      x y z
#    x 1.735740 0.000000 -0.001350 
#    y 0.000000 1.804630 0.000000 
#    z -0.001350 0.000000 1.776820 
# 
# From -- ./inp_files/278682.got.cif
#   From: 2010.06.25/outbox.cif.g09.slc.cpg/sg15_140_cif.got.tgz:278682.got - 2010.06.28 07:06:18.
