data_PCOD8139136
_publ_section_title
;
Structure prediction by ZEFSAII (Michael W. Deem and Ramdas Pophale) SiO2 
 PCOD8139136
Probable space group: C 2/C
;
_chemical_formula_sum "Si O2"
_cell_formula_units_Z 48
_cell_length_a 13.518038
_cell_length_b 19.856818
_cell_length_c 11.380763
_cell_angle_alpha 90.000000
_cell_angle_beta 44.294729
_cell_angle_gamma 90.000000
_cell_volume 2133.376406
_symmetry_space_group_name_H-M "C 2/C"
_symmetry_group_IT_number 15
_symmetry_cell_setting 'monoclinic'
loop_
_space_group_symop_operation_xyz
x,y,z
-x,y,1/2-z
-x,-y,-z
x,-y,1/2+z
1/2+x,1/2+y,z
1/2-x,1/2+y,1/2-z
1/2-x,1/2-y,-z
1/2+x,1/2-y,1/2+z
loop_
_atom_site_type_symbol
_atom_site_label
_atom_site_fract_x
_atom_site_fract_y
_atom_site_fract_z
Si Si1 0.340695 0.920109 0.365118
Si Si2 0.527580 0.311290 0.860429
Si Si3 0.944075 0.424853 0.032652
Si Si4 0.654662 0.819222 0.941478
Si Si5 0.002483 0.928273 0.056452
Si Si6 0.219140 0.054077 0.550339
O O1 0.500000 0.946999 0.250000
O O2 0.327218 0.910390 0.235524
O O3 0.319453 0.848476 0.448700
O O4 0.232843 0.974066 0.512007
O O5 0.500000 0.331483 0.750000
O O6 0.694600 0.299967 0.742317
O O7 0.445829 0.244598 0.966190
O O8 0.467179 0.371799 0.990566
O O9 0.868828 0.415774 0.969220
O O10 0.000000 0.500000 0.000000
O O11 0.077618 0.374932 0.926149
O O12 0.158084 0.912716 0.982647
O O13 0.889369 0.931387 0.254636
O O14 0.000000 0.000000 0.000000
#
# Coordination Sequence:
#
# PCOD8139136 Si02
#       6
#     8   8   8   8   8   8
#     4  10  20  38  66 100 141 177 236 287 349 407
#     4  12  28  47  74 103 145 187 240 296 360 421
#     4  11  22  39  72 103 140 182 241 293 347 423
#     4  11  26  46  70 108 139 189 240 294 357 414
#     4  11  27  42  69 101 145 185 233 295 363 424
#     4  11  23  41  68 103 141 181 234 287 354 418
#
# _framework density 22.499544
#
# number of rings (size 3 to 8) (size 9 to 14) (size 15 to 20)
#    0.000    1.000    3.333    4.000   11.667    0.000 
#    0.000    0.833    0.000    0.000    0.000    0.000 
#    0.000    0.000    0.000    0.000    0.000    0.000 
#
# Total GULP energy -297502.207947 kJ/mol
# GULP energy per Si atom -12395.925331 kJ/mol
# Density = 2.244833 g / cm^3
# Si number density = 22.499544 Si / 1000 Ang^3
#
#
#
# Elastic Constant Matrix: (Units=GPa)
#
#
# Indices 1 2 3 4 5 6 
#
# 1 112.0718 31.7226 17.6907 0.0034 1.2414 -0.0023
# 2 31.7226 140.4465 53.1426 0.0012 -6.9563 -0.0007
# 3 17.6907 53.1426 96.6070 0.0030 -17.4029 -0.0028
# 4 0.0034 0.0012 0.0030 40.9294 -0.0027 -3.8907
# 5 1.2414 -6.9563 -17.4029 -0.0027 28.4613 0.0022
# 6 -0.0023 -0.0007 -0.0028 -3.8907 0.0022 32.5773
#
#
#
# Elastic Compliance Matrix: (Units=1/GPa)
#
#
# Indices 1 2 3 4 5 6 
#
# 1 0.009627 -0.001868 -0.001003 -0.000001 -0.001490 0.000001
# 2 -0.001868 0.009376 -0.004931 0.000000 -0.000642 0.000000
# 3 -0.001003 -0.004931 0.014652 0.000000 0.007798 0.000001
# 4 -0.000001 0.000000 0.000000 0.024713 0.000002 0.002951
# 5 -0.001490 -0.000642 0.007798 0.000002 0.039812 -0.000002
# 6 0.000001 0.000000 0.000001 0.002951 -0.000002 0.031049
#
#
# Mechanical properties :
#
#
# Convention : Reuss Voigt Hill
#
# Bulk Modulus (GPa) = 55.40536 61.58190 58.49363
# Shear Modulus (GPa) = 33.14523 36.83155 34.98839
#
# Velocity S-wave (km/s) = 3.84233 4.05036 3.94772
# Velocity P-wave (km/s) = 6.66057 7.02165 6.84350
#
# Compressibility (1/GPa) = 0.01804880
#
# Stress axis : x y z
#
# Youngs Moduli (GPa) = 103.87846 106.65161 68.24843
#
# Poissons Ratio (x) = 0.19928 0.06848
# Poissons Ratio (y) = 0.19410 0.33656
# Poissons Ratio (z) = 0.10423 0.52594
#
# Static dielectric constant tensor:
#      x y z
#    x 5.052740 0.000000 0.050010 
#    y 0.000000 3.784920 0.000000 
#    z 0.050010 0.000000 4.130290 
# 
# 
# High freq. dielectric constant tensor:
#      x y z
#    x 1.906710 0.000000 -0.012940 
#    y 0.000000 1.860750 0.000000 
#    z -0.012940 0.000000 1.887620 
# 
# From -- ./inp_files/99984.got.cif
#   From: 2010.06.25/outbox.cif.g09.slc.cpg/sg15_50_cif.got.tgz:99984.got - 2010.06.28 07:06:18.
