data_PCOD8139831
_publ_section_title
;
Structure prediction by ZEFSAII (Michael W. Deem and Ramdas Pophale) SiO2 
 PCOD8139831
Probable space group: C 2/C
;
_chemical_formula_sum "Si O2"
_cell_formula_units_Z 64
_cell_length_a 17.932805
_cell_length_b 23.455951
_cell_length_c 14.153337
_cell_angle_alpha 90.000000
_cell_angle_beta 148.074516
_cell_angle_gamma 90.000000
_cell_volume 3148.216669
_symmetry_space_group_name_H-M "C 2/C"
_symmetry_group_IT_number 15
_symmetry_cell_setting 'monoclinic'
loop_
_space_group_symop_operation_xyz
x,y,z
-x,y,1/2-z
-x,-y,-z
x,-y,1/2+z
1/2+x,1/2+y,z
1/2-x,1/2+y,1/2-z
1/2-x,1/2-y,-z
1/2+x,1/2-y,1/2+z
loop_
_atom_site_type_symbol
_atom_site_label
_atom_site_fract_x
_atom_site_fract_y
_atom_site_fract_z
Si Si1 0.314520 0.861645 0.705779
Si Si2 0.064679 0.259918 0.544512
Si Si3 0.984359 0.862165 0.017202
Si Si4 0.720975 0.005523 0.995835
Si Si5 0.694101 0.738956 0.336941
Si Si6 0.143410 0.891254 0.359222
Si Si7 0.019259 0.523927 0.123561
Si Si8 0.404339 0.613685 0.238814
O O1 0.169749 0.877214 0.605077
O O2 0.270730 0.855478 0.546857
O O3 0.427688 0.911920 0.832031
O O4 0.395386 0.807125 0.834828
O O5 0.199066 0.241610 0.629021
O O6 0.997054 0.206075 0.524618
O O7 0.945564 0.276543 0.337715
O O8 0.999832 0.897493 0.934796
O O9 0.122190 0.881576 0.224802
O O10 0.789543 0.065088 0.098566
O O11 0.840185 0.958680 0.102154
O O12 0.629252 0.978219 0.981716
O O13 0.628949 0.014512 0.802045
O O14 0.750000 0.750000 0.500000
O O15 0.674289 0.670977 0.313166
O O16 0.000000 0.868354 0.250000
O O17 0.000000 0.500000 0.000000
O O18 0.500000 0.623133 0.250000
#
# Coordination Sequence:
#
# PCOD8139831 Si02
#       8
#     8   8   8   8   8   8   8   8
#     4  10  20  40  61  88 121 166 202 266 312 373
#     4  11  21  38  63  88 125 165 208 261 309 371
#     4  10  21  39  60  91 124 157 212 260 312 382
#     4  10  22  39  57  92 119 155 210 256 311 390
#     4  11  23  40  59  91 128 169 212 259 313 373
#     4   9  20  38  63  85 121 157 201 258 323 371
#     4  10  22  38  61  83 123 160 203 257 317 378
#     4  11  22  38  61  87 126 160 205 260 311 377
#
# _framework density 20.328970000000002
#
# number of rings (size 3 to 8) (size 9 to 14) (size 15 to 20)
#    0.000    1.750    2.500    3.000    0.000    4.000 
#    2.250    0.000    5.500    0.000    0.000    0.000 
#    0.000    0.000    0.000    0.000    0.000    0.000 
#
# Total GULP energy -396490.084171 kJ/mol
# GULP energy per Si atom -12390.315130 kJ/mol
# Density = 2.028270 g / cm^3
# Si number density = 20.328970 Si / 1000 Ang^3
#
#
#
# Elastic Constant Matrix: (Units=GPa)
#
#
# Indices 1 2 3 4 5 6 
#
# 1 94.0931 23.6192 48.0857 0.0000 -16.3865 0.0000
# 2 23.6192 81.5772 57.4885 0.0000 -8.6910 0.0000
# 3 48.0857 57.4885 152.1601 0.0000 -36.0282 0.0000
# 4 0.0000 0.0000 0.0000 41.8435 0.0000 -3.0536
# 5 -16.3865 -8.6910 -36.0282 0.0000 49.0380 0.0000
# 6 0.0000 0.0000 0.0000 -3.0536 0.0000 26.9502
#
#
#
# Elastic Compliance Matrix: (Units=1/GPa)
#
#
# Indices 1 2 3 4 5 6 
#
# 1 0.012877 -0.001317 -0.003158 0.000000 0.001750 0.000000
# 2 -0.001317 0.017010 -0.006538 0.000000 -0.002229 0.000000
# 3 -0.003158 -0.006538 0.011520 0.000000 0.006250 0.000000
# 4 0.000000 0.000000 0.000000 0.024098 0.000000 0.002730
# 5 0.001750 -0.002229 0.006250 0.000000 0.025174 0.000000
# 6 0.000000 0.000000 0.000000 0.002730 0.000000 0.037415
#
#
# Mechanical properties :
#
#
# Convention : Reuss Voigt Hill
#
# Bulk Modulus (GPa) = 51.59579 65.13524 58.36551
# Shear Modulus (GPa) = 31.93302 36.80879 34.37091
#
# Velocity S-wave (km/s) = 3.96765 4.25980 4.11632
# Velocity P-wave (km/s) = 6.81360 7.50364 7.16693
#
# Compressibility (1/GPa) = 0.01938143
#
# Stress axis : x y z
#
# Youngs Moduli (GPa) = 77.66008 58.79032 86.80620
#
# Poissons Ratio (x) = 0.07740 0.27410
# Poissons Ratio (y) = 0.10225 0.56755
# Poissons Ratio (z) = 0.24522 0.38438
#
# Static dielectric constant tensor:
#      x y z
#    x 3.866370 0.000000 -0.108390 
#    y 0.000000 3.498000 0.000000 
#    z -0.108390 0.000000 3.271020 
# 
# 
# High freq. dielectric constant tensor:
#      x y z
#    x 1.795710 0.000000 -0.015900 
#    y 0.000000 1.769440 0.000000 
#    z -0.015900 0.000000 1.817510 
# 
# From -- ./inp_files/164265.got.cif
#   From: 2010.06.25/outbox.cif.g09.slc.cpg/sg15_83_cif.got.tgz:164265.got - 2010.06.28 07:06:18.
