data_PCOD8139078
_publ_section_title
;
Structure prediction by ZEFSAII (Michael W. Deem and Ramdas Pophale) SiO2 
 PCOD8139078
Probable space group: C 2/C
;
_chemical_formula_sum "Si O2"
_cell_formula_units_Z 36
_cell_length_a 16.199510
_cell_length_b 9.062672
_cell_length_c 15.707980
_cell_angle_alpha 90.000000
_cell_angle_beta 39.896019
_cell_angle_gamma 90.000000
_cell_volume 1479.125240
_symmetry_space_group_name_H-M "C 2/C"
_symmetry_group_IT_number 15
_symmetry_cell_setting 'monoclinic'
loop_
_space_group_symop_operation_xyz
x,y,z
-x,y,1/2-z
-x,-y,-z
x,-y,1/2+z
1/2+x,1/2+y,z
1/2-x,1/2+y,1/2-z
1/2-x,1/2-y,-z
1/2+x,1/2-y,1/2+z
loop_
_atom_site_type_symbol
_atom_site_label
_atom_site_fract_x
_atom_site_fract_y
_atom_site_fract_z
Si Si1 0.000000 0.623739 0.250000
Si Si2 0.095782 0.138180 0.555519
Si Si3 0.378862 0.726621 0.601263
Si Si4 0.105213 0.189737 0.098905
Si Si5 0.192672 0.469143 0.725481
O O1 0.899491 0.726893 0.381619
O O2 0.928727 0.515145 0.241331
O O3 0.210309 0.146016 0.396842
O O4 0.965372 0.144788 0.602966
O O5 0.107171 0.987847 0.600269
O O6 0.443056 0.739015 0.457192
O O7 0.249000 0.630413 0.695926
O O8 0.346705 0.893489 0.654464
O O9 0.000000 0.247766 0.250000
O O10 0.250000 0.250000 0.000000
#
# Coordination Sequence:
#
# PCOD8139078 Si02
#       5
#     4   8   8   8   8
#     4  10  20  38  64  94 128 174 218 280 330 404
#     4  10  21  43  67  87 134 182 225 262 346 410
#     4  10  24  42  70  92 134 179 226 272 339 405
#     4  11  24  40  68 101 136 176 226 279 338 396
#     4  10  21  40  64  97 126 177 220 273 332 403
#
# _framework density 24.338711
#
# number of rings (size 3 to 8) (size 9 to 14) (size 15 to 20)
#    0.000    1.778    1.111    3.333    6.222    0.000 
#    8.000    4.444    0.000    0.000    0.000    0.000 
#    0.000    0.000    0.000    0.000    0.000    0.000 
#
# Total GULP energy -223163.182958 kJ/mol
# GULP energy per Si atom -12397.954609 kJ/mol
# Density = 2.428332 g / cm^3
# Si number density = 24.338711 Si / 1000 Ang^3
#
#
#
# Elastic Constant Matrix: (Units=GPa)
#
#
# Indices 1 2 3 4 5 6 
#
# 1 123.4623 54.2778 28.6886 0.0000 8.8261 0.0000
# 2 54.2778 54.1177 28.8446 0.0000 13.1996 0.0000
# 3 28.6886 28.8446 111.7694 0.0000 10.5805 0.0000
# 4 0.0000 0.0000 0.0000 25.4680 0.0000 -8.7956
# 5 8.8261 13.1996 10.5805 0.0000 36.7332 0.0000
# 6 0.0000 0.0000 0.0000 -8.7956 0.0000 29.2504
#
#
#
# Elastic Compliance Matrix: (Units=1/GPa)
#
#
# Indices 1 2 3 4 5 6 
#
# 1 0.014611 -0.015106 -0.000034 0.000000 0.001927 0.000000
# 2 -0.015106 0.038550 -0.005247 0.000000 -0.008712 0.000000
# 3 -0.000034 -0.005247 0.010415 0.000000 -0.001106 0.000000
# 4 0.000000 0.000000 0.000000 0.043815 0.000000 0.013175
# 5 0.001927 -0.008712 -0.001106 0.000000 0.030209 0.000000
# 6 0.000000 0.000000 0.000000 0.013175 0.000000 0.038149
#
#
# Mechanical properties :
#
#
# Convention : Reuss Voigt Hill
#
# Bulk Modulus (GPa) = 43.85635 56.99682 50.42658
# Shear Modulus (GPa) = 22.30913 30.12622 26.21767
#
# Velocity S-wave (km/s) = 3.03084 3.52204 3.28563
# Velocity P-wave (km/s) = 5.50512 6.32524 5.92938
#
# Compressibility (1/GPa) = 0.02280172
#
# Stress axis : x y z
#
# Youngs Moduli (GPa) = 68.44238 25.94025 96.01955
#
# Poissons Ratio (x) = 0.39185 0.00329
# Poissons Ratio (y) = 1.03388 0.50379
# Poissons Ratio (z) = 0.00235 0.13610
#
# Static dielectric constant tensor:
#      x y z
#    x 4.561090 0.000000 0.231270 
#    y 0.000000 3.980120 0.000000 
#    z 0.231270 0.000000 4.631010 
# 
# 
# High freq. dielectric constant tensor:
#      x y z
#    x 1.978500 0.000000 0.008260 
#    y 0.000000 1.954680 0.000000 
#    z 0.008260 0.000000 1.966120 
# 
# From -- ./inp_files/208857.got.cif
#   From: 2010.06.25/outbox.cif.g09.slc.cpg/sg15_105_cif.got.tgz:208857.got - 2010.06.28 07:06:18.
