data_PCOD8139170
_publ_section_title
;
Structure prediction by ZEFSAII (Michael W. Deem and Ramdas Pophale) SiO2 
 PCOD8139170
Probable space group: C 2/C
;
_chemical_formula_sum "Si O2"
_cell_formula_units_Z 36
_cell_length_a 15.962979
_cell_length_b 14.865742
_cell_length_c 11.971674
_cell_angle_alpha 90.000000
_cell_angle_beta 35.598181
_cell_angle_gamma 90.000000
_cell_volume 1653.677788
_symmetry_space_group_name_H-M "C 2/C"
_symmetry_group_IT_number 15
_symmetry_cell_setting 'monoclinic'
loop_
_space_group_symop_operation_xyz
x,y,z
-x,y,1/2-z
-x,-y,-z
x,-y,1/2+z
1/2+x,1/2+y,z
1/2-x,1/2+y,1/2-z
1/2-x,1/2-y,-z
1/2+x,1/2-y,1/2+z
loop_
_atom_site_type_symbol
_atom_site_label
_atom_site_fract_x
_atom_site_fract_y
_atom_site_fract_z
Si Si1 0.000000 0.816064 0.250000
Si Si2 0.903996 0.704254 0.742881
Si Si3 0.990560 0.344812 0.913012
Si Si4 0.777438 0.576940 0.485732
Si Si5 0.345087 0.610719 0.377726
O O1 0.969851 0.754221 0.174675
O O2 0.862318 0.878312 0.416359
O O3 0.988846 0.658707 0.548530
O O4 0.872238 0.810947 0.755336
O O5 0.000000 0.691738 0.750000
O O6 0.748594 0.656882 0.922158
O O7 0.833620 0.370337 0.033944
O O8 0.103735 0.419024 0.743206
O O9 0.744662 0.475956 0.564620
O O10 0.500000 0.576014 0.250000
#
# Coordination Sequence:
#
# PCOD8139170 Si02
#       5
#     4   8   8   8   8
#     4  10  20  38  66  92 132 160 210 266 320 378
#     4  10  24  44  67  86 133 173 214 251 323 384
#     4  10  22  41  66  95 124 175 207 259 323 377
#     4  10  21  40  67  96 129 157 221 263 313 376
#     4  10  22  42  63  94 127 168 208 266 314 378
#
# _framework density 21.769658
#
# number of rings (size 3 to 8) (size 9 to 14) (size 15 to 20)
#    0.000    2.222    1.111    2.667    3.111   11.556 
#    4.000    2.222    0.000    0.000    0.000    0.000 
#    0.000    0.000    0.000    0.000    0.000    0.000 
#
# Total GULP energy -223058.591709 kJ/mol
# GULP energy per Si atom -12392.143984 kJ/mol
# Density = 2.172011 g / cm^3
# Si number density = 21.769658 Si / 1000 Ang^3
#
#
#
# Elastic Constant Matrix: (Units=GPa)
#
#
# Indices 1 2 3 4 5 6 
#
# 1 87.5337 31.8751 67.4910 -0.0002 11.1502 0.0001
# 2 31.8751 112.9362 36.8646 -0.0001 -5.2317 0.0000
# 3 67.4910 36.8646 114.3536 -0.0003 -0.2635 0.0002
# 4 -0.0002 -0.0001 -0.0003 33.4542 0.0002 -15.1314
# 5 11.1502 -5.2317 -0.2635 0.0002 44.9780 -0.0001
# 6 0.0001 0.0000 0.0002 -15.1314 -0.0001 12.7542
#
#
#
# Elastic Compliance Matrix: (Units=1/GPa)
#
#
# Indices 1 2 3 4 5 6 
#
# 1 0.022955 -0.002607 -0.012722 0.000000 -0.006069 0.000000
# 2 -0.002607 0.010250 -0.001761 0.000000 0.001828 0.000000
# 3 -0.012722 -0.001761 0.016828 0.000000 0.003047 0.000000
# 4 0.000000 0.000000 0.000000 0.064505 0.000000 0.076527
# 5 -0.006069 0.001828 0.003047 0.000000 0.023968 0.000000
# 6 0.000000 0.000000 0.000000 0.076527 0.000000 0.169196
#
#
# Mechanical properties :
#
#
# Convention : Reuss Voigt Hill
#
# Bulk Modulus (GPa) = 63.08055 65.25387 64.16721
# Shear Modulus (GPa) = 14.40231 30.14349 22.27290
#
# Velocity S-wave (km/s) = 2.57490 3.72513 3.20209
# Velocity P-wave (km/s) = 6.15463 6.96720 6.57348
#
# Compressibility (1/GPa) = 0.01585275
#
# Stress axis : x y z
#
# Youngs Moduli (GPa) = 43.56273 97.56021 59.42542
#
# Poissons Ratio (x) = 0.25439 0.75598
# Poissons Ratio (y) = 0.11359 0.10466
# Poissons Ratio (z) = 0.55419 0.17182
#
# Static dielectric constant tensor:
#      x y z
#    x 3.535040 0.000000 -0.291240 
#    y 0.000000 4.048420 0.000000 
#    z -0.291240 0.000000 4.016470 
# 
# 
# High freq. dielectric constant tensor:
#      x y z
#    x 1.822180 0.000000 -0.032920 
#    y 0.000000 1.862640 0.000000 
#    z -0.032920 0.000000 1.856110 
# 
# From -- ./inp_files/96776.got.cif
#   From: 2010.06.25/outbox.cif.g09.slc.cpg/sg15_49_cif.got.tgz:96776.got - 2010.06.28 07:06:18.
