data_PCOD8139444
_publ_section_title
;
Structure prediction by ZEFSAII (Michael W. Deem and Ramdas Pophale) SiO2 
 PCOD8139444
Probable space group: C 2/C
;
_chemical_formula_sum "Si O2"
_cell_formula_units_Z 60
_cell_length_a 24.922836
_cell_length_b 9.244244
_cell_length_c 24.150717
_cell_angle_alpha 90.000000
_cell_angle_beta 147.377083
_cell_angle_gamma 90.000000
_cell_volume 2999.676539
_symmetry_space_group_name_H-M "C 2/C"
_symmetry_group_IT_number 15
_symmetry_cell_setting 'monoclinic'
loop_
_space_group_symop_operation_xyz
x,y,z
-x,y,1/2-z
-x,-y,-z
x,-y,1/2+z
1/2+x,1/2+y,z
1/2-x,1/2+y,1/2-z
1/2-x,1/2-y,-z
1/2+x,1/2-y,1/2+z
loop_
_atom_site_type_symbol
_atom_site_label
_atom_site_fract_x
_atom_site_fract_y
_atom_site_fract_z
Si Si1 0.397104 0.398452 0.679686
Si Si2 0.251666 0.356775 0.052890
Si Si3 0.843649 0.404132 0.846647
Si Si4 0.000000 0.371894 0.250000
Si Si5 0.134505 0.235659 0.738549
Si Si6 0.031166 0.548078 0.383543
Si Si7 0.637059 0.414414 0.722071
Si Si8 0.469784 0.160832 0.927564
O O1 0.500000 0.477972 0.750000
O O2 0.308153 0.498589 0.580926
O O3 0.388384 0.375472 0.737530
O O4 0.402308 0.234447 0.659023
O O5 0.302797 0.282637 0.150509
O O6 0.250000 0.250000 0.000000
O O7 0.144469 0.407483 0.977979
O O8 0.810564 0.341797 0.757671
O O9 0.753345 0.384260 0.810772
O O10 0.874765 0.573836 0.869913
O O11 0.942089 0.315490 0.951414
O O12 0.011498 0.473276 0.207835
O O13 0.028289 0.303667 0.660528
O O14 0.114631 0.082444 0.691600
O O15 0.017954 0.435642 0.421369
O O16 0.566027 0.318266 0.621964
#
# Coordination Sequence:
#
# PCOD8139444 Si02
#       8
#     8   8   8   4   8   8   8   8
#     4   9  21  39  63  91 127 161 208 262 319 364
#     4  11  24  39  67  94 126 176 210 264 321 394
#     4  10  22  38  64  91 124 167 213 262 319 383
#     4  10  20  40  66  90 126 164 200 276 316 380
#     4  10  24  41  61  93 131 165 208 275 315 386
#     4  11  22  40  64  94 123 166 215 259 330 382
#     4  11  20  39  64  88 127 168 206 261 323 376
#     4  10  20  39  62  90 122 165 213 261 317 384
#
# _framework density 20.002155999999999
#
# number of rings (size 3 to 8) (size 9 to 14) (size 15 to 20)
#    0.400    1.333    1.333    3.200    3.733    3.200 
#    0.000    2.667    0.000    0.000    0.000    0.000 
#    0.000    0.000    0.000    0.000    0.000    0.000 
#
# Total GULP energy -371831.125013 kJ/mol
# GULP energy per Si atom -12394.370834 kJ/mol
# Density = 1.995663 g / cm^3
# Si number density = 20.002156 Si / 1000 Ang^3
#
#
#
# Elastic Constant Matrix: (Units=GPa)
#
#
# Indices 1 2 3 4 5 6 
#
# 1 117.5284 34.7408 45.5047 0.0000 16.5119 0.0000
# 2 34.7408 110.7869 59.9079 0.0000 4.3526 0.0000
# 3 45.5047 59.9079 95.8473 0.0000 8.4534 0.0000
# 4 0.0000 0.0000 0.0000 39.8645 0.0000 -1.1028
# 5 16.5119 4.3526 8.4534 0.0000 40.3590 0.0000
# 6 0.0000 0.0000 0.0000 -1.1028 0.0000 48.2715
#
#
#
# Elastic Compliance Matrix: (Units=1/GPa)
#
#
# Indices 1 2 3 4 5 6 
#
# 1 0.010942 -0.000984 -0.004274 0.000000 -0.003476 0.000000
# 2 -0.000984 0.013727 -0.008169 0.000000 0.000633 0.000000
# 3 -0.004274 -0.008169 0.017662 0.000000 -0.001070 0.000000
# 4 0.000000 0.000000 0.000000 0.025101 0.000000 0.000573
# 5 -0.003476 0.000633 -0.001070 0.000000 0.026355 0.000000
# 6 0.000000 0.000000 0.000000 0.000573 0.000000 0.020729
#
#
# Mechanical properties :
#
#
# Convention : Reuss Voigt Hill
#
# Bulk Modulus (GPa) = 64.60113 67.16326 65.88219
# Shear Modulus (GPa) = 34.12282 37.96627 36.04455
#
# Velocity S-wave (km/s) = 4.13480 4.36146 4.24964
# Velocity P-wave (km/s) = 7.42716 7.68205 7.55568
#
# Compressibility (1/GPa) = 0.01547961
#
# Stress axis : x y z
#
# Youngs Moduli (GPa) = 91.38829 72.84791 56.61779
#
# Poissons Ratio (x) = 0.07167 0.24196
# Poissons Ratio (y) = 0.08991 0.46250
# Poissons Ratio (z) = 0.39055 0.59508
#
# Static dielectric constant tensor:
#      x y z
#    x 3.871940 0.000000 -0.028020 
#    y 0.000000 3.759750 0.000000 
#    z -0.028020 0.000000 3.472050 
# 
# 
# High freq. dielectric constant tensor:
#      x y z
#    x 1.800660 0.000000 0.002550 
#    y 0.000000 1.782790 0.000000 
#    z 0.002550 0.000000 1.761300 
# 
# From -- ./inp_files/303099.got.cif
#   From: 2010.06.25/outbox.cif.g09.slc.cpg/sg15_152_cif.got.tgz:303099.got - 2010.06.28 07:06:18.
