data_PCOD8139603
_publ_section_title
;
Structure prediction by ZEFSAII (Michael W. Deem and Ramdas Pophale) SiO2 
 PCOD8139603
Probable space group: C 2/C
;
_chemical_formula_sum "Si O2"
_cell_formula_units_Z 64
_cell_length_a 29.856493
_cell_length_b 8.339695
_cell_length_c 15.564962
_cell_angle_alpha 90.000000
_cell_angle_beta 49.956539
_cell_angle_gamma 90.000000
_cell_volume 2966.978205
_symmetry_space_group_name_H-M "C 2/C"
_symmetry_group_IT_number 15
_symmetry_cell_setting 'monoclinic'
loop_
_space_group_symop_operation_xyz
x,y,z
-x,y,1/2-z
-x,-y,-z
x,-y,1/2+z
1/2+x,1/2+y,z
1/2-x,1/2+y,1/2-z
1/2-x,1/2-y,-z
1/2+x,1/2-y,1/2+z
loop_
_atom_site_type_symbol
_atom_site_label
_atom_site_fract_x
_atom_site_fract_y
_atom_site_fract_z
Si Si1 0.949816 0.861966 0.246321
Si Si2 0.478565 0.175479 0.049779
Si Si3 0.826352 0.857123 0.447806
Si Si4 0.284686 0.191835 0.328132
Si Si5 0.628368 0.679743 0.902133
Si Si6 0.812778 0.785781 0.997836
Si Si7 0.814826 0.338323 0.320131
Si Si8 0.583242 0.610169 0.360339
O O1 0.969437 0.709496 0.163336
O O2 0.894959 0.818496 0.376040
O O3 0.000000 0.916816 0.250000
O O4 0.928479 0.007130 0.211246
O O5 0.416630 0.190086 0.078629
O O6 0.522480 0.308728 0.960046
O O7 0.500000 0.000000 0.000000
O O8 0.786694 0.806027 0.579780
O O9 0.807836 0.762607 0.387272
O O10 0.812917 0.044152 0.448126
O O11 0.308036 0.298854 0.221033
O O12 0.311474 0.014486 0.284213
O O13 0.603731 0.502691 0.913614
O O14 0.636742 0.709332 0.992692
O O15 0.827623 0.652566 0.907528
O O16 0.748164 0.751219 0.116412
O O17 0.866965 0.243073 0.210890
#
# Coordination Sequence:
#
# PCOD8139603 Si02
#       8
#     8   8   8   8   8   8   8   8
#     4  11  23  42  68  93 124 169 216 256 308 381
#     4  11  25  45  63  91 129 164 210 265 319 367
#     4  10  20  39  65  90 120 169 207 255 306 381
#     4  10  20  39  65  89 127 165 206 259 322 362
#     4  11  22  42  63  92 125 168 210 260 310 379
#     4  10  22  39  62  92 129 162 210 256 313 372
#     4  10  21  39  61  93 128 165 203 261 312 371
#     4  11  23  39  68  90 126 172 211 259 310 372
#
# _framework density 21.570767
#
# number of rings (size 3 to 8) (size 9 to 14) (size 15 to 20)
#    0.000    1.500    3.750    2.250    3.500    2.000 
#    2.250    1.875    0.000    0.000    0.000    0.000 
#    0.000    0.000    0.000    0.000    0.000    0.000 
#
# Total GULP energy -396637.976334 kJ/mol
# GULP energy per Si atom -12394.936760 kJ/mol
# Density = 2.152167 g / cm^3
# Si number density = 21.570767 Si / 1000 Ang^3
#
#
#
# Elastic Constant Matrix: (Units=GPa)
#
#
# Indices 1 2 3 4 5 6 
#
# 1 112.5408 10.7142 31.2195 0.0000 -5.2651 -0.0001
# 2 10.7142 68.0456 26.2819 0.0000 -7.3207 -0.0003
# 3 31.2195 26.2819 88.4701 0.0000 -33.3357 -0.0001
# 4 0.0000 0.0000 0.0000 33.4031 0.0000 -9.0398
# 5 -5.2651 -7.3207 -33.3357 0.0000 34.4860 -0.0001
# 6 -0.0001 -0.0003 -0.0001 -9.0398 -0.0001 16.7191
#
#
#
# Elastic Compliance Matrix: (Units=1/GPa)
#
#
# Indices 1 2 3 4 5 6 
#
# 1 0.010041 -0.000113 -0.004626 0.000000 -0.002963 0.000000
# 2 -0.000113 0.016686 -0.005645 0.000000 -0.001932 0.000000
# 3 -0.004626 -0.005645 0.021856 0.000000 0.019222 0.000000
# 4 0.000000 0.000000 0.000000 0.035069 0.000000 0.018961
# 5 -0.002963 -0.001932 0.019222 0.000000 0.046716 0.000000
# 6 0.000000 0.000000 0.000000 0.018961 0.000000 0.070064
#
#
# Mechanical properties :
#
#
# Convention : Reuss Voigt Hill
#
# Bulk Modulus (GPa) = 35.95233 45.05418 40.50326
# Shear Modulus (GPa) = 21.69467 30.31104 26.00285
#
# Velocity S-wave (km/s) = 3.17479 3.75265 3.47575
# Velocity P-wave (km/s) = 5.49021 6.30147 5.90978
#
# Compressibility (1/GPa) = 0.02781461
#
# Stress axis : x y z
#
# Youngs Moduli (GPa) = 99.59029 59.92935 45.75484
#
# Poissons Ratio (x) = 0.00677 0.21167
# Poissons Ratio (y) = 0.01125 0.25829
# Poissons Ratio (z) = 0.46072 0.33830
#
# Static dielectric constant tensor:
#      x y z
#    x 3.838540 0.000000 -0.414540 
#    y 0.000000 4.070620 0.000000 
#    z -0.414540 0.000000 4.313160 
# 
# 
# High freq. dielectric constant tensor:
#      x y z
#    x 1.834530 0.000000 -0.022670 
#    y 0.000000 1.832630 0.000000 
#    z -0.022670 0.000000 1.857940 
# 
# From -- ./inp_files/181152.got.cif
#   From: 2010.06.25/outbox.cif.g09.slc.cpg/sg15_91_cif.got.tgz:181152.got - 2010.06.28 07:06:18.
