data_PCOD8139987
_publ_section_title
;
Structure prediction by ZEFSAII (Michael W. Deem and Ramdas Pophale) SiO2 
 PCOD8139987
Probable space group: C 2/C
;
_chemical_formula_sum "Si O2"
_cell_formula_units_Z 64
_cell_length_a 28.756475
_cell_length_b 8.546697
_cell_length_c 14.513377
_cell_angle_alpha 90.000000
_cell_angle_beta 53.964328
_cell_angle_gamma 90.000000
_cell_volume 2884.453218
_symmetry_space_group_name_H-M "C 2/C"
_symmetry_group_IT_number 15
_symmetry_cell_setting 'monoclinic'
loop_
_space_group_symop_operation_xyz
x,y,z
-x,y,1/2-z
-x,-y,-z
x,-y,1/2+z
1/2+x,1/2+y,z
1/2-x,1/2+y,1/2-z
1/2-x,1/2-y,-z
1/2+x,1/2-y,1/2+z
loop_
_atom_site_type_symbol
_atom_site_label
_atom_site_fract_x
_atom_site_fract_y
_atom_site_fract_z
Si Si1 0.217099 0.394581 0.884229
Si Si2 0.653106 0.487777 0.949171
Si Si3 0.916054 0.213523 0.193300
Si Si4 0.597487 0.241211 0.584073
Si Si5 0.528377 0.160459 0.498252
Si Si6 0.622254 0.626509 0.800968
Si Si7 0.181730 0.695704 0.815562
Si Si8 0.714618 0.596746 0.553305
O O1 0.192587 0.523835 0.842139
O O2 0.257515 0.275320 0.780789
O O3 0.254228 0.468422 0.921879
O O4 0.164407 0.304542 0.992809
O O5 0.663925 0.588091 0.841268
O O6 0.647140 0.304832 0.930070
O O7 0.595800 0.572085 0.057780
O O8 0.702209 0.491716 0.971120
O O9 0.924512 0.276858 0.286953
O O10 0.862244 0.316071 0.218549
O O11 0.907660 0.030511 0.197203
O O12 0.974173 0.226915 0.068001
O O13 0.557118 0.137673 0.565442
O O14 0.576301 0.235018 0.374201
O O15 0.500000 0.000000 0.500000
O O16 0.659743 0.671737 0.669152
O O17 0.750000 0.750000 0.500000
#
# Coordination Sequence:
#
# PCOD8139987 Si02
#       8
#     8   8   8   8   8   8   8   8
#     4  12  24  39  62  99 135 187 220 287 346 424
#     4  10  20  40  64  93 138 177 223 277 333 413
#     4  11  22  45  68  97 129 182 234 282 335 423
#     4  11  24  41  67  98 136 172 233 285 354 412
#     4  11  25  45  72  97 133 179 228 293 361 405
#     4  10  23  45  69 100 136 182 237 279 346 418
#     4  11  23  40  64  93 140 176 235 268 353 415
#     4  12  23  40  66 106 142 179 230 282 342 414
#
# _framework density 22.187913000000002
#
# number of rings (size 3 to 8) (size 9 to 14) (size 15 to 20)
#    0.000    1.000    5.000    2.250    1.750    4.000 
#    0.000    0.000    0.000    0.000    0.000    0.000 
#    0.000    0.000    0.000    0.000    0.000    0.000 
#
# Total GULP energy -396451.127409 kJ/mol
# GULP energy per Si atom -12389.097732 kJ/mol
# Density = 2.213741 g / cm^3
# Si number density = 22.187913 Si / 1000 Ang^3
#
#
#
# Elastic Constant Matrix: (Units=GPa)
#
#
# Indices 1 2 3 4 5 6 
#
# 1 117.9551 44.3314 43.6377 0.0000 7.7793 0.0000
# 2 44.3314 79.8103 60.6662 0.0000 -3.7375 -0.0001
# 3 43.6377 60.6662 110.9027 0.0000 -11.9144 0.0000
# 4 0.0000 0.0000 0.0000 27.1026 0.0000 -8.4582
# 5 7.7793 -3.7375 -11.9144 0.0000 40.8059 0.0000
# 6 0.0000 -0.0001 0.0000 -8.4582 0.0000 41.9662
#
#
#
# Elastic Compliance Matrix: (Units=1/GPa)
#
#
# Indices 1 2 3 4 5 6 
#
# 1 0.011288 -0.004761 -0.002184 0.000000 -0.003226 0.000000
# 2 -0.004761 0.023546 -0.011024 0.000000 -0.000154 0.000000
# 3 -0.002184 -0.011024 0.016355 0.000000 0.004182 0.000000
# 4 0.000000 0.000000 0.000000 0.039373 0.000000 0.007936
# 5 -0.003226 -0.000154 0.004182 0.000000 0.026328 0.000000
# 6 0.000000 0.000000 0.000000 0.007936 0.000000 0.025428
#
#
# Mechanical properties :
#
#
# Convention : Reuss Voigt Hill
#
# Bulk Modulus (GPa) = 65.56027 67.32651 66.44339
# Shear Modulus (GPa) = 27.27172 32.64382 29.95777
#
# Velocity S-wave (km/s) = 3.50969 3.83984 3.67847
# Velocity P-wave (km/s) = 6.78497 7.07593 6.93198
#
# Compressibility (1/GPa) = 0.01525314
#
# Stress axis : x y z
#
# Youngs Moduli (GPa) = 88.59181 42.46919 61.14154
#
# Poissons Ratio (x) = 0.20220 0.13350
# Poissons Ratio (y) = 0.42180 0.67400
# Poissons Ratio (z) = 0.19344 0.46816
#
# Static dielectric constant tensor:
#      x y z
#    x 4.182750 0.000000 0.084780 
#    y 0.000000 3.982480 0.000000 
#    z 0.084780 0.000000 3.875740 
# 
# 
# High freq. dielectric constant tensor:
#      x y z
#    x 1.878900 0.000000 0.008550 
#    y 0.000000 1.870190 0.000000 
#    z 0.008550 0.000000 1.870420 
# 
# From -- ./inp_files/181115.got.cif
#   From: 2010.06.25/outbox.cif.g09.slc.cpg/sg15_91_cif.got.tgz:181115.got - 2010.06.28 07:06:18.
