data_PCOD8139027
_publ_section_title
;
Structure prediction by ZEFSAII (Michael W. Deem and Ramdas Pophale) SiO2 
 PCOD8139027
Probable space group: C 2/C
;
_chemical_formula_sum "Si O2"
_cell_formula_units_Z 40
_cell_length_a 16.836854
_cell_length_b 8.278608
_cell_length_c 16.570769
_cell_angle_alpha 90.000000
_cell_angle_beta 66.797970
_cell_angle_gamma 90.000000
_cell_volume 2122.920824
_symmetry_space_group_name_H-M "C 2/C"
_symmetry_group_IT_number 15
_symmetry_cell_setting 'monoclinic'
loop_
_space_group_symop_operation_xyz
x,y,z
-x,y,1/2-z
-x,-y,-z
x,-y,1/2+z
1/2+x,1/2+y,z
1/2-x,1/2+y,1/2-z
1/2-x,1/2-y,-z
1/2+x,1/2-y,1/2+z
loop_
_atom_site_type_symbol
_atom_site_label
_atom_site_fract_x
_atom_site_fract_y
_atom_site_fract_z
Si Si1 0.631375 0.811693 0.529014
Si Si2 0.236505 0.674554 0.137253
Si Si3 0.812436 0.666707 0.038588
Si Si4 0.212665 0.852696 0.304343
Si Si5 0.041096 0.159155 0.948478
O O1 0.680323 0.677155 0.455225
O O2 0.651605 0.795163 0.616217
O O3 0.529592 0.785960 0.557548
O O4 0.671520 0.980105 0.483473
O O5 0.241975 0.815064 0.202006
O O6 0.232065 0.502644 0.183646
O O7 0.769398 0.697224 0.144377
O O8 0.906430 0.754313 0.999718
O O9 0.750000 0.750000 0.000000
O O10 0.108843 0.888152 0.349828
O O11 0.000000 0.000000 0.000000
#
# Coordination Sequence:
#
# PCOD8139027 Si02
#       5
#     8   8   8   8   8
#     4  11  20  38  65  89 120 162 204 247 316 362
#     4  11  22  37  63  89 121 162 201 254 304 369
#     4  10  20  38  64  88 117 162 202 246 297 378
#     4  10  22  39  60  89 122 158 207 254 299 367
#     4  10  21  39  63  89 122 158 202 258 308 364
#
# _framework density 18.841963
#
# number of rings (size 3 to 8) (size 9 to 14) (size 15 to 20)
#    1.200    0.400    4.000    1.800    2.800    0.800 
#    0.000    0.000    0.000    1.200    0.000    0.000 
#    0.000    0.000    0.000    0.000    0.000    0.000 
#
# Total GULP energy -247805.460311 kJ/mol
# GULP energy per Si atom -12390.273016 kJ/mol
# Density = 1.879908 g / cm^3
# Si number density = 18.841963 Si / 1000 Ang^3
#
#
#
# Elastic Constant Matrix: (Units=GPa)
#
#
# Indices 1 2 3 4 5 6 
#
# 1 132.8922 19.2556 36.4916 0.0000 25.7808 -0.0001
# 2 19.2556 73.2418 28.3482 -0.0001 20.4870 -0.0001
# 3 36.4916 28.3482 105.4530 0.0000 24.7654 0.0000
# 4 0.0000 -0.0001 0.0000 33.8591 0.0000 2.1808
# 5 25.7808 20.4870 24.7654 0.0000 28.9069 0.0000
# 6 -0.0001 -0.0001 0.0000 2.1808 0.0000 34.2991
#
#
#
# Elastic Compliance Matrix: (Units=1/GPa)
#
#
# Indices 1 2 3 4 5 6 
#
# 1 0.009309 0.000140 -0.001610 0.000000 -0.007022 0.000000
# 2 0.000140 0.017442 -0.002259 0.000000 -0.010551 0.000000
# 3 -0.001610 -0.002259 0.012436 0.000000 -0.007618 0.000000
# 4 0.000000 0.000000 0.000000 0.029656 0.000000 -0.001886
# 5 -0.007022 -0.010551 -0.007618 0.000000 0.054860 0.000000
# 6 0.000000 0.000000 0.000000 -0.001886 0.000000 0.029275
#
#
# Mechanical properties :
#
#
# Convention : Reuss Voigt Hill
#
# Bulk Modulus (GPa) = 31.51686 53.30863 42.41275
# Shear Modulus (GPa) = 29.23739 34.57915 31.90827
#
# Velocity S-wave (km/s) = 3.94346 4.28859 4.11964
# Velocity P-wave (km/s) = 6.12354 7.27163 6.72214
#
# Compressibility (1/GPa) = 0.03172905
#
# Stress axis : x y z
#
# Youngs Moduli (GPa) = 107.42329 57.33151 80.40968
#
# Poissons Ratio (x) = -0.00802 0.12944
# Poissons Ratio (y) = -0.01503 0.18169
# Poissons Ratio (z) = 0.17293 0.12954
#
# Static dielectric constant tensor:
#      x y z
#    x 3.511730 0.000000 0.154780 
#    y 0.000000 3.407450 0.000000 
#    z 0.154780 0.000000 3.289610 
# 
# 
# High freq. dielectric constant tensor:
#      x y z
#    x 1.725280 0.000000 0.015230 
#    y 0.000000 1.738770 0.000000 
#    z 0.015230 0.000000 1.714070 
# 
# From -- ./inp_files/208256.got.cif
#   From: 2010.06.25/outbox.cif.g09.slc.cpg/sg15_105_cif.got.tgz:208256.got - 2010.06.28 07:06:18.
