data_PCOD8139715
_publ_section_title
;
Structure prediction by ZEFSAII (Michael W. Deem and Ramdas Pophale) SiO2 
 PCOD8139715
Probable space group: C 2/C
;
_chemical_formula_sum "Si O2"
_cell_formula_units_Z 56
_cell_length_a 18.388631
_cell_length_b 8.665225
_cell_length_c 29.875147
_cell_angle_alpha 90.000000
_cell_angle_beta 143.261025
_cell_angle_gamma 90.000000
_cell_volume 2847.503187
_symmetry_space_group_name_H-M "C 2/C"
_symmetry_group_IT_number 15
_symmetry_cell_setting 'monoclinic'
loop_
_space_group_symop_operation_xyz
x,y,z
-x,y,1/2-z
-x,-y,-z
x,-y,1/2+z
1/2+x,1/2+y,z
1/2-x,1/2+y,1/2-z
1/2-x,1/2-y,-z
1/2+x,1/2-y,1/2+z
loop_
_atom_site_type_symbol
_atom_site_label
_atom_site_fract_x
_atom_site_fract_y
_atom_site_fract_z
Si Si1 0.711128 0.704706 0.030299
Si Si2 0.420297 0.003362 0.504862
Si Si3 0.857196 0.525694 0.173182
Si Si4 0.974255 0.050965 0.937116
Si Si5 0.228206 0.845175 0.694477
Si Si6 0.707964 0.775186 0.613476
Si Si7 0.331935 0.996477 0.831755
O O1 0.819838 0.612558 0.108795
O O2 0.671299 0.858973 0.036978
O O3 0.750000 0.750000 0.000000
O O4 0.597311 0.588210 0.971436
O O5 0.340255 0.160218 0.458535
O O6 0.500000 0.000000 0.500000
O O7 0.519813 0.007528 0.593334
O O8 0.795852 0.622552 0.181781
O O9 0.812872 0.347192 0.153722
O O10 0.000000 0.525411 0.250000
O O11 0.894088 0.203593 0.903784
O O12 0.906070 0.920323 0.874748
O O13 0.000000 0.000000 0.000000
O O14 0.305700 0.910372 0.773108
O O15 0.221301 0.665470 0.698694
O O16 0.741716 0.919689 0.662433
#
# Coordination Sequence:
#
# PCOD8139715 Si02
#       7
#     8   8   8   8   8   8   8
#     4  12  25  41  65 103 135 174 219 274 336 397
#     4  10  20  39  68  92 126 169 223 266 317 398
#     4  11  25  42  65  89 139 179 212 271 346 400
#     4  11  19  39  67  93 124 173 225 265 325 398
#     4  11  23  38  65  97 127 170 226 277 330 393
#     4  10  20  39  68  93 121 172 231 268 320 397
#     4  11  22  36  64 101 125 158 225 289 321 379
#
# _framework density 19.666350999999999
#
# number of rings (size 3 to 8) (size 9 to 14) (size 15 to 20)
#    0.000    1.143    5.714    4.286    2.000    0.000 
#    0.000    6.429    0.000    0.000    0.000    0.000 
#    0.000    0.000    0.000    0.000    0.000    0.000 
#
# Total GULP energy -347030.468297 kJ/mol
# GULP energy per Si atom -12393.945296 kJ/mol
# Density = 1.962159 g / cm^3
# Si number density = 19.666351 Si / 1000 Ang^3
#
#
#
# Elastic Constant Matrix: (Units=GPa)
#
#
# Indices 1 2 3 4 5 6 
#
# 1 92.3227 37.3061 44.4142 0.0000 5.3126 -0.0001
# 2 37.3061 138.0762 58.2181 0.0001 0.1588 -0.0002
# 3 44.4142 58.2181 143.3983 0.0000 -0.5350 0.0000
# 4 0.0000 0.0001 0.0000 30.2361 0.0000 -11.1816
# 5 5.3126 0.1588 -0.5350 0.0000 36.4691 0.0001
# 6 -0.0001 -0.0002 0.0000 -11.1816 0.0001 25.5637
#
#
#
# Elastic Compliance Matrix: (Units=1/GPa)
#
#
# Indices 1 2 3 4 5 6 
#
# 1 0.013420 -0.002254 -0.003249 0.000000 -0.001993 0.000000
# 2 -0.002254 0.009117 -0.003002 0.000000 0.000245 0.000000
# 3 -0.003249 -0.003002 0.009201 0.000000 0.000621 0.000000
# 4 0.000000 0.000000 0.000000 0.039455 0.000000 0.017258
# 5 -0.001993 0.000245 0.000621 0.000000 0.027719 0.000000
# 6 0.000000 0.000000 0.000000 0.017258 0.000000 0.046667
#
#
# Mechanical properties :
#
#
# Convention : Reuss Voigt Hill
#
# Bulk Modulus (GPa) = 67.89860 72.63042 70.26451
# Shear Modulus (GPa) = 29.85108 34.04437 31.94772
#
# Velocity S-wave (km/s) = 3.90022 4.16516 4.03486
# Velocity P-wave (km/s) = 7.40827 7.75518 7.58371
#
# Compressibility (1/GPa) = 0.01472784
#
# Stress axis : x y z
#
# Youngs Moduli (GPa) = 74.51613 109.68583 108.68209
#
# Poissons Ratio (x) = 0.24720 0.35310
# Poissons Ratio (y) = 0.16794 0.32631
# Poissons Ratio (z) = 0.24210 0.32933
#
# Static dielectric constant tensor:
#      x y z
#    x 2.994770 0.000000 -0.215140 
#    y 0.000000 3.861310 0.000000 
#    z -0.215140 0.000000 4.017720 
# 
# 
# High freq. dielectric constant tensor:
#      x y z
#    x 1.727030 0.000000 -0.004200 
#    y 0.000000 1.788120 0.000000 
#    z -0.004200 0.000000 1.777010 
# 
# From -- ./inp_files/298585.got.cif
#   From: 2010.06.25/outbox.cif.g09.slc.cpg/sg15_150_cif.got.tgz:298585.got - 2010.06.28 07:06:18.
