data_PCOD8139511
_publ_section_title
;
Structure prediction by ZEFSAII (Michael W. Deem and Ramdas Pophale) SiO2 
 PCOD8139511
Probable space group: C 2/C
;
_chemical_formula_sum "Si O2"
_cell_formula_units_Z 60
_cell_length_a 24.482978
_cell_length_b 8.111829
_cell_length_c 23.171009
_cell_angle_alpha 90.000000
_cell_angle_beta 38.474416
_cell_angle_gamma 90.000000
_cell_volume 2863.081004
_symmetry_space_group_name_H-M "C 2/C"
_symmetry_group_IT_number 15
_symmetry_cell_setting 'monoclinic'
loop_
_space_group_symop_operation_xyz
x,y,z
-x,y,1/2-z
-x,-y,-z
x,-y,1/2+z
1/2+x,1/2+y,z
1/2-x,1/2+y,1/2-z
1/2-x,1/2-y,-z
1/2+x,1/2-y,1/2+z
loop_
_atom_site_type_symbol
_atom_site_label
_atom_site_fract_x
_atom_site_fract_y
_atom_site_fract_z
Si Si1 0.623083 0.807328 0.240608
Si Si2 0.500000 0.798117 0.250000
Si Si3 0.363614 0.640307 0.437037
Si Si4 0.751855 0.576180 0.065925
Si Si5 0.800977 0.638002 0.630426
Si Si6 0.502340 0.253168 0.465303
Si Si7 0.491495 0.399947 0.922905
Si Si8 0.327834 0.081450 0.213914
O O1 0.557439 0.902456 0.249205
O O2 0.696224 0.715467 0.143786
O O3 0.569352 0.670292 0.319677
O O4 0.673208 0.934670 0.239416
O O5 0.442687 0.662047 0.328738
O O6 0.292385 0.530423 0.460186
O O7 0.339180 0.827595 0.475686
O O8 0.401297 0.554284 0.463577
O O9 0.769478 0.419120 0.092489
O O10 0.901302 0.698995 0.541489
O O11 0.737277 0.779422 0.707959
O O12 0.793028 0.483969 0.680969
O O13 0.526309 0.262063 0.513274
O O14 0.525151 0.431325 0.421477
O O15 0.570119 0.131911 0.377678
#
# Coordination Sequence:
#
# PCOD8139511 Si02
#       8
#     8   4   8   8   8   8   8   8
#     4  10  20  39  63  90 121 165 213 263 314 382
#     4   8  18  34  62  90 112 156 214 252 304 370
#     4   9  19  37  66  89 117 167 206 260 305 383
#     4  10  21  38  63  91 125 160 216 254 315 379
#     4  12  26  40  63  97 130 170 211 267 322 389
#     4  11  25  40  63  95 127 169 210 265 325 381
#     4  10  21  40  64  85 125 161 216 253 321 378
#     4  12  26  41  62  92 129 167 211 262 329 377
#
# _framework density 20.956444999999999
#
# number of rings (size 3 to 8) (size 9 to 14) (size 15 to 20)
#    0.000    1.600    1.333    2.800    9.333    0.000 
#    0.000    2.000    0.000    0.000    0.000    0.000 
#    0.000    0.000    0.000    0.000    0.000    0.000 
#
# Total GULP energy -371645.443637 kJ/mol
# GULP energy per Si atom -12388.181455 kJ/mol
# Density = 2.090875 g / cm^3
# Si number density = 20.956445 Si / 1000 Ang^3
#
#
#
# Elastic Constant Matrix: (Units=GPa)
#
#
# Indices 1 2 3 4 5 6 
#
# 1 127.3474 27.5043 24.3413 0.0014 6.7592 -0.0006
# 2 27.5043 69.2099 29.7307 0.0069 -2.5036 -0.0036
# 3 24.3413 29.7307 93.5030 0.0023 -12.4729 -0.0006
# 4 0.0014 0.0069 0.0023 24.6056 -0.0014 0.0376
# 5 6.7592 -2.5036 -12.4729 -0.0014 29.2253 0.0004
# 6 -0.0006 -0.0036 -0.0006 0.0376 0.0004 26.8971
#
#
#
# Elastic Compliance Matrix: (Units=1/GPa)
#
#
# Indices 1 2 3 4 5 6 
#
# 1 0.008994 -0.002899 -0.001835 0.000000 -0.003112 0.000000
# 2 -0.002899 0.017691 -0.004855 -0.000004 0.000114 0.000002
# 3 -0.001835 -0.004855 0.013485 0.000001 0.005764 0.000000
# 4 0.000000 -0.000004 0.000001 0.040641 0.000002 -0.000057
# 5 -0.003112 0.000114 0.005764 0.000002 0.037406 0.000000
# 6 0.000000 0.000002 0.000000 -0.000057 0.000000 0.037179
#
#
# Mechanical properties :
#
#
# Convention : Reuss Voigt Hill
#
# Bulk Modulus (GPa) = 47.63602 50.35698 48.99650
# Shear Modulus (GPa) = 27.53736 30.04454 28.79095
#
# Velocity S-wave (km/s) = 3.62889 3.79049 3.71057
# Velocity P-wave (km/s) = 6.35128 6.57560 6.46441
#
# Compressibility (1/GPa) = 0.02099252
#
# Stress axis : x y z
#
# Youngs Moduli (GPa) = 111.17918 56.52734 74.15579
#
# Poissons Ratio (x) = 0.16386 0.13607
# Poissons Ratio (y) = 0.32229 0.36004
# Poissons Ratio (z) = 0.20400 0.27445
#
# Static dielectric constant tensor:
#      x y z
#    x 4.480920 -0.000010 0.193970 
#    y -0.000010 3.398140 0.000010 
#    z 0.193970 0.000010 4.036380 
# 
# 
# High freq. dielectric constant tensor:
#      x y z
#    x 1.842250 0.000000 0.004160 
#    y 0.000000 1.777600 0.000000 
#    z 0.004160 0.000000 1.841170 
# 
# From -- ./inp_files/283209.got.cif
#   From: 2010.06.25/outbox.cif.g09.slc.cpg/sg15_142_cif.got.tgz:283209.got - 2010.06.28 07:06:18.
