data_PCOD8139056
_publ_section_title
;
Structure prediction by ZEFSAII (Michael W. Deem and Ramdas Pophale) SiO2 
 PCOD8139056
Probable space group: C 2/C
;
_chemical_formula_sum "Si O2"
_cell_formula_units_Z 48
_cell_length_a 16.609623
_cell_length_b 11.435527
_cell_length_c 12.586757
_cell_angle_alpha 90.000000
_cell_angle_beta 98.695505
_cell_angle_gamma 90.000000
_cell_volume 2363.246409
_symmetry_space_group_name_H-M "C 2/C"
_symmetry_group_IT_number 15
_symmetry_cell_setting 'monoclinic'
loop_
_space_group_symop_operation_xyz
x,y,z
-x,y,1/2-z
-x,-y,-z
x,-y,1/2+z
1/2+x,1/2+y,z
1/2-x,1/2+y,1/2-z
1/2-x,1/2-y,-z
1/2+x,1/2-y,1/2+z
loop_
_atom_site_type_symbol
_atom_site_label
_atom_site_fract_x
_atom_site_fract_y
_atom_site_fract_z
Si Si1 0.932211 0.015737 0.648615
Si Si2 0.373942 0.306422 0.506607
Si Si3 0.771926 0.143505 0.651450
Si Si4 0.337619 0.119968 0.068772
Si Si5 0.710170 0.123986 0.867244
Si Si6 0.993347 0.256632 0.621752
O O1 0.929721 0.905224 0.570790
O O2 0.000000 0.987730 0.750000
O O3 0.843806 0.047381 0.682538
O O4 0.957803 0.128914 0.585643
O O5 0.352589 0.213538 0.592789
O O6 0.295742 0.371602 0.444828
O O7 0.419992 0.236714 0.420786
O O8 0.710556 0.098737 0.549343
O O9 0.806080 0.270405 0.629790
O O10 0.720483 0.158882 0.747511
O O11 0.433330 0.143271 0.064191
O O12 0.327288 0.005277 0.137671
O O13 0.000000 0.270700 0.750000
#
# Coordination Sequence:
#
# PCOD8139056 Si02
#       6
#     8   8   8   8   8   8
#     4  10  20  38  64  91 124 165 206 272 319 375
#     4  11  23  39  59  96 127 165 222 259 324 378
#     4  10  22  40  62  95 125 164 218 258 327 379
#     4  10  22  41  64  90 126 173 212 261 321 394
#     4  11  24  39  65  90 130 171 208 274 313 390
#     4  10  22  41  63  89 126 171 210 266 328 378
#
# _framework density 20.311043999999999
#
# number of rings (size 3 to 8) (size 9 to 14) (size 15 to 20)
#    0.000    1.667    1.667    3.500    2.333    3.333 
#    0.000    0.833    0.000    0.000    0.000    0.000 
#    0.000    0.000    0.000    0.000    0.000    0.000 
#
# Total GULP energy -297637.051410 kJ/mol
# GULP energy per Si atom -12401.543809 kJ/mol
# Density = 2.026482 g / cm^3
# Si number density = 20.311044 Si / 1000 Ang^3
#
#
#
# Elastic Constant Matrix: (Units=GPa)
#
#
# Indices 1 2 3 4 5 6 
#
# 1 111.2663 37.7790 49.5088 0.0000 -4.7667 0.0000
# 2 37.7790 72.8854 43.5187 0.0000 5.9959 0.0000
# 3 49.5088 43.5187 120.5410 0.0000 -14.3143 0.0000
# 4 0.0000 0.0000 0.0000 20.0154 0.0000 2.8651
# 5 -4.7667 5.9959 -14.3143 0.0000 41.2378 0.0000
# 6 0.0000 0.0000 0.0000 2.8651 0.0000 20.3118
#
#
#
# Elastic Compliance Matrix: (Units=1/GPa)
#
#
# Indices 1 2 3 4 5 6 
#
# 1 0.011934 -0.004328 -0.003234 0.000000 0.000886 0.000000
# 2 -0.004328 0.020080 -0.006131 0.000000 -0.005548 0.000000
# 3 -0.003234 -0.006131 0.012411 0.000000 0.004826 0.000000
# 4 0.000000 0.000000 0.000000 0.050991 0.000000 -0.007193
# 5 0.000886 -0.005548 0.004826 0.000000 0.026834 0.000000
# 6 0.000000 0.000000 0.000000 -0.007193 0.000000 0.050247
#
#
# Mechanical properties :
#
#
# Convention : Reuss Voigt Hill
#
# Bulk Modulus (GPa) = 58.68582 62.92283 60.80433
# Shear Modulus (GPa) = 24.32362 27.90541 26.11452
#
# Velocity S-wave (km/s) = 3.46433 3.71064 3.58960
# Velocity P-wave (km/s) = 6.70510 7.02889 6.86890
#
# Compressibility (1/GPa) = 0.01703989
#
# Stress axis : x y z
#
# Youngs Moduli (GPa) = 83.79616 49.79962 80.57625
#
# Poissons Ratio (x) = 0.21552 0.26057
# Poissons Ratio (y) = 0.36265 0.49401
# Poissons Ratio (z) = 0.27098 0.30532
#
# Static dielectric constant tensor:
#      x y z
#    x 3.838080 0.000000 0.016970 
#    y 0.000000 3.576320 0.000000 
#    z 0.016970 0.000000 3.532940 
# 
# 
# High freq. dielectric constant tensor:
#      x y z
#    x 1.796270 0.000000 0.000690 
#    y 0.000000 1.786980 0.000000 
#    z 0.000690 0.000000 1.788680 
# 
# From -- ./inp_files/103763.got.cif
#   From: 2010.06.25/outbox.cif.g09.slc.cpg/sg15_52_cif.got.tgz:103763.got - 2010.06.28 07:06:18.
