data_PCOD8139508
_publ_section_title
;
Structure prediction by ZEFSAII (Michael W. Deem and Ramdas Pophale) SiO2 
 PCOD8139508
Probable space group: C 2/C
;
_chemical_formula_sum "Si O2"
_cell_formula_units_Z 48
_cell_length_a 30.364634
_cell_length_b 8.225008
_cell_length_c 10.256577
_cell_angle_alpha 90.000000
_cell_angle_beta 70.163996
_cell_angle_gamma 90.000000
_cell_volume 2409.589530
_symmetry_space_group_name_H-M "C 2/C"
_symmetry_group_IT_number 15
_symmetry_cell_setting 'monoclinic'
loop_
_space_group_symop_operation_xyz
x,y,z
-x,y,1/2-z
-x,-y,-z
x,-y,1/2+z
1/2+x,1/2+y,z
1/2-x,1/2+y,1/2-z
1/2-x,1/2-y,-z
1/2+x,1/2-y,1/2+z
loop_
_atom_site_type_symbol
_atom_site_label
_atom_site_fract_x
_atom_site_fract_y
_atom_site_fract_z
Si Si1 0.646878 0.359672 0.834782
Si Si2 0.598633 0.972777 0.412241
Si Si3 0.445737 0.874405 0.787171
Si Si4 0.189866 0.644889 0.242849
Si Si5 0.132077 0.873386 0.136180
Si Si6 0.261129 0.811050 0.345741
O O1 0.609966 0.213415 0.867576
O O2 0.631016 0.486553 0.743044
O O3 0.698566 0.299107 0.754250
O O4 0.646177 0.441332 0.979605
O O5 0.574143 0.988497 0.577229
O O6 0.562594 0.035801 0.340814
O O7 0.646562 0.076030 0.370407
O O8 0.500000 0.838845 0.750000
O O9 0.419839 0.701081 0.814516
O O10 0.169546 0.731027 0.133868
O O11 0.215622 0.783352 0.301565
O O12 0.225046 0.500890 0.165284
O O13 0.250000 0.750000 0.500000
#
# Coordination Sequence:
#
# PCOD8139508 Si02
#       6
#     8   8   8   8   8   8
#     4  10  23  39  58  86 121 159 201 244 300 351
#     4   9  21  37  62  86 120 152 197 243 302 359
#     4  10  20  39  63  90 117 152 195 248 305 368
#     4  10  23  40  58  87 120 162 200 250 292 350
#     4  10  23  41  61  84 122 162 196 252 305 356
#     4  11  25  36  62  89 120 160 209 243 291 349
#
# _framework density 19.920404999999999
#
# number of rings (size 3 to 8) (size 9 to 14) (size 15 to 20)
#    0.000    2.000    0.000    1.500   16.333    2.000 
#    0.000    4.167    0.000    0.000    0.000    0.000 
#    0.000    0.000    0.000    0.000    0.000    0.000 
#
# Total GULP energy -297666.405694 kJ/mol
# GULP energy per Si atom -12402.766904 kJ/mol
# Density = 1.987507 g / cm^3
# Si number density = 19.920405 Si / 1000 Ang^3
#
#
#
# Elastic Constant Matrix: (Units=GPa)
#
#
# Indices 1 2 3 4 5 6 
#
# 1 115.8289 28.9961 22.2643 0.0000 8.8543 0.0000
# 2 28.9961 65.4102 10.7672 0.0000 2.6434 0.0000
# 3 22.2643 10.7672 84.1683 0.0000 0.6549 0.0000
# 4 0.0000 0.0000 0.0000 35.3661 0.0000 5.1806
# 5 8.8543 2.6434 0.6549 0.0000 23.7564 0.0000
# 6 0.0000 0.0000 0.0000 5.1806 0.0000 13.0726
#
#
#
# Elastic Compliance Matrix: (Units=1/GPa)
#
#
# Indices 1 2 3 4 5 6 
#
# 1 0.010331 -0.004085 -0.002184 0.000000 -0.003336 0.000000
# 2 -0.004085 0.017300 -0.001130 0.000000 -0.000371 0.000000
# 3 -0.002184 -0.001130 0.012599 0.000000 0.000592 0.000000
# 4 0.000000 0.000000 0.000000 0.030018 0.000000 -0.011896
# 5 -0.003336 -0.000371 0.000592 0.000000 0.043362 0.000000
# 6 0.000000 0.000000 0.000000 -0.011896 0.000000 0.081210
#
#
# Mechanical properties :
#
#
# Convention : Reuss Voigt Hill
#
# Bulk Modulus (GPa) = 39.32134 43.27363 41.29749
# Shear Modulus (GPa) = 22.92573 27.99767 25.46170
#
# Velocity S-wave (km/s) = 3.39612 3.75304 3.57903
# Velocity P-wave (km/s) = 5.92961 6.36795 6.15269
#
# Compressibility (1/GPa) = 0.02543148
#
# Stress axis : x y z
#
# Youngs Moduli (GPa) = 96.79648 57.80320 79.37389
#
# Poissons Ratio (x) = 0.23615 0.17337
# Poissons Ratio (y) = 0.39545 0.08966
# Poissons Ratio (z) = 0.21142 0.06529
#
# Static dielectric constant tensor:
#      x y z
#    x 3.610890 0.000000 0.005230 
#    y 0.000000 4.643910 0.000000 
#    z 0.005230 0.000000 3.793790 
# 
# 
# High freq. dielectric constant tensor:
#      x y z
#    x 1.772520 0.000000 0.005780 
#    y 0.000000 1.771450 0.000000 
#    z 0.005780 0.000000 1.788740 
# 
# From -- ./inp_files/68577.got.cif
#   From: 2010.06.25/outbox.cif.g09.slc.cpg/sg15_35_cif.got.tgz:68577.got - 2010.06.28 07:06:18.
