data_PCOD8139149
_publ_section_title
;
Structure prediction by ZEFSAII (Michael W. Deem and Ramdas Pophale) SiO2 
 PCOD8139149
Probable space group: C 2/C
;
_chemical_formula_sum "Si O2"
_cell_formula_units_Z 56
_cell_length_a 21.844204
_cell_length_b 8.191369
_cell_length_c 17.454727
_cell_angle_alpha 90.000000
_cell_angle_beta 58.558126
_cell_angle_gamma 90.000000
_cell_volume 2664.656586
_symmetry_space_group_name_H-M "C 2/C"
_symmetry_group_IT_number 15
_symmetry_cell_setting 'monoclinic'
loop_
_space_group_symop_operation_xyz
x,y,z
-x,y,1/2-z
-x,-y,-z
x,-y,1/2+z
1/2+x,1/2+y,z
1/2-x,1/2+y,1/2-z
1/2-x,1/2-y,-z
1/2+x,1/2-y,1/2+z
loop_
_atom_site_type_symbol
_atom_site_label
_atom_site_fract_x
_atom_site_fract_y
_atom_site_fract_z
Si Si1 0.813463 0.619748 0.945829
Si Si2 0.278320 0.393621 0.585674
Si Si3 0.033354 0.769577 0.926682
Si Si4 0.606649 0.399168 0.420915
Si Si5 0.832456 0.377939 0.715696
Si Si6 0.355961 0.925355 0.056125
Si Si7 0.930077 0.592450 0.749131
O O1 0.777612 0.449413 0.941909
O O2 0.870742 0.677773 0.843938
O O3 0.750000 0.750000 0.000000
O O4 0.857913 0.574815 0.994000
O O5 0.337566 0.537246 0.552092
O O6 0.242727 0.369957 0.692049
O O7 0.312512 0.219851 0.543378
O O8 0.066322 0.643650 0.968140
O O9 0.045607 0.719547 0.831184
O O10 0.068056 0.947513 0.907894
O O11 0.949222 0.778504 0.000564
O O12 0.647216 0.299923 0.328426
O O13 0.818421 0.507257 0.656993
O O14 0.895947 0.434025 0.731366
O O15 0.000000 0.534132 0.750000
#
# Coordination Sequence:
#
# PCOD8139149 Si02
#       7
#     8   8   8   8   8   8   8
#     4  11  24  38  59  92 120 164 201 251 311 364
#     4  10  21  38  57  89 125 153 196 254 308 361
#     4   9  22  40  62  89 118 165 203 258 303 367
#     4  10  20  38  66  89 119 154 213 248 309 369
#     4  10  21  36  62  88 114 159 201 250 304 363
#     4  10  21  37  60  87 118 159 202 247 301 367
#     4  10  24  40  58  86 126 157 205 251 307 368
#
# _framework density 21.015841999999999
#
# number of rings (size 3 to 8) (size 9 to 14) (size 15 to 20)
#    0.000    2.000    0.000    2.143    6.000    6.857 
#    0.000    0.714    0.000    0.000    0.000    0.000 
#    0.000    0.000    0.000    0.000    0.000    0.000 
#
# Total GULP energy -347119.820807 kJ/mol
# GULP energy per Si atom -12397.136457 kJ/mol
# Density = 2.096801 g / cm^3
# Si number density = 21.015842 Si / 1000 Ang^3
#
#
#
# Elastic Constant Matrix: (Units=GPa)
#
#
# Indices 1 2 3 4 5 6 
#
# 1 91.1981 30.1527 43.0474 0.0003 6.0033 0.0002
# 2 30.1527 76.4423 27.6851 0.0005 5.3585 0.0003
# 3 43.0474 27.6851 103.4642 0.0000 3.5123 -0.0001
# 4 0.0003 0.0005 0.0000 28.7020 0.0000 0.5256
# 5 6.0033 5.3585 3.5123 0.0000 31.6680 0.0002
# 6 0.0002 0.0003 -0.0001 0.5256 0.0002 26.0136
#
#
#
# Elastic Compliance Matrix: (Units=1/GPa)
#
#
# Indices 1 2 3 4 5 6 
#
# 1 0.014728 -0.003874 -0.005037 0.000000 -0.001578 0.000000
# 2 -0.003874 0.015636 -0.002516 0.000000 -0.001632 0.000000
# 3 -0.005037 -0.002516 0.012434 0.000000 0.000002 0.000000
# 4 0.000000 0.000000 0.000000 0.034854 0.000000 -0.000704
# 5 -0.001578 -0.001632 0.000002 0.000000 0.032153 0.000000
# 6 0.000000 0.000000 0.000000 -0.000704 0.000000 0.038456
#
#
# Mechanical properties :
#
#
# Convention : Reuss Voigt Hill
#
# Bulk Modulus (GPa) = 50.14683 52.54167 51.34425
# Shear Modulus (GPa) = 28.12726 28.62467 28.37597
#
# Velocity S-wave (km/s) = 3.66236 3.69460 3.67852
# Velocity P-wave (km/s) = 6.46507 6.57688 6.52121
#
# Compressibility (1/GPa) = 0.01994144
#
# Stress axis : x y z
#
# Youngs Moduli (GPa) = 67.89924 63.95566 80.42249
#
# Poissons Ratio (x) = 0.24779 0.40512
# Poissons Ratio (y) = 0.26307 0.20238
# Poissons Ratio (z) = 0.34203 0.16094
#
# Static dielectric constant tensor:
#      x y z
#    x 3.867110 0.000000 -0.071070 
#    y 0.000000 3.685630 0.000000 
#    z -0.071070 0.000000 3.804860 
# 
# 
# High freq. dielectric constant tensor:
#      x y z
#    x 1.832550 0.000000 -0.000350 
#    y 0.000000 1.820450 0.000000 
#    z -0.000350 0.000000 1.819340 
# 
# From -- ./inp_files/172290.got.cif
#   From: 2010.06.25/outbox.cif.g09.slc.cpg/sg15_87_cif.got.tgz:172290.got - 2010.06.28 07:06:18.
