data_PCOD8139850
_publ_section_title
;
Structure prediction by ZEFSAII (Michael W. Deem and Ramdas Pophale) SiO2 
 PCOD8139850
Probable space group: C 2/C
;
_chemical_formula_sum "Si O2"
_cell_formula_units_Z 40
_cell_length_a 9.052135
_cell_length_b 17.022468
_cell_length_c 12.733115
_cell_angle_alpha 90.000000
_cell_angle_beta 107.077995
_cell_angle_gamma 90.000000
_cell_volume 1875.527084
_symmetry_space_group_name_H-M "C 2/C"
_symmetry_group_IT_number 15
_symmetry_cell_setting 'monoclinic'
loop_
_space_group_symop_operation_xyz
x,y,z
-x,y,1/2-z
-x,-y,-z
x,-y,1/2+z
1/2+x,1/2+y,z
1/2-x,1/2+y,1/2-z
1/2-x,1/2-y,-z
1/2+x,1/2-y,1/2+z
loop_
_atom_site_type_symbol
_atom_site_label
_atom_site_fract_x
_atom_site_fract_y
_atom_site_fract_z
Si Si1 0.161475 0.399396 0.331014
Si Si2 0.419930 0.860726 0.953623
Si Si3 0.326048 0.077867 0.228558
Si Si4 0.261127 0.342626 0.984804
Si Si5 0.551231 0.697755 0.648143
O O1 0.159404 0.381640 0.453801
O O2 0.198611 0.489323 0.313547
O O3 0.292362 0.349513 0.301459
O O4 0.000000 0.371871 0.250000
O O5 0.306846 0.908495 0.849467
O O6 0.603473 0.886417 0.992821
O O7 0.416688 0.768177 0.926666
O O8 0.500000 0.107416 0.250000
O O9 0.218302 0.134230 0.134089
O O10 0.250000 0.250000 0.000000
O O11 0.419956 0.364053 0.078500
O O12 0.500000 0.732845 0.750000
#
# Coordination Sequence:
#
# PCOD8139850 Si02
#       5
#     8   8   8   8   8
#     4  11  24  38  58  87 117 151 193 238 284 341
#     4  10  20  40  62  84 114 150 194 238 284 339
#     4   9  20  37  58  85 116 153 190 234 290 342
#     4   9  18  35  60  84 110 150 191 230 281 340
#     4  11  22  38  60  87 117 151 192 238 288 340
#
# _framework density 21.327338000000001
#
# number of rings (size 3 to 8) (size 9 to 14) (size 15 to 20)
#    0.000    2.000    0.000    4.800    0.000   11.200 
#    0.000    1.000    0.000    0.000    0.000    0.000 
#    0.000    0.000    0.000    0.000    0.000    0.000 
#
# Total GULP energy -247824.902320 kJ/mol
# GULP energy per Si atom -12391.245116 kJ/mol
# Density = 2.127880 g / cm^3
# Si number density = 21.327338 Si / 1000 Ang^3
#
#
#
# Elastic Constant Matrix: (Units=GPa)
#
#
# Indices 1 2 3 4 5 6 
#
# 1 75.6843 47.6311 32.0171 0.0000 10.7991 0.0000
# 2 47.6311 102.5780 61.4095 0.0000 6.4346 0.0000
# 3 32.0171 61.4095 134.1855 0.0000 -5.4490 0.0000
# 4 0.0000 0.0000 0.0000 28.5121 0.0000 2.1515
# 5 10.7991 6.4346 -5.4490 0.0000 37.5605 0.0000
# 6 0.0000 0.0000 0.0000 2.1515 0.0000 15.3067
#
#
#
# Elastic Compliance Matrix: (Units=1/GPa)
#
#
# Indices 1 2 3 4 5 6 
#
# 1 0.019375 -0.008058 -0.001112 0.000000 -0.004352 0.000000
# 2 -0.008058 0.017175 -0.005998 0.000000 -0.001496 0.000000
# 3 -0.001112 -0.005998 0.010580 0.000000 0.002882 0.000000
# 4 0.000000 0.000000 0.000000 0.035449 0.000000 -0.004983
# 5 -0.004352 -0.001496 0.002882 0.000000 0.028549 0.000000
# 6 0.000000 0.000000 0.000000 -0.004983 0.000000 0.066031
#
#
# Mechanical properties :
#
#
# Convention : Reuss Voigt Hill
#
# Bulk Modulus (GPa) = 59.54599 66.06256 62.80428
# Shear Modulus (GPa) = 23.46384 27.70187 25.58286
#
# Velocity S-wave (km/s) = 3.32049 3.60792 3.46719
# Velocity P-wave (km/s) = 6.53311 6.95693 6.74835
#
# Compressibility (1/GPa) = 0.01679374
#
# Stress axis : x y z
#
# Youngs Moduli (GPa) = 51.61196 58.22401 94.52016
#
# Poissons Ratio (x) = 0.46917 0.10510
# Poissons Ratio (y) = 0.41589 0.56695
# Poissons Ratio (z) = 0.05739 0.34924
#
# Static dielectric constant tensor:
#      x y z
#    x 4.088860 0.000000 0.522770 
#    y 0.000000 3.539370 0.000000 
#    z 0.522770 0.000000 4.453340 
# 
# 
# High freq. dielectric constant tensor:
#      x y z
#    x 1.807830 0.000000 0.015460 
#    y 0.000000 1.820090 0.000000 
#    z 0.015460 0.000000 1.855260 
# 
# From -- ./inp_files/76643.got.cif
#   From: 2010.06.25/outbox.cif.g09.slc.cpg/sg15_39_cif.got.tgz:76643.got - 2010.06.28 07:06:18.
