data_PCOD8139273
_publ_section_title
;
Structure prediction by ZEFSAII (Michael W. Deem and Ramdas Pophale) SiO2 
 PCOD8139273
Probable space group: C 2/C
;
_chemical_formula_sum "Si O2"
_cell_formula_units_Z 56
_cell_length_a 11.245222
_cell_length_b 31.555999
_cell_length_c 14.608008
_cell_angle_alpha 90.000000
_cell_angle_beta 29.896483
_cell_angle_gamma 90.000000
_cell_volume 2583.741631
_symmetry_space_group_name_H-M "C 2/C"
_symmetry_group_IT_number 15
_symmetry_cell_setting 'monoclinic'
loop_
_space_group_symop_operation_xyz
x,y,z
-x,y,1/2-z
-x,-y,-z
x,-y,1/2+z
1/2+x,1/2+y,z
1/2-x,1/2+y,1/2-z
1/2-x,1/2-y,-z
1/2+x,1/2-y,1/2+z
loop_
_atom_site_type_symbol
_atom_site_label
_atom_site_fract_x
_atom_site_fract_y
_atom_site_fract_z
Si Si1 0.500000 0.637808 0.750000
Si Si2 0.634930 0.926740 0.563637
Si Si3 0.765722 0.443054 0.342426
Si Si4 0.224685 0.972846 0.754780
Si Si5 0.119762 0.296095 0.998050
Si Si6 0.500000 0.487012 0.250000
Si Si7 0.686781 0.648303 0.815787
Si Si8 0.506267 0.704219 0.397138
O O1 0.743027 0.614301 0.559007
O O2 0.568870 0.662183 0.797098
O O3 0.500000 0.920277 0.750000
O O4 0.438158 0.939647 0.620568
O O5 0.855951 0.960222 0.424079
O O6 0.525846 0.449726 0.560026
O O7 0.797569 0.486201 0.265051
O O8 0.712568 0.402377 0.312838
O O9 0.000000 0.435764 0.250000
O O10 0.206517 0.986161 0.660999
O O11 0.251409 0.308352 0.816202
O O12 0.292678 0.293766 0.968435
O O13 0.978315 0.252116 0.074313
O O14 0.949148 0.333451 0.142235
O O15 0.529026 0.669387 0.000821
#
# Coordination Sequence:
#
# PCOD8139273 Si02
#       8
#     4   8   8   8   8   4   8   8
#     4  11  28  44  62  92 132 182 232 278 332 390
#     4  11  22  42  65  84 120 177 232 279 331 392
#     4  11  23  39  63  95 131 169 220 281 334 382
#     4  11  22  39  62  89 127 178 222 268 332 396
#     4  10  20  38  71 102 129 165 207 258 332 404
#     4  11  22  36  60  94 122 162 222 282 334 404
#     4  12  24  43  64  95 135 173 218 279 328 394
#     4  10  20  39  69 103 130 163 207 260 330 404
#
# _framework density 21.673992999999999
#
# number of rings (size 3 to 8) (size 9 to 14) (size 15 to 20)
#    0.000    1.143    1.429    7.286    0.000    3.429 
#    0.000    2.143    0.000    1.714    0.000    0.000 
#    0.000    0.000    0.000    0.000    0.000    0.000 
#
# Total GULP energy -346983.449913 kJ/mol
# GULP energy per Si atom -12392.266068 kJ/mol
# Density = 2.162466 g / cm^3
# Si number density = 21.673993 Si / 1000 Ang^3
#
#
#
# Elastic Constant Matrix: (Units=GPa)
#
#
# Indices 1 2 3 4 5 6 
#
# 1 77.8580 4.5652 28.5031 0.0000 14.4404 0.0000
# 2 4.5652 67.1622 39.1052 0.0000 4.4776 0.0000
# 3 28.5031 39.1052 128.0850 -0.0001 17.9749 0.0001
# 4 0.0000 0.0000 -0.0001 14.8810 0.0000 2.9918
# 5 14.4404 4.4776 17.9749 0.0000 33.5881 0.0000
# 6 0.0000 0.0000 0.0001 2.9918 0.0000 14.0894
#
#
#
# Elastic Compliance Matrix: (Units=1/GPa)
#
#
# Indices 1 2 3 4 5 6 
#
# 1 0.014761 0.001016 -0.002903 0.000000 -0.004928 0.000000
# 2 0.001016 0.018189 -0.005814 0.000000 0.000250 0.000000
# 3 -0.002903 -0.005814 0.010752 0.000000 -0.003731 0.000000
# 4 0.000000 0.000000 0.000000 0.070196 0.000000 -0.014906
# 5 -0.004928 0.000250 -0.003731 0.000000 0.033854 0.000000
# 6 0.000000 0.000000 0.000000 -0.014906 0.000000 0.074141
#
#
# Mechanical properties :
#
#
# Convention : Reuss Voigt Hill
#
# Bulk Modulus (GPa) = 35.33787 46.38357 40.86072
# Shear Modulus (GPa) = 20.26500 25.90714 23.08607
#
# Velocity S-wave (km/s) = 3.06108 3.46108 3.26721
# Velocity P-wave (km/s) = 5.36966 6.11711 5.75554
#
# Compressibility (1/GPa) = 0.02829825
#
# Stress axis : x y z
#
# Youngs Moduli (GPa) = 67.74500 54.97816 93.00479
#
# Poissons Ratio (x) = -0.05584 0.27003
# Poissons Ratio (y) = -0.06881 0.54076
# Poissons Ratio (z) = 0.19669 0.31966
#
# Static dielectric constant tensor:
#      x y z
#    x 4.133810 0.000000 0.020390 
#    y 0.000000 3.804180 0.000000 
#    z 0.020390 0.000000 4.140170 
# 
# 
# High freq. dielectric constant tensor:
#      x y z
#    x 1.845150 0.000000 -0.000080 
#    y 0.000000 1.828710 0.000000 
#    z -0.000080 0.000000 1.872250 
# 
# From -- ./inp_files/149285.got.cif
#   From: 2010.06.25/outbox.cif.g09.slc.cpg/sg15_75_cif.got.tgz:149285.got - 2010.06.28 07:06:18.
