data_PCOD8139594
_publ_section_title
;
Structure prediction by ZEFSAII (Michael W. Deem and Ramdas Pophale) SiO2 
 PCOD8139594
Probable space group: C 2/C
;
_chemical_formula_sum "Si O2"
_cell_formula_units_Z 56
_cell_length_a 12.589295
_cell_length_b 17.231787
_cell_length_c 19.290987
_cell_angle_alpha 90.000000
_cell_angle_beta 39.915373
_cell_angle_gamma 90.000000
_cell_volume 2685.270626
_symmetry_space_group_name_H-M "C 2/C"
_symmetry_group_IT_number 15
_symmetry_cell_setting 'monoclinic'
loop_
_space_group_symop_operation_xyz
x,y,z
-x,y,1/2-z
-x,-y,-z
x,-y,1/2+z
1/2+x,1/2+y,z
1/2-x,1/2+y,1/2-z
1/2-x,1/2-y,-z
1/2+x,1/2-y,1/2+z
loop_
_atom_site_type_symbol
_atom_site_label
_atom_site_fract_x
_atom_site_fract_y
_atom_site_fract_z
Si Si1 0.565002 0.335915 0.872878
Si Si2 0.432719 0.104152 0.183970
Si Si3 0.262773 0.181070 0.699594
Si Si4 0.204042 0.804576 0.587554
Si Si5 0.000000 0.466546 0.250000
Si Si6 0.000000 0.269513 0.750000
Si Si7 0.985432 0.410108 0.501705
Si Si8 0.217474 0.157433 0.876304
O O1 0.733657 0.385371 0.792710
O O2 0.595304 0.244196 0.859326
O O3 0.468345 0.348044 0.847507
O O4 0.450663 0.356876 0.996486
O O5 0.539202 0.171914 0.167264
O O6 0.483090 0.120866 0.080673
O O7 0.484638 0.020337 0.188848
O O8 0.145664 0.213261 0.698493
O O9 0.347960 0.107294 0.623308
O O10 0.175041 0.155720 0.815413
O O11 0.250000 0.750000 0.500000
O O12 0.329017 0.875364 0.538992
O O13 0.199277 0.742974 0.653328
O O14 0.840735 0.411552 0.336627
O O15 0.000000 0.500000 0.500000
#
# Coordination Sequence:
#
# PCOD8139594 Si02
#       8
#     8   8   8   8   4   4   8   8
#     4  10  22  39  67  98 131 167 230 275 328 387
#     4  10  24  44  61  98 136 176 220 275 341 407
#     4  11  22  42  63 101 128 171 225 269 335 402
#     4  10  20  39  65 101 122 172 227 272 333 385
#     4  11  24  42  66  95 132 184 220 269 352 392
#     4   9  22  42  68  91 128 174 224 267 336 400
#     4  12  25  41  65  95 141 176 215 285 344 398
#     4  11  22  38  71  96 129 168 229 285 313 403
#
# _framework density 20.854510000000001
#
# number of rings (size 3 to 8) (size 9 to 14) (size 15 to 20)
#    0.000    1.429    2.857    3.429    6.000    2.857 
#    5.143    2.857    0.000    0.000    0.000    0.000 
#    0.000    0.000    0.000    0.000    0.000    0.000 
#
# Total GULP energy -346942.197442 kJ/mol
# GULP energy per Si atom -12390.792766 kJ/mol
# Density = 2.080704 g / cm^3
# Si number density = 20.854510 Si / 1000 Ang^3
#
#
#
# Elastic Constant Matrix: (Units=GPa)
#
#
# Indices 1 2 3 4 5 6 
#
# 1 147.3880 55.0838 42.8727 -0.0002 9.7632 -0.0001
# 2 55.0838 119.4932 19.2951 -0.0007 -4.2789 0.0002
# 3 42.8727 19.2951 97.3636 -0.0032 20.0294 0.0015
# 4 -0.0002 -0.0007 -0.0032 27.2794 0.0010 -4.4530
# 5 9.7632 -4.2789 20.0294 0.0010 23.5091 -0.0003
# 6 -0.0001 0.0002 0.0015 -4.4530 -0.0003 36.1649
#
#
#
# Elastic Compliance Matrix: (Units=1/GPa)
#
#
# Indices 1 2 3 4 5 6 
#
# 1 0.009193 -0.003851 -0.002856 0.000000 -0.002086 0.000000
# 2 -0.003851 0.010529 -0.001351 0.000000 0.004667 0.000000
# 3 -0.002856 -0.001351 0.014068 0.000002 -0.011046 0.000000
# 4 0.000000 0.000000 0.000002 0.037410 -0.000003 0.004606
# 5 -0.002086 0.004667 -0.011046 -0.000003 0.053663 0.000001
# 6 0.000000 0.000000 0.000000 0.004606 0.000001 0.028218
#
#
# Mechanical properties :
#
#
# Convention : Reuss Voigt Hill
#
# Bulk Modulus (GPa) = 56.57738 66.52756 61.55247
# Shear Modulus (GPa) = 28.55690 33.85688 31.20689
#
# Velocity S-wave (km/s) = 3.70447 4.03361 3.87254
# Velocity P-wave (km/s) = 6.74433 7.32553 7.04093
#
# Compressibility (1/GPa) = 0.01767491
#
# Stress axis : x y z
#
# Youngs Moduli (GPa) = 108.77801 94.97305 71.08199
#
# Poissons Ratio (x) = 0.36578 0.20299
# Poissons Ratio (y) = 0.41894 0.09602
# Poissons Ratio (z) = 0.31064 0.12829
#
# Static dielectric constant tensor:
#      x y z
#    x 4.144480 0.000000 -0.208580 
#    y 0.000000 3.746520 0.000000 
#    z -0.208580 0.000000 2.743490 
# 
# 
# High freq. dielectric constant tensor:
#      x y z
#    x 1.829400 0.000000 0.015430 
#    y 0.000000 1.807890 0.000000 
#    z 0.015430 0.000000 1.810270 
# 
# From -- ./inp_files/199487.got.cif
#   From: 2010.06.25/outbox.cif.g09.slc.cpg/sg15_100_cif.got.tgz:199487.got - 2010.06.28 07:06:18.
