data_PCOD8139542
_publ_section_title
;
Structure prediction by ZEFSAII (Michael W. Deem and Ramdas Pophale) SiO2 
 PCOD8139542
Probable space group: C 2/C
;
_chemical_formula_sum "Si O2"
_cell_formula_units_Z 44
_cell_length_a 8.681702
_cell_length_b 14.654430
_cell_length_c 17.859678
_cell_angle_alpha 90.000000
_cell_angle_beta 117.596672
_cell_angle_gamma 90.000000
_cell_volume 2013.696969
_symmetry_space_group_name_H-M "C 2/C"
_symmetry_group_IT_number 15
_symmetry_cell_setting 'monoclinic'
loop_
_space_group_symop_operation_xyz
x,y,z
-x,y,1/2-z
-x,-y,-z
x,-y,1/2+z
1/2+x,1/2+y,z
1/2-x,1/2+y,1/2-z
1/2-x,1/2-y,-z
1/2+x,1/2-y,1/2+z
loop_
_atom_site_type_symbol
_atom_site_label
_atom_site_fract_x
_atom_site_fract_y
_atom_site_fract_z
Si Si1 0.000000 0.146454 0.250000
Si Si2 0.886762 0.234136 0.374508
Si Si3 0.072400 0.419762 0.427846
Si Si4 0.058644 0.898610 0.032365
Si Si5 0.591074 0.256104 0.407484
Si Si6 0.854838 0.413770 0.887057
O O1 0.919703 0.210437 0.296095
O O2 0.843131 0.082925 0.186281
O O3 0.678085 0.235379 0.345813
O O4 0.942271 0.336540 0.403391
O O5 0.997913 0.166188 0.451011
O O6 0.233743 0.397307 0.410372
O O7 0.153179 0.439234 0.527557
O O8 0.970521 0.508181 0.373055
O O9 0.986035 0.858266 0.095225
O O10 0.000000 0.000000 0.000000
O O11 0.750000 0.250000 0.500000
O O12 0.439042 0.184613 0.390709
#
# Coordination Sequence:
#
# PCOD8139542 Si02
#       6
#     4   8   8   8   8   8
#     4  12  26  44  62  98 148 182 212 284 360 400
#     4  11  23  41  67  99 136 173 222 278 337 406
#     4  11  21  41  71  98 122 181 238 271 317 401
#     4  11  21  36  67 103 128 169 227 286 322 387
#     4  10  20  39  64 100 129 165 227 278 321 396
#     4  11  23  41  70  97 136 176 227 282 333 399
#
# _framework density 21.850359000000001
#
# number of rings (size 3 to 8) (size 9 to 14) (size 15 to 20)
#    0.000    1.091    5.455    3.818    2.545    0.727 
#    0.000    7.273    0.000    0.000    0.000    0.000 
#    0.000    0.000    0.000    0.000    0.000    0.000 
#
# Total GULP energy -272714.038331 kJ/mol
# GULP energy per Si atom -12396.092651 kJ/mol
# Density = 2.180063 g / cm^3
# Si number density = 21.850359 Si / 1000 Ang^3
#
#
#
# Elastic Constant Matrix: (Units=GPa)
#
#
# Indices 1 2 3 4 5 6 
#
# 1 171.3733 51.6812 42.8084 0.0000 4.6957 0.0000
# 2 51.6812 151.7043 25.6515 0.0000 10.2137 0.0000
# 3 42.8084 25.6515 73.9535 0.0000 7.3242 0.0000
# 4 0.0000 0.0000 0.0000 11.3137 0.0000 2.5370
# 5 4.6957 10.2137 7.3242 0.0000 44.9655 0.0000
# 6 0.0000 0.0000 0.0000 2.5370 0.0000 43.5388
#
#
#
# Elastic Compliance Matrix: (Units=1/GPa)
#
#
# Indices 1 2 3 4 5 6 
#
# 1 0.007297 -0.001896 -0.003592 0.000000 0.000254 0.000000
# 2 -0.001896 0.007561 -0.001397 0.000000 -0.001292 0.000000
# 3 -0.003592 -0.001397 0.016280 0.000000 -0.001959 0.000000
# 4 0.000000 0.000000 0.000000 0.089558 0.000000 -0.005218
# 5 0.000254 -0.001292 -0.001959 0.000000 0.022825 0.000000
# 6 0.000000 0.000000 0.000000 -0.005218 0.000000 0.023272
#
#
# Mechanical properties :
#
#
# Convention : Reuss Voigt Hill
#
# Bulk Modulus (GPa) = 57.57517 70.81260 64.19388
# Shear Modulus (GPa) = 26.83097 38.42295 32.62696
#
# Velocity S-wave (km/s) = 3.50800 4.19795 3.86839
# Velocity P-wave (km/s) = 6.54332 7.48167 7.02817
#
# Compressibility (1/GPa) = 0.01736860
#
# Stress axis : x y z
#
# Youngs Moduli (GPa) = 137.04065 132.26092 61.42626
#
# Poissons Ratio (x) = 0.25073 0.22062
# Poissons Ratio (y) = 0.25979 0.08583
# Poissons Ratio (z) = 0.49219 0.18480
#
# Static dielectric constant tensor:
#      x y z
#    x 4.990700 0.000000 -0.055400 
#    y 0.000000 4.185800 0.000000 
#    z -0.055400 0.000000 3.718270 
# 
# 
# High freq. dielectric constant tensor:
#      x y z
#    x 1.886310 0.000000 0.006660 
#    y 0.000000 1.861620 0.000000 
#    z 0.006660 0.000000 1.813620 
# 
# From -- ./inp_files/189330.got.cif
#   From: 2010.06.25/outbox.cif.g09.slc.cpg/sg15_95_cif.got.tgz:189330.got - 2010.06.28 07:06:18.
