data_PCOD8139028
_publ_section_title
;
Structure prediction by ZEFSAII (Michael W. Deem and Ramdas Pophale) SiO2 
 PCOD8139028
Probable space group: C 2/C
;
_chemical_formula_sum "Si O2"
_cell_formula_units_Z 60
_cell_length_a 28.130389
_cell_length_b 11.900974
_cell_length_c 16.798959
_cell_angle_alpha 90.000000
_cell_angle_beta 149.462675
_cell_angle_gamma 90.000000
_cell_volume 2857.521008
_symmetry_space_group_name_H-M "C 2/C"
_symmetry_group_IT_number 15
_symmetry_cell_setting 'monoclinic'
loop_
_space_group_symop_operation_xyz
x,y,z
-x,y,1/2-z
-x,-y,-z
x,-y,1/2+z
1/2+x,1/2+y,z
1/2-x,1/2+y,1/2-z
1/2-x,1/2-y,-z
1/2+x,1/2-y,1/2+z
loop_
_atom_site_type_symbol
_atom_site_label
_atom_site_fract_x
_atom_site_fract_y
_atom_site_fract_z
Si Si1 0.681579 0.685134 0.008217
Si Si2 0.504508 0.739813 0.999948
Si Si3 0.864930 0.683491 0.519943
Si Si4 0.904738 0.099496 0.987871
Si Si5 0.500000 0.535464 0.750000
Si Si6 0.046026 0.606365 0.699849
Si Si7 0.319051 0.376585 0.820313
Si Si8 0.365892 0.137583 0.184393
O O1 0.704205 0.698274 0.134751
O O2 0.770647 0.624652 0.096744
O O3 0.591483 0.608364 0.866680
O O4 0.660041 0.806389 0.938026
O O5 0.441531 0.658887 0.962314
O O6 0.548870 0.842047 0.115264
O O7 0.585038 0.665543 0.078421
O O8 0.439870 0.784834 0.836411
O O9 0.859618 0.811333 0.483075
O O10 0.891346 0.683432 0.651248
O O11 0.763119 0.630373 0.362269
O O12 0.939198 0.608769 0.576970
O O13 0.990328 0.039911 0.157132
O O14 0.826560 0.007849 0.853380
O O15 0.086496 0.481874 0.760344
#
# Coordination Sequence:
#
# PCOD8139028 Si02
#       8
#     8   8   8   8   4   8   8   8
#     4  10  23  40  61  92 121 158 208 251 305 366
#     4  11  23  39  61  91 123 162 208 247 300 367
#     4  10  23  41  62  91 121 158 204 249 305 366
#     4  10  21  40  61  86 124 157 192 252 307 354
#     4  10  20  38  64  88 118 160 202 250 304 360
#     4  10  23  41  62  88 124 165 202 251 305 358
#     4  11  24  39  64  91 119 160 204 253 304 365
#     4  11  23  41  63  88 126 164 202 257 306 357
#
# _framework density 20.997221
#
# number of rings (size 3 to 8) (size 9 to 14) (size 15 to 20)
#    0.000    1.600    0.000    5.600    0.000   11.200 
#    0.000    0.000    0.000    0.000    0.000    0.000 
#    0.000    0.000    0.000    0.000    0.000    0.000 
#
# Total GULP energy -372072.673451 kJ/mol
# GULP energy per Si atom -12402.422448 kJ/mol
# Density = 2.094943 g / cm^3
# Si number density = 20.997221 Si / 1000 Ang^3
#
#
#
# Elastic Constant Matrix: (Units=GPa)
#
#
# Indices 1 2 3 4 5 6 
#
# 1 56.0426 22.0277 15.7121 0.0000 -9.7143 0.0000
# 2 22.0277 100.2923 30.5709 0.0000 9.6409 0.0000
# 3 15.7121 30.5709 119.4592 0.0000 8.9571 0.0000
# 4 0.0000 0.0000 0.0000 26.1691 0.0000 -2.8849
# 5 -9.7143 9.6409 8.9571 0.0000 28.6863 0.0000
# 6 0.0000 0.0000 0.0000 -2.8849 0.0000 23.7687
#
#
#
# Elastic Compliance Matrix: (Units=1/GPa)
#
#
# Indices 1 2 3 4 5 6 
#
# 1 0.022255 -0.005128 -0.002364 0.000000 0.009998 0.000000
# 2 -0.005128 0.012226 -0.002064 0.000000 -0.005201 0.000000
# 3 -0.002364 -0.002064 0.009439 0.000000 -0.003054 0.000000
# 4 0.000000 0.000000 0.000000 0.038731 0.000000 0.004701
# 5 0.009998 -0.005201 -0.003054 0.000000 0.040947 0.000000
# 6 0.000000 0.000000 0.000000 0.004701 0.000000 0.042643
#
#
# Mechanical properties :
#
#
# Convention : Reuss Voigt Hill
#
# Bulk Modulus (GPa) = 40.31178 45.82395 43.06786
# Shear Modulus (GPa) = 25.82301 29.55706 27.69003
#
# Velocity S-wave (km/s) = 3.51070 3.75596 3.63540
# Velocity P-wave (km/s) = 5.97274 6.37815 6.17877
#
# Compressibility (1/GPa) = 0.02480665
#
# Stress axis : x y z
#
# Youngs Moduli (GPa) = 44.93308 81.78972 105.93951
#
# Poissons Ratio (x) = 0.41945 0.25049
# Poissons Ratio (y) = 0.23044 0.21870
# Poissons Ratio (z) = 0.10624 0.16884
#
# Static dielectric constant tensor:
#      x y z
#    x 3.877490 0.000000 -0.239460 
#    y 0.000000 3.835350 0.000000 
#    z -0.239460 0.000000 3.985100 
# 
# 
# High freq. dielectric constant tensor:
#      x y z
#    x 1.819990 0.000000 -0.011260 
#    y 0.000000 1.821610 0.000000 
#    z -0.011260 0.000000 1.837070 
# 
# From -- ./inp_files/222558.got.cif
#   From: 2010.06.25/outbox.cif.g09.slc.cpg/sg15_112_cif.got.tgz:222558.got - 2010.06.28 07:06:18.
