data_PCOD8139283
_publ_section_title
;
Structure prediction by ZEFSAII (Michael W. Deem and Ramdas Pophale) SiO2 
 PCOD8139283
Probable space group: C 2/C
;
_chemical_formula_sum "Si O2"
_cell_formula_units_Z 56
_cell_length_a 20.548959
_cell_length_b 15.021371
_cell_length_c 9.327685
_cell_angle_alpha 90.000000
_cell_angle_beta 74.532583
_cell_angle_gamma 90.000000
_cell_volume 2774.931088
_symmetry_space_group_name_H-M "C 2/C"
_symmetry_group_IT_number 15
_symmetry_cell_setting 'monoclinic'
loop_
_space_group_symop_operation_xyz
x,y,z
-x,y,1/2-z
-x,-y,-z
x,-y,1/2+z
1/2+x,1/2+y,z
1/2-x,1/2+y,1/2-z
1/2-x,1/2-y,-z
1/2+x,1/2-y,1/2+z
loop_
_atom_site_type_symbol
_atom_site_label
_atom_site_fract_x
_atom_site_fract_y
_atom_site_fract_z
Si Si1 0.983791 0.695346 0.604469
Si Si2 0.562174 0.294893 0.133129
Si Si3 0.872257 0.455609 0.178161
Si Si4 0.293803 0.327575 0.546768
Si Si5 0.217133 0.505381 0.524930
Si Si6 0.900216 0.651474 0.162006
Si Si7 0.253852 0.180482 0.127817
O O1 0.958519 0.773855 0.517129
O O2 0.928990 0.618189 0.649525
O O3 0.000000 0.736892 0.750000
O O4 0.053067 0.655436 0.504732
O O5 0.500000 0.348969 0.250000
O O6 0.570801 0.205921 0.221542
O O7 0.634554 0.342576 0.076424
O O8 0.813660 0.435250 0.327810
O O9 0.901218 0.550186 0.213139
O O10 0.841267 0.462068 0.038073
O O11 0.250000 0.250000 0.500000
O O12 0.260272 0.424204 0.559763
O O13 0.300275 0.300153 0.712146
O O14 0.260917 0.579108 0.414520
O O15 0.826979 0.686967 0.159489
O O16 0.250000 0.250000 0.000000
#
# Coordination Sequence:
#
# PCOD8139283 Si02
#       7
#     8   8   8   8   8   8   8
#     4  11  22  32  55  84 125 167 202 251 306 371
#     4  10  23  40  60  85 120 164 214 256 306 382
#     4  11  20  35  54  84 127 167 195 250 306 374
#     4  12  22  41  69  90 124 175 207 256 325 372
#     4  11  23  39  59  94 128 155 217 260 304 380
#     4  10  20  39  51  89 121 164 211 241 301 381
#     4  11  25  39  63  96 127 161 212 270 312 367
#
# _framework density 20.180679999999999
#
# number of rings (size 3 to 8) (size 9 to 14) (size 15 to 20)
#    0.000    1.143    4.286    3.857    6.000    1.714 
#    0.000    0.000    0.000    0.857    0.000    0.000 
#    0.000    0.000    0.000    0.000    0.000    0.000 
#
# Total GULP energy -347027.152178 kJ/mol
# GULP energy per Si atom -12393.826864 kJ/mol
# Density = 2.013475 g / cm^3
# Si number density = 20.180680 Si / 1000 Ang^3
#
#
#
# Elastic Constant Matrix: (Units=GPa)
#
#
# Indices 1 2 3 4 5 6 
#
# 1 78.8628 16.6018 42.0837 0.0000 -16.3178 0.0000
# 2 16.6018 44.8610 30.7237 0.0000 4.2579 0.0000
# 3 42.0837 30.7237 143.6301 0.0000 -7.3368 0.0000
# 4 0.0000 0.0000 0.0000 27.4965 0.0000 -3.2686
# 5 -16.3178 4.2579 -7.3368 0.0000 48.6571 0.0000
# 6 0.0000 0.0000 0.0000 -3.2686 0.0000 22.5409
#
#
#
# Elastic Compliance Matrix: (Units=1/GPa)
#
#
# Indices 1 2 3 4 5 6 
#
# 1 0.016648 -0.004123 -0.003721 0.000000 0.005383 0.000000
# 2 -0.004123 0.027627 -0.004934 0.000000 -0.004544 0.000000
# 3 -0.003721 -0.004934 0.009137 0.000000 0.000562 0.000000
# 4 0.000000 0.000000 0.000000 0.037006 0.000000 0.005366
# 5 0.005383 -0.004544 0.000562 0.000000 0.022840 0.000000
# 6 0.000000 0.000000 0.000000 0.005366 0.000000 0.045142
#
#
# Mechanical properties :
#
#
# Convention : Reuss Voigt Hill
#
# Bulk Modulus (GPa) = 35.89943 49.57471 42.73707
# Shear Modulus (GPa) = 25.87456 31.60189 28.73822
#
# Velocity S-wave (km/s) = 3.58459 3.96150 3.77775
# Velocity P-wave (km/s) = 5.91270 6.74858 6.34442
#
# Compressibility (1/GPa) = 0.02785560
#
# Stress axis : x y z
#
# Youngs Moduli (GPa) = 60.06877 36.19616 109.45056
#
# Poissons Ratio (x) = 0.14925 0.40724
# Poissons Ratio (y) = 0.24769 0.53999
# Poissons Ratio (z) = 0.22350 0.17858
#
# Static dielectric constant tensor:
#      x y z
#    x 3.746960 0.000000 -0.148320 
#    y 0.000000 3.270370 0.000000 
#    z -0.148320 0.000000 4.301300 
# 
# 
# High freq. dielectric constant tensor:
#      x y z
#    x 1.777740 0.000000 -0.003160 
#    y 0.000000 1.746680 0.000000 
#    z -0.003160 0.000000 1.821710 
# 
# From -- ./inp_files/61483.got.cif
#   From: 2010.06.25/outbox.cif.g09.slc.cpg/sg15_31_cif.got.tgz:61483.got - 2010.06.28 07:06:18.
