data_PCOD8139528
_publ_section_title
;
Structure prediction by ZEFSAII (Michael W. Deem and Ramdas Pophale) SiO2 
 PCOD8139528
Probable space group: C 2/C
;
_chemical_formula_sum "Si O2"
_cell_formula_units_Z 48
_cell_length_a 15.089140
_cell_length_b 12.346496
_cell_length_c 21.374837
_cell_angle_alpha 90.000000
_cell_angle_beta 143.119937
_cell_angle_gamma 90.000000
_cell_volume 2389.818876
_symmetry_space_group_name_H-M "C 2/C"
_symmetry_group_IT_number 15
_symmetry_cell_setting 'monoclinic'
loop_
_space_group_symop_operation_xyz
x,y,z
-x,y,1/2-z
-x,-y,-z
x,-y,1/2+z
1/2+x,1/2+y,z
1/2-x,1/2+y,1/2-z
1/2-x,1/2-y,-z
1/2+x,1/2-y,1/2+z
loop_
_atom_site_type_symbol
_atom_site_label
_atom_site_fract_x
_atom_site_fract_y
_atom_site_fract_z
Si Si1 0.663961 0.646899 0.978379
Si Si2 0.317395 0.235677 0.436243
Si Si3 0.133697 0.874029 0.728931
Si Si4 0.794691 0.095077 0.022314
Si Si5 0.606228 0.394395 0.251099
Si Si6 0.851499 0.781526 0.896790
O O1 0.670988 0.639373 0.057187
O O2 0.750000 0.750000 0.000000
O O3 0.732946 0.533525 0.993646
O O4 0.493007 0.654129 0.860997
O O5 0.207589 0.212766 0.316875
O O6 0.315616 0.143719 0.488860
O O7 0.269973 0.351335 0.439878
O O8 0.484265 0.234522 0.506383
O O9 0.180427 0.847145 0.684457
O O10 0.957848 0.871380 0.637617
O O11 0.186764 0.994852 0.775649
O O12 0.500000 0.415433 0.250000
O O13 0.736504 0.314505 0.341875
#
# Coordination Sequence:
#
# PCOD8139528 Si02
#       6
#     8   8   8   8   8   8
#     4  11  22  41  65  84 123 166 206 250 304 372
#     4  10  20  39  63  94 122 156 209 254 300 360
#     4  10  21  38  63  88 123 163 205 246 307 369
#     4   9  21  39  66  90 122 166 203 246 312 365
#     4  11  22  41  62  86 120 168 207 244 310 374
#     4  11  24  38  59  96 122 158 205 258 305 353
#
# _framework density 20.085204000000001
#
# number of rings (size 3 to 8) (size 9 to 14) (size 15 to 20)
#    0.000    1.667    1.667    3.500    0.000    8.000 
#    3.000    0.000   14.667    0.000    0.000    0.000 
#    0.000    0.000    0.000    0.000    0.000    0.000 
#
# Total GULP energy -297606.951961 kJ/mol
# GULP energy per Si atom -12400.289665 kJ/mol
# Density = 2.003949 g / cm^3
# Si number density = 20.085204 Si / 1000 Ang^3
#
#
#
# Elastic Constant Matrix: (Units=GPa)
#
#
# Indices 1 2 3 4 5 6 
#
# 1 97.2943 47.1719 29.1320 0.0000 -15.9220 0.0000
# 2 47.1719 129.7917 48.1262 0.0000 -2.6609 0.0000
# 3 29.1320 48.1262 89.6267 0.0002 -25.3701 0.0001
# 4 0.0000 0.0000 0.0002 35.3564 0.0001 -5.2426
# 5 -15.9220 -2.6609 -25.3701 0.0001 31.3456 0.0000
# 6 0.0000 0.0000 0.0001 -5.2426 0.0000 20.8224
#
#
#
# Elastic Compliance Matrix: (Units=1/GPa)
#
#
# Indices 1 2 3 4 5 6 
#
# 1 0.013698 -0.004845 0.000003 0.000000 0.006549 0.000000
# 2 -0.004845 0.011817 -0.006724 0.000000 -0.006900 0.000000
# 3 0.000003 -0.006724 0.018946 0.000000 0.014765 0.000000
# 4 0.000000 0.000000 0.000000 0.029380 0.000000 0.007397
# 5 0.006549 -0.006900 0.014765 0.000000 0.046594 0.000000
# 6 0.000000 0.000000 0.000000 0.007397 0.000000 0.049888
#
#
# Mechanical properties :
#
#
# Convention : Reuss Voigt Hill
#
# Bulk Modulus (GPa) = 46.88215 62.84143 54.86179
# Shear Modulus (GPa) = 24.92955 30.32373 27.62664
#
# Velocity S-wave (km/s) = 3.52687 3.88977 3.71276
# Velocity P-wave (km/s) = 6.32277 7.17838 6.76412
#
# Compressibility (1/GPa) = 0.02133008
#
# Stress axis : x y z
#
# Youngs Moduli (GPa) = 73.00264 84.62141 52.78096
#
# Poissons Ratio (x) = 0.41003 -0.00017
# Poissons Ratio (y) = 0.35373 0.35488
# Poissons Ratio (z) = -0.00024 0.56897
#
# Static dielectric constant tensor:
#      x y z
#    x 3.619500 0.000000 -0.194390 
#    y 0.000000 3.694560 0.000000 
#    z -0.194390 0.000000 3.783010 
# 
# 
# High freq. dielectric constant tensor:
#      x y z
#    x 1.784750 0.000000 -0.018190 
#    y 0.000000 1.781870 0.000000 
#    z -0.018190 0.000000 1.785610 
# 
# From -- ./inp_files/243965.got.cif
#   From: 2010.06.25/outbox.cif.g09.slc.cpg/sg15_122_cif.got.tgz:243965.got - 2010.06.28 07:06:18.
