data_PCOD8139774
_publ_section_title
;
Structure prediction by ZEFSAII (Michael W. Deem and Ramdas Pophale) SiO2 
 PCOD8139774
Probable space group: C 2/C
;
_chemical_formula_sum "Si O2"
_cell_formula_units_Z 52
_cell_length_a 13.239680
_cell_length_b 24.220561
_cell_length_c 8.907668
_cell_angle_alpha 90.000000
_cell_angle_beta 112.189497
_cell_angle_gamma 90.000000
_cell_volume 2644.895243
_symmetry_space_group_name_H-M "C 2/C"
_symmetry_group_IT_number 15
_symmetry_cell_setting 'monoclinic'
loop_
_space_group_symop_operation_xyz
x,y,z
-x,y,1/2-z
-x,-y,-z
x,-y,1/2+z
1/2+x,1/2+y,z
1/2-x,1/2+y,1/2-z
1/2-x,1/2-y,-z
1/2+x,1/2-y,1/2+z
loop_
_atom_site_type_symbol
_atom_site_label
_atom_site_fract_x
_atom_site_fract_y
_atom_site_fract_z
Si Si1 0.088597 0.046778 0.182411
Si Si2 0.000000 0.208015 0.250000
Si Si3 0.429713 0.573774 0.856409
Si Si4 0.788619 0.855045 0.641865
Si Si5 0.066972 0.287496 0.019937
Si Si6 0.344249 0.222652 0.248292
Si Si7 0.252316 0.836932 0.201999
O O1 0.191981 0.080534 0.305881
O O2 0.000000 0.026703 0.250000
O O3 0.124847 0.986817 0.138901
O O4 0.021961 0.086736 0.032802
O O5 0.902370 0.168964 0.142282
O O6 0.953858 0.242317 0.364240
O O7 0.500000 0.581426 0.750000
O O8 0.328808 0.615221 0.792874
O O9 0.746052 0.823896 0.766507
O O10 0.711357 0.846824 0.451986
O O11 0.135806 0.337286 0.136363
O O12 0.141367 0.265677 0.921627
O O13 0.952174 0.304402 0.883901
O O14 0.308364 0.278371 0.310867
#
# Coordination Sequence:
#
# PCOD8139774 Si02
#       7
#     8   4   8   8   8   8   8
#     4  10  20  40  57  89 124 154 196 250 302 361
#     4  12  20  36  60  86 120 160 192 246 288 360
#     4  10  23  35  60  90 122 156 198 248 304 358
#     4  12  22  37  63  86 122 164 200 242 302 354
#     4  11  25  39  56  84 127 153 207 243 294 361
#     4  11  25  40  56  89 123 162 198 250 300 358
#     4  12  22  37  59  86 117 162 198 244 299 357
#
# _framework density 19.660513000000002
#
# number of rings (size 3 to 8) (size 9 to 14) (size 15 to 20)
#    0.000    0.923    5.385    1.846    4.308    0.000 
#    0.000    0.000    0.000    0.923    0.000    2.154 
#    0.000    0.000    0.000    0.000    0.000    0.000 
#
# Total GULP energy -322091.530010 kJ/mol
# GULP energy per Si atom -12388.135770 kJ/mol
# Density = 1.961577 g / cm^3
# Si number density = 19.660513 Si / 1000 Ang^3
#
#
#
# Elastic Constant Matrix: (Units=GPa)
#
#
# Indices 1 2 3 4 5 6 
#
# 1 72.7933 30.8495 19.0840 0.0000 -5.3775 0.0000
# 2 30.8495 98.0869 18.2549 0.0000 5.9823 0.0000
# 3 19.0840 18.2549 97.9614 0.0000 -4.4958 0.0000
# 4 0.0000 0.0000 0.0000 26.9738 0.0000 6.4408
# 5 -5.3775 5.9823 -4.4958 0.0000 38.1508 0.0000
# 6 0.0000 0.0000 0.0000 6.4408 0.0000 36.1158
#
#
#
# Elastic Compliance Matrix: (Units=1/GPa)
#
#
# Indices 1 2 3 4 5 6 
#
# 1 0.016641 -0.005004 -0.002178 0.000000 0.002874 0.000000
# 2 -0.005004 0.012204 -0.001427 0.000000 -0.002787 0.000000
# 3 -0.002178 -0.001427 0.010954 0.000000 0.001208 0.000000
# 4 0.000000 0.000000 0.000000 0.038722 0.000000 -0.006906
# 5 0.002874 -0.002787 0.001208 0.000000 0.027196 0.000000
# 6 0.000000 0.000000 0.000000 -0.006906 0.000000 0.028920
#
#
# Mechanical properties :
#
#
# Convention : Reuss Voigt Hill
#
# Bulk Modulus (GPa) = 44.28338 45.02427 44.65382
# Shear Modulus (GPa) = 31.37100 33.62497 32.49799
#
# Velocity S-wave (km/s) = 3.99887 4.14004 4.07007
# Velocity P-wave (km/s) = 6.62527 6.76785 6.69694
#
# Compressibility (1/GPa) = 0.02258184
#
# Stress axis : x y z
#
# Youngs Moduli (GPa) = 60.09134 81.93712 91.29312
#
# Poissons Ratio (x) = 0.41001 0.19880
# Poissons Ratio (y) = 0.30069 0.13031
# Poissons Ratio (z) = 0.13085 0.11696
#
# Static dielectric constant tensor:
#      x y z
#    x 3.605280 0.000000 -0.026580 
#    y 0.000000 3.426150 0.000000 
#    z -0.026580 0.000000 3.830770 
# 
# 
# High freq. dielectric constant tensor:
#      x y z
#    x 1.752420 0.000000 -0.014030 
#    y 0.000000 1.739410 0.000000 
#    z -0.014030 0.000000 1.787030 
# 
# From -- ./inp_files/42310.got.cif
#   From: 2010.06.25/outbox.cif.g09.slc.cpg/sg15_22_cif.got.tgz:42310.got - 2010.06.28 07:06:18.
