data_PCOD8139310
_publ_section_title
;
Structure prediction by ZEFSAII (Michael W. Deem and Ramdas Pophale) SiO2 
 PCOD8139310
Probable space group: C 2/C
;
_chemical_formula_sum "Si O2"
_cell_formula_units_Z 56
_cell_length_a 19.063078
_cell_length_b 12.892990
_cell_length_c 12.380788
_cell_angle_alpha 90.000000
_cell_angle_beta 77.570977
_cell_angle_gamma 90.000000
_cell_volume 2971.634504
_symmetry_space_group_name_H-M "C 2/C"
_symmetry_group_IT_number 15
_symmetry_cell_setting 'monoclinic'
loop_
_space_group_symop_operation_xyz
x,y,z
-x,y,1/2-z
-x,-y,-z
x,-y,1/2+z
1/2+x,1/2+y,z
1/2-x,1/2+y,1/2-z
1/2-x,1/2-y,-z
1/2+x,1/2-y,1/2+z
loop_
_atom_site_type_symbol
_atom_site_label
_atom_site_fract_x
_atom_site_fract_y
_atom_site_fract_z
Si Si1 0.821267 0.203361 0.706635
Si Si2 0.097513 0.295151 0.007353
Si Si3 0.542545 0.847260 0.342981
Si Si4 0.142657 0.517902 0.935976
Si Si5 0.334930 0.280536 0.804605
Si Si6 0.707344 0.832302 0.584974
Si Si7 0.277433 0.476044 0.737345
O O1 0.886677 0.243464 0.612238
O O2 0.743753 0.234290 0.686832
O O3 0.835679 0.260189 0.815976
O O4 0.823718 0.079341 0.705100
O O5 0.124418 0.413266 0.004582
O O6 0.142800 0.232486 0.079950
O O7 0.012559 0.288317 0.059092
O O8 0.500000 0.882215 0.250000
O O9 0.573385 0.950073 0.388722
O O10 0.608667 0.771480 0.295653
O O11 0.208557 0.502376 0.832847
O O12 0.155626 0.605806 0.021607
O O13 0.332156 0.402819 0.783857
O O14 0.750000 0.750000 0.500000
O O15 0.755492 0.918093 0.632765
#
# Coordination Sequence:
#
# PCOD8139310 Si02
#       7
#     8   8   8   8   8   8   8
#     4  11  21  37  58  93 120 153 210 254 294 362
#     4  11  23  36  60  90 119 159 206 249 300 367
#     4  10  23  41  60  86 128 165 195 244 313 372
#     4  12  21  38  61  91 123 159 199 251 311 365
#     4  10  20  39  59  84 122 159 200 248 302 363
#     4  11  22  36  58  91 130 155 196 258 318 355
#     4  11  22  36  64  91 118 159 208 256 305 358
#
# _framework density 18.844847999999999
#
# number of rings (size 3 to 8) (size 9 to 14) (size 15 to 20)
#    0.000    1.143    5.714    2.571    4.000    0.000 
#    0.000    1.429    0.000    3.429    0.000    0.000 
#    0.000    0.000    0.000    0.000    0.000    0.000 
#
# Total GULP energy -347172.358268 kJ/mol
# GULP energy per Si atom -12399.012795 kJ/mol
# Density = 1.880196 g / cm^3
# Si number density = 18.844848 Si / 1000 Ang^3
#
#
#
# Elastic Constant Matrix: (Units=GPa)
#
#
# Indices 1 2 3 4 5 6 
#
# 1 61.7755 20.6429 33.2327 0.0000 -1.1859 0.0000
# 2 20.6429 131.7293 43.4858 0.0000 12.6002 0.0000
# 3 33.2327 43.4858 121.4980 0.0000 -8.6350 0.0000
# 4 0.0000 0.0000 0.0000 36.3192 0.0000 7.3451
# 5 -1.1859 12.6002 -8.6350 0.0000 30.6761 0.0000
# 6 0.0000 0.0000 0.0000 7.3451 0.0000 25.1715
#
#
#
# Elastic Compliance Matrix: (Units=1/GPa)
#
#
# Indices 1 2 3 4 5 6 
#
# 1 0.019221 -0.001448 -0.004739 0.000000 0.000004 0.000000
# 2 -0.001448 0.009370 -0.003301 0.000000 -0.004834 0.000000
# 3 -0.004739 -0.003301 0.011012 0.000000 0.004273 0.000000
# 4 0.000000 0.000000 0.000000 0.029260 0.000000 -0.008538
# 5 0.000004 -0.004834 0.004273 0.000000 0.035787 0.000000
# 6 0.000000 0.000000 0.000000 -0.008538 0.000000 0.042219
#
#
# Mechanical properties :
#
#
# Convention : Reuss Voigt Hill
#
# Bulk Modulus (GPa) = 48.48020 56.63617 52.55819
# Shear Modulus (GPa) = 28.94825 32.94278 30.94552
#
# Velocity S-wave (km/s) = 3.92361 4.18557 4.05671
# Velocity P-wave (km/s) = 6.80501 7.31285 7.06350
#
# Compressibility (1/GPa) = 0.02062698
#
# Stress axis : x y z
#
# Youngs Moduli (GPa) = 52.02666 106.71840 90.80988
#
# Poissons Ratio (x) = 0.15454 0.43033
# Poissons Ratio (y) = 0.07534 0.29979
# Poissons Ratio (z) = 0.24655 0.35231
#
# Static dielectric constant tensor:
#      x y z
#    x 3.378580 0.000000 -0.026790 
#    y 0.000000 3.834230 0.000000 
#    z -0.026790 0.000000 3.705700 
# 
# 
# High freq. dielectric constant tensor:
#      x y z
#    x 1.706000 0.000000 -0.002360 
#    y 0.000000 1.738590 0.000000 
#    z -0.002360 0.000000 1.748560 
# 
# From -- ./inp_files/110978.got.cif
#   From: 2010.06.25/outbox.cif.g09.slc.cpg/sg15_56_cif.got.tgz:110978.got - 2010.06.28 07:06:18.
