data_PCOD8139431
_publ_section_title
;
Structure prediction by ZEFSAII (Michael W. Deem and Ramdas Pophale) SiO2 
 PCOD8139431
Probable space group: C 2/C
;
_chemical_formula_sum "Si O2"
_cell_formula_units_Z 32
_cell_length_a 34.793247
_cell_length_b 9.034276
_cell_length_c 13.665648
_cell_angle_alpha 90.000000
_cell_angle_beta 18.620925
_cell_angle_gamma 90.000000
_cell_volume 1371.591669
_symmetry_space_group_name_H-M "C 2/C"
_symmetry_group_IT_number 15
_symmetry_cell_setting 'monoclinic'
loop_
_space_group_symop_operation_xyz
x,y,z
-x,y,1/2-z
-x,-y,-z
x,-y,1/2+z
1/2+x,1/2+y,z
1/2-x,1/2+y,1/2-z
1/2-x,1/2-y,-z
1/2+x,1/2-y,1/2+z
loop_
_atom_site_type_symbol
_atom_site_label
_atom_site_fract_x
_atom_site_fract_y
_atom_site_fract_z
Si Si1 0.865358 0.184787 0.481862
Si Si2 0.772953 0.617535 0.870399
Si Si3 0.624256 0.631958 0.826696
Si Si4 0.969429 0.432516 0.470094
O O1 0.755408 0.167859 0.671624
O O2 0.820641 0.134256 0.696100
O O3 0.982058 0.086493 0.171412
O O4 0.913640 0.358033 0.365342
O O5 0.686431 0.482617 0.105909
O O6 0.750000 0.750000 0.000000
O O7 0.911177 0.562709 0.544390
O O8 0.632023 0.802248 0.767696
O O9 0.000000 0.500000 0.500000
#
# Coordination Sequence:
#
# PCOD8139431 Si02
#       4
#     8   8   8   8
#     4   9  21  40  64  84 131 161 205 259 320 367
#     4  12  21  36  67  95 121 169 214 253 318 391
#     4   9  21  41  60  89 131 161 206 265 319 373
#     4  10  20  39  62  87 122 167 209 263 317 374
#
# _framework density 23.330559999999998
#
# number of rings (size 3 to 8) (size 9 to 14) (size 15 to 20)
#    1.500    0.500    2.500    1.500    0.000    2.000 
#    4.500    0.000   11.000    0.000    0.000    0.000 
#    0.000    0.000    0.000    0.000    0.000    0.000 
#
# Total GULP energy -198223.535680 kJ/mol
# GULP energy per Si atom -12388.970980 kJ/mol
# Density = 2.327746 g / cm^3
# Si number density = 23.330560 Si / 1000 Ang^3
#
#
#
# Elastic Constant Matrix: (Units=GPa)
#
#
# Indices 1 2 3 4 5 6 
#
# 1 182.0239 28.8732 18.3422 0.0000 -34.4729 0.0000
# 2 28.8732 90.9341 9.2341 0.0000 -17.0261 0.0000
# 3 18.3422 9.2341 33.2372 0.0000 -5.2806 0.0000
# 4 0.0000 0.0000 0.0000 23.9893 0.0000 -7.1137
# 5 -34.4729 -17.0261 -5.2806 0.0000 28.0822 0.0000
# 6 0.0000 0.0000 0.0000 -7.1137 0.0000 46.8277
#
#
#
# Elastic Compliance Matrix: (Units=1/GPa)
#
#
# Indices 1 2 3 4 5 6 
#
# 1 0.007411 -0.000536 -0.002626 0.000000 0.008279 0.000000
# 2 -0.000536 0.012620 -0.002164 0.000000 0.006586 0.000000
# 3 -0.002626 -0.002164 0.032384 0.000000 0.001555 0.000000
# 4 0.000000 0.000000 0.000000 0.043652 0.000000 0.006631
# 5 0.008279 0.006586 0.001555 0.000000 0.050058 0.000000
# 6 0.000000 0.000000 0.000000 0.006631 0.000000 0.022362
#
#
# Mechanical properties :
#
#
# Convention : Reuss Voigt Hill
#
# Bulk Modulus (GPa) = 23.94423 46.56601 35.25512
# Shear Modulus (GPa) = 25.89860 36.42956 31.16408
#
# Velocity S-wave (km/s) = 3.33539 3.95581 3.65877
# Velocity P-wave (km/s) = 5.01183 6.39274 5.74393
#
# Compressibility (1/GPa) = 0.04176372
#
# Stress axis : x y z
#
# Youngs Moduli (GPa) = 134.92729 79.23806 30.87959
#
# Poissons Ratio (x) = 0.04251 0.08108
# Poissons Ratio (y) = 0.07239 0.06682
# Poissons Ratio (z) = 0.35427 0.17145
#
# Static dielectric constant tensor:
#      x y z
#    x 4.220820 0.000000 -0.270270 
#    y 0.000000 4.299400 0.000000 
#    z -0.270270 0.000000 3.896840 
# 
# 
# High freq. dielectric constant tensor:
#      x y z
#    x 1.934850 0.000000 -0.013120 
#    y 0.000000 1.908400 0.000000 
#    z -0.013120 0.000000 1.899850 
# 
# From -- ./inp_files/125420.got.cif
#   From: 2010.06.25/outbox.cif.g09.slc.cpg/sg15_63_cif.got.tgz:125420.got - 2010.06.28 07:06:18.
