data_PCOD8139415
_publ_section_title
;
Structure prediction by ZEFSAII (Michael W. Deem and Ramdas Pophale) SiO2 
 PCOD8139415
Probable space group: C 2/C
;
_chemical_formula_sum "Si O2"
_cell_formula_units_Z 48
_cell_length_a 8.904094
_cell_length_b 9.531846
_cell_length_c 27.675226
_cell_angle_alpha 90.000000
_cell_angle_beta 95.693350
_cell_angle_gamma 90.000000
_cell_volume 2337.277577
_symmetry_space_group_name_H-M "C 2/C"
_symmetry_group_IT_number 15
_symmetry_cell_setting 'monoclinic'
loop_
_space_group_symop_operation_xyz
x,y,z
-x,y,1/2-z
-x,-y,-z
x,-y,1/2+z
1/2+x,1/2+y,z
1/2-x,1/2+y,1/2-z
1/2-x,1/2-y,-z
1/2+x,1/2-y,1/2+z
loop_
_atom_site_type_symbol
_atom_site_label
_atom_site_fract_x
_atom_site_fract_y
_atom_site_fract_z
Si Si1 0.784282 0.840882 0.311365
Si Si2 0.165464 0.953423 0.519142
Si Si3 0.326984 0.148591 0.937207
Si Si4 0.397285 0.746675 0.645672
Si Si5 0.676115 0.886487 0.762318
Si Si6 0.622441 0.048522 0.896118
O O1 0.756590 0.694438 0.282207
O O2 0.661756 0.859345 0.350029
O O3 0.951081 0.839840 0.339117
O O4 0.771146 0.971841 0.273863
O O5 0.273849 0.964804 0.475453
O O6 0.157579 0.795909 0.536604
O O7 0.231816 0.048893 0.564208
O O8 0.000000 0.000000 0.500000
O O9 0.205453 0.147197 0.890292
O O10 0.488367 0.116566 0.920887
O O11 0.307299 0.781104 0.691953
O O12 0.431457 0.892862 0.619728
O O13 0.500000 0.925226 0.750000
#
# Coordination Sequence:
#
# PCOD8139415 Si02
#       6
#     8   8   8   8   8   8
#     4  10  20  39  62  83 116 155 195 243 296 352
#     4  10  21  37  58  85 117 152 194 238 285 345
#     4  10  21  37  57  83 117 152 189 239 290 340
#     4   9  20  38  56  80 115 152 190 237 290 346
#     4   9  20  38  57  83 117 149 190 245 295 347
#     4  10  21  37  58  86 117 152 195 241 290 346
#
# _framework density 20.536712000000001
#
# number of rings (size 3 to 8) (size 9 to 14) (size 15 to 20)
#    0.000    2.333    0.000    1.500    0.000    6.000 
#    0.000   19.167    0.000    0.000    0.000    0.000 
#    0.000    0.000    0.000    0.000    0.000    0.000 
#
# Total GULP energy -297600.157479 kJ/mol
# GULP energy per Si atom -12400.006562 kJ/mol
# Density = 2.048997 g / cm^3
# Si number density = 20.536712 Si / 1000 Ang^3
#
#
#
# Elastic Constant Matrix: (Units=GPa)
#
#
# Indices 1 2 3 4 5 6 
#
# 1 113.9896 62.9302 67.7398 0.0000 -3.0625 0.0000
# 2 62.9302 53.4790 40.4405 0.0000 10.7386 0.0000
# 3 67.7398 40.4405 121.9176 0.0000 11.8881 0.0000
# 4 0.0000 0.0000 0.0000 26.4149 0.0000 1.1548
# 5 -3.0625 10.7386 11.8881 0.0000 37.0220 0.0000
# 6 0.0000 0.0000 0.0000 1.1548 0.0000 28.6967
#
#
#
# Elastic Compliance Matrix: (Units=1/GPa)
#
#
# Indices 1 2 3 4 5 6 
#
# 1 0.036207 -0.039489 -0.008700 0.000000 0.017243 0.000000
# 2 -0.039489 0.068857 0.001411 0.000000 -0.023692 0.000000
# 3 -0.008700 0.001411 0.013088 0.000000 -0.005332 0.000000
# 4 0.000000 0.000000 0.000000 0.037924 0.000000 -0.001526
# 5 0.017243 -0.023692 -0.005332 0.000000 0.037021 0.000000
# 6 0.000000 0.000000 0.000000 -0.001526 0.000000 0.034909
#
#
# Mechanical properties :
#
#
# Convention : Reuss Voigt Hill
#
# Bulk Modulus (GPa) = 40.65707 70.17859 55.41783
# Shear Modulus (GPa) = 15.16255 26.31176 20.73716
#
# Velocity S-wave (km/s) = 2.72014 3.58328 3.18112
# Velocity P-wave (km/s) = 5.45030 7.16703 6.36679
#
# Compressibility (1/GPa) = 0.02459597
#
# Stress axis : x y z
#
# Youngs Moduli (GPa) = 27.61932 14.52286 76.40625
#
# Poissons Ratio (x) = 0.57349 0.66472
# Poissons Ratio (y) = 1.09065 -0.10780
# Poissons Ratio (z) = 0.24028 -0.02049
#
# Static dielectric constant tensor:
#      x y z
#    x 3.538170 0.000000 0.143590 
#    y 0.000000 3.580840 0.000000 
#    z 0.143590 0.000000 4.203040 
# 
# 
# High freq. dielectric constant tensor:
#      x y z
#    x 1.793650 0.000000 0.009220 
#    y 0.000000 1.783140 0.000000 
#    z 0.009220 0.000000 1.828920 
# 
# From -- ./inp_files/306681.got.cif
#   From: 2010.06.25/outbox.cif.g09.slc.cpg/sg15_154_cif.got.tgz:306681.got - 2010.06.28 07:06:18.
