data_PCOD8139821
_publ_section_title
;
Structure prediction by ZEFSAII (Michael W. Deem and Ramdas Pophale) SiO2 
 PCOD8139821
Probable space group: C 2/C
;
_chemical_formula_sum "Si O2"
_cell_formula_units_Z 48
_cell_length_a 14.176611
_cell_length_b 28.542642
_cell_length_c 9.166651
_cell_angle_alpha 90.000000
_cell_angle_beta 137.307877
_cell_angle_gamma 90.000000
_cell_volume 2515.037913
_symmetry_space_group_name_H-M "C 2/C"
_symmetry_group_IT_number 15
_symmetry_cell_setting 'monoclinic'
loop_
_space_group_symop_operation_xyz
x,y,z
-x,y,1/2-z
-x,-y,-z
x,-y,1/2+z
1/2+x,1/2+y,z
1/2-x,1/2+y,1/2-z
1/2-x,1/2-y,-z
1/2+x,1/2-y,1/2+z
loop_
_atom_site_type_symbol
_atom_site_label
_atom_site_fract_x
_atom_site_fract_y
_atom_site_fract_z
Si Si1 0.634252 0.718018 0.807171
Si Si2 0.142524 0.889364 0.995379
Si Si3 0.396241 0.947579 0.760436
Si Si4 0.402667 0.050787 0.773184
Si Si5 0.643895 0.390310 0.336938
Si Si6 0.353622 0.280698 0.518757
O O1 0.500000 0.730573 0.750000
O O2 0.675445 0.664493 0.881842
O O3 0.628667 0.732077 0.631000
O O4 0.750000 0.750000 0.000000
O O5 0.269898 0.918729 0.075503
O O6 0.130814 0.903721 0.152076
O O7 0.182443 0.835558 0.010521
O O8 0.000000 0.902650 0.750000
O O9 0.500000 0.956349 0.750000
O O10 0.265336 0.916593 0.562836
O O11 0.348053 0.999168 0.764237
O O12 0.496587 0.923150 0.994931
O O13 0.500000 0.042914 0.750000
O O14 0.500000 0.403907 0.250000
O O15 0.500000 0.268514 0.750000
O O16 0.250000 0.250000 0.500000
#
# Coordination Sequence:
#
# PCOD8139821 Si02
#       6
#     8   8   8   8   8   8
#     4  10  21  39  59  86 116 150 196 244 292 348
#     4  10  22  40  59  85 119 153 195 242 289 351
#     4  10  20  40  61  83 120 154 195 246 290 344
#     4  10  22  38  59  88 118 154 195 242 295 345
#     4  10  22  39  61  85 115 157 196 240 293 344
#     4  10  21  39  60  83 117 155 192 241 295 350
#
# _framework density 19.0852
#
# number of rings (size 3 to 8) (size 9 to 14) (size 15 to 20)
#    0.000    2.000    1.667    1.000    2.333    3.333 
#    3.000    1.667    0.000    0.000    0.000    0.000 
#    0.000    0.000    0.000    0.000    0.000    0.000 
#
# Total GULP energy -297332.964948 kJ/mol
# GULP energy per Si atom -12388.873539 kJ/mol
# Density = 1.904176 g / cm^3
# Si number density = 19.085200 Si / 1000 Ang^3
#
#
#
# Elastic Constant Matrix: (Units=GPa)
#
#
# Indices 1 2 3 4 5 6 
#
# 1 115.4563 57.0531 57.2147 0.0000 6.6084 0.0000
# 2 57.0531 74.3943 71.8546 0.0000 18.2615 0.0000
# 3 57.2147 71.8546 179.3173 0.0000 9.5408 0.0000
# 4 0.0000 0.0000 0.0000 41.1332 0.0000 7.0240
# 5 6.6084 18.2615 9.5408 0.0000 33.9424 0.0000
# 6 0.0000 0.0000 0.0000 7.0240 0.0000 26.6659
#
#
#
# Elastic Compliance Matrix: (Units=1/GPa)
#
#
# Indices 1 2 3 4 5 6 
#
# 1 0.014317 -0.011852 -0.000010 0.000000 0.003592 0.000000
# 2 -0.011852 0.035213 -0.009587 0.000000 -0.013943 0.000000
# 3 -0.000010 -0.009587 0.009286 0.000000 0.002550 0.000000
# 4 0.000000 0.000000 0.000000 0.025456 0.000000 -0.006705
# 5 0.003592 -0.013943 0.002550 0.000000 0.035547 0.000000
# 6 0.000000 0.000000 0.000000 -0.006705 0.000000 0.039267
#
#
# Mechanical properties :
#
#
# Convention : Reuss Voigt Hill
#
# Bulk Modulus (GPa) = 62.81959 82.37919 72.59939
# Shear Modulus (GPa) = 24.12059 32.55135 28.33597
#
# Velocity S-wave (km/s) = 3.55891 4.13435 3.85737
# Velocity P-wave (km/s) = 7.06219 8.12700 7.61323
#
# Compressibility (1/GPa) = 0.01591860
#
# Stress axis : x y z
#
# Youngs Moduli (GPa) = 69.84520 28.39829 107.69010
#
# Poissons Ratio (x) = 0.33657 0.00109
# Poissons Ratio (y) = 0.82780 1.03242
# Poissons Ratio (z) = 0.00071 0.27225
#
# Static dielectric constant tensor:
#      x y z
#    x 3.501820 0.000000 -0.009310 
#    y 0.000000 3.430050 0.000000 
#    z -0.009310 0.000000 3.731780 
# 
# 
# High freq. dielectric constant tensor:
#      x y z
#    x 1.748550 0.000000 -0.007480 
#    y 0.000000 1.733680 0.000000 
#    z -0.007480 0.000000 1.758040 
# 
# From -- ./inp_files/33785.got.cif
#   From: 2010.06.25/outbox.cif.g09.slc.cpg/sg15_17_cif.got.tgz:33785.got - 2010.06.28 07:06:18.
