data_PCOD8139263
_publ_section_title
;
Structure prediction by ZEFSAII (Michael W. Deem and Ramdas Pophale) SiO2 
 PCOD8139263
Probable space group: C 2/C
;
_chemical_formula_sum "Si O2"
_cell_formula_units_Z 44
_cell_length_a 28.242921
_cell_length_b 12.173486
_cell_length_c 16.571316
_cell_angle_alpha 90.000000
_cell_angle_beta 158.855919
_cell_angle_gamma 90.000000
_cell_volume 2055.157660
_symmetry_space_group_name_H-M "C 2/C"
_symmetry_group_IT_number 15
_symmetry_cell_setting 'monoclinic'
loop_
_space_group_symop_operation_xyz
x,y,z
-x,y,1/2-z
-x,-y,-z
x,-y,1/2+z
1/2+x,1/2+y,z
1/2-x,1/2+y,1/2-z
1/2-x,1/2-y,-z
1/2+x,1/2-y,1/2+z
loop_
_atom_site_type_symbol
_atom_site_label
_atom_site_fract_x
_atom_site_fract_y
_atom_site_fract_z
Si Si1 0.139740 0.944736 0.709255
Si Si2 0.602837 0.090443 0.799756
Si Si3 0.000000 0.770304 0.750000
Si Si4 0.502754 0.231253 0.006518
Si Si5 0.677387 0.636075 0.662869
Si Si6 0.030164 0.631962 0.386263
O O1 0.112361 0.816834 0.654403
O O2 0.193975 0.008821 0.717137
O O3 0.247716 0.956680 0.953543
O O4 0.000000 0.000000 0.500000
O O5 0.594274 0.193713 0.846709
O O6 0.567093 0.131970 0.653434
O O7 0.497804 0.998198 0.658171
O O8 0.919413 0.853084 0.565883
O O9 0.624790 0.285242 0.152001
O O10 0.554913 0.184597 0.175486
O O11 0.820601 0.667440 0.859682
O O12 0.000000 0.681448 0.250000
#
# Coordination Sequence:
#
# PCOD8139263 Si02
#       6
#     8   8   4   8   8   8
#     4  10  20  39  60  88 127 163 208 270 315 375
#     4  11  20  41  65  92 123 169 223 262 319 383
#     4  10  20  38  70  88 118 170 218 272 300 382
#     4  10  24  40  66  95 125 174 220 266 320 388
#     4  10  22  41  64  97 130 166 224 266 323 377
#     4  12  23  40  65  95 135 171 209 272 326 388
#
# _framework density 21.409549999999999
#
# number of rings (size 3 to 8) (size 9 to 14) (size 15 to 20)
#    0.000    1.455    2.727    2.182    0.000    5.091 
#    1.636    0.000    0.000    0.000    0.000    0.000 
#    0.000    0.000    0.000    0.000    0.000    0.000 
#
# Total GULP energy -272579.658107 kJ/mol
# GULP energy per Si atom -12389.984459 kJ/mol
# Density = 2.136082 g / cm^3
# Si number density = 21.409550 Si / 1000 Ang^3
#
#
#
# Elastic Constant Matrix: (Units=GPa)
#
#
# Indices 1 2 3 4 5 6 
#
# 1 114.2034 42.8752 40.6912 0.0000 -26.0392 0.0000
# 2 42.8752 72.0851 47.6192 0.0000 -10.5065 0.0000
# 3 40.6912 47.6192 127.7555 0.0000 -4.2331 0.0000
# 4 0.0000 0.0000 0.0000 24.1516 0.0000 -10.7852
# 5 -26.0392 -10.5065 -4.2331 0.0000 33.9487 0.0000
# 6 0.0000 0.0000 0.0000 -10.7852 0.0000 24.3656
#
#
#
# Elastic Compliance Matrix: (Units=1/GPa)
#
#
# Indices 1 2 3 4 5 6 
#
# 1 0.013409 -0.005466 -0.001957 0.000000 0.008350 0.000000
# 2 -0.005466 0.021467 -0.006205 0.000000 0.001677 0.000000
# 3 -0.001957 -0.006205 0.010694 0.000000 -0.002088 0.000000
# 4 0.000000 0.000000 0.000000 0.051606 0.000000 0.022843
# 5 0.008350 0.001677 -0.002088 0.000000 0.036119 0.000000
# 6 0.000000 0.000000 0.000000 0.022843 0.000000 0.051153
#
#
# Mechanical properties :
#
#
# Convention : Reuss Voigt Hill
#
# Bulk Modulus (GPa) = 54.60017 64.04613 59.32315
# Shear Modulus (GPa) = 22.95580 28.68375 25.81978
#
# Velocity S-wave (km/s) = 3.27803 3.66425 3.47651
# Velocity P-wave (km/s) = 6.31549 6.91968 6.62448
#
# Compressibility (1/GPa) = 0.01831496
#
# Stress axis : x y z
#
# Youngs Moduli (GPa) = 74.57426 46.58284 93.50658
#
# Poissons Ratio (x) = 0.25462 0.18299
# Poissons Ratio (y) = 0.40762 0.58021
# Poissons Ratio (z) = 0.14594 0.28905
#
# Static dielectric constant tensor:
#      x y z
#    x 3.977910 0.000000 0.019070 
#    y 0.000000 4.167430 0.000000 
#    z 0.019070 0.000000 3.851730 
# 
# 
# High freq. dielectric constant tensor:
#      x y z
#    x 1.836010 0.000000 0.000200 
#    y 0.000000 1.833940 0.000000 
#    z 0.000200 0.000000 1.839510 
# 
# From -- ./inp_files/142252.got.cif
#   From: 2010.06.25/outbox.cif.g09.slc.cpg/sg15_72_cif.got.tgz:142252.got - 2010.06.28 07:06:18.
