data_PCOD8139656
_publ_section_title
;
Structure prediction by ZEFSAII (Michael W. Deem and Ramdas Pophale) SiO2 
 PCOD8139656
Probable space group: C 2/C
;
_chemical_formula_sum "Si O2"
_cell_formula_units_Z 28
_cell_length_a 7.111033
_cell_length_b 13.622961
_cell_length_c 16.511043
_cell_angle_alpha 90.000000
_cell_angle_beta 124.170679
_cell_angle_gamma 90.000000
_cell_volume 1323.358447
_symmetry_space_group_name_H-M "C 2/C"
_symmetry_group_IT_number 15
_symmetry_cell_setting 'monoclinic'
loop_
_space_group_symop_operation_xyz
x,y,z
-x,y,1/2-z
-x,-y,-z
x,-y,1/2+z
1/2+x,1/2+y,z
1/2-x,1/2+y,1/2-z
1/2-x,1/2-y,-z
1/2+x,1/2-y,1/2+z
loop_
_atom_site_type_symbol
_atom_site_label
_atom_site_fract_x
_atom_site_fract_y
_atom_site_fract_z
Si Si1 0.568177 0.662448 0.892891
Si Si2 0.008653 0.221678 0.049942
Si Si3 0.808156 0.349160 0.760876
Si Si4 0.000000 0.999334 0.750000
O O1 0.405384 0.752464 0.827412
O O2 0.495207 0.564302 0.829663
O O3 0.830525 0.685317 0.933670
O O4 0.536258 0.645632 0.981300
O O5 0.087785 0.175360 0.153377
O O6 0.750000 0.250000 0.000000
O O7 0.726119 0.431103 0.804845
O O8 0.000000 0.396075 0.750000
#
# Coordination Sequence:
#
# PCOD8139656 Si02
#       4
#     8   8   8   4
#     4  10  22  42  62  91 130 158 207 264 301 366
#     4  10  20  39  66  90 125 166 202 259 311 360
#     4  10  22  42  60  94 126 159 215 255 301 384
#     4  12  22  40  70  88 124 174 200 254 322 356
#
# _framework density 21.158287999999999
#
# number of rings (size 3 to 8) (size 9 to 14) (size 15 to 20)
#    0.000    1.714    4.286    1.714    0.000    3.429 
#    2.571   20.000    0.000    0.000    0.000    0.000 
#    0.000    0.000    0.000    0.000    0.000    0.000 
#
# Total GULP energy -173552.465333 kJ/mol
# GULP energy per Si atom -12396.604667 kJ/mol
# Density = 2.111013 g / cm^3
# Si number density = 21.158288 Si / 1000 Ang^3
#
#
#
# Elastic Constant Matrix: (Units=GPa)
#
#
# Indices 1 2 3 4 5 6 
#
# 1 96.7661 44.7615 19.2534 0.0000 30.6581 0.0000
# 2 44.7615 100.2547 23.5152 0.0000 12.3301 0.0000
# 3 19.2534 23.5152 104.2196 0.0000 13.9389 0.0000
# 4 0.0000 0.0000 0.0000 5.8010 0.0000 2.3197
# 5 30.6581 12.3301 13.9389 0.0000 39.7700 0.0000
# 6 0.0000 0.0000 0.0000 2.3197 0.0000 32.2917
#
#
#
# Elastic Compliance Matrix: (Units=1/GPa)
#
#
# Indices 1 2 3 4 5 6 
#
# 1 0.016606 -0.006020 -0.000259 0.000000 -0.010844 0.000000
# 2 -0.006020 0.012967 -0.001990 0.000000 0.001318 0.000000
# 3 -0.000259 -0.001990 0.010474 0.000000 -0.002854 0.000000
# 4 0.000000 0.000000 0.000000 0.177484 0.000000 -0.012750
# 5 -0.010844 0.001318 -0.002854 0.000000 0.034096 0.000000
# 6 0.000000 0.000000 0.000000 -0.012750 0.000000 0.031884
#
#
# Mechanical properties :
#
#
# Convention : Reuss Voigt Hill
#
# Bulk Modulus (GPa) = 42.53675 52.92228 47.72952
# Shear Modulus (GPa) = 16.23987 29.81988 23.02987
#
# Velocity S-wave (km/s) = 2.77346 3.75823 3.30276
# Velocity P-wave (km/s) = 5.51397 6.62565 6.09521
#
# Compressibility (1/GPa) = 0.02350908
#
# Stress axis : x y z
#
# Youngs Moduli (GPa) = 60.21891 77.11907 95.47702
#
# Poissons Ratio (x) = 0.46424 0.02475
# Poissons Ratio (y) = 0.36250 0.18999
# Poissons Ratio (z) = 0.01561 0.15346
#
# Static dielectric constant tensor:
#      x y z
#    x 4.072160 0.000000 -0.127450 
#    y 0.000000 3.498780 0.000000 
#    z -0.127450 0.000000 4.113380 
# 
# 
# High freq. dielectric constant tensor:
#      x y z
#    x 1.845480 0.000000 -0.005010 
#    y 0.000000 1.793010 0.000000 
#    z -0.005010 0.000000 1.839780 
# 
# From -- ./inp_files/229692.got.cif
#   From: 2010.06.25/outbox.cif.g09.slc.cpg/sg15_115_cif.got.tgz:229692.got - 2010.06.28 07:06:18.
