data_PCOD8139530
_publ_section_title
;
Structure prediction by ZEFSAII (Michael W. Deem and Ramdas Pophale) SiO2 
 PCOD8139530
Probable space group: C 2/C
;
_chemical_formula_sum "Si O2"
_cell_formula_units_Z 40
_cell_length_a 22.392061
_cell_length_b 9.597568
_cell_length_c 14.274359
_cell_angle_alpha 90.000000
_cell_angle_beta 39.087344
_cell_angle_gamma 90.000000
_cell_volume 1934.193787
_symmetry_space_group_name_H-M "C 2/C"
_symmetry_group_IT_number 15
_symmetry_cell_setting 'monoclinic'
loop_
_space_group_symop_operation_xyz
x,y,z
-x,y,1/2-z
-x,-y,-z
x,-y,1/2+z
1/2+x,1/2+y,z
1/2-x,1/2+y,1/2-z
1/2-x,1/2-y,-z
1/2+x,1/2-y,1/2+z
loop_
_atom_site_type_symbol
_atom_site_label
_atom_site_fract_x
_atom_site_fract_y
_atom_site_fract_z
Si Si1 0.801857 0.120282 0.779272
Si Si2 0.506832 0.338731 0.009957
Si Si3 0.188911 0.871360 0.870484
Si Si4 0.242944 0.970152 0.489108
Si Si5 0.913512 0.740903 0.781657
O O1 0.742916 0.226896 0.787581
O O2 0.901472 0.202935 0.669035
O O3 0.803538 0.967948 0.730258
O O4 0.755360 0.093926 0.936822
O O5 0.500000 0.500000 0.000000
O O6 0.579071 0.321441 0.009491
O O7 0.541061 0.253875 0.876644
O O8 0.229634 0.954876 0.907177
O O9 0.150667 0.874263 0.616169
O O10 0.343760 0.892112 0.369604
O O11 0.000000 0.725207 0.750000
#
# Coordination Sequence:
#
# PCOD8139530 Si02
#       5
#     8   8   8   8   8
#     4  11  24  42  65  97 128 172 224 264 339 388
#     4  10  20  39  63  95 119 172 221 260 319 389
#     4  11  23  42  65  91 135 168 216 280 315 402
#     4  11  24  40  64  97 130 177 216 272 335 386
#     4  11  22  39  67  96 132 167 225 269 327 393
#
# _framework density 20.680451000000001
#
# number of rings (size 3 to 8) (size 9 to 14) (size 15 to 20)
#    0.000    1.200    4.000    4.200    5.600    0.000 
#    3.600    2.000    0.000    0.000    0.000    0.000 
#    0.000    0.000    0.000    0.000    0.000    0.000 
#
# Total GULP energy -247830.775584 kJ/mol
# GULP energy per Si atom -12391.538779 kJ/mol
# Density = 2.063338 g / cm^3
# Si number density = 20.680451 Si / 1000 Ang^3
#
#
#
# Elastic Constant Matrix: (Units=GPa)
#
#
# Indices 1 2 3 4 5 6 
#
# 1 142.7575 46.2485 35.4970 0.0000 -31.4582 0.0000
# 2 46.2485 69.4782 37.8698 0.0003 -20.4930 -0.0003
# 3 35.4970 37.8698 89.8579 0.0000 -16.9815 0.0000
# 4 0.0000 0.0003 0.0000 26.9272 -0.0001 0.2800
# 5 -31.4582 -20.4930 -16.9815 -0.0001 42.7632 0.0001
# 6 0.0000 -0.0003 0.0000 0.2800 0.0001 34.5286
#
#
#
# Elastic Compliance Matrix: (Units=1/GPa)
#
#
# Indices 1 2 3 4 5 6 
#
# 1 0.009755 -0.004566 -0.001067 0.000000 0.004565 0.000000
# 2 -0.004566 0.022536 -0.006798 0.000000 0.004742 0.000000
# 3 -0.001067 -0.006798 0.014759 0.000000 0.001818 0.000000
# 4 0.000000 0.000000 0.000000 0.037140 0.000000 -0.000301
# 5 0.004565 0.004742 0.001818 0.000000 0.029737 0.000000
# 6 0.000000 0.000000 0.000000 -0.000301 0.000000 0.028964
#
#
# Mechanical properties :
#
#
# Convention : Reuss Voigt Hill
#
# Bulk Modulus (GPa) = 45.06758 60.14711 52.60735
# Shear Modulus (GPa) = 28.54730 33.00902 30.77816
#
# Velocity S-wave (km/s) = 3.71940 3.99951 3.86200
# Velocity P-wave (km/s) = 6.34704 7.10460 6.73648
#
# Compressibility (1/GPa) = 0.02218890
#
# Stress axis : x y z
#
# Youngs Moduli (GPa) = 102.50991 44.37348 67.75696
#
# Poissons Ratio (x) = 0.20260 0.07228
# Poissons Ratio (y) = 0.46803 0.46060
# Poissons Ratio (z) = 0.10936 0.30165
#
# Static dielectric constant tensor:
#      x y z
#    x 5.185130 0.000000 -1.418310 
#    y 0.000000 3.624870 0.000000 
#    z -1.418310 0.000000 5.017990 
# 
# 
# High freq. dielectric constant tensor:
#      x y z
#    x 1.829160 0.000000 -0.014480 
#    y 0.000000 1.796530 0.000000 
#    z -0.014480 0.000000 1.802730 
# 
# From -- ./inp_files/160199.got.cif
#   From: 2010.06.25/outbox.cif.g09.slc.cpg/sg15_81_cif.got.tgz:160199.got - 2010.06.28 07:06:18.
