data_PCOD8139287
_publ_section_title
;
Structure prediction by ZEFSAII (Michael W. Deem and Ramdas Pophale) SiO2 
 PCOD8139287
Probable space group: C 2/C
;
_chemical_formula_sum "Si O2"
_cell_formula_units_Z 48
_cell_length_a 23.324219
_cell_length_b 9.515258
_cell_length_c 12.086834
_cell_angle_alpha 90.000000
_cell_angle_beta 103.241926
_cell_angle_gamma 90.000000
_cell_volume 2611.179517
_symmetry_space_group_name_H-M "C 2/C"
_symmetry_group_IT_number 15
_symmetry_cell_setting 'monoclinic'
loop_
_space_group_symop_operation_xyz
x,y,z
-x,y,1/2-z
-x,-y,-z
x,-y,1/2+z
1/2+x,1/2+y,z
1/2-x,1/2+y,1/2-z
1/2-x,1/2-y,-z
1/2+x,1/2-y,1/2+z
loop_
_atom_site_type_symbol
_atom_site_label
_atom_site_fract_x
_atom_site_fract_y
_atom_site_fract_z
Si Si1 0.134686 0.509974 0.566450
Si Si2 0.203470 0.214953 0.072945
Si Si3 0.238387 0.324071 0.665782
Si Si4 0.416806 0.788735 0.104979
Si Si5 0.319154 0.591665 0.005069
Si Si6 0.535794 0.893097 0.169039
O O1 0.152198 0.668753 0.545516
O O2 0.184767 0.433151 0.661116
O O3 0.124147 0.420441 0.450788
O O4 0.072171 0.509306 0.603109
O O5 0.233938 0.214313 0.205275
O O6 0.173950 0.066219 0.033771
O O7 0.250000 0.250000 0.000000
O O8 0.285607 0.399842 0.607278
O O9 0.216399 0.178857 0.602590
O O10 0.484005 0.801371 0.085432
O O11 0.419190 0.792149 0.241111
O O12 0.385949 0.647032 0.049742
O O13 0.500000 0.982409 0.250000
#
# Coordination Sequence:
#
# PCOD8139287 Si02
#       6
#     8   8   8   8   8   8
#     4  11  19  35  56  82 111 143 184 242 270 333
#     4  12  24  33  53  90 117 145 188 234 277 336
#     4  10  22  36  56  77 116 156 185 218 290 339
#     4   8  19  35  58  77 101 147 185 222 281 329
#     4  10  20  39  55  78 115 154 183 225 282 350
#     4   8  19  34  60  79 103 142 199 231 271 336
#
# _framework density 18.382497000000001
#
# number of rings (size 3 to 8) (size 9 to 14) (size 15 to 20)
#    1.000    1.000    1.667    2.500    2.333    0.000 
#    0.000    0.833    0.000    4.000    0.000    0.000 
#    0.000    0.000    0.000    0.000    0.000    0.000 
#
# Total GULP energy -297347.078963 kJ/mol
# GULP energy per Si atom -12389.461623 kJ/mol
# Density = 1.834066 g / cm^3
# Si number density = 18.382497 Si / 1000 Ang^3
#
#
#
# Elastic Constant Matrix: (Units=GPa)
#
#
# Indices 1 2 3 4 5 6 
#
# 1 109.9949 43.7903 35.8804 0.0000 3.4393 0.0000
# 2 43.7903 122.2252 37.8122 0.0000 11.6527 0.0000
# 3 35.8804 37.8122 95.6644 0.0000 14.1798 0.0000
# 4 0.0000 0.0000 0.0000 12.5765 0.0000 -1.8116
# 5 3.4393 11.6527 14.1798 0.0000 36.6681 0.0000
# 6 0.0000 0.0000 0.0000 -1.8116 0.0000 24.7357
#
#
#
# Elastic Compliance Matrix: (Units=1/GPa)
#
#
# Indices 1 2 3 4 5 6 
#
# 1 0.011364 -0.003203 -0.003171 0.000000 0.001178 0.000000
# 2 -0.003203 0.010317 -0.002583 0.000000 -0.001979 0.000000
# 3 -0.003171 -0.002583 0.013258 0.000000 -0.004008 0.000000
# 4 0.000000 0.000000 0.000000 0.080361 0.000000 0.005885
# 5 0.001178 -0.001979 -0.004008 0.000000 0.029340 0.000000
# 6 0.000000 0.000000 0.000000 0.005885 0.000000 0.040858
#
#
# Mechanical properties :
#
#
# Convention : Reuss Voigt Hill
#
# Bulk Modulus (GPa) = 58.73808 62.53890 60.63849
# Shear Modulus (GPa) = 23.91346 28.82283 26.36814
#
# Velocity S-wave (km/s) = 3.61069 3.96403 3.79148
# Velocity P-wave (km/s) = 7.02890 7.41931 7.22674
#
# Compressibility (1/GPa) = 0.01702473
#
# Stress axis : x y z
#
# Youngs Moduli (GPa) = 87.99791 96.92787 75.42776
#
# Poissons Ratio (x) = 0.31044 0.23917
# Poissons Ratio (y) = 0.28184 0.19485
# Poissons Ratio (z) = 0.27903 0.25039
#
# Static dielectric constant tensor:
#      x y z
#    x 3.469760 0.000000 0.120810 
#    y 0.000000 3.256280 0.000000 
#    z 0.120810 0.000000 3.388430 
# 
# 
# High freq. dielectric constant tensor:
#      x y z
#    x 1.713350 0.000000 0.012220 
#    y 0.000000 1.688060 0.000000 
#    z 0.012220 0.000000 1.712750 
# 
# From -- ./inp_files/121159.got.cif
#   From: 2010.06.25/outbox.cif.g09.slc.cpg/sg15_61_cif.got.tgz:121159.got - 2010.06.28 07:06:18.
