data_PCOD8139116
_publ_section_title
;
Structure prediction by ZEFSAII (Michael W. Deem and Ramdas Pophale) SiO2 
 PCOD8139116
Probable space group: C 2/C
;
_chemical_formula_sum "Si O2"
_cell_formula_units_Z 64
_cell_length_a 10.440084
_cell_length_b 16.053194
_cell_length_c 20.337590
_cell_angle_alpha 90.000000
_cell_angle_beta 68.329797
_cell_angle_gamma 90.000000
_cell_volume 3167.615295
_symmetry_space_group_name_H-M "C 2/C"
_symmetry_group_IT_number 15
_symmetry_cell_setting 'monoclinic'
loop_
_space_group_symop_operation_xyz
x,y,z
-x,y,1/2-z
-x,-y,-z
x,-y,1/2+z
1/2+x,1/2+y,z
1/2-x,1/2+y,1/2-z
1/2-x,1/2-y,-z
1/2+x,1/2-y,1/2+z
loop_
_atom_site_type_symbol
_atom_site_label
_atom_site_fract_x
_atom_site_fract_y
_atom_site_fract_z
Si Si1 0.359867 0.487948 0.952089
Si Si2 0.686406 0.276680 0.834683
Si Si3 0.423839 0.379453 0.055771
Si Si4 0.420293 0.062000 0.468758
Si Si5 0.424647 0.367110 0.829514
Si Si6 0.684993 0.248760 0.322934
Si Si7 0.553620 0.875343 0.671363
Si Si8 0.881922 0.265673 0.018432
O O1 0.500664 0.539814 0.929072
O O2 0.361438 0.444407 0.880963
O O3 0.332809 0.417697 0.013705
O O4 0.238721 0.554616 0.981665
O O5 0.539481 0.318551 0.848801
O O6 0.747540 0.227401 0.760437
O O7 0.791308 0.345461 0.844055
O O8 0.661233 0.212193 0.898594
O O9 0.338597 0.332408 0.129534
O O10 0.525086 0.315753 0.000972
O O11 0.445157 0.052375 0.385166
O O12 0.468343 0.156093 0.475265
O O13 0.500000 0.000000 0.500000
O O14 0.500000 0.401336 0.750000
O O15 0.293940 0.309115 0.839388
O O16 0.541348 0.202097 0.334601
O O17 0.500000 0.914898 0.750000
O O18 0.750000 0.250000 0.000000
#
# Coordination Sequence:
#
# PCOD8139116 Si02
#       8
#     8   8   8   8   8   8   8   8
#     4  11  24  39  60  94 128 165 209 256 319 372
#     4  10  20  38  67  92 119 166 211 257 315 376
#     4  11  22  39  64  90 123 167 210 257 308 381
#     4  12  25  40  62  97 129 160 214 269 313 373
#     4  10  22  41  63  92 129 165 204 261 324 376
#     4  10  21  39  64  94 121 161 219 257 304 385
#     4  10  20  38  65  91 123 168 210 256 319 382
#     4  12  20  40  65  87 122 164 212 260 311 372
#
# _framework density 20.204474000000001
#
# number of rings (size 3 to 8) (size 9 to 14) (size 15 to 20)
#    0.000    1.250    5.000    0.750    1.750    1.500 
#    2.250    1.250    0.000    0.000    0.000    0.000 
#    0.000    0.000    0.000    0.000    0.000    0.000 
#
# Total GULP energy -396620.303841 kJ/mol
# GULP energy per Si atom -12394.384495 kJ/mol
# Density = 2.015849 g / cm^3
# Si number density = 20.204474 Si / 1000 Ang^3
#
#
#
# Elastic Constant Matrix: (Units=GPa)
#
#
# Indices 1 2 3 4 5 6 
#
# 1 77.9393 13.6497 22.0867 0.0000 11.1327 0.0000
# 2 13.6497 80.5012 54.5124 0.0000 9.9844 0.0000
# 3 22.0867 54.5124 180.0037 0.0000 14.8802 0.0000
# 4 0.0000 0.0000 0.0000 37.4660 0.0000 0.5458
# 5 11.1327 9.9844 14.8802 0.0000 28.9650 0.0000
# 6 0.0000 0.0000 0.0000 0.5458 0.0000 25.0239
#
#
#
# Elastic Compliance Matrix: (Units=1/GPa)
#
#
# Indices 1 2 3 4 5 6 
#
# 1 0.013949 -0.001136 -0.000999 0.000000 -0.004456 0.000000
# 2 -0.001136 0.015988 -0.004473 0.000000 -0.002777 0.000000
# 3 -0.000999 -0.004473 0.007178 0.000000 -0.001762 0.000000
# 4 0.000000 0.000000 0.000000 0.026699 0.000000 -0.000582
# 5 -0.004456 -0.002777 -0.001762 0.000000 0.038100 0.000000
# 6 0.000000 0.000000 0.000000 -0.000582 0.000000 0.039974
#
#
# Mechanical properties :
#
#
# Convention : Reuss Voigt Hill
#
# Bulk Modulus (GPa) = 41.84186 57.66020 49.75103
# Shear Modulus (GPa) = 30.66144 34.83734 32.74939
#
# Velocity S-wave (km/s) = 3.89981 4.15690 4.03041
# Velocity P-wave (km/s) = 6.40564 7.18610 6.80706
#
# Compressibility (1/GPa) = 0.02389951
#
# Stress axis : x y z
#
# Youngs Moduli (GPa) = 71.68905 62.54675 139.30944
#
# Poissons Ratio (x) = 0.07104 0.13920
# Poissons Ratio (y) = 0.08143 0.62312
# Poissons Ratio (z) = 0.07163 0.27977
#
# Static dielectric constant tensor:
#      x y z
#    x 3.887630 0.000000 -0.001860 
#    y 0.000000 3.218060 0.000000 
#    z -0.001860 0.000000 4.170920 
# 
# 
# High freq. dielectric constant tensor:
#      x y z
#    x 1.794910 0.000000 0.006250 
#    y 0.000000 1.753800 0.000000 
#    z 0.006250 0.000000 1.813040 
# 
# From -- ./inp_files/238730.got.cif
#   From: 2010.06.25/outbox.cif.g09.slc.cpg/sg15_120_cif.got.tgz:238730.got - 2010.06.28 07:06:18.
