data_PCOD8139074
_publ_section_title
;
Structure prediction by ZEFSAII (Michael W. Deem and Ramdas Pophale) SiO2 
 PCOD8139074
Probable space group: C 2/C
;
_chemical_formula_sum "Si O2"
_cell_formula_units_Z 48
_cell_length_a 26.102861
_cell_length_b 13.737323
_cell_length_c 9.602236
_cell_angle_alpha 90.000000
_cell_angle_beta 36.724744
_cell_angle_gamma 90.000000
_cell_volume 2058.936593
_symmetry_space_group_name_H-M "C 2/C"
_symmetry_group_IT_number 15
_symmetry_cell_setting 'monoclinic'
loop_
_space_group_symop_operation_xyz
x,y,z
-x,y,1/2-z
-x,-y,-z
x,-y,1/2+z
1/2+x,1/2+y,z
1/2-x,1/2+y,1/2-z
1/2-x,1/2-y,-z
1/2+x,1/2-y,1/2+z
loop_
_atom_site_type_symbol
_atom_site_label
_atom_site_fract_x
_atom_site_fract_y
_atom_site_fract_z
Si Si1 0.766411 0.046642 0.677151
Si Si2 0.368549 0.826345 0.893861
Si Si3 0.000000 0.545354 0.250000
Si Si4 0.966944 0.857425 0.111362
Si Si5 0.367620 0.896220 0.599455
Si Si6 0.626192 0.530925 0.310739
Si Si7 0.000000 0.754091 0.750000
O O1 0.843172 0.026974 0.619005
O O2 0.711700 0.946156 0.807156
O O3 0.796406 0.071213 0.454379
O O4 0.710943 0.143722 0.834573
O O5 0.451802 0.890363 0.741619
O O6 0.403003 0.715613 0.833640
O O7 0.334267 0.848493 0.814187
O O8 0.935432 0.481640 0.483473
O O9 0.991756 0.817633 0.905401
O O10 0.915744 0.956281 0.206410
O O11 0.056112 0.884109 0.999641
O O12 0.415190 0.812088 0.407404
#
# Coordination Sequence:
#
# PCOD8139074 Si02
#       7
#     8   8   4   8   8   8   4
#     4  11  22  41  65  98 129 170 210 273 331 376
#     4  10  20  38  64  94 126 168 218 266 315 385
#     4   9  18  30  61  90 130 164 213 254 324 385
#     4  10  23  42  66  91 126 177 221 258 321 398
#     4   9  18  36  62  93 128 168 210 263 327 383
#     4  11  24  43  67  91 131 173 216 264 329 388
#     4   9  18  40  65  96 122 170 221 266 310 393
#
# _framework density 23.313006999999999
#
# number of rings (size 3 to 8) (size 9 to 14) (size 15 to 20)
#    0.000    2.000    1.667    1.500    0.000    5.333 
#    3.000    0.833    0.000    0.000    0.000    0.000 
#    0.000    0.000    0.000    0.000    0.000    0.000 
#
# Total GULP energy -297425.242582 kJ/mol
# GULP energy per Si atom -12392.718441 kJ/mol
# Density = 2.325995 g / cm^3
# Si number density = 23.313007 Si / 1000 Ang^3
#
#
#
# Elastic Constant Matrix: (Units=GPa)
#
#
# Indices 1 2 3 4 5 6 
#
# 1 55.5805 6.9529 10.6700 0.0000 -14.6574 0.0000
# 2 6.9529 90.6465 29.9253 0.0000 -9.6590 0.0000
# 3 10.6700 29.9253 84.7663 0.0000 -1.5427 0.0000
# 4 0.0000 0.0000 0.0000 25.5583 0.0000 -7.1179
# 5 -14.6574 -9.6590 -1.5427 0.0000 35.6596 0.0000
# 6 0.0000 0.0000 0.0000 -7.1179 0.0000 30.1077
#
#
#
# Elastic Compliance Matrix: (Units=1/GPa)
#
#
# Indices 1 2 3 4 5 6 
#
# 1 0.020677 0.000137 -0.002498 0.000000 0.008428 0.000000
# 2 0.000137 0.012863 -0.004497 0.000000 0.003346 0.000000
# 3 -0.002498 -0.004497 0.013669 0.000000 -0.001653 0.000000
# 4 0.000000 0.000000 0.000000 0.041884 0.000000 0.009902
# 5 0.008428 0.003346 -0.001653 0.000000 0.032342 0.000000
# 6 0.000000 0.000000 0.000000 0.009902 0.000000 0.035555
#
#
# Mechanical properties :
#
#
# Convention : Reuss Voigt Hill
#
# Bulk Modulus (GPa) = 29.85773 36.23217 33.04495
# Shear Modulus (GPa) = 27.49222 30.49480 28.99351
#
# Velocity S-wave (km/s) = 3.43777 3.62063 3.53039
# Velocity P-wave (km/s) = 5.34722 5.74926 5.55188
#
# Compressibility (1/GPa) = 0.03349216
#
# Stress axis : x y z
#
# Youngs Moduli (GPa) = 48.36326 77.74499 73.15771
#
# Poissons Ratio (x) = -0.01062 0.18271
# Poissons Ratio (y) = -0.00661 0.32901
# Poissons Ratio (z) = 0.12079 0.34964
#
# Static dielectric constant tensor:
#      x y z
#    x 3.859450 0.000000 -0.223210 
#    y 0.000000 4.238890 0.000000 
#    z -0.223210 0.000000 4.318530 
# 
# 
# High freq. dielectric constant tensor:
#      x y z
#    x 1.902900 0.000000 -0.006150 
#    y 0.000000 1.914820 0.000000 
#    z -0.006150 0.000000 1.930620 
# 
# From -- ./inp_files/66534.got.cif
#   From: 2010.06.25/outbox.cif.g09.slc.cpg/sg15_34_cif.got.tgz:66534.got - 2010.06.28 07:06:18.
