data_PCOD8139311
_publ_section_title
;
Structure prediction by ZEFSAII (Michael W. Deem and Ramdas Pophale) SiO2 
 PCOD8139311
Probable space group: C 2/C
;
_chemical_formula_sum "Si O2"
_cell_formula_units_Z 56
_cell_length_a 27.747507
_cell_length_b 10.355987
_cell_length_c 9.384640
_cell_angle_alpha 90.000000
_cell_angle_beta 108.335519
_cell_angle_gamma 90.000000
_cell_volume 2559.792921
_symmetry_space_group_name_H-M "C 2/C"
_symmetry_group_IT_number 15
_symmetry_cell_setting 'monoclinic'
loop_
_space_group_symop_operation_xyz
x,y,z
-x,y,1/2-z
-x,-y,-z
x,-y,1/2+z
1/2+x,1/2+y,z
1/2-x,1/2+y,1/2-z
1/2-x,1/2-y,-z
1/2+x,1/2-y,1/2+z
loop_
_atom_site_type_symbol
_atom_site_label
_atom_site_fract_x
_atom_site_fract_y
_atom_site_fract_z
Si Si1 0.274746 0.612727 0.350250
Si Si2 0.955070 0.745574 0.314874
Si Si3 0.109688 0.875059 0.601747
Si Si4 0.531078 0.915191 0.420554
Si Si5 0.114335 0.384390 0.948422
Si Si6 0.055488 0.979611 0.802295
Si Si7 0.269426 0.901936 0.390554
O O1 0.332354 0.583065 0.362676
O O2 0.260691 0.762887 0.306029
O O3 0.238903 0.517770 0.227451
O O4 0.268747 0.583953 0.512477
O O5 0.962272 0.720053 0.490043
O O6 0.903193 0.674184 0.219447
O O7 0.951132 0.897119 0.305581
O O8 0.000000 0.691867 0.250000
O O9 0.100793 0.725003 0.553771
O O10 0.075940 0.971840 0.473613
O O11 0.094479 0.886599 0.754276
O O12 0.500000 0.888138 0.250000
O O13 0.500000 0.000000 0.500000
O O14 0.585591 0.981238 0.446985
O O15 0.173734 0.412299 0.996181
O O16 0.000000 0.912094 0.750000
#
# Coordination Sequence:
#
# PCOD8139311 Si02
#       7
#     8   8   8   8   8   8   8
#     4  10  22  43  65  92 125 167 212 264 325 375
#     4  10  20  39  59  84 124 160 196 246 302 359
#     4  10  21  41  62  85 123 161 199 251 309 367
#     4  12  21  37  59  85 121 162 196 240 301 367
#     4  10  21  37  61  86 125 157 201 251 310 355
#     4  10  21  39  62  89 119 161 202 248 298 364
#     4  10  23  40  66  93 125 166 214 270 316 378
#
# _framework density 21.87677
#
# number of rings (size 3 to 8) (size 9 to 14) (size 15 to 20)
#    0.000    1.714    2.857    1.286    2.000    1.714 
#    2.571    0.714    0.000    0.000    0.000    0.000 
#    0.000    0.000    0.000    0.000    0.000    0.000 
#
# Total GULP energy -347148.428721 kJ/mol
# GULP energy per Si atom -12398.158169 kJ/mol
# Density = 2.182698 g / cm^3
# Si number density = 21.876770 Si / 1000 Ang^3
#
#
#
# Elastic Constant Matrix: (Units=GPa)
#
#
# Indices 1 2 3 4 5 6 
#
# 1 112.2177 25.3139 28.5057 0.0000 5.4571 0.0000
# 2 25.3139 70.2019 38.2969 0.0000 4.3700 0.0000
# 3 28.5057 38.2969 100.5846 0.0000 6.1082 0.0000
# 4 0.0000 0.0000 0.0000 29.7306 0.0000 4.8291
# 5 5.4571 4.3700 6.1082 0.0000 33.9920 0.0000
# 6 0.0000 0.0000 0.0000 4.8291 0.0000 18.3812
#
#
#
# Elastic Compliance Matrix: (Units=1/GPa)
#
#
# Indices 1 2 3 4 5 6 
#
# 1 0.009992 -0.002563 -0.001798 0.000000 -0.000952 0.000000
# 2 -0.002563 0.018677 -0.006333 0.000000 -0.000852 0.000000
# 3 -0.001798 -0.006333 0.012937 0.000000 -0.001222 0.000000
# 4 0.000000 0.000000 0.000000 0.035135 0.000000 -0.009231
# 5 -0.000952 -0.000852 -0.001222 0.000000 0.029901 0.000000
# 6 0.000000 0.000000 0.000000 -0.009231 0.000000 0.056828
#
#
# Mechanical properties :
#
#
# Convention : Reuss Voigt Hill
#
# Bulk Modulus (GPa) = 49.46153 51.91523 50.68838
# Shear Modulus (GPa) = 26.09646 29.14662 27.62154
#
# Velocity S-wave (km/s) = 3.45756 3.65404 3.55716
# Velocity P-wave (km/s) = 6.21272 6.44864 6.33178
#
# Compressibility (1/GPa) = 0.02021773
#
# Stress axis : x y z
#
# Youngs Moduli (GPa) = 100.07541 53.54307 77.29818
#
# Poissons Ratio (x) = 0.13723 0.13900
# Poissons Ratio (y) = 0.25649 0.48952
# Poissons Ratio (z) = 0.17996 0.33908
#
# Static dielectric constant tensor:
#      x y z
#    x 3.964880 0.000000 -0.001160 
#    y 0.000000 4.219190 0.000000 
#    z -0.001160 0.000000 3.888100 
# 
# 
# High freq. dielectric constant tensor:
#      x y z
#    x 1.858630 0.000000 0.002270 
#    y 0.000000 1.858550 0.000000 
#    z 0.002270 0.000000 1.852900 
# 
# From -- ./inp_files/65539.got.cif
#   From: 2010.06.25/outbox.cif.g09.slc.cpg/sg15_33_cif.got.tgz:65539.got - 2010.06.28 07:06:18.
