data_PCOD8139408
_publ_section_title
;
Structure prediction by ZEFSAII (Michael W. Deem and Ramdas Pophale) SiO2 
 PCOD8139408
Probable space group: C 2/C
;
_chemical_formula_sum "Si O2"
_cell_formula_units_Z 48
_cell_length_a 16.596362
_cell_length_b 19.134253
_cell_length_c 19.956297
_cell_angle_alpha 90.000000
_cell_angle_beta 158.808172
_cell_angle_gamma 90.000000
_cell_volume 2290.881202
_symmetry_space_group_name_H-M "C 2/C"
_symmetry_group_IT_number 15
_symmetry_cell_setting 'monoclinic'
loop_
_space_group_symop_operation_xyz
x,y,z
-x,y,1/2-z
-x,-y,-z
x,-y,1/2+z
1/2+x,1/2+y,z
1/2-x,1/2+y,1/2-z
1/2-x,1/2-y,-z
1/2+x,1/2-y,1/2+z
loop_
_atom_site_type_symbol
_atom_site_label
_atom_site_fract_x
_atom_site_fract_y
_atom_site_fract_z
Si Si1 0.822760 0.346990 0.222269
Si Si2 0.879266 0.494740 0.223078
Si Si3 0.268199 0.714959 0.084963
Si Si4 0.032041 0.091467 0.613204
Si Si5 0.283332 0.169971 0.039093
Si Si6 0.732724 0.448217 0.398100
O O1 0.822493 0.412667 0.171357
O O2 0.764993 0.274939 0.139895
O O3 0.645433 0.365347 0.141896
O O4 0.068114 0.338162 0.445730
O O5 0.000000 0.522969 0.250000
O O6 0.054165 0.503093 0.419823
O O7 0.651264 0.537594 0.058690
O O8 0.500000 0.673433 0.250000
O O9 0.250000 0.750000 0.000000
O O10 0.211301 0.052150 0.800386
O O11 0.927551 0.148037 0.581129
O O12 0.500000 0.153496 0.250000
O O13 0.250000 0.250000 0.000000
O O14 0.288652 0.128054 0.973122
O O15 0.500000 0.476869 0.250000
#
# Coordination Sequence:
#
# PCOD8139408 Si02
#       6
#     8   8   8   8   8   8
#     4  11  25  41  69  98 129 170 213 287 342 372
#     4  12  21  43  68  93 133 181 219 264 329 399
#     4   9  20  46  65  90 124 162 225 265 319 408
#     4  11  23  42  60 101 138 164 220 274 326 391
#     4  11  20  37  62  91 129 180 216 257 315 395
#     4  10  20  39  61  91 131 173 224 258 307 405
#
# _framework density 20.952635999999998
#
# number of rings (size 3 to 8) (size 9 to 14) (size 15 to 20)
#    0.000    1.333    5.000    3.500    0.000    4.000 
#   12.000    0.000    0.000    0.000    0.000    0.000 
#    0.000    0.000    0.000    0.000    0.000    0.000 
#
# Total GULP energy -297350.081513 kJ/mol
# GULP energy per Si atom -12389.586730 kJ/mol
# Density = 2.090495 g / cm^3
# Si number density = 20.952636 Si / 1000 Ang^3
#
#
#
# Elastic Constant Matrix: (Units=GPa)
#
#
# Indices 1 2 3 4 5 6 
#
# 1 93.6671 17.4505 34.4880 -0.0081 5.0443 0.0596
# 2 17.4505 92.4829 26.9639 0.1594 12.9838 0.0470
# 3 34.4880 26.9639 134.9275 0.3515 -4.0262 0.0453
# 4 -0.0081 0.1594 0.3515 31.6204 -0.0135 0.8856
# 5 5.0443 12.9838 -4.0262 -0.0135 29.4194 0.0533
# 6 0.0596 0.0470 0.0453 0.8856 0.0533 26.6053
#
#
#
# Elastic Compliance Matrix: (Units=1/GPa)
#
#
# Indices 1 2 3 4 5 6 
#
# 1 0.012069 -0.001153 -0.002913 0.000041 -0.001959 -0.000017
# 2 -0.001153 0.012516 -0.002375 -0.000039 -0.005651 -0.000003
# 3 -0.002913 -0.002375 0.008713 -0.000084 0.002740 -0.000007
# 4 0.000041 -0.000039 -0.000084 0.031656 0.000015 -0.001054
# 5 -0.001959 -0.005651 0.002740 0.000015 0.037196 -0.000065
# 6 -0.000017 -0.000003 -0.000007 -0.001054 -0.000065 0.037622
#
#
# Mechanical properties :
#
#
# Convention : Reuss Voigt Hill
#
# Bulk Modulus (GPa) = 48.98198 53.20916 51.09557
# Shear Modulus (GPa) = 31.35598 33.67402 32.51500
#
# Velocity S-wave (km/s) = 3.87268 4.01328 3.94361
# Velocity P-wave (km/s) = 6.58977 6.85020 6.72125
#
# Compressibility (1/GPa) = 0.02041567
#
# Stress axis : x y z
#
# Youngs Moduli (GPa) = 82.85688 79.89590 114.77640
#
# Poissons Ratio (x) = 0.09212 0.33435
# Poissons Ratio (y) = 0.09553 0.27260
# Poissons Ratio (z) = 0.24136 0.18976
#
# Static dielectric constant tensor:
#      x y z
#    x 3.598780 0.000720 -0.150850 
#    y 0.000720 3.171610 0.002160 
#    z -0.150850 0.002160 4.639490 
# 
# 
# High freq. dielectric constant tensor:
#      x y z
#    x 1.801770 -0.000020 -0.000880 
#    y -0.000020 1.811730 -0.000100 
#    z -0.000880 -0.000100 1.842210 
# 
# From -- ./inp_files/216285.got.cif
#   From: 2010.06.25/outbox.cif.g09.slc.cpg/sg15_109_cif.got.tgz:216285.got - 2010.06.28 07:06:18.
