data_PCOD8139936
_publ_section_title
;
Structure prediction by ZEFSAII (Michael W. Deem and Ramdas Pophale) SiO2 
 PCOD8139936
Probable space group: C 2/C
;
_chemical_formula_sum "Si O2"
_cell_formula_units_Z 60
_cell_length_a 14.337519
_cell_length_b 24.948337
_cell_length_c 16.186340
_cell_angle_alpha 90.000000
_cell_angle_beta 148.661338
_cell_angle_gamma 90.000000
_cell_volume 3011.254188
_symmetry_space_group_name_H-M "C 2/C"
_symmetry_group_IT_number 15
_symmetry_cell_setting 'monoclinic'
loop_
_space_group_symop_operation_xyz
x,y,z
-x,y,1/2-z
-x,-y,-z
x,-y,1/2+z
1/2+x,1/2+y,z
1/2-x,1/2+y,1/2-z
1/2-x,1/2-y,-z
1/2+x,1/2-y,1/2+z
loop_
_atom_site_type_symbol
_atom_site_label
_atom_site_fract_x
_atom_site_fract_y
_atom_site_fract_z
Si Si1 0.042113 0.580888 0.875509
Si Si2 0.334016 0.810177 0.978408
Si Si3 0.797477 0.016617 0.593024
Si Si4 0.000000 0.248182 0.250000
Si Si5 0.322720 0.212963 0.162604
Si Si6 0.951688 0.306901 0.514327
Si Si7 0.768149 0.410176 0.311252
Si Si8 0.906094 0.120962 0.593150
O O1 0.164750 0.625514 0.012766
O O2 0.000000 0.597910 0.750000
O O3 0.858938 0.576854 0.791406
O O4 0.153005 0.526290 0.954710
O O5 0.388999 0.786437 0.107319
O O6 0.136108 0.790579 0.803678
O O7 0.473463 0.788101 0.017052
O O8 0.737902 0.035794 0.639222
O O9 0.796339 0.066057 0.527049
O O10 0.000000 0.992643 0.750000
O O11 0.500000 0.232107 0.250000
O O12 0.380392 0.191365 0.295916
O O13 0.196746 0.264509 0.070322
O O14 0.228907 0.165742 0.040542
O O15 0.872598 0.366227 0.445467
O O16 0.563321 0.388830 0.143673
O O17 0.000000 0.138776 0.750000
#
# Coordination Sequence:
#
# PCOD8139936 Si02
#       8
#     8   8   8   4   8   8   8   8
#     4  11  22  38  59  91 117 153 200 247 295 359
#     4  10  22  40  59  87 113 156 192 244 293 346
#     4   9  20  39  62  83 114 154 199 248 303 351
#     4  10  20  40  64  78 116 146 196 236 298 342
#     4  12  23  36  58  90 123 162 198 242 300 365
#     4  11  23  36  55  88 121 155 200 240 293 359
#     4   9  20  41  60  81 119 160 197 249 301 350
#     4   9  20  41  61  86 118 160 200 249 302 356
#
# _framework density 19.925253000000001
#
# number of rings (size 3 to 8) (size 9 to 14) (size 15 to 20)
#    0.000    2.133    0.667    4.000    0.933    5.333 
#    2.400    2.667    0.000    0.000    0.000    0.000 
#    0.000    0.000    0.000    0.000    0.000    0.000 
#
# Total GULP energy -371894.770149 kJ/mol
# GULP energy per Si atom -12396.492338 kJ/mol
# Density = 1.987990 g / cm^3
# Si number density = 19.925253 Si / 1000 Ang^3
#
#
#
# Elastic Constant Matrix: (Units=GPa)
#
#
# Indices 1 2 3 4 5 6 
#
# 1 117.0796 46.6598 37.7975 0.0000 17.4271 0.0000
# 2 46.6598 90.8934 51.7896 0.0000 9.9229 0.0000
# 3 37.7975 51.7896 82.5591 0.0000 10.2465 0.0000
# 4 0.0000 0.0000 0.0000 20.1969 0.0000 9.8487
# 5 17.4271 9.9229 10.2465 0.0000 34.2763 0.0000
# 6 0.0000 0.0000 0.0000 9.8487 0.0000 27.2571
#
#
#
# Elastic Compliance Matrix: (Units=1/GPa)
#
#
# Indices 1 2 3 4 5 6 
#
# 1 0.011518 -0.004287 -0.002089 0.000000 -0.003991 0.000000
# 2 -0.004287 0.018826 -0.009805 0.000000 -0.000339 0.000000
# 3 -0.002089 -0.009805 0.019457 0.000000 -0.001916 0.000000
# 4 0.000000 0.000000 0.000000 0.060102 0.000000 -0.021717
# 5 -0.003991 -0.000339 -0.001916 0.000000 0.031875 0.000000
# 6 0.000000 0.000000 0.000000 -0.021717 0.000000 0.044535
#
#
# Mechanical properties :
#
#
# Convention : Reuss Voigt Hill
#
# Bulk Modulus (GPa) = 57.33847 62.55843 59.94845
# Shear Modulus (GPa) = 22.27289 26.63173 24.45231
#
# Velocity S-wave (km/s) = 3.34701 3.65990 3.50694
# Velocity P-wave (km/s) = 6.61634 7.02314 6.82277
#
# Compressibility (1/GPa) = 0.01744030
#
# Stress axis : x y z
#
# Youngs Moduli (GPa) = 86.82078 53.11679 51.39445
#
# Poissons Ratio (x) = 0.22771 0.10735
# Poissons Ratio (y) = 0.37220 0.50393
# Poissons Ratio (z) = 0.18134 0.52081
#
# Static dielectric constant tensor:
#      x y z
#    x 3.847650 0.000000 0.230160 
#    y 0.000000 3.526470 0.000000 
#    z 0.230160 0.000000 3.704670 
# 
# 
# High freq. dielectric constant tensor:
#      x y z
#    x 1.788190 0.000000 0.016130 
#    y 0.000000 1.774050 0.000000 
#    z 0.016130 0.000000 1.765000 
# 
# From -- ./inp_files/207255.got.cif
#   From: 2010.06.25/outbox.cif.g09.slc.cpg/sg15_104_cif.got.tgz:207255.got - 2010.06.28 07:06:18.
