data_PCOD8139267
_publ_section_title
;
Structure prediction by ZEFSAII (Michael W. Deem and Ramdas Pophale) SiO2 
 PCOD8139267
Probable space group: C 2/C
;
_chemical_formula_sum "Si O2"
_cell_formula_units_Z 44
_cell_length_a 29.129300
_cell_length_b 8.784034
_cell_length_c 15.919830
_cell_angle_alpha 90.000000
_cell_angle_beta 30.046548
_cell_angle_gamma 90.000000
_cell_volume 2039.590730
_symmetry_space_group_name_H-M "C 2/C"
_symmetry_group_IT_number 15
_symmetry_cell_setting 'monoclinic'
loop_
_space_group_symop_operation_xyz
x,y,z
-x,y,1/2-z
-x,-y,-z
x,-y,1/2+z
1/2+x,1/2+y,z
1/2-x,1/2+y,1/2-z
1/2-x,1/2-y,-z
1/2+x,1/2-y,1/2+z
loop_
_atom_site_type_symbol
_atom_site_label
_atom_site_fract_x
_atom_site_fract_y
_atom_site_fract_z
Si Si1 0.707839 0.116041 0.010628
Si Si2 0.490154 0.003972 0.114662
Si Si3 0.500000 0.466369 0.250000
Si Si4 0.865571 0.736174 0.537354
Si Si5 0.855451 0.935083 0.703278
Si Si6 0.007242 0.163218 0.083838
O O1 0.778385 0.974176 0.894766
O O2 0.750000 0.250000 0.000000
O O3 0.611644 0.059254 0.199573
O O4 0.704450 0.160821 0.916939
O O5 0.561349 0.114439 0.046078
O O6 0.515250 0.834670 0.105872
O O7 0.500000 0.000000 0.000000
O O8 0.413190 0.365079 0.407307
O O9 0.467247 0.565144 0.223243
O O10 0.815654 0.820888 0.694512
O O11 0.937235 0.841029 0.616984
O O12 0.895737 0.092658 0.600235
#
# Coordination Sequence:
#
# PCOD8139267 Si02
#       6
#     8   8   4   8   8   8
#     4  12  26  42  69 102 140 181 229 284 343 402
#     4  12  24  44  73  98 135 178 235 287 346 410
#     4  10  20  38  70  92 126 178 226 270 336 418
#     4  11  23  46  67  97 136 183 225 282 349 413
#     4  10  23  44  67  93 138 175 226 278 341 415
#     4  10  22  41  68  98 128 181 226 274 348 406
#
# _framework density 21.572955
#
# number of rings (size 3 to 8) (size 9 to 14) (size 15 to 20)
#    0.000    1.091    3.636    2.182    5.091    3.636 
#    3.273    0.000    0.000    0.000    0.000    0.000 
#    0.000    0.000    0.000    0.000    0.000    0.000 
#
# Total GULP energy -272746.419763 kJ/mol
# GULP energy per Si atom -12397.564535 kJ/mol
# Density = 2.152385 g / cm^3
# Si number density = 21.572955 Si / 1000 Ang^3
#
#
#
# Elastic Constant Matrix: (Units=GPa)
#
#
# Indices 1 2 3 4 5 6 
#
# 1 100.4687 29.1256 38.8389 0.0000 9.2743 0.0000
# 2 29.1256 125.9766 46.0918 -0.0002 0.1028 0.0000
# 3 38.8389 46.0918 91.1481 0.0000 3.7262 0.0000
# 4 0.0000 -0.0002 0.0000 22.4829 0.0000 -0.5604
# 5 9.2743 0.1028 3.7262 0.0000 30.2064 0.0000
# 6 0.0000 0.0000 0.0000 -0.5604 0.0000 22.0210
#
#
#
# Elastic Compliance Matrix: (Units=1/GPa)
#
#
# Indices 1 2 3 4 5 6 
#
# 1 0.012347 -0.001197 -0.004524 0.000000 -0.003229 0.000000
# 2 -0.001197 0.009866 -0.004516 0.000000 0.000891 0.000000
# 3 -0.004524 -0.004516 0.015202 0.000000 -0.000471 0.000000
# 4 0.000000 0.000000 0.000000 0.044507 0.000000 0.001133
# 5 -0.003229 0.000891 -0.000471 0.000000 0.034152 0.000000
# 6 0.000000 0.000000 0.000000 0.001133 0.000000 0.045440
#
#
# Mechanical properties :
#
#
# Convention : Reuss Voigt Hill
#
# Bulk Modulus (GPa) = 59.02455 60.63399 59.82927
# Shear Modulus (GPa) = 26.64767 28.51119 27.57943
#
# Velocity S-wave (km/s) = 3.51840 3.63935 3.57939
# Velocity P-wave (km/s) = 6.62762 6.76959 6.69898
#
# Compressibility (1/GPa) = 0.01694210
#
# Stress axis : x y z
#
# Youngs Moduli (GPa) = 80.98975 101.35741 65.78276
#
# Poissons Ratio (x) = 0.12130 0.29761
# Poissons Ratio (y) = 0.09693 0.29704
# Poissons Ratio (z) = 0.36640 0.45768
#
# Static dielectric constant tensor:
#      x y z
#    x 4.103070 0.000000 0.197930 
#    y 0.000000 4.450550 0.000000 
#    z 0.197930 0.000000 3.854440 
# 
# 
# High freq. dielectric constant tensor:
#      x y z
#    x 1.851660 0.000000 0.016670 
#    y 0.000000 1.858200 0.000000 
#    z 0.016670 0.000000 1.838150 
# 
# From -- ./inp_files/176434.got.cif
#   From: 2010.06.25/outbox.cif.g09.slc.cpg/sg15_89_cif.got.tgz:176434.got - 2010.06.28 07:06:18.
