data_PCOD8139966
_publ_section_title
;
Structure prediction by ZEFSAII (Michael W. Deem and Ramdas Pophale) SiO2 
 PCOD8139966
Probable space group: C 2/C
;
_chemical_formula_sum "Si O2"
_cell_formula_units_Z 52
_cell_length_a 8.746911
_cell_length_b 28.085539
_cell_length_c 11.627025
_cell_angle_alpha 90.000000
_cell_angle_beta 119.968678
_cell_angle_gamma 90.000000
_cell_volume 2474.421580
_symmetry_space_group_name_H-M "C 2/C"
_symmetry_group_IT_number 15
_symmetry_cell_setting 'monoclinic'
loop_
_space_group_symop_operation_xyz
x,y,z
-x,y,1/2-z
-x,-y,-z
x,-y,1/2+z
1/2+x,1/2+y,z
1/2-x,1/2+y,1/2-z
1/2-x,1/2-y,-z
1/2+x,1/2-y,1/2+z
loop_
_atom_site_type_symbol
_atom_site_label
_atom_site_fract_x
_atom_site_fract_y
_atom_site_fract_z
Si Si1 0.957174 0.746019 0.601532
Si Si2 0.000000 0.382962 0.750000
Si Si3 0.989431 0.161030 0.502035
Si Si4 0.145464 0.064694 0.120287
Si Si5 0.688827 0.884164 0.264313
Si Si6 0.068070 0.968299 0.160005
Si Si7 0.142872 0.664759 0.519963
O O1 0.750000 0.750000 0.500000
O O2 0.000000 0.732772 0.750000
O O3 0.028555 0.798209 0.599448
O O4 0.058324 0.710036 0.553308
O O5 0.843961 0.419795 0.700375
O O6 0.988951 0.349824 0.632829
O O7 0.971139 0.112523 0.420527
O O8 0.837633 0.171829 0.539173
O O9 0.178551 0.157156 0.637521
O O10 0.115431 0.023846 0.205118
O O11 0.099209 0.035301 0.987516
O O12 0.500000 0.877280 0.250000
O O13 0.765132 0.936796 0.319950
O O14 0.662745 0.877930 0.118166
O O15 0.000000 0.943727 0.250000
#
# Coordination Sequence:
#
# PCOD8139966 Si02
#       7
#     8   4   8   8   8   8   8
#     4  12  27  43  67 100 138 172 222 278 335 395
#     4  10  22  40  64  92 132 160 220 268 320 384
#     4  10  22  44  68  90 130 176 217 269 324 396
#     4   9  21  39  61  91 124 161 214 264 314 386
#     4  11  22  41  67  97 129 170 217 273 326 384
#     4  10  20  40  64  90 125 170 217 258 322 388
#     4  11  23  43  66  95 127 174 221 264 322 398
#
# _framework density 21.015011000000001
#
# number of rings (size 3 to 8) (size 9 to 14) (size 15 to 20)
#    0.000    1.538    0.000    6.000    5.385    0.615 
#   11.077    1.538    0.000    0.000    0.000    0.000 
#    0.000    0.000    0.000    0.000    0.000    0.000 
#
# Total GULP energy -322133.868185 kJ/mol
# GULP energy per Si atom -12389.764161 kJ/mol
# Density = 2.096718 g / cm^3
# Si number density = 21.015011 Si / 1000 Ang^3
#
#
#
# Elastic Constant Matrix: (Units=GPa)
#
#
# Indices 1 2 3 4 5 6 
#
# 1 140.6760 50.5411 53.1250 0.0000 16.2755 0.0000
# 2 50.5411 142.4077 50.1642 0.0000 1.8643 0.0000
# 3 53.1250 50.1642 127.5433 0.0000 11.0969 0.0000
# 4 0.0000 0.0000 0.0000 6.1507 0.0000 -1.0398
# 5 16.2755 1.8643 11.0969 0.0000 33.1887 0.0000
# 6 0.0000 0.0000 0.0000 -1.0398 0.0000 23.1354
#
#
#
# Elastic Compliance Matrix: (Units=1/GPa)
#
#
# Indices 1 2 3 4 5 6 
#
# 1 0.009371 -0.002337 -0.002673 0.000000 -0.003570 0.000000
# 2 -0.002337 0.008747 -0.002599 0.000000 0.001524 0.000000
# 3 -0.002673 -0.002599 0.010145 0.000000 -0.001935 0.000000
# 4 0.000000 0.000000 0.000000 0.163829 0.000000 0.007363
# 5 -0.003570 0.001524 -0.001935 0.000000 0.032443 0.000000
# 6 0.000000 0.000000 0.000000 0.007363 0.000000 0.043555
#
#
# Mechanical properties :
#
#
# Convention : Reuss Voigt Hill
#
# Bulk Modulus (GPa) = 76.67072 79.80971 78.24021
# Shear Modulus (GPa) = 17.38178 29.61473 23.49826
#
# Velocity S-wave (km/s) = 2.87908 3.75803 3.34753
# Velocity P-wave (km/s) = 6.90037 7.54256 7.22860
#
# Compressibility (1/GPa) = 0.01304279
#
# Stress axis : x y z
#
# Youngs Moduli (GPa) = 106.71365 114.32025 98.57357
#
# Poissons Ratio (x) = 0.26721 0.26351
# Poissons Ratio (y) = 0.24943 0.25624
# Poissons Ratio (z) = 0.28527 0.29717
#
# Static dielectric constant tensor:
#      x y z
#    x 3.888190 0.000000 0.037610 
#    y 0.000000 3.994320 0.000000 
#    z 0.037610 0.000000 4.043440 
# 
# 
# High freq. dielectric constant tensor:
#      x y z
#    x 1.818560 0.000000 0.007450 
#    y 0.000000 1.834180 0.000000 
#    z 0.007450 0.000000 1.828600 
# 
# From -- ./inp_files/82321.got.cif
#   From: 2010.06.25/outbox.cif.g09.slc.cpg/sg15_42_cif.got.tgz:82321.got - 2010.06.28 07:06:18.
