data_PCOD8139154
_publ_section_title
;
Structure prediction by ZEFSAII (Michael W. Deem and Ramdas Pophale) SiO2 
 PCOD8139154
Probable space group: C 2/C
;
_chemical_formula_sum "Si O2"
_cell_formula_units_Z 60
_cell_length_a 14.368123
_cell_length_b 18.311029
_cell_length_c 10.850978
_cell_angle_alpha 90.000000
_cell_angle_beta 89.903679
_cell_angle_gamma 90.000000
_cell_volume 2854.835292
_symmetry_space_group_name_H-M "C 2/C"
_symmetry_group_IT_number 15
_symmetry_cell_setting 'monoclinic'
loop_
_space_group_symop_operation_xyz
x,y,z
-x,y,1/2-z
-x,-y,-z
x,-y,1/2+z
1/2+x,1/2+y,z
1/2-x,1/2+y,1/2-z
1/2-x,1/2-y,-z
1/2+x,1/2-y,1/2+z
loop_
_atom_site_type_symbol
_atom_site_label
_atom_site_fract_x
_atom_site_fract_y
_atom_site_fract_z
Si Si1 0.500000 0.781344 0.250000
Si Si2 0.889602 0.204777 0.070073
Si Si3 0.749552 0.699581 0.201716
Si Si4 0.230226 0.569655 0.458942
Si Si5 0.528102 0.952064 0.883780
Si Si6 0.781307 0.912565 0.451541
Si Si7 0.125298 0.659267 0.100554
Si Si8 0.195743 0.352996 0.202486
O O1 0.489518 0.727261 0.129768
O O2 0.588585 0.834526 0.236113
O O3 0.821050 0.202131 0.184978
O O4 0.877264 0.127983 0.996642
O O5 0.860212 0.268359 0.978318
O O6 0.718680 0.640012 0.100315
O O7 0.850728 0.679025 0.257443
O O8 0.747458 0.781297 0.146052
O O9 0.138641 0.554039 0.379010
O O10 0.298909 0.499794 0.448952
O O11 0.200086 0.584649 0.599349
O O12 0.500000 0.985976 0.750000
O O13 0.478511 0.873183 0.902087
O O14 0.500000 0.000000 0.000000
O O15 0.697726 0.900619 0.548639
O O16 0.751540 0.882226 0.319452
#
# Coordination Sequence:
#
# PCOD8139154 Si02
#       8
#     4   8   8   8   8   8   8   8
#     4  10  20  38  66  90 112 158 222 252 302 366
#     4  10  20  39  64  86 113 162 211 262 290 371
#     4  10  20  39  58  82 118 160 213 246 302 369
#     4  12  26  35  58  90 127 165 197 257 316 375
#     4  12  26  39  56  90 140 171 199 250 314 385
#     4  11  22  37  59  89 122 159 208 246 310 371
#     4  11  18  39  58  82 120 168 204 241 301 365
#     4  11  23  40  60  89 121 163 203 260 306 377
#
# _framework density 21.016974999999999
#
# number of rings (size 3 to 8) (size 9 to 14) (size 15 to 20)
#    0.000    1.067    6.667    2.000    5.600    0.000 
#    1.200    0.000    0.000    3.200    0.000    0.000 
#    2.000    0.000    0.000    0.000    0.000    0.000 
#
# Total GULP energy -371749.193027 kJ/mol
# GULP energy per Si atom -12391.639768 kJ/mol
# Density = 2.096914 g / cm^3
# Si number density = 21.016975 Si / 1000 Ang^3
#
#
#
# Elastic Constant Matrix: (Units=GPa)
#
#
# Indices 1 2 3 4 5 6 
#
# 1 14.6182 17.0934 12.6122 0.0000 1.0105 0.0000
# 2 17.0934 138.8916 48.4158 0.0000 -1.0462 0.0000
# 3 12.6122 48.4158 112.6894 0.0000 9.1935 0.0000
# 4 0.0000 0.0000 0.0000 36.4724 0.0000 -5.0615
# 5 1.0105 -1.0462 9.1935 0.0000 25.9188 0.0000
# 6 0.0000 0.0000 0.0000 -5.0615 0.0000 17.9592
#
#
#
# Elastic Compliance Matrix: (Units=1/GPa)
#
#
# Indices 1 2 3 4 5 6 
#
# 1 0.083033 -0.008276 -0.005608 0.000000 -0.001582 0.000000
# 2 -0.008276 0.009365 -0.003248 0.000000 0.001853 0.000000
# 3 -0.005608 -0.003248 0.011215 0.000000 -0.003890 0.000000
# 4 0.000000 0.000000 0.000000 0.028534 0.000000 0.008042
# 5 -0.001582 0.001853 -0.003890 0.000000 0.040098 0.000000
# 6 0.000000 0.000000 0.000000 0.008042 0.000000 0.057948
#
#
# Mechanical properties :
#
#
# Convention : Reuss Voigt Hill
#
# Bulk Modulus (GPa) = 14.42019 46.93801 30.67910
# Shear Modulus (GPa) = 17.38685 28.60862 22.99773
#
# Velocity S-wave (km/s) = 2.87936 3.69347 3.31153
# Velocity P-wave (km/s) = 4.23443 6.36952 5.40838
#
# Compressibility (1/GPa) = 0.06934721
#
# Stress axis : x y z
#
# Youngs Moduli (GPa) = 12.04341 106.78460 89.16917
#
# Poissons Ratio (x) = 0.88372 0.50010
# Poissons Ratio (y) = 0.09967 0.28965
# Poissons Ratio (z) = 0.06754 0.34687
#
# Static dielectric constant tensor:
#      x y z
#    x 3.758550 0.000000 0.468500 
#    y 0.000000 4.187690 0.000000 
#    z 0.468500 0.000000 4.238710 
# 
# 
# High freq. dielectric constant tensor:
#      x y z
#    x 1.771200 0.000000 0.014960 
#    y 0.000000 1.825630 0.000000 
#    z 0.014960 0.000000 1.842580 
# 
# From -- ./inp_files/105391.got.cif
#   From: 2010.06.25/outbox.cif.g09.slc.cpg/sg15_53_cif.got.tgz:105391.got - 2010.06.28 07:06:18.
