data_PCOD8139953
_publ_section_title
;
Structure prediction by ZEFSAII (Michael W. Deem and Ramdas Pophale) SiO2 
 PCOD8139953
Probable space group: C 2/C
;
_chemical_formula_sum "Si O2"
_cell_formula_units_Z 56
_cell_length_a 11.553313
_cell_length_b 22.044808
_cell_length_c 11.909748
_cell_angle_alpha 90.000000
_cell_angle_beta 72.961861
_cell_angle_gamma 90.000000
_cell_volume 2900.168689
_symmetry_space_group_name_H-M "C 2/C"
_symmetry_group_IT_number 15
_symmetry_cell_setting 'monoclinic'
loop_
_space_group_symop_operation_xyz
x,y,z
-x,y,1/2-z
-x,-y,-z
x,-y,1/2+z
1/2+x,1/2+y,z
1/2-x,1/2+y,1/2-z
1/2-x,1/2-y,-z
1/2+x,1/2-y,1/2+z
loop_
_atom_site_type_symbol
_atom_site_label
_atom_site_fract_x
_atom_site_fract_y
_atom_site_fract_z
Si Si1 0.874608 0.018015 0.980941
Si Si2 0.000000 0.075049 0.750000
Si Si3 0.175980 0.573710 0.594366
Si Si4 0.065209 0.610559 0.399757
Si Si5 0.289313 0.651147 0.752070
Si Si6 0.000000 0.481451 0.750000
Si Si7 0.216070 0.631477 0.029334
Si Si8 0.862085 0.718848 0.262209
O O1 0.905639 0.032513 0.842857
O O2 0.804524 0.077557 0.051011
O O3 0.797099 0.957100 0.013377
O O4 0.000000 0.000000 0.000000
O O5 0.081430 0.118266 0.806769
O O6 0.113562 0.608372 0.510808
O O7 0.194874 0.620033 0.693124
O O8 0.084777 0.521330 0.649854
O O9 0.092820 0.556223 0.304354
O O10 0.131387 0.669848 0.336993
O O11 0.920476 0.608753 0.436587
O O12 0.295725 0.722969 0.727441
O O13 0.255103 0.647203 0.892486
O O14 0.215457 0.690909 0.110730
O O15 0.000000 0.737846 0.250000
#
# Coordination Sequence:
#
# PCOD8139953 Si02
#       8
#     8   4   8   8   8   4   8   8
#     4  11  22  38  58  88 128 157 201 251 316 379
#     4  10  22  35  56  82 119 162 206 242 296 376
#     4  12  25  36  63  96 131 159 198 265 328 373
#     4  11  22  40  63  92 121 161 209 265 315 365
#     4  11  22  38  59  90 122 166 205 255 309 364
#     4  12  22  41  64  92 125 160 214 254 316 378
#     4  10  21  39  63  91 116 162 214 258 303 368
#     4  10  20  40  64  88 120 164 221 258 296 372
#
# _framework density 19.309221000000001
#
# number of rings (size 3 to 8) (size 9 to 14) (size 15 to 20)
#    0.000    1.143    5.714    1.714    4.000    1.714 
#    0.000    0.000    0.000    1.714    0.000    0.000 
#    0.000    0.000    0.000    0.000    0.000    0.000 
#
# Total GULP energy -346950.058470 kJ/mol
# GULP energy per Si atom -12391.073517 kJ/mol
# Density = 1.926527 g / cm^3
# Si number density = 19.309221 Si / 1000 Ang^3
#
#
#
# Elastic Constant Matrix: (Units=GPa)
#
#
# Indices 1 2 3 4 5 6 
#
# 1 56.9586 37.0525 38.4052 0.0000 8.8472 0.0000
# 2 37.0525 133.5064 53.6179 0.0000 7.1242 0.0000
# 3 38.4052 53.6179 77.4462 0.0000 -3.0300 0.0000
# 4 0.0000 0.0000 0.0000 27.7618 0.0000 -20.3167
# 5 8.8472 7.1242 -3.0300 0.0000 36.3850 0.0000
# 6 0.0000 0.0000 0.0000 -20.3167 0.0000 55.6559
#
#
#
# Elastic Compliance Matrix: (Units=1/GPa)
#
#
# Indices 1 2 3 4 5 6 
#
# 1 0.029148 -0.002428 -0.013075 0.000000 -0.007701 0.000000
# 2 -0.002428 0.010836 -0.006379 0.000000 -0.002063 0.000000
# 3 -0.013075 -0.006379 0.024064 0.000000 0.006432 0.000000
# 4 0.000000 0.000000 0.000000 0.049151 0.000000 0.017942
# 5 -0.007701 -0.002063 0.006432 0.000000 0.030296 0.000000
# 6 0.000000 0.000000 0.000000 0.017942 0.000000 0.024517
#
#
# Mechanical properties :
#
#
# Convention : Reuss Voigt Hill
#
# Bulk Modulus (GPa) = 49.29749 58.45139 53.87444
# Shear Modulus (GPa) = 22.87948 33.21625 28.04786
#
# Velocity S-wave (km/s) = 3.44597 4.15206 3.81539
# Velocity P-wave (km/s) = 6.43575 7.30227 6.88266
#
# Compressibility (1/GPa) = 0.02028501
#
# Stress axis : x y z
#
# Youngs Moduli (GPa) = 34.30777 92.28592 41.55598
#
# Poissons Ratio (x) = 0.22402 0.54334
# Poissons Ratio (y) = 0.08328 0.26508
# Poissons Ratio (z) = 0.44857 0.58868
#
# Static dielectric constant tensor:
#      x y z
#    x 3.846090 0.000000 -0.101050 
#    y 0.000000 3.632110 0.000000 
#    z -0.101050 0.000000 3.816470 
# 
# 
# High freq. dielectric constant tensor:
#      x y z
#    x 1.739930 0.000000 -0.018470 
#    y 0.000000 1.754390 0.000000 
#    z -0.018470 0.000000 1.753790 
# 
# From -- ./inp_files/88934.got.cif
#   From: 2010.06.25/outbox.cif.g09.slc.cpg/sg15_45_cif.got.tgz:88934.got - 2010.06.28 07:06:18.
