data_PCOD8139101
_publ_section_title
;
Structure prediction by ZEFSAII (Michael W. Deem and Ramdas Pophale) SiO2 
 PCOD8139101
Probable space group: C 2/C
;
_chemical_formula_sum "Si O2"
_cell_formula_units_Z 36
_cell_length_a 15.434096
_cell_length_b 19.182678
_cell_length_c 8.927356
_cell_angle_alpha 90.000000
_cell_angle_beta 33.324203
_cell_angle_gamma 90.000000
_cell_volume 1452.054236
_symmetry_space_group_name_H-M "C 2/C"
_symmetry_group_IT_number 15
_symmetry_cell_setting 'monoclinic'
loop_
_space_group_symop_operation_xyz
x,y,z
-x,y,1/2-z
-x,-y,-z
x,-y,1/2+z
1/2+x,1/2+y,z
1/2-x,1/2+y,1/2-z
1/2-x,1/2-y,-z
1/2+x,1/2-y,1/2+z
loop_
_atom_site_type_symbol
_atom_site_label
_atom_site_fract_x
_atom_site_fract_y
_atom_site_fract_z
Si Si1 0.000000 0.181769 0.250000
Si Si2 0.500000 0.859356 0.750000
Si Si3 0.000000 0.015495 0.750000
Si Si4 0.223543 0.616373 0.473943
Si Si5 0.574228 0.808336 0.952303
Si Si6 0.218640 0.961660 0.185507
O O1 0.117938 0.131898 0.166641
O O2 0.081554 0.229637 0.004578
O O3 0.429790 0.809816 0.721598
O O4 0.643165 0.906871 0.483927
O O5 0.903014 0.062612 0.770441
O O6 0.123290 0.967563 0.478395
O O7 0.225243 0.650962 0.304015
O O8 0.204208 0.534034 0.480441
O O9 0.080057 0.650448 0.769967
#
# Coordination Sequence:
#
# PCOD8139101 Si02
#       6
#     4   4   4   8   8   8
#     4  10  21  43  66  90 122 175 225 260 322 388
#     4  12  24  39  65 100 137 169 214 268 326 394
#     4  10  23  38  55  88 133 170 211 256 324 398
#     4  10  20  38  65  87 121 170 219 268 317 386
#     4  10  21  38  60  92 126 167 218 267 312 379
#     4  11  22  39  61  93 132 172 213 264 330 391
#
# _framework density 24.792463000000001
#
# number of rings (size 3 to 8) (size 9 to 14) (size 15 to 20)
#    0.000    1.778    0.000    7.333    0.000    4.444 
#    0.000    5.556    0.000    0.000    0.000    0.000 
#    0.000    0.000    0.000    0.000    0.000    0.000 
#
# Total GULP energy -223098.560874 kJ/mol
# GULP energy per Si atom -12394.364493 kJ/mol
# Density = 2.473603 g / cm^3
# Si number density = 24.792463 Si / 1000 Ang^3
#
#
#
# Elastic Constant Matrix: (Units=GPa)
#
#
# Indices 1 2 3 4 5 6 
#
# 1 200.3108 25.1991 28.8043 0.0011 13.9358 -0.0030
# 2 25.1991 60.2022 -4.9857 0.0020 11.9568 -0.0020
# 3 28.8043 -4.9857 72.8747 0.0100 9.1795 -0.0047
# 4 0.0011 0.0020 0.0100 10.0434 -0.0043 3.7165
# 5 13.9358 11.9568 9.1795 -0.0043 46.2597 0.0030
# 6 -0.0030 -0.0020 -0.0047 3.7165 0.0030 30.2796
#
#
#
# Elastic Compliance Matrix: (Units=1/GPa)
#
#
# Indices 1 2 3 4 5 6 
#
# 1 0.005679 -0.002448 -0.002335 0.000002 -0.000615 0.000000
# 2 -0.002448 0.018802 0.002844 -0.000009 -0.004687 0.000003
# 3 -0.002335 0.002844 0.015224 -0.000019 -0.003053 0.000005
# 4 0.000002 -0.000009 -0.000019 0.104305 0.000016 -0.012802
# 5 -0.000615 -0.004687 -0.003053 0.000016 0.023619 -0.000005
# 6 0.000000 0.000003 0.000005 -0.012802 -0.000005 0.034597
#
#
# Mechanical properties :
#
#
# Convention : Reuss Voigt Hill
#
# Bulk Modulus (GPa) = 27.91143 47.93591 37.92367
# Shear Modulus (GPa) = 22.93096 36.27454 29.60275
#
# Velocity S-wave (km/s) = 3.04454 3.82924 3.45921
# Velocity P-wave (km/s) = 4.86225 6.23920 5.59326
#
# Compressibility (1/GPa) = 0.03582761
#
# Stress axis : x y z
#
# Youngs Moduli (GPa) = 176.09644 53.18633 65.68533
#
# Poissons Ratio (x) = 0.13021 0.15335
# Poissons Ratio (y) = 0.43112 -0.18683
# Poissons Ratio (z) = 0.41112 -0.15128
#
# Static dielectric constant tensor:
#      x y z
#    x 5.471460 0.000000 0.065410 
#    y 0.000000 4.124430 0.000010 
#    z 0.065410 0.000010 4.251120 
# 
# 
# High freq. dielectric constant tensor:
#      x y z
#    x 2.026050 0.000000 0.002490 
#    y 0.000000 1.966610 0.000000 
#    z 0.002490 0.000000 1.962450 
# 
# From -- ./inp_files/30599.got.cif
#   From: 2010.06.25/outbox.cif.g09.slc.cpg/sg15_16_cif.got.tgz:30599.got - 2010.06.28 07:06:18.
