data_PCOD8139752
_publ_section_title
;
Structure prediction by ZEFSAII (Michael W. Deem and Ramdas Pophale) SiO2 
 PCOD8139752
Probable space group: C 2/C
;
_chemical_formula_sum "Si O2"
_cell_formula_units_Z 56
_cell_length_a 11.095713
_cell_length_b 14.133370
_cell_length_c 17.015208
_cell_angle_alpha 90.000000
_cell_angle_beta 87.919676
_cell_angle_gamma 90.000000
_cell_volume 2666.563168
_symmetry_space_group_name_H-M "C 2/C"
_symmetry_group_IT_number 15
_symmetry_cell_setting 'monoclinic'
loop_
_space_group_symop_operation_xyz
x,y,z
-x,y,1/2-z
-x,-y,-z
x,-y,1/2+z
1/2+x,1/2+y,z
1/2-x,1/2+y,1/2-z
1/2-x,1/2-y,-z
1/2+x,1/2-y,1/2+z
loop_
_atom_site_type_symbol
_atom_site_label
_atom_site_fract_x
_atom_site_fract_y
_atom_site_fract_z
Si Si1 0.743592 0.877666 0.879455
Si Si2 0.989644 0.591322 0.890814
Si Si3 0.736899 0.079480 0.814670
Si Si4 0.435787 0.398942 0.007549
Si Si5 0.240726 0.834658 0.350866
Si Si6 0.851897 0.213383 0.940423
Si Si7 0.020810 0.391166 0.565269
O O1 0.725025 0.777607 0.835940
O O2 0.623954 0.890420 0.933687
O O3 0.757760 0.966327 0.820053
O O4 0.858354 0.876360 0.932951
O O5 0.878473 0.659297 0.876755
O O6 0.935084 0.484729 0.890464
O O7 0.094630 0.604050 0.823501
O O8 0.056898 0.608522 0.972422
O O9 0.784640 0.111694 0.729491
O O10 0.811608 0.134009 0.880029
O O11 0.352153 0.382418 0.086067
O O12 0.543942 0.324879 0.005208
O O13 0.500000 0.500000 0.000000
O O14 0.911750 0.303571 0.893885
O O15 0.750000 0.250000 0.000000
#
# Coordination Sequence:
#
# PCOD8139752 Si02
#       7
#     8   8   8   8   8   8   8
#     4  11  23  47  68  95 131 180 232 269 330 416
#     4  10  21  40  68  97 128 166 226 270 327 390
#     4  11  26  44  63 102 141 170 220 282 340 399
#     4  12  25  44  70 100 134 179 229 282 336 401
#     4  12  25  44  70  96 136 183 220 276 346 407
#     4  12  24  41  67 101 132 172 223 281 332 392
#     4  10  20  39  70  95 123 174 222 279 312 394
#
# _framework density 21.000814999999999
#
# number of rings (size 3 to 8) (size 9 to 14) (size 15 to 20)
#    0.000    0.857    5.714    1.714    2.000    1.714 
#    0.000    1.429    0.000    0.000    0.000    0.000 
#    0.000    0.000    0.000    0.000    0.000    0.000 
#
# Total GULP energy -347115.759286 kJ/mol
# GULP energy per Si atom -12396.991403 kJ/mol
# Density = 2.095302 g / cm^3
# Si number density = 21.000815 Si / 1000 Ang^3
#
#
#
# Elastic Constant Matrix: (Units=GPa)
#
#
# Indices 1 2 3 4 5 6 
#
# 1 103.1572 40.9085 35.2580 0.0000 -3.8231 0.0000
# 2 40.9085 160.4419 41.9685 0.0000 -10.7342 0.0000
# 3 35.2580 41.9685 93.5022 0.0000 -9.6899 0.0000
# 4 0.0000 0.0000 0.0000 27.3810 0.0000 -1.1401
# 5 -3.8231 -10.7342 -9.6899 0.0000 19.6010 0.0000
# 6 0.0000 0.0000 0.0000 -1.1401 0.0000 41.3890
#
#
#
# Elastic Compliance Matrix: (Units=1/GPa)
#
#
# Indices 1 2 3 4 5 6 
#
# 1 0.011714 -0.002103 -0.003537 0.000000 -0.000615 0.000000
# 2 -0.002103 0.007550 -0.002329 0.000000 0.002573 0.000000
# 3 -0.003537 -0.002329 0.013566 0.000000 0.004741 0.000000
# 4 0.000000 0.000000 0.000000 0.036564 0.000000 0.001007
# 5 -0.000615 0.002573 0.004741 0.000000 0.054650 0.000000
# 6 0.000000 0.000000 0.000000 0.001007 0.000000 0.024189
#
#
# Mechanical properties :
#
#
# Convention : Reuss Voigt Hill
#
# Bulk Modulus (GPa) = 59.20156 65.93014 62.56585
# Shear Modulus (GPa) = 29.44611 33.60528 31.52569
#
# Velocity S-wave (km/s) = 3.74858 4.00458 3.87869
# Velocity P-wave (km/s) = 6.85472 7.26942 7.06511
#
# Compressibility (1/GPa) = 0.01689145
#
# Stress axis : x y z
#
# Youngs Moduli (GPa) = 85.36847 132.44316 73.71606
#
# Poissons Ratio (x) = 0.27849 0.26074
# Poissons Ratio (y) = 0.17950 0.17172
# Poissons Ratio (z) = 0.30196 0.30852
#
# Static dielectric constant tensor:
#      x y z
#    x 3.901170 0.000000 -0.052170 
#    y 0.000000 4.261490 0.000000 
#    z -0.052170 0.000000 3.419570 
# 
# 
# High freq. dielectric constant tensor:
#      x y z
#    x 1.834860 0.000000 -0.002420 
#    y 0.000000 1.844680 0.000000 
#    z -0.002420 0.000000 1.790390 
# 
# From -- ./inp_files/144237.got.cif
#   From: 2010.06.25/outbox.cif.g09.slc.cpg/sg15_73_cif.got.tgz:144237.got - 2010.06.28 07:06:18.
