data_PCOD8139696
_publ_section_title
;
Structure prediction by ZEFSAII (Michael W. Deem and Ramdas Pophale) SiO2 
 PCOD8139696
Probable space group: C 2/C
;
_chemical_formula_sum "Si O2"
_cell_formula_units_Z 48
_cell_length_a 21.615775
_cell_length_b 17.474807
_cell_length_c 17.325058
_cell_angle_alpha 90.000000
_cell_angle_beta 160.666597
_cell_angle_gamma 90.000000
_cell_volume 2166.559376
_symmetry_space_group_name_H-M "C 2/C"
_symmetry_group_IT_number 15
_symmetry_cell_setting 'monoclinic'
loop_
_space_group_symop_operation_xyz
x,y,z
-x,y,1/2-z
-x,-y,-z
x,-y,1/2+z
1/2+x,1/2+y,z
1/2-x,1/2+y,1/2-z
1/2-x,1/2-y,-z
1/2+x,1/2-y,1/2+z
loop_
_atom_site_type_symbol
_atom_site_label
_atom_site_fract_x
_atom_site_fract_y
_atom_site_fract_z
Si Si1 0.947896 0.829754 0.301093
Si Si2 0.749684 0.901852 0.930702
Si Si3 0.369786 0.833826 0.452395
Si Si4 0.889698 0.192932 0.208684
Si Si5 0.169222 0.559374 0.897210
Si Si6 0.690055 0.176522 0.795025
O O1 0.124345 0.888223 0.498223
O O2 0.038001 0.746790 0.417900
O O3 0.817036 0.836645 0.070881
O O4 0.817407 0.851182 0.219865
O O5 0.528979 0.896680 0.655500
O O6 0.787821 0.986620 0.007968
O O7 0.311033 0.844759 0.295032
O O8 0.912168 0.240307 0.316276
O O9 0.098114 0.182042 0.420781
O O10 0.750000 0.250000 0.000000
O O11 0.796599 0.109780 0.105431
O O12 0.097811 0.610029 0.739588
O O13 0.000000 0.529263 0.750000
#
# Coordination Sequence:
#
# PCOD8139696 Si02
#       6
#     8   8   8   8   8   8
#     4  11  24  40  70  95 130 178 226 268 322 390
#     4  11  26  42  69  96 134 174 228 272 326 391
#     4  12  23  44  66 103 135 173 219 274 337 393
#     4  10  20  39  67  94 127 169 221 265 315 390
#     4  11  23  44  68  95 130 174 222 272 329 390
#     4  11  24  40  69 100 135 169 215 275 337 394
#
# _framework density 22.154942999999999
#
# number of rings (size 3 to 8) (size 9 to 14) (size 15 to 20)
#    0.000    1.000    1.667    7.000    7.000    0.667 
#    3.000    0.833    0.000    0.000    0.000    0.000 
#    0.000    0.000    0.000    0.000    0.000    0.000 
#
# Total GULP energy -297422.016071 kJ/mol
# GULP energy per Si atom -12392.584003 kJ/mol
# Density = 2.210452 g / cm^3
# Si number density = 22.154943 Si / 1000 Ang^3
#
#
#
# Elastic Constant Matrix: (Units=GPa)
#
#
# Indices 1 2 3 4 5 6 
#
# 1 145.7338 41.6196 44.0429 0.0079 19.3633 0.0044
# 2 41.6196 102.2388 36.1799 0.0090 6.4034 0.0070
# 3 44.0429 36.1799 78.1997 0.0125 20.8965 0.0097
# 4 0.0079 0.0090 0.0125 21.4413 0.0090 9.0477
# 5 19.3633 6.4034 20.8965 0.0090 45.3303 0.0065
# 6 0.0044 0.0070 0.0097 9.0477 0.0065 23.2297
#
#
#
# Elastic Compliance Matrix: (Units=1/GPa)
#
#
# Indices 1 2 3 4 5 6 
#
# 1 0.008782 -0.002253 -0.003406 0.000000 -0.001863 0.000001
# 2 -0.002253 0.012311 -0.004812 -0.000002 0.001442 -0.000001
# 3 -0.003406 -0.004812 0.018661 -0.000004 -0.006468 -0.000002
# 4 0.000000 -0.000002 -0.000004 0.055812 -0.000006 -0.021738
# 5 -0.001863 0.001442 -0.006468 -0.000006 0.025634 -0.000002
# 6 0.000001 -0.000001 -0.000002 -0.021738 -0.000002 0.051515
#
#
# Mechanical properties :
#
#
# Convention : Reuss Voigt Hill
#
# Bulk Modulus (GPa) = 53.15894 63.31745 58.23819
# Shear Modulus (GPa) = 25.00915 31.62225 28.31570
#
# Velocity S-wave (km/s) = 3.36345 3.78209 3.57890
# Velocity P-wave (km/s) = 6.25540 6.90751 6.58953
#
# Compressibility (1/GPa) = 0.01881151
#
# Stress axis : x y z
#
# Youngs Moduli (GPa) = 113.86750 81.22972 53.58881
#
# Poissons Ratio (x) = 0.18302 0.18252
# Poissons Ratio (y) = 0.25655 0.25787
# Poissons Ratio (z) = 0.38783 0.39088
#
# Static dielectric constant tensor:
#      x y z
#    x 4.398270 0.000010 0.288110 
#    y 0.000010 3.957240 0.000000 
#    z 0.288110 0.000000 4.036350 
# 
# 
# High freq. dielectric constant tensor:
#      x y z
#    x 1.877380 0.000000 0.025470 
#    y 0.000000 1.858940 0.000000 
#    z 0.025470 0.000000 1.870460 
# 
# From -- ./inp_files/216299.got.cif
#   From: 2010.06.25/outbox.cif.g09.slc.cpg/sg15_109_cif.got.tgz:216299.got - 2010.06.28 07:06:18.
