data_PCOD8139627
_publ_section_title
;
Structure prediction by ZEFSAII (Michael W. Deem and Ramdas Pophale) SiO2 
 PCOD8139627
Probable space group: C 2/C
;
_chemical_formula_sum "Si O2"
_cell_formula_units_Z 64
_cell_length_a 9.210860
_cell_length_b 19.386805
_cell_length_c 22.551098
_cell_angle_alpha 90.000000
_cell_angle_beta 128.325668
_cell_angle_gamma 90.000000
_cell_volume 3159.121350
_symmetry_space_group_name_H-M "C 2/C"
_symmetry_group_IT_number 15
_symmetry_cell_setting 'monoclinic'
loop_
_space_group_symop_operation_xyz
x,y,z
-x,y,1/2-z
-x,-y,-z
x,-y,1/2+z
1/2+x,1/2+y,z
1/2-x,1/2+y,1/2-z
1/2-x,1/2-y,-z
1/2+x,1/2-y,1/2+z
loop_
_atom_site_type_symbol
_atom_site_label
_atom_site_fract_x
_atom_site_fract_y
_atom_site_fract_z
Si Si1 0.587090 0.909251 0.578625
Si Si2 0.578004 0.542216 0.597405
Si Si3 0.407540 0.861242 0.414321
Si Si4 0.878885 0.971515 0.164767
Si Si5 0.899817 0.803453 0.664141
Si Si6 0.755170 0.926267 0.929187
Si Si7 0.780064 0.663557 0.591611
Si Si8 0.951929 0.798917 0.925841
O O1 0.459914 0.898266 0.489062
O O2 0.701100 0.839445 0.615884
O O3 0.455354 0.923757 0.601682
O O4 0.727228 0.972549 0.606367
O O5 0.533367 0.538345 0.654446
O O6 0.715749 0.478710 0.617910
O O7 0.385576 0.541713 0.513031
O O8 0.679426 0.613559 0.610904
O O9 0.218613 0.898200 0.345591
O O10 0.564488 0.877773 0.405626
O O11 0.374123 0.778952 0.410905
O O12 0.000000 0.998885 0.250000
O O13 0.869613 0.721730 0.655308
O O14 0.016591 0.823396 0.634418
O O15 0.000000 0.825229 0.750000
O O16 0.808090 0.849379 0.921590
O O17 0.647177 0.698354 0.509122
#
# Coordination Sequence:
#
# PCOD8139627 Si02
#       8
#     8   8   8   8   8   8   8   8
#     4  12  22  40  63  92 116 162 212 250 295 373
#     4  10  22  38  62  91 121 158 196 256 305 353
#     4  11  21  39  67  90 119 162 209 247 297 367
#     4  12  27  42  59  89 128 160 200 257 315 363
#     4  11  22  38  62  92 127 164 200 251 312 360
#     4  10  22  37  64  94 117 153 208 255 296 353
#     4  10  20  39  65  94 123 157 209 253 295 365
#     4  10  20  40  62  94 126 156 203 258 299 358
#
# _framework density 20.258797000000001
#
# number of rings (size 3 to 8) (size 9 to 14) (size 15 to 20)
#    0.000    1.250    3.750    3.000    3.500    3.500 
#    0.000    3.750    0.000    0.000    0.000    0.000 
#    0.000    0.000    0.000    0.000    0.000    0.000 
#
# Total GULP energy -396836.334255 kJ/mol
# GULP energy per Si atom -12401.135445 kJ/mol
# Density = 2.021269 g / cm^3
# Si number density = 20.258797 Si / 1000 Ang^3
#
#
#
# Elastic Constant Matrix: (Units=GPa)
#
#
# Indices 1 2 3 4 5 6 
#
# 1 140.5964 46.5969 20.3740 0.0000 -8.6565 0.0000
# 2 46.5969 86.7202 12.4081 0.0000 0.7643 0.0000
# 3 20.3740 12.4081 57.1768 0.0000 -11.7072 0.0000
# 4 0.0000 0.0000 0.0000 0.8034 0.0000 1.5331
# 5 -8.6565 0.7643 -11.7072 0.0000 24.5314 0.0000
# 6 0.0000 0.0000 0.0000 1.5331 0.0000 38.3698
#
#
#
# Elastic Compliance Matrix: (Units=1/GPa)
#
#
# Indices 1 2 3 4 5 6 
#
# 1 0.009054 -0.004644 -0.001701 0.000000 0.002528 0.000000
# 2 -0.004644 0.014353 -0.002092 0.000000 -0.003084 0.000000
# 3 -0.001701 -0.002092 0.020437 0.000001 0.009218 0.000000
# 4 0.000000 0.000000 0.000001 1.347457 0.000001 -0.053840
# 5 0.002528 -0.003084 0.009218 0.000001 0.046151 0.000000
# 6 0.000000 0.000000 0.000000 -0.053840 0.000000 0.028213
#
#
# Mechanical properties :
#
#
# Convention : Reuss Voigt Hill
#
# Bulk Modulus (GPa) = 37.07605 49.25017 43.16311
# Shear Modulus (GPa) = 3.35227 26.41522 14.88374
#
# Velocity S-wave (km/s) = 1.28776 3.61486 2.71344
# Velocity P-wave (km/s) = 4.53343 6.46423 5.58293
#
# Compressibility (1/GPa) = 0.02697159
#
# Stress axis : x y z
#
# Youngs Moduli (GPa) = 110.45224 69.67214 48.93082
#
# Poissons Ratio (x) = 0.32354 0.08322
# Poissons Ratio (y) = 0.51291 0.10234
# Poissons Ratio (z) = 0.18786 0.14572
#
# Static dielectric constant tensor:
#      x y z
#    x 3.731480 0.000000 -0.062140 
#    y 0.000000 3.740300 0.000000 
#    z -0.062140 0.000000 3.387380 
# 
# 
# High freq. dielectric constant tensor:
#      x y z
#    x 1.799540 0.000000 -0.006460 
#    y 0.000000 1.805330 0.000000 
#    z -0.006460 0.000000 1.761110 
# 
# From -- ./inp_files/266153.got.cif
#   From: 2010.06.25/outbox.cif.g09.slc.cpg/sg15_134_cif.got.tgz:266153.got - 2010.06.28 07:06:18.
