data_PCOD8139950
_publ_section_title
;
Structure prediction by ZEFSAII (Michael W. Deem and Ramdas Pophale) SiO2 
 PCOD8139950
Probable space group: C 2/C
;
_chemical_formula_sum "Si O2"
_cell_formula_units_Z 36
_cell_length_a 12.644902
_cell_length_b 10.319622
_cell_length_c 18.443545
_cell_angle_alpha 90.000000
_cell_angle_beta 136.830100
_cell_angle_gamma 90.000000
_cell_volume 1646.584067
_symmetry_space_group_name_H-M "C 2/C"
_symmetry_group_IT_number 15
_symmetry_cell_setting 'monoclinic'
loop_
_space_group_symop_operation_xyz
x,y,z
-x,y,1/2-z
-x,-y,-z
x,-y,1/2+z
1/2+x,1/2+y,z
1/2-x,1/2+y,1/2-z
1/2-x,1/2-y,-z
1/2+x,1/2-y,1/2+z
loop_
_atom_site_type_symbol
_atom_site_label
_atom_site_fract_x
_atom_site_fract_y
_atom_site_fract_z
Si Si1 0.000000 0.132238 0.250000
Si Si2 0.563390 0.270026 0.201479
Si Si3 0.407169 0.510516 0.067289
Si Si4 0.059592 0.504209 0.860153
Si Si5 0.910005 0.747193 0.841812
O O1 0.112841 0.046153 0.357179
O O2 0.112644 0.217645 0.255066
O O3 0.500000 0.295329 0.250000
O O4 0.503980 0.376607 0.113922
O O5 0.510406 0.130302 0.145546
O O6 0.748350 0.276841 0.299665
O O7 0.500801 0.630222 0.075568
O O8 0.244192 0.491943 0.947426
O O9 0.000000 0.534885 0.750000
O O10 0.012218 0.615947 0.893704
#
# Coordination Sequence:
#
# PCOD8139950 Si02
#       5
#     4   8   8   8   8
#     4   8  20  38  66  80 118 154 210 230 296 352
#     4  11  22  39  60  90 127 154 197 250 303 354
#     4  10  20  41  63  87 121 160 199 243 299 361
#     4  11  22  38  62  91 123 154 202 249 297 349
#     4  10  20  40  64  87 120 157 203 245 296 358
#
# _framework density 21.863446
#
# number of rings (size 3 to 8) (size 9 to 14) (size 15 to 20)
#    1.333    0.444    2.222    2.667    0.000    0.000 
#    0.000   21.111    0.000    0.000    0.000    0.000 
#    0.000    0.000    0.000    0.000    0.000    0.000 
#
# Total GULP energy -223018.228151 kJ/mol
# GULP energy per Si atom -12389.901564 kJ/mol
# Density = 2.181368 g / cm^3
# Si number density = 21.863446 Si / 1000 Ang^3
#
#
#
# Elastic Constant Matrix: (Units=GPa)
#
#
# Indices 1 2 3 4 5 6 
#
# 1 53.9506 0.7148 11.7877 0.0000 22.1830 0.0000
# 2 0.7148 185.9275 37.7353 0.0000 23.7317 0.0000
# 3 11.7877 37.7353 126.9023 0.0000 24.7657 0.0000
# 4 0.0000 0.0000 0.0000 33.5536 0.0000 15.3923
# 5 22.1830 23.7317 24.7657 0.0000 39.2864 0.0000
# 6 0.0000 0.0000 0.0000 15.3923 0.0000 12.8739
#
#
#
# Elastic Compliance Matrix: (Units=1/GPa)
#
#
# Indices 1 2 3 4 5 6 
#
# 1 0.024701 0.001811 0.000117 0.000000 -0.015115 0.000000
# 2 0.001811 0.006123 -0.001217 0.000000 -0.003954 0.000000
# 3 0.000117 -0.001217 0.009237 0.000000 -0.005154 0.000000
# 4 0.000000 0.000000 0.000000 0.066005 0.000000 -0.078917
# 5 -0.015115 -0.003954 -0.005154 0.000000 0.039626 0.000000
# 6 0.000000 0.000000 0.000000 -0.078917 0.000000 0.172031
#
#
# Mechanical properties :
#
#
# Convention : Reuss Voigt Hill
#
# Bulk Modulus (GPa) = 24.10746 51.91732 38.01239
# Shear Modulus (GPa) = 15.14561 38.24564 26.69562
#
# Velocity S-wave (km/s) = 2.63484 4.18700 3.49810
# Velocity P-wave (km/s) = 4.50631 6.86821 5.80858
#
# Compressibility (1/GPa) = 0.04148093
#
# Stress axis : x y z
#
# Youngs Moduli (GPa) = 40.48486 163.31322 108.26087
#
# Poissons Ratio (x) = -0.29568 -0.01266
# Poissons Ratio (y) = -0.07330 0.13179
# Poissons Ratio (z) = -0.00473 0.19881
#
# Static dielectric constant tensor:
#      x y z
#    x 3.439810 0.000000 0.068700 
#    y 0.000000 4.385980 0.000000 
#    z 0.068700 0.000000 3.540060 
# 
# 
# High freq. dielectric constant tensor:
#      x y z
#    x 1.823460 0.000000 0.009710 
#    y 0.000000 1.888300 0.000000 
#    z 0.009710 0.000000 1.837150 
# 
# From -- ./inp_files/151560.got.cif
#   From: 2010.06.25/outbox.cif.g09.slc.cpg/sg15_76_cif.got.tgz:151560.got - 2010.06.28 07:06:18.
