data_PCOD8139614
_publ_section_title
;
Structure prediction by ZEFSAII (Michael W. Deem and Ramdas Pophale) SiO2 
 PCOD8139614
Probable space group: C 2/C
;
_chemical_formula_sum "Si O2"
_cell_formula_units_Z 48
_cell_length_a 19.425031
_cell_length_b 8.228740
_cell_length_c 19.954347
_cell_angle_alpha 90.000000
_cell_angle_beta 139.551883
_cell_angle_gamma 90.000000
_cell_volume 2069.265033
_symmetry_space_group_name_H-M "C 2/C"
_symmetry_group_IT_number 15
_symmetry_cell_setting 'monoclinic'
loop_
_space_group_symop_operation_xyz
x,y,z
-x,y,1/2-z
-x,-y,-z
x,-y,1/2+z
1/2+x,1/2+y,z
1/2-x,1/2+y,1/2-z
1/2-x,1/2-y,-z
1/2+x,1/2-y,1/2+z
loop_
_atom_site_type_symbol
_atom_site_label
_atom_site_fract_x
_atom_site_fract_y
_atom_site_fract_z
Si Si1 0.377816 0.914344 0.657759
Si Si2 0.401277 0.554169 0.717597
Si Si3 0.893166 0.830823 0.354344
Si Si4 0.207774 0.384038 0.519572
Si Si5 0.818747 0.477957 0.252567
Si Si6 0.493701 0.838698 0.038663
O O1 0.500000 0.966693 0.750000
O O2 0.365127 0.722428 0.657228
O O3 0.328467 0.959122 0.549655
O O4 0.318912 0.015944 0.672217
O O5 0.500000 0.478393 0.750000
O O6 0.439160 0.581704 0.822289
O O7 0.301855 0.432815 0.640249
O O8 0.852290 0.651562 0.306370
O O9 0.798662 0.939693 0.311557
O O10 0.985191 0.812106 0.479476
O O11 0.250000 0.250000 0.500000
O O12 0.109857 0.324670 0.491484
O O13 0.899627 0.335257 0.337637
O O14 0.500000 0.000000 0.000000
#
# Coordination Sequence:
#
# PCOD8139614 Si02
#       6
#     8   8   8   8   8   8
#     4  10  20  39  65  91 126 174 218 263 327 397
#     4  10  23  42  63  91 128 171 220 271 324 395
#     4  10  21  40  64  94 127 170 221 271 327 392
#     4  12  24  41  65  98 132 170 221 276 337 395
#     4  10  20  40  63  92 130 171 218 270 326 394
#     4  10  21  39  67  93 128 173 218 262 335 400
#
# _framework density 23.196641
#
# number of rings (size 3 to 8) (size 9 to 14) (size 15 to 20)
#    0.000    1.667    1.667    3.500    2.333    0.667 
#   12.000    0.833    0.000    0.000    0.000    0.000 
#    0.000    0.000    0.000    0.000    0.000    0.000 
#
# Total GULP energy -297587.614112 kJ/mol
# GULP energy per Si atom -12399.483921 kJ/mol
# Density = 2.314384 g / cm^3
# Si number density = 23.196641 Si / 1000 Ang^3
#
#
#
# Elastic Constant Matrix: (Units=GPa)
#
#
# Indices 1 2 3 4 5 6 
#
# 1 125.3816 9.7665 0.5251 0.0000 -3.5962 0.0000
# 2 9.7665 22.9386 -2.5903 0.0000 -0.4716 0.0000
# 3 0.5251 -2.5903 54.6230 0.0000 -7.8189 0.0000
# 4 0.0000 0.0000 0.0000 16.3377 0.0000 2.9552
# 5 -3.5962 -0.4716 -7.8189 0.0000 36.6843 0.0000
# 6 0.0000 0.0000 0.0000 2.9552 0.0000 34.5472
#
#
#
# Elastic Compliance Matrix: (Units=1/GPa)
#
#
# Indices 1 2 3 4 5 6 
#
# 1 0.008272 -0.003523 -0.000141 0.000000 0.000735 0.000000
# 2 -0.003523 0.045368 0.002289 0.000000 0.000726 0.000000
# 3 -0.000141 0.002289 0.018999 0.000000 0.004065 0.000000
# 4 0.000000 0.000000 0.000000 0.062170 0.000000 -0.005318
# 5 0.000735 0.000726 0.004065 0.000000 0.028207 0.000000
# 6 0.000000 0.000000 0.000000 -0.005318 0.000000 0.029401
#
#
# Mechanical properties :
#
#
# Convention : Reuss Voigt Hill
#
# Bulk Modulus (GPa) = 14.30837 24.26065 19.28451
# Shear Modulus (GPa) = 22.88716 30.52996 26.70856
#
# Velocity S-wave (km/s) = 3.14452 3.63180 3.39691
# Velocity P-wave (km/s) = 4.40065 5.29792 4.86999
#
# Compressibility (1/GPa) = 0.06988916
#
# Stress axis : x y z
#
# Youngs Moduli (GPa) = 120.89363 22.04200 52.63407
#
# Poissons Ratio (x) = 0.07765 0.00744
# Poissons Ratio (y) = 0.42587 -0.12049
# Poissons Ratio (z) = 0.01708 -0.05046
#
# Static dielectric constant tensor:
#      x y z
#    x 4.304120 0.000000 -0.301000 
#    y 0.000000 3.945430 0.000000 
#    z -0.301000 0.000000 4.540700 
# 
# 
# High freq. dielectric constant tensor:
#      x y z
#    x 1.928350 0.000000 -0.013590 
#    y 0.000000 1.901660 0.000000 
#    z -0.013590 0.000000 1.915810 
# 
# From -- ./inp_files/247275.got.cif
#   From: 2010.06.25/outbox.cif.g09.slc.cpg/sg15_124_cif.got.tgz:247275.got - 2010.06.28 07:06:18.
