data_PCOD8139391
_publ_section_title
;
Structure prediction by ZEFSAII (Michael W. Deem and Ramdas Pophale) SiO2 
 PCOD8139391
Probable space group: C 2/C
;
_chemical_formula_sum "Si O2"
_cell_formula_units_Z 56
_cell_length_a 11.041773
_cell_length_b 34.281595
_cell_length_c 9.014970
_cell_angle_alpha 90.000000
_cell_angle_beta 52.363148
_cell_angle_gamma 90.000000
_cell_volume 2702.295515
_symmetry_space_group_name_H-M "C 2/C"
_symmetry_group_IT_number 15
_symmetry_cell_setting 'monoclinic'
loop_
_space_group_symop_operation_xyz
x,y,z
-x,y,1/2-z
-x,-y,-z
x,-y,1/2+z
1/2+x,1/2+y,z
1/2-x,1/2+y,1/2-z
1/2-x,1/2-y,-z
1/2+x,1/2-y,1/2+z
loop_
_atom_site_type_symbol
_atom_site_label
_atom_site_fract_x
_atom_site_fract_y
_atom_site_fract_z
Si Si1 0.442564 0.946633 0.144739
Si Si2 0.572338 0.793248 0.360715
Si Si3 0.134058 0.094019 0.540231
Si Si4 0.932063 0.224809 0.635272
Si Si5 0.696067 0.129980 0.839918
Si Si6 0.977273 0.148785 0.441572
Si Si7 0.643066 0.970147 0.743986
O O1 0.500000 0.925593 0.250000
O O2 0.354233 0.914773 0.118206
O O3 0.330398 0.982987 0.271470
O O4 0.597480 0.959379 0.945494
O O5 0.500000 0.789846 0.250000
O O6 0.749315 0.780548 0.252560
O O7 0.468635 0.767219 0.544305
O O8 0.560436 0.838032 0.430248
O O9 0.221516 0.129503 0.561427
O O10 0.217316 0.054444 0.425931
O O11 0.000000 0.079630 0.750000
O O12 0.082205 0.114694 0.428363
O O13 0.018330 0.191526 0.475219
O O14 0.000000 0.221525 0.750000
O O15 0.803751 0.138972 0.618488
O O16 0.000000 0.149486 0.250000
O O17 0.500000 0.959751 0.750000
#
# Coordination Sequence:
#
# PCOD8139391 Si02
#       7
#     8   8   8   8   8   8   8
#     4  10  21  36  61  86 125 158 206 257 310 373
#     4  11  23  41  64  95 128 163 210 266 322 374
#     4  10  21  41  63  88 124 164 211 259 312 380
#     4  11  23  44  65  91 129 172 210 260 324 387
#     4  10  21  41  60  88 126 163 203 261 311 379
#     4  10  22  39  62  87 122 165 206 255 318 374
#     4  10  20  39  61  88 119 166 204 254 320 373
#
# _framework density 20.723120999999999
#
# number of rings (size 3 to 8) (size 9 to 14) (size 15 to 20)
#    0.000    1.714    1.429    3.857    2.000    1.143 
#    5.143    3.571    0.000    0.000    0.000    0.000 
#    0.000    0.000    0.000    0.000    0.000    0.000 
#
# Total GULP energy -346876.334033 kJ/mol
# GULP energy per Si atom -12388.440501 kJ/mol
# Density = 2.067595 g / cm^3
# Si number density = 20.723121 Si / 1000 Ang^3
#
#
#
# Elastic Constant Matrix: (Units=GPa)
#
#
# Indices 1 2 3 4 5 6 
#
# 1 110.3445 47.2319 39.0435 0.0000 16.2387 0.0000
# 2 47.2319 137.8650 57.7823 0.0000 3.1131 0.0000
# 3 39.0435 57.7823 103.2595 0.0000 25.2889 0.0000
# 4 0.0000 0.0000 0.0000 32.7790 0.0000 -3.5608
# 5 16.2387 3.1131 25.2889 0.0000 29.3083 0.0000
# 6 0.0000 0.0000 0.0000 -3.5608 0.0000 15.7896
#
#
#
# Elastic Compliance Matrix: (Units=1/GPa)
#
#
# Indices 1 2 3 4 5 6 
#
# 1 0.011694 -0.003333 -0.001340 0.000000 -0.004969 0.000000
# 2 -0.003333 0.010924 -0.006366 0.000000 0.006179 0.000000
# 3 -0.001340 -0.006366 0.016998 0.000000 -0.013248 0.000000
# 4 0.000000 0.000000 0.000000 0.031273 0.000000 0.007053
# 5 -0.004969 0.006179 -0.013248 0.000000 0.047648 0.000000
# 6 0.000000 0.000000 0.000000 0.007053 0.000000 0.064923
#
#
# Mechanical properties :
#
#
# Convention : Reuss Voigt Hill
#
# Bulk Modulus (GPa) = 57.01560 71.06494 64.04027
# Shear Modulus (GPa) = 23.65357 29.40280 26.52819
#
# Velocity S-wave (km/s) = 3.38214 3.77084 3.58177
# Velocity P-wave (km/s) = 6.54405 7.30246 6.93363
#
# Compressibility (1/GPa) = 0.01753906
#
# Stress axis : x y z
#
# Youngs Moduli (GPa) = 85.51061 91.54285 58.83108
#
# Poissons Ratio (x) = 0.30509 0.07882
# Poissons Ratio (y) = 0.28498 0.37452
# Poissons Ratio (z) = 0.11457 0.58276
#
# Static dielectric constant tensor:
#      x y z
#    x 3.819850 0.000000 0.177900 
#    y 0.000000 3.968860 0.000000 
#    z 0.177900 0.000000 3.749730 
# 
# 
# High freq. dielectric constant tensor:
#      x y z
#    x 1.805460 0.000000 0.023030 
#    y 0.000000 1.824230 0.000000 
#    z 0.023030 0.000000 1.802410 
# 
# From -- ./inp_files/35548.got.cif
#   From: 2010.06.25/outbox.cif.g09.slc.cpg/sg15_18_cif.got.tgz:35548.got - 2010.06.28 07:06:18.
