data_PCOD8139828
_publ_section_title
;
Structure prediction by ZEFSAII (Michael W. Deem and Ramdas Pophale) SiO2 
 PCOD8139828
Probable space group: C 2/C
;
_chemical_formula_sum "Si O2"
_cell_formula_units_Z 64
_cell_length_a 16.829807
_cell_length_b 29.927167
_cell_length_c 9.091698
_cell_angle_alpha 90.000000
_cell_angle_beta 42.367908
_cell_angle_gamma 90.000000
_cell_volume 3085.871911
_symmetry_space_group_name_H-M "C 2/C"
_symmetry_group_IT_number 15
_symmetry_cell_setting 'monoclinic'
loop_
_space_group_symop_operation_xyz
x,y,z
-x,y,1/2-z
-x,-y,-z
x,-y,1/2+z
1/2+x,1/2+y,z
1/2-x,1/2+y,1/2-z
1/2-x,1/2-y,-z
1/2+x,1/2-y,1/2+z
loop_
_atom_site_type_symbol
_atom_site_label
_atom_site_fract_x
_atom_site_fract_y
_atom_site_fract_z
Si Si1 0.380320 0.743506 0.493035
Si Si2 0.335868 0.402675 0.247567
Si Si3 0.752088 0.447259 0.840989
Si Si4 0.243548 0.547631 0.619013
Si Si5 0.557206 0.454016 0.874763
Si Si6 0.702782 0.316617 0.647326
Si Si7 0.129030 0.396947 0.047805
Si Si8 0.538025 0.685877 0.864024
O O1 0.500000 0.760861 0.250000
O O2 0.326337 0.702084 0.475017
O O3 0.282555 0.782291 0.633226
O O4 0.409091 0.728692 0.621178
O O5 0.292084 0.434012 0.438615
O O6 0.241097 0.413531 0.248260
O O7 0.358183 0.351822 0.270819
O O8 0.458326 0.416659 0.007432
O O9 0.793352 0.498734 0.772013
O O10 0.647121 0.437326 0.873881
O O11 0.856506 0.413973 0.641099
O O12 0.376930 0.542130 0.372090
O O13 0.148141 0.560092 0.626255
O O14 0.500000 0.500000 0.000000
O O15 0.774411 0.361731 0.530918
O O16 0.581964 0.329087 0.893128
O O17 0.000000 0.376539 0.250000
O O18 0.500000 0.698476 0.750000
#
# Coordination Sequence:
#
# PCOD8139828 Si02
#       8
#     8   8   8   8   8   8   8   8
#     4   9  20  38  65  87 113 146 185 237 285 343
#     4  12  21  33  55  84 124 150 185 235 288 345
#     4  11  22  37  53  81 115 153 194 237 285 336
#     4  11  22  36  55  83 112 153 200 235 281 340
#     4  11  19  31  52  83 115 150 182 229 279 339
#     4  10  20  40  61  88 112 143 195 237 285 345
#     4  11  24  41  60  78 107 150 198 246 289 335
#     4  11  22  36  56  90 124 153 178 226 297 350
#
# _framework density 20.739681999999998
#
# number of rings (size 3 to 8) (size 9 to 14) (size 15 to 20)
#    0.000    1.250    2.500    5.625    0.000    3.000 
#    0.000    0.625    0.000    0.000    0.000    0.000 
#    0.000    0.000    0.000    0.000    0.000    0.000 
#
# Total GULP energy -396665.776096 kJ/mol
# GULP energy per Si atom -12395.805503 kJ/mol
# Density = 2.069248 g / cm^3
# Si number density = 20.739682 Si / 1000 Ang^3
#
#
#
# Elastic Constant Matrix: (Units=GPa)
#
#
# Indices 1 2 3 4 5 6 
#
# 1 77.9342 27.0215 29.8635 0.0000 16.1799 0.0000
# 2 27.0215 63.3646 19.3943 0.0000 5.4639 0.0000
# 3 29.8635 19.3943 66.8247 0.0000 5.7873 0.0000
# 4 0.0000 0.0000 0.0000 20.3733 0.0000 -1.8158
# 5 16.1799 5.4639 5.7873 0.0000 38.8304 0.0000
# 6 0.0000 0.0000 0.0000 -1.8158 0.0000 27.4514
#
#
#
# Elastic Compliance Matrix: (Units=1/GPa)
#
#
# Indices 1 2 3 4 5 6 
#
# 1 0.018274 -0.005420 -0.006079 0.000000 -0.005946 0.000000
# 2 -0.005420 0.019040 -0.003108 0.000000 0.000042 0.000000
# 3 -0.006079 -0.003108 0.018565 0.000000 0.000203 0.000000
# 4 0.000000 0.000000 0.000000 0.049375 0.000000 0.003266
# 5 -0.005946 0.000042 0.000203 0.000000 0.028194 0.000000
# 6 0.000000 0.000000 0.000000 0.003266 0.000000 0.036644
#
#
# Mechanical properties :
#
#
# Convention : Reuss Voigt Hill
#
# Bulk Modulus (GPa) = 37.49834 40.07579 38.78707
# Shear Modulus (GPa) = 24.01597 26.12063 25.06830
#
# Velocity S-wave (km/s) = 3.40659 3.55273 3.48042
# Velocity P-wave (km/s) = 5.79594 6.01617 5.90708
#
# Compressibility (1/GPa) = 0.02666785
#
# Stress axis : x y z
#
# Youngs Moduli (GPa) = 54.72193 52.51993 53.86359
#
# Poissons Ratio (x) = 0.28464 0.32742
# Poissons Ratio (y) = 0.29657 0.16739
# Poissons Ratio (z) = 0.33264 0.16321
#
# Static dielectric constant tensor:
#      x y z
#    x 3.753790 0.000000 -0.065900 
#    y 0.000000 3.582790 0.000000 
#    z -0.065900 0.000000 3.035660 
# 
# 
# High freq. dielectric constant tensor:
#      x y z
#    x 1.809470 0.000000 0.011650 
#    y 0.000000 1.803640 0.000000 
#    z 0.011650 0.000000 1.794500 
# 
# From -- ./inp_files/52832.got.cif
#   From: 2010.06.25/outbox.cif.g09.slc.cpg/sg15_27_cif.got.tgz:52832.got - 2010.06.28 07:06:18.
