data_PCOD8139818
_publ_section_title
;
Structure prediction by ZEFSAII (Michael W. Deem and Ramdas Pophale) SiO2 
 PCOD8139818
Probable space group: C 2/C
;
_chemical_formula_sum "Si O2"
_cell_formula_units_Z 52
_cell_length_a 11.445584
_cell_length_b 11.276752
_cell_length_c 18.307759
_cell_angle_alpha 90.000000
_cell_angle_beta 73.332172
_cell_angle_gamma 90.000000
_cell_volume 2263.681348
_symmetry_space_group_name_H-M "C 2/C"
_symmetry_group_IT_number 15
_symmetry_cell_setting 'monoclinic'
loop_
_space_group_symop_operation_xyz
x,y,z
-x,y,1/2-z
-x,-y,-z
x,-y,1/2+z
1/2+x,1/2+y,z
1/2-x,1/2+y,1/2-z
1/2-x,1/2-y,-z
1/2+x,1/2-y,1/2+z
loop_
_atom_site_type_symbol
_atom_site_label
_atom_site_fract_x
_atom_site_fract_y
_atom_site_fract_z
Si Si1 0.500064 0.614686 0.088684
Si Si2 0.106726 0.650245 0.934983
Si Si3 0.155967 0.859535 0.193557
Si Si4 0.052627 0.258761 0.843698
Si Si5 0.837887 0.907625 0.068026
Si Si6 0.500000 0.430326 0.750000
Si Si7 0.091924 0.476185 0.580524
O O1 0.419323 0.710312 0.059715
O O2 0.433021 0.490703 0.092557
O O3 0.512482 0.647301 0.173081
O O4 0.631972 0.605881 0.024166
O O5 0.206731 0.625606 0.855928
O O6 0.981269 0.585894 0.938602
O O7 0.150316 0.607015 0.006771
O O8 0.138862 0.755025 0.256719
O O9 0.066115 0.827419 0.142364
O O10 0.119456 0.986228 0.234524
O O11 0.137358 0.220576 0.897700
O O12 0.001990 0.393744 0.856897
O O13 0.702819 0.962219 0.104988
#
# Coordination Sequence:
#
# PCOD8139818 Si02
#       7
#     8   8   8   8   8   4   8
#     4  11  22  40  67  97 130 172 236 276 344 407
#     4  11  25  43  62  98 135 182 218 280 349 408
#     4  10  21  42  67  93 134 173 221 286 341 400
#     4  10  21  45  67  99 129 175 230 277 343 405
#     4  11  22  41  72 100 125 175 233 290 330 414
#     4  10  20  40  60  96 128 170 216 290 344 414
#     4  11  25  44  66  97 141 175 226 284 342 415
#
# _framework density 22.971433000000001
#
# number of rings (size 3 to 8) (size 9 to 14) (size 15 to 20)
#    0.000    1.538    4.615    1.846    2.154    3.077 
#   11.077    0.000    0.000    0.000    0.000    0.000 
#    0.000    0.000    0.000    0.000    0.000    0.000 
#
# Total GULP energy -322218.703411 kJ/mol
# GULP energy per Si atom -12393.027054 kJ/mol
# Density = 2.291915 g / cm^3
# Si number density = 22.971433 Si / 1000 Ang^3
#
#
#
# Elastic Constant Matrix: (Units=GPa)
#
#
# Indices 1 2 3 4 5 6 
#
# 1 67.7397 16.6011 34.8012 0.0000 -2.4200 0.0000
# 2 16.6011 54.4336 16.1414 0.0000 0.3571 0.0000
# 3 34.8012 16.1414 126.4207 0.0000 -4.0602 0.0000
# 4 0.0000 0.0000 0.0000 30.4741 0.0000 -0.7658
# 5 -2.4200 0.3571 -4.0602 0.0000 37.9104 0.0000
# 6 0.0000 0.0000 0.0000 -0.7658 0.0000 32.1616
#
#
#
# Elastic Compliance Matrix: (Units=1/GPa)
#
#
# Indices 1 2 3 4 5 6 
#
# 1 0.018091 -0.004212 -0.004419 0.000000 0.000721 0.000000
# 2 -0.004212 0.020082 -0.001424 0.000000 -0.000611 0.000000
# 3 -0.004419 -0.001424 0.009332 0.000000 0.000731 0.000000
# 4 0.000000 0.000000 0.000000 0.032834 0.000000 0.000782
# 5 0.000721 -0.000611 0.000731 0.000000 0.026508 0.000000
# 6 0.000000 0.000000 0.000000 0.000782 0.000000 0.031112
#
#
# Mechanical properties :
#
#
# Convention : Reuss Voigt Hill
#
# Bulk Modulus (GPa) = 36.50381 42.63127 39.56754
# Shear Modulus (GPa) = 29.90436 32.17924 31.04180
#
# Velocity S-wave (km/s) = 3.61197 3.74684 3.68002
# Velocity P-wave (km/s) = 5.77240 6.10877 5.94296
#
# Compressibility (1/GPa) = 0.02739440
#
# Stress axis : x y z
#
# Youngs Moduli (GPa) = 55.27739 49.79633 107.15922
#
# Poissons Ratio (x) = 0.20972 0.47355
# Poissons Ratio (y) = 0.23280 0.15263
# Poissons Ratio (z) = 0.24428 0.07092
#
# Static dielectric constant tensor:
#      x y z
#    x 3.732300 0.000000 -0.055420 
#    y 0.000000 3.974540 0.000000 
#    z -0.055420 0.000000 4.249670 
# 
# 
# High freq. dielectric constant tensor:
#      x y z
#    x 1.883200 0.000000 -0.004100 
#    y 0.000000 1.896090 0.000000 
#    z -0.004100 0.000000 1.908690 
# 
# From -- ./inp_files/236877.got.cif
#   From: 2010.06.25/outbox.cif.g09.slc.cpg/sg15_119_cif.got.tgz:236877.got - 2010.06.28 07:06:18.
