data_PCOD8139302
_publ_section_title
;
Structure prediction by ZEFSAII (Michael W. Deem and Ramdas Pophale) SiO2 
 PCOD8139302
Probable space group: C 2/C
;
_chemical_formula_sum "Si O2"
_cell_formula_units_Z 60
_cell_length_a 18.020496
_cell_length_b 12.979229
_cell_length_c 29.315724
_cell_angle_alpha 90.000000
_cell_angle_beta 152.027903
_cell_angle_gamma 90.000000
_cell_volume 3216.085168
_symmetry_space_group_name_H-M "C 2/C"
_symmetry_group_IT_number 15
_symmetry_cell_setting 'monoclinic'
loop_
_space_group_symop_operation_xyz
x,y,z
-x,y,1/2-z
-x,-y,-z
x,-y,1/2+z
1/2+x,1/2+y,z
1/2-x,1/2+y,1/2-z
1/2-x,1/2-y,-z
1/2+x,1/2-y,1/2+z
loop_
_atom_site_type_symbol
_atom_site_label
_atom_site_fract_x
_atom_site_fract_y
_atom_site_fract_z
Si Si1 0.511463 0.113599 0.081093
Si Si2 0.500000 0.591743 0.250000
Si Si3 0.152966 0.656445 0.967417
Si Si4 0.317632 0.535877 0.578744
Si Si5 0.899312 0.084437 0.919298
Si Si6 0.979378 0.826160 0.373683
Si Si7 0.816961 0.297249 0.912211
Si Si8 0.330435 0.071371 0.780967
O O1 0.513125 0.202711 0.120532
O O2 0.577678 0.146512 0.068350
O O3 0.618356 0.023482 0.160113
O O4 0.331634 0.078811 0.973935
O O5 0.553279 0.515815 0.318905
O O6 0.363218 0.667599 0.193708
O O7 0.979385 0.646368 0.850942
O O8 0.250000 0.750000 0.000000
O O9 0.252389 0.553288 0.009550
O O10 0.127759 0.667088 0.008007
O O11 0.393120 0.629859 0.592097
O O12 0.017340 0.133383 0.945588
O O13 0.835162 0.173693 0.918200
O O14 0.747233 0.035731 0.809739
O O15 0.000000 0.000000 0.000000
O O16 0.801824 0.862491 0.263307
#
# Coordination Sequence:
#
# PCOD8139302 Si02
#       8
#     8   4   8   8   8   8   8   8
#     4  10  20  39  58  86 121 156 200 251 305 364
#     4  10  22  36  58  88 116 156 196 256 302 352
#     4  10  23  36  59  93 120 156 200 253 309 361
#     4  10  21  36  58  86 117 156 198 247 303 359
#     4   9  21  38  56  86 116 162 197 243 306 365
#     4   9  20  35  61  81 118 158 197 246 296 366
#     4  10  22  37  60  85 126 156 197 254 306 364
#     4   9  21  36  60  87 118 156 208 242 305 368
#
# _framework density 18.656222
#
# number of rings (size 3 to 8) (size 9 to 14) (size 15 to 20)
#    0.800    1.600    0.000    1.200    5.600    8.000 
#    0.000    1.333    0.000    0.000    0.000    0.000 
#    0.000    0.000    0.000    0.000    0.000    0.000 
#
# Total GULP energy -371773.194940 kJ/mol
# GULP energy per Si atom -12392.439831 kJ/mol
# Density = 1.861376 g / cm^3
# Si number density = 18.656222 Si / 1000 Ang^3
#
#
#
# Elastic Constant Matrix: (Units=GPa)
#
#
# Indices 1 2 3 4 5 6 
#
# 1 80.6420 42.3562 38.6548 -0.0001 13.0249 0.0000
# 2 42.3562 109.3498 44.6887 0.0004 9.6795 0.0000
# 3 38.6548 44.6887 127.5360 0.0011 7.4214 -0.0002
# 4 -0.0001 0.0004 0.0011 35.8513 0.0000 7.4139
# 5 13.0249 9.6795 7.4214 0.0000 27.0387 0.0000
# 6 0.0000 0.0000 -0.0002 7.4139 0.0000 33.4202
#
#
#
# Elastic Compliance Matrix: (Units=1/GPa)
#
#
# Indices 1 2 3 4 5 6 
#
# 1 0.017473 -0.004938 -0.003230 0.000000 -0.005763 0.000000
# 2 -0.004938 0.012288 -0.002735 0.000000 -0.001269 0.000000
# 3 -0.003230 -0.002735 0.009787 0.000000 -0.000151 0.000000
# 4 0.000000 0.000000 0.000000 0.029234 0.000000 -0.006485
# 5 -0.005763 -0.001269 -0.000151 0.000000 0.040256 0.000000
# 6 0.000000 0.000000 0.000000 -0.006485 0.000000 0.031361
#
#
# Mechanical properties :
#
#
# Convention : Reuss Voigt Hill
#
# Bulk Modulus (GPa) = 56.36534 63.21414 59.78974
# Shear Modulus (GPa) = 29.74071 32.05059 30.89565
#
# Velocity S-wave (km/s) = 3.99701 4.14932 4.07388
# Velocity P-wave (km/s) = 7.18190 7.54407 7.36521
#
# Compressibility (1/GPa) = 0.01774140
#
# Stress axis : x y z
#
# Youngs Moduli (GPa) = 57.23030 81.38152 102.17419
#
# Poissons Ratio (x) = 0.40185 0.33006
# Poissons Ratio (y) = 0.28260 0.27946
# Poissons Ratio (z) = 0.18488 0.22259
#
# Static dielectric constant tensor:
#      x y z
#    x 3.215760 0.000000 0.110550 
#    y 0.000000 3.502750 0.000000 
#    z 0.110550 0.000000 3.429340 
# 
# 
# High freq. dielectric constant tensor:
#      x y z
#    x 1.709380 0.000000 0.011460 
#    y 0.000000 1.730570 0.000000 
#    z 0.011460 0.000000 1.723650 
# 
# From -- ./inp_files/316085.got.cif
#   From: 2010.06.25/outbox.cif.g09.slc.cpg/sg15_159_cif.got.tgz:316085.got - 2010.06.28 07:06:18.
