data_PCOD8139270
_publ_section_title
;
Structure prediction by ZEFSAII (Michael W. Deem and Ramdas Pophale) SiO2 
 PCOD8139270
Probable space group: C 2/C
;
_chemical_formula_sum "Si O2"
_cell_formula_units_Z 48
_cell_length_a 8.736754
_cell_length_b 23.424070
_cell_length_c 10.749311
_cell_angle_alpha 90.000000
_cell_angle_beta 78.510038
_cell_angle_gamma 90.000000
_cell_volume 2155.764285
_symmetry_space_group_name_H-M "C 2/C"
_symmetry_group_IT_number 15
_symmetry_cell_setting 'monoclinic'
loop_
_space_group_symop_operation_xyz
x,y,z
-x,y,1/2-z
-x,-y,-z
x,-y,1/2+z
1/2+x,1/2+y,z
1/2-x,1/2+y,1/2-z
1/2-x,1/2-y,-z
1/2+x,1/2-y,1/2+z
loop_
_atom_site_type_symbol
_atom_site_label
_atom_site_fract_x
_atom_site_fract_y
_atom_site_fract_z
Si Si1 0.992905 0.301182 0.393900
Si Si2 0.895311 0.458552 0.595690
Si Si3 0.317317 0.550825 0.792536
Si Si4 0.172953 0.383867 0.536805
Si Si5 0.446540 0.330911 0.620530
Si Si6 0.219702 0.879598 0.442761
O O1 0.120960 0.335289 0.449591
O O2 0.028196 0.235362 0.411759
O O3 0.000000 0.318098 0.250000
O O4 0.818807 0.322207 0.458186
O O5 0.792243 0.494105 0.714008
O O6 0.772153 0.429868 0.524075
O O7 0.000000 0.500000 0.500000
O O8 0.022445 0.413055 0.628729
O O9 0.500000 0.534494 0.750000
O O10 0.278444 0.572175 0.938655
O O11 0.269261 0.599194 0.701156
O O12 0.269266 0.352679 0.631414
O O13 0.500000 0.346958 0.750000
O O14 0.541759 0.365152 0.501302
#
# Coordination Sequence:
#
# PCOD8139270 Si02
#       6
#     8   8   8   8   8   8
#     4  10  20  38  70  99 129 169 220 273 334 399
#     4   9  23  41  61  95 124 166 219 273 330 389
#     4  11  21  40  69  98 125 171 228 277 329 397
#     4  10  20  42  66  96 131 174 220 274 333 398
#     4  11  24  41  62  97 137 177 215 274 333 392
#     4  11  22  42  66  94 130 171 217 275 328 392
#
# _framework density 22.265885999999998
#
# number of rings (size 3 to 8) (size 9 to 14) (size 15 to 20)
#    0.000    1.667    3.333    1.000    0.000    1.333 
#    9.000    2.500    0.000    0.000    0.000    0.000 
#    0.000    0.000    0.000    0.000    0.000    0.000 
#
# Total GULP energy -297443.467613 kJ/mol
# GULP energy per Si atom -12393.477817 kJ/mol
# Density = 2.221521 g / cm^3
# Si number density = 22.265886 Si / 1000 Ang^3
#
#
#
# Elastic Constant Matrix: (Units=GPa)
#
#
# Indices 1 2 3 4 5 6 
#
# 1 157.0412 73.5008 42.2772 0.0000 -0.2547 0.0000
# 2 73.5008 105.6536 42.6603 0.0000 8.9714 0.0000
# 3 42.2772 42.6603 77.9982 0.0000 -2.0220 0.0000
# 4 0.0000 0.0000 0.0000 22.6754 0.0000 -6.4743
# 5 -0.2547 8.9714 -2.0220 0.0000 29.5895 0.0000
# 6 0.0000 0.0000 0.0000 -6.4743 0.0000 31.8018
#
#
#
# Elastic Compliance Matrix: (Units=1/GPa)
#
#
# Indices 1 2 3 4 5 6 
#
# 1 0.009776 -0.006208 -0.001856 0.000000 0.001839 0.000000
# 2 -0.006208 0.016619 -0.005867 0.000000 -0.005493 0.000000
# 3 -0.001856 -0.005867 0.017112 0.000000 0.002932 0.000000
# 4 0.000000 0.000000 0.000000 0.046822 0.000000 0.009532
# 5 0.001839 -0.005493 0.002932 0.000000 0.035677 0.000000
# 6 0.000000 0.000000 0.000000 0.009532 0.000000 0.033385
#
#
# Mechanical properties :
#
#
# Convention : Reuss Voigt Hill
#
# Bulk Modulus (GPa) = 63.91814 73.06327 68.49071
# Shear Modulus (GPa) = 25.97838 28.96367 27.47103
#
# Velocity S-wave (km/s) = 3.41946 3.61059 3.51632
# Velocity P-wave (km/s) = 6.66028 7.08992 6.87846
#
# Compressibility (1/GPa) = 0.01564501
#
# Stress axis : x y z
#
# Youngs Moduli (GPa) = 102.29416 60.17270 58.43931
#
# Poissons Ratio (x) = 0.37353 0.10846
# Poissons Ratio (y) = 0.63500 0.34288
# Poissons Ratio (z) = 0.18984 0.35305
#
# Static dielectric constant tensor:
#      x y z
#    x 4.212200 0.000000 -0.184290 
#    y 0.000000 4.031290 0.000000 
#    z -0.184290 0.000000 3.761450 
# 
# 
# High freq. dielectric constant tensor:
#      x y z
#    x 1.887660 0.000000 -0.004380 
#    y 0.000000 1.881180 0.000000 
#    z -0.004380 0.000000 1.861530 
# 
# From -- ./inp_files/79797.got.cif
#   From: 2010.06.25/outbox.cif.g09.slc.cpg/sg15_40_cif.got.tgz:79797.got - 2010.06.28 07:06:18.
