data_PCOD8139735
_publ_section_title
;
Structure prediction by ZEFSAII (Michael W. Deem and Ramdas Pophale) SiO2 
 PCOD8139735
Probable space group: C 2/C
;
_chemical_formula_sum "Si O2"
_cell_formula_units_Z 48
_cell_length_a 12.818961
_cell_length_b 29.015263
_cell_length_c 8.970402
_cell_angle_alpha 90.000000
_cell_angle_beta 136.937211
_cell_angle_gamma 90.000000
_cell_volume 2278.160874
_symmetry_space_group_name_H-M "C 2/C"
_symmetry_group_IT_number 15
_symmetry_cell_setting 'monoclinic'
loop_
_space_group_symop_operation_xyz
x,y,z
-x,y,1/2-z
-x,-y,-z
x,-y,1/2+z
1/2+x,1/2+y,z
1/2-x,1/2+y,1/2-z
1/2-x,1/2-y,-z
1/2+x,1/2-y,1/2+z
loop_
_atom_site_type_symbol
_atom_site_label
_atom_site_fract_x
_atom_site_fract_y
_atom_site_fract_z
Si Si1 0.888947 0.116965 0.847824
Si Si2 0.232693 0.776822 0.639558
Si Si3 0.600725 0.031014 0.213732
Si Si4 0.894639 0.026383 0.005508
Si Si5 0.769671 0.120391 0.394589
Si Si6 0.562154 0.288039 0.982097
O O1 0.822683 0.072807 0.863822
O O2 0.798307 0.116930 0.599901
O O3 0.855161 0.162714 0.908947
O O4 0.071400 0.112110 0.023715
O O5 0.250000 0.750000 0.500000
O O6 0.300209 0.828654 0.703271
O O7 0.057090 0.781324 0.506280
O O8 0.313961 0.751479 0.861757
O O9 0.500000 0.040225 0.250000
O O10 0.650113 0.082086 0.207487
O O11 0.756810 0.005121 0.419983
O O12 0.500000 0.000000 0.000000
O O13 0.000000 0.041535 0.250000
O O14 0.000000 0.000000 0.000000
O O15 0.500000 0.283602 0.750000
#
# Coordination Sequence:
#
# PCOD8139735 Si02
#       6
#     8   8   8   8   8   8
#     4  10  20  39  69  95 120 165 235 276 317 394
#     4  11  22  42  69  97 133 176 229 270 335 416
#     4  12  26  43  62  96 139 171 216 285 348 400
#     4  12  23  41  68  93 123 174 225 269 329 403
#     4  10  21  40  67  95 127 175 222 275 327 403
#     4  11  23  41  64 100 137 170 216 285 340 393
#
# _framework density 21.069627000000001
#
# number of rings (size 3 to 8) (size 9 to 14) (size 15 to 20)
#    0.000    1.000    3.333    4.500    0.000    1.333 
#    3.000    0.833    0.000    0.000    0.000    0.000 
#    0.000    0.000    0.000    0.000    0.000    0.000 
#
# Total GULP energy -297561.039852 kJ/mol
# GULP energy per Si atom -12398.376661 kJ/mol
# Density = 2.102167 g / cm^3
# Si number density = 21.069627 Si / 1000 Ang^3
#
#
#
# Elastic Constant Matrix: (Units=GPa)
#
#
# Indices 1 2 3 4 5 6 
#
# 1 58.2640 23.1993 -3.7009 0.0000 2.2751 0.0000
# 2 23.1993 187.9763 44.4515 0.0000 4.8650 0.0000
# 3 -3.7009 44.4515 72.2673 0.0000 -5.9518 0.0000
# 4 0.0000 0.0000 0.0000 45.5852 0.0000 2.3804
# 5 2.2751 4.8650 -5.9518 0.0000 31.0339 0.0000
# 6 0.0000 0.0000 0.0000 2.3804 0.0000 28.8575
#
#
#
# Elastic Compliance Matrix: (Units=1/GPa)
#
#
# Indices 1 2 3 4 5 6 
#
# 1 0.018511 -0.002916 0.002710 0.000000 -0.000380 0.000000
# 2 -0.002916 0.006778 -0.004459 0.000000 -0.001704 0.000000
# 3 0.002710 -0.004459 0.017029 0.000000 0.003766 0.000000
# 4 0.000000 0.000000 0.000000 0.022032 0.000000 -0.001817
# 5 -0.000380 -0.001704 0.003766 0.000000 0.033240 0.000000
# 6 0.000000 0.000000 0.000000 -0.001817 0.000000 0.034803
#
#
# Mechanical properties :
#
#
# Convention : Reuss Voigt Hill
#
# Bulk Modulus (GPa) = 30.31261 49.60082 39.95672
# Shear Modulus (GPa) = 32.73993 38.06584 35.40288
#
# Velocity S-wave (km/s) = 3.94622 4.25510 4.10357
# Velocity P-wave (km/s) = 5.93141 6.90896 6.43876
#
# Compressibility (1/GPa) = 0.03298957
#
# Stress axis : x y z
#
# Youngs Moduli (GPa) = 54.02149 147.53268 58.72291
#
# Poissons Ratio (x) = 0.43014 -0.15914
# Poissons Ratio (y) = 0.15750 0.26184
# Poissons Ratio (z) = -0.14640 0.65783
#
# Static dielectric constant tensor:
#      x y z
#    x 3.677240 0.000000 0.280090 
#    y 0.000000 4.292280 0.000000 
#    z 0.280090 0.000000 3.187720 
# 
# 
# High freq. dielectric constant tensor:
#      x y z
#    x 1.813830 0.000000 -0.004340 
#    y 0.000000 1.850290 0.000000 
#    z -0.004340 0.000000 1.813140 
# 
# From -- ./inp_files/43934.got.cif
#   From: 2010.06.25/outbox.cif.g09.slc.cpg/sg15_22_cif.got.tgz:43934.got - 2010.06.28 07:06:18.
