data_PCOD8139161
_publ_section_title
;
Structure prediction by ZEFSAII (Michael W. Deem and Ramdas Pophale) SiO2 
 PCOD8139161
Probable space group: C 2/C
;
_chemical_formula_sum "Si O2"
_cell_formula_units_Z 56
_cell_length_a 16.305951
_cell_length_b 11.087809
_cell_length_c 18.459152
_cell_angle_alpha 90.000000
_cell_angle_beta 54.470010
_cell_angle_gamma 90.000000
_cell_volume 2715.985284
_symmetry_space_group_name_H-M "C 2/C"
_symmetry_group_IT_number 15
_symmetry_cell_setting 'monoclinic'
loop_
_space_group_symop_operation_xyz
x,y,z
-x,y,1/2-z
-x,-y,-z
x,-y,1/2+z
1/2+x,1/2+y,z
1/2-x,1/2+y,1/2-z
1/2-x,1/2-y,-z
1/2+x,1/2-y,1/2+z
loop_
_atom_site_type_symbol
_atom_site_label
_atom_site_fract_x
_atom_site_fract_y
_atom_site_fract_z
Si Si1 0.144808 0.032267 0.375690
Si Si2 0.266858 0.476898 0.316932
Si Si3 0.061912 0.391489 0.934792
Si Si4 0.761326 0.728182 0.379393
Si Si5 0.578664 0.481982 0.646189
Si Si6 0.415089 0.262084 0.415953
Si Si7 0.438138 0.659212 0.482045
O O1 0.150785 0.004670 0.287304
O O2 0.246430 0.100319 0.347973
O O3 0.052658 0.121743 0.441314
O O4 0.137690 0.910854 0.425685
O O5 0.167795 0.555906 0.352802
O O6 0.248035 0.333214 0.325940
O O7 0.311693 0.504726 0.373661
O O8 0.007191 0.322755 0.895424
O O9 0.077410 0.299561 0.993575
O O10 0.000000 0.500000 0.000000
O O11 0.676043 0.751995 0.482412
O O12 0.872962 0.724407 0.358073
O O13 0.500000 0.459304 0.750000
O O14 0.549502 0.597858 0.610634
O O15 0.585084 0.366694 0.590175
#
# Coordination Sequence:
#
# PCOD8139161 Si02
#       7
#     8   8   8   8   8   8   8
#     4  11  21  39  63  98 123 164 224 272 319 384
#     4  11  25  37  65  97 131 170 215 272 327 394
#     4  12  24  42  63  95 136 176 212 261 341 399
#     4  10  20  39  64  93 129 163 215 270 325 381
#     4  11  22  41  66  99 123 164 227 280 316 381
#     4  10  20  38  66  91 124 171 210 266 323 384
#     4  11  22  39  66  90 127 171 213 271 329 382
#
# _framework density 20.618668
#
# number of rings (size 3 to 8) (size 9 to 14) (size 15 to 20)
#    0.000    1.143    5.714    0.857    2.000    1.714 
#    0.000    0.000    0.000    0.857    0.000    0.000 
#    0.000    0.000    0.000    0.000    0.000    0.000 
#
# Total GULP energy -347197.678531 kJ/mol
# GULP energy per Si atom -12399.917090 kJ/mol
# Density = 2.057174 g / cm^3
# Si number density = 20.618668 Si / 1000 Ang^3
#
#
#
# Elastic Constant Matrix: (Units=GPa)
#
#
# Indices 1 2 3 4 5 6 
#
# 1 101.4386 47.2840 27.0436 0.0000 7.6452 0.0000
# 2 47.2840 135.4757 46.1974 0.0000 6.9074 0.0000
# 3 27.0436 46.1974 78.0956 0.0000 3.6385 0.0000
# 4 0.0000 0.0000 0.0000 20.1114 0.0000 4.4981
# 5 7.6452 6.9074 3.6385 0.0000 26.3727 0.0000
# 6 0.0000 0.0000 0.0000 4.4981 0.0000 42.3792
#
#
#
# Elastic Compliance Matrix: (Units=1/GPa)
#
#
# Indices 1 2 3 4 5 6 
#
# 1 0.012187 -0.003422 -0.002086 0.000000 -0.002349 0.000000
# 2 -0.003422 0.010282 -0.004849 0.000000 -0.001032 0.000000
# 3 -0.002086 -0.004849 0.016414 0.000000 -0.000390 0.000000
# 4 0.000000 0.000000 0.000000 0.050932 0.000000 -0.005406
# 5 -0.002349 -0.001032 -0.000390 0.000000 0.038923 0.000000
# 6 0.000000 0.000000 0.000000 -0.005406 0.000000 0.024170
#
#
# Mechanical properties :
#
#
# Convention : Reuss Voigt Hill
#
# Bulk Modulus (GPa) = 55.04400 61.78444 58.41422
# Shear Modulus (GPa) = 27.82743 30.73832 29.28287
#
# Velocity S-wave (km/s) = 3.67771 3.86528 3.77266
# Velocity P-wave (km/s) = 6.69240 7.06759 6.88255
#
# Compressibility (1/GPa) = 0.01816728
#
# Stress axis : x y z
#
# Youngs Moduli (GPa) = 82.05735 97.25719 60.92389
#
# Poissons Ratio (x) = 0.33284 0.12710
# Poissons Ratio (y) = 0.28082 0.29543
# Poissons Ratio (z) = 0.17119 0.47162
#
# Static dielectric constant tensor:
#      x y z
#    x 3.972100 0.000000 0.084030 
#    y 0.000000 3.686820 0.000000 
#    z 0.084030 0.000000 3.579270 
# 
# 
# High freq. dielectric constant tensor:
#      x y z
#    x 1.808330 0.000000 0.006250 
#    y 0.000000 1.793330 0.000000 
#    z 0.006250 0.000000 1.802630 
# 
# From -- ./inp_files/210555.got.cif
#   From: 2010.06.25/outbox.cif.g09.slc.cpg/sg15_106_cif.got.tgz:210555.got - 2010.06.28 07:06:18.
