data_PCOD8139084
_publ_section_title
;
Structure prediction by ZEFSAII (Michael W. Deem and Ramdas Pophale) SiO2 
 PCOD8139084
Probable space group: C 2/C
;
_chemical_formula_sum "Si O2"
_cell_formula_units_Z 64
_cell_length_a 14.711931
_cell_length_b 13.253217
_cell_length_c 23.621491
_cell_angle_alpha 90.000000
_cell_angle_beta 37.987320
_cell_angle_gamma 90.000000
_cell_volume 2834.766078
_symmetry_space_group_name_H-M "C 2/C"
_symmetry_group_IT_number 15
_symmetry_cell_setting 'monoclinic'
loop_
_space_group_symop_operation_xyz
x,y,z
-x,y,1/2-z
-x,-y,-z
x,-y,1/2+z
1/2+x,1/2+y,z
1/2-x,1/2+y,1/2-z
1/2-x,1/2-y,-z
1/2+x,1/2-y,1/2+z
loop_
_atom_site_type_symbol
_atom_site_label
_atom_site_fract_x
_atom_site_fract_y
_atom_site_fract_z
Si Si1 0.803624 0.691669 0.130216
Si Si2 0.793004 0.634537 0.491389
Si Si3 0.159135 0.958953 0.489139
Si Si4 0.400320 0.198477 0.847697
Si Si5 0.381122 0.060412 0.187499
Si Si6 0.873230 0.702145 0.566599
Si Si7 0.844211 0.910944 0.611897
Si Si8 0.662117 0.826276 0.287548
O O1 0.673409 0.704552 0.147814
O O2 0.805468 0.585767 0.163645
O O3 0.794580 0.782288 0.182677
O O4 0.950865 0.692279 0.020946
O O5 0.750000 0.750000 0.500000
O O6 0.680067 0.550882 0.523271
O O7 0.796992 0.628344 0.558227
O O8 0.954575 0.605584 0.388377
O O9 0.180444 0.989665 0.412926
O O10 0.278923 0.871051 0.438186
O O11 0.992820 0.918151 0.577097
O O12 0.500000 0.142031 0.750000
O O13 0.512551 0.234148 0.842110
O O14 0.287365 0.116241 0.281298
O O15 0.370790 0.943347 0.207428
O O16 0.845193 0.819739 0.565890
O O17 0.806921 0.683698 0.661316
#
# Coordination Sequence:
#
# PCOD8139084 Si02
#       8
#     8   8   8   8   8   8   8   8
#     4  10  22  40  64  98 135 168 229 289 337 412
#     4  11  24  42  64  99 136 170 222 285 347 413
#     4  11  22  39  66  98 125 172 225 292 333 413
#     4  10  20  38  64  96 127 165 227 289 327 399
#     4  11  24  41  70  98 134 185 224 287 348 423
#     4  11  23  42  63  94 133 182 217 278 357 408
#     4  11  22  39  68  97 127 173 229 276 355 402
#     4  11  23  42  66  96 133 179 236 276 348 423
#
# _framework density 22.576820000000001
#
# number of rings (size 3 to 8) (size 9 to 14) (size 15 to 20)
#    0.000    1.250    5.000    1.500    1.750    2.500 
#    0.000    0.000    0.000    0.000    0.000    0.000 
#    0.000    0.000    0.000    0.000    0.000    0.000 
#
# Total GULP energy -396429.521278 kJ/mol
# GULP energy per Si atom -12388.422540 kJ/mol
# Density = 2.252543 g / cm^3
# Si number density = 22.576820 Si / 1000 Ang^3
#
#
#
# Elastic Constant Matrix: (Units=GPa)
#
#
# Indices 1 2 3 4 5 6 
#
# 1 83.4146 13.2727 14.4337 0.0000 5.4683 0.0000
# 2 13.2727 40.4955 1.4253 0.0000 -8.6446 0.0000
# 3 14.4337 1.4253 53.5574 -0.0001 5.2404 0.0000
# 4 0.0000 0.0000 -0.0001 24.0478 0.0000 4.0039
# 5 5.4683 -8.6446 5.2404 0.0000 26.0086 0.0000
# 6 0.0000 0.0000 0.0000 4.0039 0.0000 39.7763
#
#
#
# Elastic Compliance Matrix: (Units=1/GPa)
#
#
# Indices 1 2 3 4 5 6 
#
# 1 0.013619 -0.005198 -0.003145 0.000000 -0.003957 0.000000
# 2 -0.005198 0.028699 -0.000411 0.000000 0.010715 0.000000
# 3 -0.003145 -0.000411 0.019870 0.000000 -0.003479 0.000000
# 4 0.000000 0.000000 0.000000 0.042293 0.000000 -0.004257
# 5 -0.003957 0.010715 -0.003479 0.000000 0.043543 0.000000
# 6 0.000000 0.000000 0.000000 -0.004257 0.000000 0.025569
#
#
# Mechanical properties :
#
#
# Convention : Reuss Voigt Hill
#
# Bulk Modulus (GPa) = 22.38089 26.19235 24.28662
# Shear Modulus (GPa) = 24.27237 27.85559 26.06398
#
# Velocity S-wave (km/s) = 3.28243 3.51638 3.40142
# Velocity P-wave (km/s) = 4.92956 5.30219 5.11926
#
# Compressibility (1/GPa) = 0.04468097
#
# Stress axis : x y z
#
# Youngs Moduli (GPa) = 73.42700 34.84382 50.32603
#
# Poissons Ratio (x) = 0.18111 0.15826
# Poissons Ratio (y) = 0.38166 0.02070
# Poissons Ratio (z) = 0.23091 0.01433
#
# Static dielectric constant tensor:
#      x y z
#    x 4.169920 0.000000 -0.023250 
#    y 0.000000 4.048680 0.000000 
#    z -0.023250 0.000000 3.979200 
# 
# 
# High freq. dielectric constant tensor:
#      x y z
#    x 1.889340 0.000000 0.005170 
#    y 0.000000 1.875120 0.000000 
#    z 0.005170 0.000000 1.886310 
# 
# From -- ./inp_files/274327.got.cif
#   From: 2010.06.25/outbox.cif.g09.slc.cpg/sg15_138_cif.got.tgz:274327.got - 2010.06.28 07:06:18.
