data_PCOD8139579
_publ_section_title
;
Structure prediction by ZEFSAII (Michael W. Deem and Ramdas Pophale) SiO2 
 PCOD8139579
Probable space group: C 2/C
;
_chemical_formula_sum "Si O2"
_cell_formula_units_Z 44
_cell_length_a 10.938503
_cell_length_b 36.276245
_cell_length_c 5.158839
_cell_angle_alpha 90.000000
_cell_angle_beta 84.567971
_cell_angle_gamma 90.000000
_cell_volume 2037.874662
_symmetry_space_group_name_H-M "C 2/C"
_symmetry_group_IT_number 15
_symmetry_cell_setting 'monoclinic'
loop_
_space_group_symop_operation_xyz
x,y,z
-x,y,1/2-z
-x,-y,-z
x,-y,1/2+z
1/2+x,1/2+y,z
1/2-x,1/2+y,1/2-z
1/2-x,1/2-y,-z
1/2+x,1/2-y,1/2+z
loop_
_atom_site_type_symbol
_atom_site_label
_atom_site_fract_x
_atom_site_fract_y
_atom_site_fract_z
Si Si1 0.278777 0.081380 0.779135
Si Si2 0.641031 0.121461 0.239443
Si Si3 0.133795 0.780646 0.303294
Si Si4 0.362795 0.515958 0.567202
Si Si5 0.277668 0.797647 0.763303
Si Si6 0.000000 0.475006 0.250000
O O1 0.280260 0.103625 0.509590
O O2 0.149164 0.059228 0.849565
O O3 0.380852 0.050260 0.772394
O O4 0.297517 0.110269 0.004074
O O5 0.500000 0.107953 0.250000
O O6 0.642717 0.165512 0.237021
O O7 0.170053 0.799994 0.567944
O O8 0.134327 0.736235 0.337142
O O9 0.000000 0.794706 0.250000
O O10 0.227102 0.791985 0.060849
O O11 0.500000 0.500000 0.500000
O O12 0.295986 0.508377 0.305909
O O13 0.000000 0.500000 0.500000
#
# Coordination Sequence:
#
# PCOD8139579 Si02
#       6
#     8   8   8   8   8   4
#     4  12  23  39  61  92 124 162 199 261 314 391
#     4  12  23  41  61  91 135 164 203 251 330 383
#     4  10  20  39  64  93 125 161 225 259 306 357
#     4  10  21  40  66  86 112 154 204 264 300 356
#     4  10  22  37  64  94 124 172 205 265 308 371
#     4  12  22  36  58  90 120 156 200 248 324 370
#
# _framework density 21.591121999999999
#
# number of rings (size 3 to 8) (size 9 to 14) (size 15 to 20)
#    0.000    1.091    1.818    5.455    0.000    0.000 
#    0.000    5.455   40.000    0.000    0.000    0.000 
#    0.000    0.000    0.000    0.000    0.000    0.000 
#
# Total GULP energy -272712.639575 kJ/mol
# GULP energy per Si atom -12396.029072 kJ/mol
# Density = 2.154198 g / cm^3
# Si number density = 21.591122 Si / 1000 Ang^3
#
#
#
# Elastic Constant Matrix: (Units=GPa)
#
#
# Indices 1 2 3 4 5 6 
#
# 1 59.6776 17.1104 1.9777 0.0000 -2.3600 0.0000
# 2 17.1104 107.3467 43.3930 0.0000 -9.9977 0.0000
# 3 1.9777 43.3930 156.5639 0.0000 7.4507 0.0000
# 4 0.0000 0.0000 0.0000 37.4508 0.0000 3.0806
# 5 -2.3600 -9.9977 7.4507 0.0000 23.4106 0.0000
# 6 0.0000 0.0000 0.0000 3.0806 0.0000 31.0605
#
#
#
# Elastic Compliance Matrix: (Units=1/GPa)
#
#
# Indices 1 2 3 4 5 6 
#
# 1 0.017615 -0.003024 0.000602 0.000000 0.000293 0.000000
# 2 -0.003024 0.011754 -0.003497 0.000000 0.005828 0.000000
# 3 0.000602 -0.003497 0.007531 0.000000 -0.003830 0.000000
# 4 0.000000 0.000000 0.000000 0.026921 0.000000 -0.002670
# 5 0.000293 0.005828 -0.003830 0.000000 0.046453 0.000000
# 6 0.000000 0.000000 0.000000 -0.002670 0.000000 0.032460
#
#
# Mechanical properties :
#
#
# Convention : Reuss Voigt Hill
#
# Bulk Modulus (GPa) = 39.90055 49.83895 44.86975
# Shear Modulus (GPa) = 30.68873 35.79151 33.24012
#
# Velocity S-wave (km/s) = 3.77418 4.07590 3.92794
# Velocity P-wave (km/s) = 6.12477 6.72932 6.43415
#
# Compressibility (1/GPa) = 0.02506231
#
# Stress axis : x y z
#
# Youngs Moduli (GPa) = 56.76892 85.07843 132.78470
#
# Poissons Ratio (x) = 0.25725 -0.07988
# Poissons Ratio (y) = 0.17165 0.46432
# Poissons Ratio (z) = -0.03415 0.29750
#
# Static dielectric constant tensor:
#      x y z
#    x 3.440030 0.000000 -0.857530 
#    y 0.000000 3.954690 0.000000 
#    z -0.857530 0.000000 2.951450 
# 
# 
# High freq. dielectric constant tensor:
#      x y z
#    x 1.824900 0.000000 0.007520 
#    y 0.000000 1.843580 0.000000 
#    z 0.007520 0.000000 1.878150 
# 
# From -- ./inp_files/5788.got.cif
#   From: 2010.06.25/outbox.cif.g09.slc.cpg/sg15_3_cif.got.tgz:5788.got - 2010.06.28 07:06:18.
