data_PCOD8139409
_publ_section_title
;
Structure prediction by ZEFSAII (Michael W. Deem and Ramdas Pophale) SiO2 
 PCOD8139409
Probable space group: C 2/C
;
_chemical_formula_sum "Si O2"
_cell_formula_units_Z 56
_cell_length_a 16.414320
_cell_length_b 13.513253
_cell_length_c 13.024013
_cell_angle_alpha 90.000000
_cell_angle_beta 107.167816
_cell_angle_gamma 90.000000
_cell_volume 2760.152042
_symmetry_space_group_name_H-M "C 2/C"
_symmetry_group_IT_number 15
_symmetry_cell_setting 'monoclinic'
loop_
_space_group_symop_operation_xyz
x,y,z
-x,y,1/2-z
-x,-y,-z
x,-y,1/2+z
1/2+x,1/2+y,z
1/2-x,1/2+y,1/2-z
1/2-x,1/2-y,-z
1/2+x,1/2-y,1/2+z
loop_
_atom_site_type_symbol
_atom_site_label
_atom_site_fract_x
_atom_site_fract_y
_atom_site_fract_z
Si Si1 0.822143 0.758549 0.886718
Si Si2 0.725975 0.095299 0.487485
Si Si3 0.565253 0.135017 0.018631
Si Si4 0.051793 0.550292 0.370406
Si Si5 0.673116 0.607053 0.475667
Si Si6 0.267447 0.233597 0.357326
Si Si7 0.995084 0.812393 0.627231
O O1 0.819870 0.644945 0.928585
O O2 0.756582 0.757667 0.769344
O O3 0.911645 0.807607 0.887919
O O4 0.793301 0.829203 0.967206
O O5 0.648617 0.079977 0.376757
O O6 0.779287 0.995624 0.531155
O O7 0.498695 0.138276 0.089488
O O8 0.655731 0.156514 0.103303
O O9 0.548300 0.210695 0.921379
O O10 0.565680 0.031452 0.962197
O O11 0.000000 0.515759 0.250000
O O12 0.709007 0.655506 0.594309
O O13 0.689080 0.687506 0.391538
O O14 0.568486 0.599570 0.439216
O O15 0.000000 0.822233 0.750000
#
# Coordination Sequence:
#
# PCOD8139409 Si02
#       7
#     8   8   8   8   8   8   8
#     4  11  24  41  67  89 124 173 215 255 315 380
#     4  11  24  43  60  93 131 165 208 263 317 383
#     4  10  21  36  58  92 124 155 211 264 311 380
#     4  11  21  35  59  92 127 163 199 263 328 377
#     4  10  22  38  63  91 131 156 210 267 316 374
#     4  10  20  39  61  92 119 168 210 256 318 376
#     4  11  21  39  65  91 121 164 212 261 311 374
#
# _framework density 20.288737999999999
#
# number of rings (size 3 to 8) (size 9 to 14) (size 15 to 20)
#    0.000    1.429    4.286    1.286    0.000    2.857 
#    0.000    0.000    0.000    0.000    0.000    0.000 
#    0.000    0.000    0.000    0.000    0.000    0.000 
#
# Total GULP energy -346890.379787 kJ/mol
# GULP energy per Si atom -12388.942135 kJ/mol
# Density = 2.024256 g / cm^3
# Si number density = 20.288738 Si / 1000 Ang^3
#
#
#
# Elastic Constant Matrix: (Units=GPa)
#
#
# Indices 1 2 3 4 5 6 
#
# 1 133.0424 43.1940 38.3162 0.0000 15.3994 0.0000
# 2 43.1940 80.3586 35.0720 0.0000 9.3266 0.0000
# 3 38.3162 35.0720 104.2201 0.0000 19.2448 0.0000
# 4 0.0000 0.0000 0.0000 15.7642 0.0000 -1.8954
# 5 15.3994 9.3266 19.2448 0.0000 31.8759 0.0000
# 6 0.0000 0.0000 0.0000 -1.8954 0.0000 28.1258
#
#
#
# Elastic Compliance Matrix: (Units=1/GPa)
#
#
# Indices 1 2 3 4 5 6 
#
# 1 0.009634 -0.004158 -0.001697 0.000000 -0.002413 0.000000
# 2 -0.004158 0.016442 -0.003925 0.000000 -0.000433 0.000000
# 3 -0.001697 -0.003925 0.012579 0.000000 -0.005626 0.000000
# 4 0.000000 0.000000 0.000000 0.063953 0.000000 0.004310
# 5 -0.002413 -0.000433 -0.005626 0.000000 0.036061 0.000000
# 6 0.000000 0.000000 0.000000 0.004310 0.000000 0.035845
#
#
# Mechanical properties :
#
#
# Convention : Reuss Voigt Hill
#
# Bulk Modulus (GPa) = 52.36720 61.19836 56.78278
# Shear Modulus (GPa) = 24.94530 28.55578 26.75054
#
# Velocity S-wave (km/s) = 3.51025 3.75570 3.63504
# Velocity P-wave (km/s) = 6.50355 7.00258 6.75767
#
# Compressibility (1/GPa) = 0.01909592
#
# Stress axis : x y z
#
# Youngs Moduli (GPa) = 103.79445 60.81913 79.49984
#
# Poissons Ratio (x) = 0.25287 0.13493
# Poissons Ratio (y) = 0.43156 0.31200
# Poissons Ratio (z) = 0.17617 0.23869
#
# Static dielectric constant tensor:
#      x y z
#    x 4.178490 0.000000 0.133230 
#    y 0.000000 3.573960 0.000000 
#    z 0.133230 0.000000 3.556350 
# 
# 
# High freq. dielectric constant tensor:
#      x y z
#    x 1.811940 0.000000 0.013240 
#    y 0.000000 1.771090 0.000000 
#    z 0.013240 0.000000 1.787260 
# 
# From -- ./inp_files/105815.got.cif
#   From: 2010.06.25/outbox.cif.g09.slc.cpg/sg15_53_cif.got.tgz:105815.got - 2010.06.28 07:06:18.
