data_PCOD8139783
_publ_section_title
;
Structure prediction by ZEFSAII (Michael W. Deem and Ramdas Pophale) SiO2 
 PCOD8139783
Probable space group: C 2/C
;
_chemical_formula_sum "Si O2"
_cell_formula_units_Z 48
_cell_length_a 9.418823
_cell_length_b 15.003138
_cell_length_c 30.372758
_cell_angle_alpha 90.000000
_cell_angle_beta 37.284553
_cell_angle_gamma 90.000000
_cell_volume 2600.001149
_symmetry_space_group_name_H-M "C 2/C"
_symmetry_group_IT_number 15
_symmetry_cell_setting 'monoclinic'
loop_
_space_group_symop_operation_xyz
x,y,z
-x,y,1/2-z
-x,-y,-z
x,-y,1/2+z
1/2+x,1/2+y,z
1/2-x,1/2+y,1/2-z
1/2-x,1/2-y,-z
1/2+x,1/2-y,1/2+z
loop_
_atom_site_type_symbol
_atom_site_label
_atom_site_fract_x
_atom_site_fract_y
_atom_site_fract_z
Si Si1 0.547800 0.179523 0.047354
Si Si2 0.753203 0.257434 0.209377
Si Si3 0.761133 0.644081 0.200659
Si Si4 0.723214 0.049260 0.816280
Si Si5 0.093274 0.485563 0.025066
Si Si6 0.693117 0.684199 0.053249
O O1 0.388241 0.193208 0.129306
O O2 0.390727 0.191835 0.042400
O O3 0.675419 0.083189 0.020275
O O4 0.750000 0.250000 0.000000
O O5 0.500000 0.258000 0.250000
O O6 0.720785 0.210952 0.263786
O O7 0.852520 0.359223 0.190166
O O8 0.934497 0.200474 0.135658
O O9 0.500000 0.627404 0.250000
O O10 0.860819 0.543400 0.186656
O O11 0.613220 0.051896 0.892478
O O12 0.000000 0.051130 0.750000
O O13 0.304621 0.414487 0.969407
O O14 0.000000 0.500000 0.000000
O O15 0.750000 0.750000 0.000000
#
# Coordination Sequence:
#
# PCOD8139783 Si02
#       6
#     8   8   8   8   8   8
#     4  10  22  38  60  88 114 154 194 236 288 344
#     4  11  23  38  59  87 116 154 192 242 292 340
#     4  10  20  40  59  79 116 153 196 237 280 341
#     4   9  19  35  57  83 112 153 196 231 280 348
#     4   9  19  35  59  84 113 153 193 232 284 351
#     4  11  21  38  61  85 118 149 194 238 288 342
#
# _framework density 18.461528999999999
#
# number of rings (size 3 to 8) (size 9 to 14) (size 15 to 20)
#    0.000    2.000    3.333    0.000    4.667    1.333 
#    0.000    3.333    0.000    0.000    0.000    0.000 
#    0.000    0.000    0.000    0.000    0.000    0.000 
#
# Total GULP energy -297327.484489 kJ/mol
# GULP energy per Si atom -12388.645187 kJ/mol
# Density = 1.841951 g / cm^3
# Si number density = 18.461529 Si / 1000 Ang^3
#
#
#
# Elastic Constant Matrix: (Units=GPa)
#
#
# Indices 1 2 3 4 5 6 
#
# 1 66.1942 55.7222 41.4672 -0.0038 14.2542 0.0017
# 2 55.7222 165.1942 81.4517 -0.0063 15.3005 0.0003
# 3 41.4672 81.4517 136.6629 -0.0008 14.5766 0.0064
# 4 -0.0038 -0.0063 -0.0008 37.7153 0.0026 1.6272
# 5 14.2542 15.3005 14.5766 0.0026 38.1784 -0.0017
# 6 0.0017 0.0003 0.0064 1.6272 -0.0017 29.5571
#
#
#
# Elastic Compliance Matrix: (Units=1/GPa)
#
#
# Indices 1 2 3 4 5 6 
#
# 1 0.022951 -0.005811 -0.002955 0.000002 -0.005112 -0.000001
# 2 -0.005811 0.010133 -0.004247 0.000001 -0.000270 0.000001
# 3 -0.002955 -0.004247 0.010890 -0.000001 -0.001352 -0.000002
# 4 0.000002 0.000001 -0.000001 0.026578 -0.000003 -0.001463
# 5 -0.005112 -0.000270 -0.001352 -0.000003 0.028726 0.000002
# 6 -0.000001 0.000001 -0.000002 -0.001463 0.000002 0.033913
#
#
# Mechanical properties :
#
#
# Convention : Reuss Voigt Hill
#
# Bulk Modulus (GPa) = 55.72221 80.59261 68.15741
# Shear Modulus (GPa) = 30.26658 33.71752 31.99205
#
# Velocity S-wave (km/s) = 4.05339 4.27824 4.16733
# Velocity P-wave (km/s) = 7.22185 8.25552 7.75592
#
# Compressibility (1/GPa) = 0.01794617
#
# Stress axis : x y z
#
# Youngs Moduli (GPa) = 43.57134 98.69016 91.83119
#
# Poissons Ratio (x) = 0.57349 0.27139
# Poissons Ratio (y) = 0.25319 0.39002
# Poissons Ratio (z) = 0.12877 0.41915
#
# Static dielectric constant tensor:
#      x y z
#    x 3.279860 -0.000130 -0.071660 
#    y -0.000130 3.958000 -0.000090 
#    z -0.071660 -0.000090 4.138040 
# 
# 
# High freq. dielectric constant tensor:
#      x y z
#    x 1.670310 0.000000 0.018220 
#    y 0.000000 1.741680 0.000000 
#    z 0.018220 0.000000 1.736520 
# 
# From -- ./inp_files/289071.got.cif
#   From: 2010.06.25/outbox.cif.g09.slc.cpg/sg15_145_cif.got.tgz:289071.got - 2010.06.28 07:06:18.
