data_PCOD8139393
_publ_section_title
;
Structure prediction by ZEFSAII (Michael W. Deem and Ramdas Pophale) SiO2 
 PCOD8139393
Probable space group: C 2/C
;
_chemical_formula_sum "Si O2"
_cell_formula_units_Z 44
_cell_length_a 13.877929
_cell_length_b 14.656719
_cell_length_c 21.777915
_cell_angle_alpha 90.000000
_cell_angle_beta 30.829943
_cell_angle_gamma 90.000000
_cell_volume 2270.202250
_symmetry_space_group_name_H-M "C 2/C"
_symmetry_group_IT_number 15
_symmetry_cell_setting 'monoclinic'
loop_
_space_group_symop_operation_xyz
x,y,z
-x,y,1/2-z
-x,-y,-z
x,-y,1/2+z
1/2+x,1/2+y,z
1/2-x,1/2+y,1/2-z
1/2-x,1/2-y,-z
1/2+x,1/2-y,1/2+z
loop_
_atom_site_type_symbol
_atom_site_label
_atom_site_fract_x
_atom_site_fract_y
_atom_site_fract_z
Si Si1 0.692296 0.729701 0.220447
Si Si2 0.572476 0.092452 0.860457
Si Si3 0.790913 0.128387 0.862747
Si Si4 0.000000 0.302366 0.750000
Si Si5 0.290118 0.687026 0.421717
Si Si6 0.486840 0.106942 0.129924
O O1 0.645170 0.828496 0.274949
O O2 0.510715 0.663415 0.309191
O O3 0.764743 0.742359 0.110867
O O4 0.842342 0.678803 0.180028
O O5 0.681555 0.091342 0.864422
O O6 0.605320 0.993136 0.813610
O O7 0.349060 0.100629 0.997487
O O8 0.000000 0.082786 0.750000
O O9 0.815022 0.238358 0.843549
O O10 0.678087 0.104548 0.986150
O O11 0.964193 0.364706 0.828228
O O12 0.250000 0.750000 0.500000
#
# Coordination Sequence:
#
# PCOD8139393 Si02
#       6
#     8   8   8   4   8   8
#     4  10  20  39  61  88 126 164 204 264 324 370
#     4  11  22  39  64  94 123 168 214 260 317 382
#     4  10  22  40  64  90 125 172 214 259 314 384
#     4  10  24  42  64  90 134 172 208 260 336 366
#     4   9  20  36  60  85 120 163 204 253 315 378
#     4  12  23  40  66  95 129 168 217 267 311 388
#
# _framework density 19.381533999999998
#
# number of rings (size 3 to 8) (size 9 to 14) (size 15 to 20)
#    0.545    1.091    3.636    1.091    0.000    4.364 
#    0.000    0.000    0.000    5.455    0.000    0.000 
#    0.000    0.000    0.000    0.000    0.000    0.000 
#
# Total GULP energy -272603.764609 kJ/mol
# GULP energy per Si atom -12391.080209 kJ/mol
# Density = 1.933742 g / cm^3
# Si number density = 19.381534 Si / 1000 Ang^3
#
#
#
# Elastic Constant Matrix: (Units=GPa)
#
#
# Indices 1 2 3 4 5 6 
#
# 1 90.9939 24.5752 35.2814 -0.0005 5.4745 -0.0002
# 2 24.5752 105.5633 34.8888 -0.0050 1.9209 0.0012
# 3 35.2814 34.8888 79.2828 -0.0067 5.7909 0.0031
# 4 -0.0005 -0.0050 -0.0067 12.9994 0.0008 5.9749
# 5 5.4745 1.9209 5.7909 0.0008 39.6771 -0.0005
# 6 -0.0002 0.0012 0.0031 5.9749 -0.0005 19.5093
#
#
#
# Elastic Compliance Matrix: (Units=1/GPa)
#
#
# Indices 1 2 3 4 5 6 
#
# 1 0.013484 -0.001360 -0.005328 -0.000004 -0.001017 0.000002
# 2 -0.001360 0.011224 -0.004354 0.000002 0.000280 -0.000001
# 3 -0.005328 -0.004354 0.017012 0.000009 -0.001537 -0.000005
# 4 -0.000004 0.000002 0.000009 0.089529 -0.000003 -0.027419
# 5 -0.001017 0.000280 -0.001537 -0.000003 0.025555 0.000002
# 6 0.000002 -0.000001 -0.000005 -0.027419 0.000002 0.059655
#
#
# Mechanical properties :
#
#
# Convention : Reuss Voigt Hill
#
# Bulk Modulus (GPa) = 50.92640 51.70341 51.31491
# Shear Modulus (GPa) = 20.40084 26.51013 23.45549
#
# Velocity S-wave (km/s) = 3.24789 3.70240 3.48256
# Velocity P-wave (km/s) = 6.35593 6.70906 6.53488
#
# Compressibility (1/GPa) = 0.01963618
#
# Stress axis : x y z
#
# Youngs Moduli (GPa) = 74.16243 89.09833 58.78063
#
# Poissons Ratio (x) = 0.12115 0.31317
# Poissons Ratio (y) = 0.10084 0.25595
# Poissons Ratio (z) = 0.39512 0.38796
#
# Static dielectric constant tensor:
#      x y z
#    x 4.985900 -0.000040 -4.134730 
#    y -0.000040 3.163910 0.000100 
#    z -4.134730 0.000100 16.058020 
# 
# 
# High freq. dielectric constant tensor:
#      x y z
#    x 1.767750 0.000000 0.003750 
#    y 0.000000 1.732750 0.000000 
#    z 0.003750 0.000000 1.759310 
# 
# From -- ./inp_files/244481.got.cif
#   From: 2010.06.25/outbox.cif.g09.slc.cpg/sg15_123_cif.got.tgz:244481.got - 2010.06.28 07:06:18.
