data_PCOD8139582
_publ_section_title
;
Structure prediction by ZEFSAII (Michael W. Deem and Ramdas Pophale) SiO2 
 PCOD8139582
Probable space group: C 2/C
;
_chemical_formula_sum "Si O2"
_cell_formula_units_Z 48
_cell_length_a 22.388296
_cell_length_b 25.655085
_cell_length_c 11.492582
_cell_angle_alpha 90.000000
_cell_angle_beta 159.326188
_cell_angle_gamma 90.000000
_cell_volume 2330.477626
_symmetry_space_group_name_H-M "C 2/C"
_symmetry_group_IT_number 15
_symmetry_cell_setting 'monoclinic'
loop_
_space_group_symop_operation_xyz
x,y,z
-x,y,1/2-z
-x,-y,-z
x,-y,1/2+z
1/2+x,1/2+y,z
1/2-x,1/2+y,1/2-z
1/2-x,1/2-y,-z
1/2+x,1/2-y,1/2+z
loop_
_atom_site_type_symbol
_atom_site_label
_atom_site_fract_x
_atom_site_fract_y
_atom_site_fract_z
Si Si1 0.000000 0.946189 0.750000
Si Si2 0.272229 0.296502 0.131438
Si Si3 0.418100 0.098332 0.228017
Si Si4 0.000000 0.240485 0.750000
Si Si5 0.130685 0.204391 0.233329
Si Si6 0.180869 0.996656 0.269970
Si Si7 0.751415 0.596649 0.520433
O O1 0.854121 0.983003 0.428955
O O2 0.904911 0.911309 0.673781
O O3 0.469260 0.300645 0.525382
O O4 0.250000 0.250000 0.000000
O O5 0.199567 0.352020 0.957464
O O6 0.162902 0.278337 0.042225
O O7 0.500000 0.099050 0.250000
O O8 0.569422 0.097242 0.592959
O O9 0.302748 0.047912 0.042583
O O10 0.954909 0.208115 0.551621
O O11 0.250000 0.250000 0.500000
O O12 0.234443 0.151294 0.423901
O O13 0.264215 0.052808 0.443133
O O14 0.000000 0.000000 0.000000
#
# Coordination Sequence:
#
# PCOD8139582 Si02
#       7
#     4   8   8   4   8   8   8
#     4  10  20  39  64  94 124 171 212 272 324 390
#     4  10  21  39  66  96 132 172 218 269 329 390
#     4  12  22  40  69  94 127 172 219 271 323 390
#     4  10  22  43  62  96 140 173 212 280 336 382
#     4  11  25  41  67  98 133 178 223 269 330 405
#     4  10  22  39  63  93 127 165 215 271 329 386
#     4  11  23  39  63  95 128 165 225 265 327 396
#
# _framework density 20.596637000000001
#
# number of rings (size 3 to 8) (size 9 to 14) (size 15 to 20)
#    0.000    1.333    2.500    4.500    0.000    1.333 
#    0.000    1.667    3.667    0.000    0.000    0.000 
#    0.000    0.000    0.000    0.000    0.000    0.000 
#
# Total GULP energy -297344.725634 kJ/mol
# GULP energy per Si atom -12389.363568 kJ/mol
# Density = 2.054976 g / cm^3
# Si number density = 20.596637 Si / 1000 Ang^3
#
#
#
# Elastic Constant Matrix: (Units=GPa)
#
#
# Indices 1 2 3 4 5 6 
#
# 1 52.2880 35.4933 37.0519 0.0000 0.3466 0.0000
# 2 35.4933 193.4770 82.7442 0.0000 -3.8786 0.0000
# 3 37.0519 82.7442 176.3945 0.0000 -3.2239 0.0000
# 4 0.0000 0.0000 0.0000 50.8996 0.0000 -5.0828
# 5 0.3466 -3.8786 -3.2239 0.0000 40.3139 0.0000
# 6 0.0000 0.0000 0.0000 -5.0828 0.0000 48.9796
#
#
#
# Elastic Compliance Matrix: (Units=1/GPa)
#
#
# Indices 1 2 3 4 5 6 
#
# 1 0.023617 -0.002778 -0.003672 0.000000 -0.000764 0.000000
# 2 -0.002778 0.006798 -0.002597 0.000000 0.000470 0.000000
# 3 -0.003672 -0.002597 0.007666 0.000000 0.000395 0.000000
# 4 0.000000 0.000000 0.000000 0.019852 0.000000 0.002060
# 5 -0.000764 0.000470 0.000395 0.000000 0.024889 0.000000
# 6 0.000000 0.000000 0.000000 0.002060 0.000000 0.020630
#
#
# Mechanical properties :
#
#
# Convention : Reuss Voigt Hill
#
# Bulk Modulus (GPa) = 50.02865 81.41536 65.72200
# Shear Modulus (GPa) = 38.99907 45.82995 42.41451
#
# Velocity S-wave (km/s) = 4.35612 4.72223 4.54287
# Velocity P-wave (km/s) = 7.04581 8.32748 7.71331
#
# Compressibility (1/GPa) = 0.01998855
#
# Stress axis : x y z
#
# Youngs Moduli (GPa) = 42.34186 147.09877 130.44973
#
# Poissons Ratio (x) = 0.40857 0.47900
# Poissons Ratio (y) = 0.11761 0.33876
# Poissons Ratio (z) = 0.15548 0.38200
#
# Static dielectric constant tensor:
#      x y z
#    x 3.975170 0.000000 0.164330 
#    y 0.000000 4.144120 0.000000 
#    z 0.164330 0.000000 4.234080 
# 
# 
# High freq. dielectric constant tensor:
#      x y z
#    x 1.781220 0.000000 0.009700 
#    y 0.000000 1.814670 0.000000 
#    z 0.009700 0.000000 1.829500 
# 
# From -- ./inp_files/120375.got.cif
#   From: 2010.06.25/outbox.cif.g09.slc.cpg/sg15_61_cif.got.tgz:120375.got - 2010.06.28 07:06:18.
