data_PCOD8139166
_publ_section_title
;
Structure prediction by ZEFSAII (Michael W. Deem and Ramdas Pophale) SiO2 
 PCOD8139166
Probable space group: C 2/C
;
_chemical_formula_sum "Si O2"
_cell_formula_units_Z 64
_cell_length_a 14.063071
_cell_length_b 16.841702
_cell_length_c 24.100465
_cell_angle_alpha 90.000000
_cell_angle_beta 31.280047
_cell_angle_gamma 90.000000
_cell_volume 2963.768332
_symmetry_space_group_name_H-M "C 2/C"
_symmetry_group_IT_number 15
_symmetry_cell_setting 'monoclinic'
loop_
_space_group_symop_operation_xyz
x,y,z
-x,y,1/2-z
-x,-y,-z
x,-y,1/2+z
1/2+x,1/2+y,z
1/2-x,1/2+y,1/2-z
1/2-x,1/2-y,-z
1/2+x,1/2-y,1/2+z
loop_
_atom_site_type_symbol
_atom_site_label
_atom_site_fract_x
_atom_site_fract_y
_atom_site_fract_z
Si Si1 0.410446 0.020400 0.924231
Si Si2 0.822940 0.220304 0.226973
Si Si3 0.698057 0.845960 0.169073
Si Si4 0.845694 0.993257 0.284626
Si Si5 0.292922 0.494334 0.186453
Si Si6 0.882518 0.650393 0.608576
Si Si7 0.041276 0.615522 0.421167
Si Si8 0.078884 0.111142 0.040472
O O1 0.575350 0.990596 0.801430
O O2 0.482123 0.098852 0.920210
O O3 0.377648 0.941585 0.978740
O O4 0.226839 0.044425 0.984457
O O5 0.842992 0.268012 0.274305
O O6 0.808808 0.274073 0.179049
O O7 0.639536 0.167104 0.323871
O O8 0.003198 0.164785 0.129289
O O9 0.500000 0.880583 0.250000
O O10 0.814377 0.909824 0.146126
O O11 0.823709 0.829628 0.052258
O O12 0.899067 0.996758 0.193010
O O13 0.788760 0.902851 0.324638
O O14 0.000000 0.020504 0.250000
O O15 0.682163 0.053972 0.378744
O O16 0.404687 0.564495 0.098986
O O17 0.975680 0.674210 0.503332
#
# Coordination Sequence:
#
# PCOD8139166 Si02
#       8
#     8   8   8   8   8   8   8   8
#     4  10  20  42  62  96 129 163 223 280 309 380
#     4  12  23  40  58  99 135 168 213 263 329 410
#     4  12  24  43  63  93 138 174 215 267 328 394
#     4  10  20  38  66  92 121 165 222 270 313 375
#     4  10  21  44  61  97 129 168 225 275 310 386
#     4  10  21  38  59  87 136 167 202 267 334 373
#     4  10  22  37  63  93 132 163 215 277 316 382
#     4  12  24  39  74  92 129 181 215 265 341 373
#
# _framework density 21.59413
#
# number of rings (size 3 to 8) (size 9 to 14) (size 15 to 20)
#    0.000    1.500    6.250    2.625    3.500    3.500 
#    0.000    0.000    0.000    6.750    0.000    0.000 
#    0.000    0.000    0.000    0.000    0.000    0.000 
#
# Total GULP energy -396418.190905 kJ/mol
# GULP energy per Si atom -12388.068466 kJ/mol
# Density = 2.154498 g / cm^3
# Si number density = 21.594130 Si / 1000 Ang^3
#
#
#
# Elastic Constant Matrix: (Units=GPa)
#
#
# Indices 1 2 3 4 5 6 
#
# 1 59.3442 41.4986 28.7133 -0.0010 7.6380 0.0024
# 2 41.4986 114.5137 61.0156 -0.0092 2.7979 0.0054
# 3 28.7133 61.0156 140.3038 -0.0264 18.7186 0.0171
# 4 -0.0010 -0.0092 -0.0264 38.7395 0.0023 8.1054
# 5 7.6380 2.7979 18.7186 0.0023 22.2667 -0.0009
# 6 0.0024 0.0054 0.0171 8.1054 -0.0009 20.0981
#
#
#
# Elastic Compliance Matrix: (Units=1/GPa)
#
#
# Indices 1 2 3 4 5 6 
#
# 1 0.023637 -0.008206 -0.000366 -0.000001 -0.006770 0.000000
# 2 -0.008206 0.014405 -0.005315 -0.000001 0.005473 0.000002
# 3 -0.000366 -0.005315 0.010596 0.000009 -0.008115 -0.000012
# 4 -0.000001 -0.000001 0.000009 0.028192 -0.000010 -0.011370
# 5 -0.006770 0.005473 -0.008115 -0.000010 0.053366 0.000013
# 6 0.000000 0.000002 -0.000012 -0.011370 0.000013 0.054341
#
#
# Mechanical properties :
#
#
# Convention : Reuss Voigt Hill
#
# Bulk Modulus (GPa) = 47.92715 64.06852 55.99784
# Shear Modulus (GPa) = 22.80341 28.41648 25.60994
#
# Velocity S-wave (km/s) = 3.25314 3.63152 3.44752
# Velocity P-wave (km/s) = 6.02937 6.87879 6.46804
#
# Compressibility (1/GPa) = 0.02086500
#
# Stress axis : x y z
#
# Youngs Moduli (GPa) = 42.30632 69.42264 94.37251
#
# Poissons Ratio (x) = 0.56965 0.03452
# Poissons Ratio (y) = 0.34715 0.50161
# Poissons Ratio (z) = 0.01547 0.36899
#
# Static dielectric constant tensor:
#      x y z
#    x 3.575470 0.000000 0.201960 
#    y 0.000000 3.865410 0.000030 
#    z 0.201960 0.000030 4.234990 
# 
# 
# High freq. dielectric constant tensor:
#      x y z
#    x 1.804040 0.000000 0.019680 
#    y 0.000000 1.838280 0.000000 
#    z 0.019680 0.000000 1.866300 
# 
# From -- ./inp_files/274804.got.cif
#   From: 2010.06.25/outbox.cif.g09.slc.cpg/sg15_138_cif.got.tgz:274804.got - 2010.06.28 07:06:18.
