data_PCOD8139516
_publ_section_title
;
Structure prediction by ZEFSAII (Michael W. Deem and Ramdas Pophale) SiO2 
 PCOD8139516
Probable space group: C 2/C
;
_chemical_formula_sum "Si O2"
_cell_formula_units_Z 60
_cell_length_a 12.340034
_cell_length_b 23.780064
_cell_length_c 15.201875
_cell_angle_alpha 90.000000
_cell_angle_beta 138.004325
_cell_angle_gamma 90.000000
_cell_volume 2984.702270
_symmetry_space_group_name_H-M "C 2/C"
_symmetry_group_IT_number 15
_symmetry_cell_setting 'monoclinic'
loop_
_space_group_symop_operation_xyz
x,y,z
-x,y,1/2-z
-x,-y,-z
x,-y,1/2+z
1/2+x,1/2+y,z
1/2-x,1/2+y,1/2-z
1/2-x,1/2-y,-z
1/2+x,1/2-y,1/2+z
loop_
_atom_site_type_symbol
_atom_site_label
_atom_site_fract_x
_atom_site_fract_y
_atom_site_fract_z
Si Si1 0.787950 0.824516 0.939930
Si Si2 0.921047 0.469523 0.869064
Si Si3 0.151439 0.168256 0.644324
Si Si4 0.718855 0.804654 0.094469
Si Si5 0.400761 0.863804 0.955526
Si Si6 0.500000 0.092910 0.250000
Si Si7 0.809083 0.764813 0.631159
Si Si8 0.394345 0.921666 0.269507
O O1 0.753728 0.762184 0.882936
O O2 0.655509 0.867882 0.823064
O O3 0.791940 0.826626 0.047678
O O4 0.963934 0.841382 0.009610
O O5 0.831579 0.414588 0.853115
O O6 0.818323 0.520261 0.763499
O O7 0.035405 0.445299 0.858482
O O8 0.000000 0.500000 0.000000
O O9 0.180686 0.166548 0.766723
O O10 0.221595 0.226383 0.650144
O O11 0.243943 0.117168 0.652486
O O12 0.530173 0.823184 0.984168
O O13 0.240125 0.829029 0.880645
O O14 0.487251 0.888216 0.093632
O O15 0.750000 0.750000 0.500000
O O16 0.000000 0.756742 0.750000
O O17 0.500000 0.938067 0.250000
#
# Coordination Sequence:
#
# PCOD8139516 Si02
#       8
#     8   8   8   8   8   4   8   8
#     4  11  24  36  61  97 133 164 209 255 327 393
#     4  10  22  41  67  90 122 172 225 270 320 380
#     4  11  23  39  62  92 131 174 208 262 326 391
#     4  10  21  38  58  93 135 173 199 251 325 401
#     4  10  20  39  63  91 126 168 215 265 320 385
#     4  12  24  40  68  98 126 168 222 270 324 392
#     4  12  25  41  63  96 134 173 218 268 330 401
#     4  10  20  40  66  87 118 170 223 262 320 382
#
# _framework density 20.102508
#
# number of rings (size 3 to 8) (size 9 to 14) (size 15 to 20)
#    0.000    1.333    3.333    3.200    5.600    0.000 
#    0.000    0.667    5.867    0.000    0.000    0.000 
#    0.000    0.000    0.000    0.000    0.000    0.000 
#
# Total GULP energy -371747.210692 kJ/mol
# GULP energy per Si atom -12391.573690 kJ/mol
# Density = 2.005675 g / cm^3
# Si number density = 20.102508 Si / 1000 Ang^3
#
#
#
# Elastic Constant Matrix: (Units=GPa)
#
#
# Indices 1 2 3 4 5 6 
#
# 1 97.2712 46.2741 46.6045 0.0000 5.6995 0.0000
# 2 46.2741 131.8589 37.4977 0.0000 -2.1854 0.0000
# 3 46.6045 37.4977 72.8169 0.0000 10.4881 0.0000
# 4 0.0000 0.0000 0.0000 18.0330 0.0000 -6.4768
# 5 5.6995 -2.1854 10.4881 0.0000 37.5939 0.0000
# 6 0.0000 0.0000 0.0000 -6.4768 0.0000 37.0839
#
#
#
# Elastic Compliance Matrix: (Units=1/GPa)
#
#
# Indices 1 2 3 4 5 6 
#
# 1 0.015866 -0.003155 -0.008499 0.000000 -0.000218 0.000000
# 2 -0.003155 0.009640 -0.003224 0.000000 0.001938 0.000000
# 3 -0.008499 -0.003224 0.021540 0.000000 -0.004908 0.000000
# 4 0.000000 0.000000 0.000000 0.059165 0.000000 0.010333
# 5 -0.000218 0.001938 -0.004908 0.000000 0.028115 0.000000
# 6 0.000000 0.000000 0.000000 0.010333 0.000000 0.028771
#
#
# Mechanical properties :
#
#
# Convention : Reuss Voigt Hill
#
# Bulk Modulus (GPa) = 57.83563 62.52216 60.17889
# Shear Modulus (GPa) = 25.17428 29.98020 27.57724
#
# Velocity S-wave (km/s) = 3.54262 3.86601 3.70784
# Velocity P-wave (km/s) = 6.75028 7.14823 6.95211
#
# Compressibility (1/GPa) = 0.01729038
#
# Stress axis : x y z
#
# Youngs Moduli (GPa) = 63.02818 103.73444 46.42596
#
# Poissons Ratio (x) = 0.32725 0.39456
# Poissons Ratio (y) = 0.19884 0.14969
# Poissons Ratio (z) = 0.53565 0.33447
#
# Static dielectric constant tensor:
#      x y z
#    x 3.578100 0.000000 -0.398040 
#    y 0.000000 4.217120 0.000000 
#    z -0.398040 0.000000 3.435460 
# 
# 
# High freq. dielectric constant tensor:
#      x y z
#    x 1.781010 0.000000 -0.030660 
#    y 0.000000 1.796020 0.000000 
#    z -0.030660 0.000000 1.766190 
# 
# From -- ./inp_files/148113.got.cif
#   From: 2010.06.25/outbox.cif.g09.slc.cpg/sg15_75_cif.got.tgz:148113.got - 2010.06.28 07:06:18.
