data_PCOD8139103
_publ_section_title
;
Structure prediction by ZEFSAII (Michael W. Deem and Ramdas Pophale) SiO2 
 PCOD8139103
Probable space group: C 2/C
;
_chemical_formula_sum "Si O2"
_cell_formula_units_Z 40
_cell_length_a 24.343217
_cell_length_b 9.341927
_cell_length_c 15.694471
_cell_angle_alpha 90.000000
_cell_angle_beta 34.116390
_cell_angle_gamma 90.000000
_cell_volume 2001.833070
_symmetry_space_group_name_H-M "C 2/C"
_symmetry_group_IT_number 15
_symmetry_cell_setting 'monoclinic'
loop_
_space_group_symop_operation_xyz
x,y,z
-x,y,1/2-z
-x,-y,-z
x,-y,1/2+z
1/2+x,1/2+y,z
1/2-x,1/2+y,1/2-z
1/2-x,1/2-y,-z
1/2+x,1/2-y,1/2+z
loop_
_atom_site_type_symbol
_atom_site_label
_atom_site_fract_x
_atom_site_fract_y
_atom_site_fract_z
Si Si1 0.543410 0.841896 0.066228
Si Si2 0.343856 0.164833 0.910001
Si Si3 0.555281 0.638527 0.895327
Si Si4 0.237362 0.633396 0.945010
Si Si5 0.052292 0.659445 0.092437
O O1 0.621792 0.796789 0.038207
O O2 0.432942 0.798150 0.232672
O O3 0.546153 0.012664 0.046065
O O4 0.573233 0.757574 0.943795
O O5 0.250000 0.250000 0.000000
O O6 0.316662 0.998526 0.940316
O O7 0.659809 0.586068 0.726926
O O8 0.493950 0.707428 0.897271
O O9 0.500000 0.500000 0.000000
O O10 0.250000 0.750000 0.000000
O O11 0.166551 0.695906 0.962104
O O12 0.000000 0.633168 0.250000
#
# Coordination Sequence:
#
# PCOD8139103 Si02
#       5
#     8   8   8   8   8
#     4  10  21  42  63  90 124 166 211 255 299 383
#     4  10  20  38  65  88 124 164 210 248 314 375
#     4  12  26  40  62 103 134 151 208 281 318 348
#     4  11  22  40  66  90 123 171 209 249 318 378
#     4  11  21  44  67  86 124 176 213 246 307 392
#
# _framework density 19.981687000000001
#
# number of rings (size 3 to 8) (size 9 to 14) (size 15 to 20)
#    0.000    1.200    6.000    1.800    0.000    6.400 
#    3.600    0.000    0.000    0.000    0.000    0.000 
#    0.000    0.000    0.000    0.000    0.000    0.000 
#
# Total GULP energy -248023.684630 kJ/mol
# GULP energy per Si atom -12401.184231 kJ/mol
# Density = 1.993621 g / cm^3
# Si number density = 19.981687 Si / 1000 Ang^3
#
#
#
# Elastic Constant Matrix: (Units=GPa)
#
#
# Indices 1 2 3 4 5 6 
#
# 1 101.3970 51.8901 41.3508 -0.0004 -27.1684 0.0000
# 2 51.8901 89.4525 30.9741 -0.0035 -3.8767 0.0006
# 3 41.3508 30.9741 101.5229 -0.0011 -20.3802 0.0002
# 4 -0.0004 -0.0035 -0.0011 33.8589 0.0006 -2.4940
# 5 -27.1684 -3.8767 -20.3802 0.0006 43.4754 0.0000
# 6 0.0000 0.0006 0.0002 -2.4940 0.0000 42.8508
#
#
#
# Elastic Compliance Matrix: (Units=1/GPa)
#
#
# Indices 1 2 3 4 5 6 
#
# 1 0.018154 -0.009183 -0.002737 -0.000001 0.009243 0.000000
# 2 -0.009183 0.017166 -0.002585 0.000002 -0.005420 0.000000
# 3 -0.002737 -0.002585 0.012544 0.000000 0.003939 0.000000
# 4 -0.000001 0.000002 0.000000 0.029662 -0.000001 0.001726
# 5 0.009243 -0.005420 0.003939 -0.000001 0.030141 0.000000
# 6 0.000000 0.000000 0.000000 0.001726 0.000000 0.023437
#
#
# Mechanical properties :
#
#
# Convention : Reuss Voigt Hill
#
# Bulk Modulus (GPa) = 53.03701 60.08916 56.56309
# Shear Modulus (GPa) = 30.04813 35.24752 32.64782
#
# Velocity S-wave (km/s) = 3.88207 4.20455 4.04652
# Velocity P-wave (km/s) = 6.83333 7.32860 7.08529
#
# Compressibility (1/GPa) = 0.01885476
#
# Stress axis : x y z
#
# Youngs Moduli (GPa) = 55.08327 58.25426 79.71664
#
# Poissons Ratio (x) = 0.53493 0.21821
# Poissons Ratio (y) = 0.50581 0.20607
# Poissons Ratio (z) = 0.15078 0.15059
#
# Static dielectric constant tensor:
#      x y z
#    x 3.664630 0.000000 -0.435890 
#    y 0.000000 3.710430 0.000000 
#    z -0.435890 0.000000 4.255360 
# 
# 
# High freq. dielectric constant tensor:
#      x y z
#    x 1.787940 0.000000 -0.018830 
#    y 0.000000 1.775070 0.000000 
#    z -0.018830 0.000000 1.784760 
# 
# From -- ./inp_files/159092.got.cif
#   From: 2010.06.25/outbox.cif.g09.slc.cpg/sg15_80_cif.got.tgz:159092.got - 2010.06.28 07:06:18.
