data_PCOD8139351
_publ_section_title
;
Structure prediction by ZEFSAII (Michael W. Deem and Ramdas Pophale) SiO2 
 PCOD8139351
Probable space group: C 2/C
;
_chemical_formula_sum "Si O2"
_cell_formula_units_Z 64
_cell_length_a 17.212670
_cell_length_b 15.356713
_cell_length_c 14.756507
_cell_angle_alpha 90.000000
_cell_angle_beta 50.181185
_cell_angle_gamma 90.000000
_cell_volume 2995.937409
_symmetry_space_group_name_H-M "C 2/C"
_symmetry_group_IT_number 15
_symmetry_cell_setting 'monoclinic'
loop_
_space_group_symop_operation_xyz
x,y,z
-x,y,1/2-z
-x,-y,-z
x,-y,1/2+z
1/2+x,1/2+y,z
1/2-x,1/2+y,1/2-z
1/2-x,1/2-y,-z
1/2+x,1/2-y,1/2+z
loop_
_atom_site_type_symbol
_atom_site_label
_atom_site_fract_x
_atom_site_fract_y
_atom_site_fract_z
Si Si1 0.272827 0.296045 0.654160
Si Si2 0.803538 0.393850 0.077536
Si Si3 0.608192 0.332565 0.623795
Si Si4 0.388000 0.092602 0.328284
Si Si5 0.265342 0.264844 0.122587
Si Si6 0.394588 0.511988 0.806759
Si Si7 0.693127 0.944651 0.227713
Si Si8 0.605642 0.540701 0.391385
O O1 0.317938 0.209534 0.575515
O O2 0.188979 0.335160 0.650168
O O3 0.214442 0.273791 0.792158
O O4 0.368657 0.361313 0.593840
O O5 0.686812 0.412442 0.139661
O O6 0.839485 0.442110 0.142156
O O7 0.865542 0.433615 0.948567
O O8 0.500000 0.305690 0.750000
O O9 0.628523 0.288365 0.509129
O O10 0.702803 0.305882 0.614580
O O11 0.619419 0.437799 0.604990
O O12 0.500000 0.131568 0.250000
O O13 0.383908 0.006302 0.268892
O O14 0.192873 0.349257 0.184487
O O15 0.500000 0.560987 0.750000
O O16 0.397248 0.453896 0.714320
O O17 0.807300 0.978735 0.135701
O O18 0.500000 0.500000 0.500000
#
# Coordination Sequence:
#
# PCOD8139351 Si02
#       8
#     8   8   8   8   8   8   8   8
#     4  10  22  43  62  89 135 168 212 271 329 393
#     4  10  22  43  64  90 129 169 213 267 325 396
#     4  10  21  35  60  95 128 164 217 269 332 383
#     4  11  24  43  63  88 122 171 217 264 321 388
#     4  10  20  39  60  89 128 167 205 273 329 387
#     4  10  21  36  61  96 123 163 212 269 331 388
#     4   9  22  40  62  88 122 164 213 262 319 387
#     4  10  21  37  63  94 122 163 207 265 333 384
#
# _framework density 21.362261
#
# number of rings (size 3 to 8) (size 9 to 14) (size 15 to 20)
#    0.000    2.000    1.250    1.125    7.000    1.500 
#   11.250    0.000    0.000    0.000    0.000    0.000 
#    0.000    0.000    0.000    0.000    0.000    0.000 
#
# Total GULP energy -396609.079052 kJ/mol
# GULP energy per Si atom -12394.033720 kJ/mol
# Density = 2.131364 g / cm^3
# Si number density = 21.362261 Si / 1000 Ang^3
#
#
#
# Elastic Constant Matrix: (Units=GPa)
#
#
# Indices 1 2 3 4 5 6 
#
# 1 82.9149 28.4744 42.5476 0.0000 -2.5285 0.0000
# 2 28.4744 95.0140 30.7902 0.0000 -1.3247 0.0000
# 3 42.5476 30.7902 121.4410 0.0000 13.1545 0.0000
# 4 0.0000 0.0000 0.0000 23.2728 0.0000 2.7721
# 5 -2.5285 -1.3247 13.1545 0.0000 25.6587 0.0000
# 6 0.0000 0.0000 0.0000 2.7721 0.0000 24.1355
#
#
#
# Elastic Compliance Matrix: (Units=1/GPa)
#
#
# Indices 1 2 3 4 5 6 
#
# 1 0.015918 -0.003009 -0.005259 0.000000 0.004110 0.000000
# 2 -0.003009 0.012155 -0.002185 0.000000 0.001451 0.000000
# 3 -0.005259 -0.002185 0.011328 0.000000 -0.006439 0.000000
# 4 0.000000 0.000000 0.000000 0.043565 0.000000 -0.005004
# 5 0.004110 0.001451 -0.006439 0.000000 0.042754 0.000000
# 6 0.000000 0.000000 0.000000 -0.005004 0.000000 0.042007
#
#
# Mechanical properties :
#
#
# Convention : Reuss Voigt Hill
#
# Bulk Modulus (GPa) = 54.06720 55.88827 54.97773
# Shear Modulus (GPa) = 25.66767 27.78393 26.72580
#
# Velocity S-wave (km/s) = 3.47009 3.61031 3.54089
# Velocity P-wave (km/s) = 6.43584 6.60288 6.51989
#
# Compressibility (1/GPa) = 0.01849550
#
# Stress axis : x y z
#
# Youngs Moduli (GPa) = 62.82233 82.27290 88.27350
#
# Poissons Ratio (x) = 0.24754 0.46425
# Poissons Ratio (y) = 0.18902 0.19285
# Poissons Ratio (z) = 0.33040 0.17974
#
# Static dielectric constant tensor:
#      x y z
#    x 3.854930 0.000000 0.270780 
#    y 0.000000 3.786680 0.000000 
#    z 0.270780 0.000000 4.195820 
# 
# 
# High freq. dielectric constant tensor:
#      x y z
#    x 1.833000 0.000000 0.023040 
#    y 0.000000 1.832660 0.000000 
#    z 0.023040 0.000000 1.834540 
# 
# From -- ./inp_files/162525.got.cif
#   From: 2010.06.25/outbox.cif.g09.slc.cpg/sg15_82_cif.got.tgz:162525.got - 2010.06.28 07:06:18.
