data_PCOD8139954
_publ_section_title
;
Structure prediction by ZEFSAII (Michael W. Deem and Ramdas Pophale) SiO2 
 PCOD8139954
Probable space group: C 2/C
;
_chemical_formula_sum "Si O2"
_cell_formula_units_Z 64
_cell_length_a 23.830938
_cell_length_b 11.958932
_cell_length_c 14.653125
_cell_angle_alpha 90.000000
_cell_angle_beta 46.469555
_cell_angle_gamma 90.000000
_cell_volume 3027.658488
_symmetry_space_group_name_H-M "C 2/C"
_symmetry_group_IT_number 15
_symmetry_cell_setting 'monoclinic'
loop_
_space_group_symop_operation_xyz
x,y,z
-x,y,1/2-z
-x,-y,-z
x,-y,1/2+z
1/2+x,1/2+y,z
1/2-x,1/2+y,1/2-z
1/2-x,1/2-y,-z
1/2+x,1/2-y,1/2+z
loop_
_atom_site_type_symbol
_atom_site_label
_atom_site_fract_x
_atom_site_fract_y
_atom_site_fract_z
Si Si1 0.102628 0.744851 0.715722
Si Si2 0.644626 0.031208 0.445166
Si Si3 0.566864 0.247706 0.546426
Si Si4 0.082526 0.735008 0.200396
Si Si5 0.648324 0.636672 0.791334
Si Si6 0.675193 0.792304 0.416048
Si Si7 0.083325 0.489273 0.200241
Si Si8 0.812593 0.886080 0.744084
O O1 0.106350 0.756374 0.602047
O O2 0.108726 0.612720 0.737332
O O3 0.172614 0.815810 0.679708
O O4 0.021547 0.787981 0.848886
O O5 0.574655 0.117719 0.501932
O O6 0.722253 0.094089 0.327741
O O7 0.635537 0.904714 0.415475
O O8 0.648452 0.004830 0.548799
O O9 0.612509 0.327580 0.427445
O O10 0.097720 0.823421 0.262400
O O11 0.080085 0.611075 0.251035
O O12 0.000000 0.763603 0.250000
O O13 0.146282 0.739207 0.049412
O O14 0.733455 0.685949 0.682886
O O15 0.643857 0.503133 0.797031
O O16 0.654034 0.687085 0.376604
O O17 0.000000 0.456633 0.250000
#
# Coordination Sequence:
#
# PCOD8139954 Si02
#       8
#     8   8   8   8   8   8   8   8
#     4  10  21  38  62  92 125 156 197 257 310 358
#     4   9  18  38  62  87 121 155 201 254 300 363
#     4  10  20  40  64  88 122 161 200 249 314 360
#     4  10  23  41  65  93 121 161 208 254 312 362
#     4  11  24  43  62  88 127 167 205 252 301 368
#     4  10  22  42  63  89 126 157 203 259 305 359
#     4   9  16  36  62  90 119 147 199 257 301 358
#     4  11  24  39  60  92 124 161 210 249 298 374
#
# _framework density 21.138445999999998
#
# number of rings (size 3 to 8) (size 9 to 14) (size 15 to 20)
#    0.000    2.000    3.750    0.375    1.750    4.500 
#    2.250    1.250    0.000    0.000    0.000    0.000 
#    0.000    0.000    0.000    0.000    0.000    0.000 
#
# Total GULP energy -396543.734510 kJ/mol
# GULP energy per Si atom -12391.991703 kJ/mol
# Density = 2.109033 g / cm^3
# Si number density = 21.138446 Si / 1000 Ang^3
#
#
#
# Elastic Constant Matrix: (Units=GPa)
#
#
# Indices 1 2 3 4 5 6 
#
# 1 52.1835 50.9628 23.8742 0.0000 15.4795 0.0000
# 2 50.9628 162.9777 41.6857 0.0000 12.4655 0.0000
# 3 23.8742 41.6857 112.0126 0.0000 6.6338 0.0000
# 4 0.0000 0.0000 0.0000 31.9865 0.0000 6.3489
# 5 15.4795 12.4655 6.6338 0.0000 19.1972 0.0000
# 6 0.0000 0.0000 0.0000 6.3489 0.0000 30.7907
#
#
#
# Elastic Compliance Matrix: (Units=1/GPa)
#
#
# Indices 1 2 3 4 5 6 
#
# 1 0.035522 -0.008646 -0.003052 0.000000 -0.021973 0.000000
# 2 -0.008646 0.009139 -0.001654 0.000000 0.001609 0.000000
# 3 -0.003052 -0.001654 0.010193 0.000000 0.000012 0.000000
# 4 0.000000 0.000000 0.000000 0.032597 0.000000 -0.006721
# 5 -0.021973 0.001609 0.000012 0.000000 0.068760 0.000000
# 6 0.000000 0.000000 0.000000 -0.006721 0.000000 0.033863
#
#
# Mechanical properties :
#
#
# Convention : Reuss Voigt Hill
#
# Bulk Modulus (GPa) = 35.52407 62.24659 48.88533
# Shear Modulus (GPa) = 22.10811 30.43828 26.27320
#
# Velocity S-wave (km/s) = 3.23750 3.79878 3.52932
# Velocity P-wave (km/s) = 5.55132 6.98226 6.30750
#
# Compressibility (1/GPa) = 0.02814993
#
# Stress axis : x y z
#
# Youngs Moduli (GPa) = 28.15196 109.41645 98.10916
#
# Poissons Ratio (x) = 0.94604 0.29942
# Poissons Ratio (y) = 0.24341 0.16224
# Poissons Ratio (z) = 0.08592 0.18094
#
# Static dielectric constant tensor:
#      x y z
#    x 3.344090 0.000000 -0.082960 
#    y 0.000000 4.052550 0.000000 
#    z -0.082960 0.000000 3.911200 
# 
# 
# High freq. dielectric constant tensor:
#      x y z
#    x 1.787400 0.000000 -0.006990 
#    y 0.000000 1.838460 0.000000 
#    z -0.006990 0.000000 1.838410 
# 
# From -- ./inp_files/177797.got.cif
#   From: 2010.06.25/outbox.cif.g09.slc.cpg/sg15_89_cif.got.tgz:177797.got - 2010.06.28 07:06:18.
