data_PCOD8139556
_publ_section_title
;
Structure prediction by ZEFSAII (Michael W. Deem and Ramdas Pophale) SiO2 
 PCOD8139556
Probable space group: C 2/C
;
_chemical_formula_sum "Si O2"
_cell_formula_units_Z 48
_cell_length_a 11.236797
_cell_length_b 15.298578
_cell_length_c 14.043831
_cell_angle_alpha 90.000000
_cell_angle_beta 101.292586
_cell_angle_gamma 90.000000
_cell_volume 2367.493533
_symmetry_space_group_name_H-M "C 2/C"
_symmetry_group_IT_number 15
_symmetry_cell_setting 'monoclinic'
loop_
_space_group_symop_operation_xyz
x,y,z
-x,y,1/2-z
-x,-y,-z
x,-y,1/2+z
1/2+x,1/2+y,z
1/2-x,1/2+y,1/2-z
1/2-x,1/2-y,-z
1/2+x,1/2-y,1/2+z
loop_
_atom_site_type_symbol
_atom_site_label
_atom_site_fract_x
_atom_site_fract_y
_atom_site_fract_z
Si Si1 0.191687 0.558560 0.808117
Si Si2 0.359869 0.283770 0.898146
Si Si3 0.087446 0.262938 0.887528
Si Si4 0.500000 0.198303 0.750000
Si Si5 0.500000 0.911591 0.750000
Si Si6 0.137121 0.027281 0.023049
Si Si7 0.387366 0.582536 0.682894
O O1 0.271042 0.541948 0.915272
O O2 0.276397 0.593228 0.737159
O O3 0.098472 0.636325 0.817277
O O4 0.120259 0.471123 0.763318
O O5 0.220656 0.259090 0.861110
O O6 0.439875 0.259968 0.819495
O O7 0.358923 0.386670 0.912930
O O8 0.411382 0.232078 0.998033
O O9 0.039277 0.169776 0.842079
O O10 0.008462 0.346390 0.842219
O O11 0.175205 0.038140 0.918899
O O12 0.000000 0.000000 0.000000
O O13 0.500000 0.528864 0.750000
#
# Coordination Sequence:
#
# PCOD8139556 Si02
#       7
#     8   8   8   4   4   8   8
#     4  11  24  39  60  99 129 164 206 265 321 360
#     4  10  22  40  63  89 122 167 210 256 315 374
#     4  10  20  39  64  88 117 167 218 251 301 387
#     4  11  24  42  66  91 136 166 204 265 320 378
#     4  11  22  38  64  93 128 158 216 265 308 376
#     4  11  23  40  62  93 127 161 213 262 312 372
#     4  11  21  38  66  87 123 171 212 252 308 386
#
# _framework density 20.274605999999999
#
# number of rings (size 3 to 8) (size 9 to 14) (size 15 to 20)
#    0.000    1.333    5.833    0.000    0.000    2.667 
#    0.000    4.167    0.000    0.000    0.000    0.000 
#    0.000    0.000    0.000    0.000    0.000    0.000 
#
# Total GULP energy -297452.139509 kJ/mol
# GULP energy per Si atom -12393.839146 kJ/mol
# Density = 2.022846 g / cm^3
# Si number density = 20.274606 Si / 1000 Ang^3
#
#
#
# Elastic Constant Matrix: (Units=GPa)
#
#
# Indices 1 2 3 4 5 6 
#
# 1 75.5978 0.6715 47.2671 0.0000 0.7950 0.0000
# 2 0.6715 39.0067 31.5664 0.0000 0.2679 0.0000
# 3 47.2671 31.5664 127.5949 0.0000 1.4569 0.0000
# 4 0.0000 0.0000 0.0000 21.8965 0.0000 2.1772
# 5 0.7950 0.2679 1.4569 0.0000 39.8118 0.0000
# 6 0.0000 0.0000 0.0000 2.1772 0.0000 27.3729
#
#
#
# Elastic Compliance Matrix: (Units=1/GPa)
#
#
# Indices 1 2 3 4 5 6 
#
# 1 0.018453 0.006519 -0.008447 0.000000 -0.000103 0.000000
# 2 0.006519 0.034357 -0.010915 0.000000 0.000038 0.000000
# 3 -0.008447 -0.010915 0.013670 0.000000 -0.000258 0.000000
# 4 0.000000 0.000000 0.000000 0.046034 0.000000 -0.003661
# 5 -0.000103 0.000038 -0.000258 0.000000 0.025129 0.000000
# 6 0.000000 0.000000 0.000000 -0.003661 0.000000 0.036824
#
#
# Mechanical properties :
#
#
# Convention : Reuss Voigt Hill
#
# Bulk Modulus (GPa) = 24.51395 44.57883 34.54639
# Shear Modulus (GPa) = 23.39162 28.66252 26.02707
#
# Velocity S-wave (km/s) = 3.40036 3.76402 3.58680
# Velocity P-wave (km/s) = 5.24727 6.39732 5.85062
#
# Compressibility (1/GPa) = 0.04079310
#
# Stress axis : x y z
#
# Youngs Moduli (GPa) = 54.19234 29.10575 73.15297
#
# Poissons Ratio (x) = -0.18975 0.61795
# Poissons Ratio (y) = -0.35329 0.79849
# Poissons Ratio (z) = 0.45779 0.31770
#
# Static dielectric constant tensor:
#      x y z
#    x 3.650340 0.000000 -0.094460 
#    y 0.000000 3.562850 0.000000 
#    z -0.094460 0.000000 4.828790 
# 
# 
# High freq. dielectric constant tensor:
#      x y z
#    x 1.787160 0.000000 0.019320 
#    y 0.000000 1.786400 0.000000 
#    z 0.019320 0.000000 1.797330 
# 
# From -- ./inp_files/87502.got.cif
#   From: 2010.06.25/outbox.cif.g09.slc.cpg/sg15_44_cif.got.tgz:87502.got - 2010.06.28 07:06:18.
