data_PCOD8139550
_publ_section_title
;
Structure prediction by ZEFSAII (Michael W. Deem and Ramdas Pophale) SiO2 
 PCOD8139550
Probable space group: C 2/C
;
_chemical_formula_sum "Si O2"
_cell_formula_units_Z 56
_cell_length_a 29.574653
_cell_length_b 8.977733
_cell_length_c 13.573494
_cell_angle_alpha 90.000000
_cell_angle_beta 51.820966
_cell_angle_gamma 90.000000
_cell_volume 2832.999354
_symmetry_space_group_name_H-M "C 2/C"
_symmetry_group_IT_number 15
_symmetry_cell_setting 'monoclinic'
loop_
_space_group_symop_operation_xyz
x,y,z
-x,y,1/2-z
-x,-y,-z
x,-y,1/2+z
1/2+x,1/2+y,z
1/2-x,1/2+y,1/2-z
1/2-x,1/2-y,-z
1/2+x,1/2-y,1/2+z
loop_
_atom_site_type_symbol
_atom_site_label
_atom_site_fract_x
_atom_site_fract_y
_atom_site_fract_z
Si Si1 0.356739 0.310447 0.546794
Si Si2 0.769697 0.667486 0.322133
Si Si3 0.343946 0.039880 0.056058
Si Si4 0.564817 0.528230 0.942489
Si Si5 0.754291 0.971049 0.442393
Si Si6 0.123867 0.992419 0.168242
Si Si7 0.937188 0.238784 0.370308
O O1 0.291115 0.369378 0.651528
O O2 0.401388 0.381158 0.564171
O O3 0.374433 0.358670 0.412685
O O4 0.358615 0.132739 0.553315
O O5 0.824093 0.617126 0.184248
O O6 0.771799 0.842774 0.340771
O O7 0.775871 0.587697 0.418516
O O8 0.292504 0.073230 0.048207
O O9 0.400621 0.112547 0.933742
O O10 0.596321 0.582858 0.801511
O O11 0.500000 0.500000 0.000000
O O12 0.564826 0.655868 0.023183
O O13 0.812576 0.057130 0.392785
O O14 0.087342 0.132310 0.181327
O O15 0.000000 0.287744 0.250000
#
# Coordination Sequence:
#
# PCOD8139550 Si02
#       7
#     8   8   8   8   8   8   8
#     4   9  22  38  61  94 117 155 196 242 300 356
#     4   9  18  36  58  87 126 147 186 235 299 366
#     4  11  22  38  62  90 128 151 189 254 305 355
#     4  11  21  40  65  79 111 165 209 242 282 352
#     4   9  19  35  60  91 114 157 189 234 301 357
#     4  10  20  39  64  86 118 151 207 242 286 363
#     4  11  24  41  55  86 120 156 201 252 296 340
#
# _framework density 19.767037999999999
#
# number of rings (size 3 to 8) (size 9 to 14) (size 15 to 20)
#    0.000    2.000    1.429    2.571    0.000    7.429 
#    2.571    0.714    0.000    0.000    0.000    0.000 
#    0.000    0.000    0.000    0.000    0.000    0.000 
#
# Total GULP energy -347121.538684 kJ/mol
# GULP energy per Si atom -12397.197810 kJ/mol
# Density = 1.972205 g / cm^3
# Si number density = 19.767038 Si / 1000 Ang^3
#
#
#
# Elastic Constant Matrix: (Units=GPa)
#
#
# Indices 1 2 3 4 5 6 
#
# 1 116.8365 32.9304 46.1612 0.0000 -5.8173 0.0000
# 2 32.9304 73.7216 52.4980 0.0000 -9.1510 0.0001
# 3 46.1612 52.4980 137.1966 0.0000 -14.8648 0.0000
# 4 0.0000 0.0000 0.0000 18.2347 0.0000 -8.0454
# 5 -5.8173 -9.1510 -14.8648 0.0000 31.1036 0.0000
# 6 0.0000 0.0001 0.0000 -8.0454 0.0000 27.3461
#
#
#
# Elastic Compliance Matrix: (Units=1/GPa)
#
#
# Indices 1 2 3 4 5 6 
#
# 1 0.010314 -0.002940 -0.002352 0.000000 -0.000060 0.000000
# 2 -0.002940 0.019625 -0.006280 0.000000 0.002223 0.000000
# 3 -0.002352 -0.006280 0.010794 0.000000 0.002871 0.000000
# 4 0.000000 0.000000 0.000000 0.063021 0.000000 0.018541
# 5 -0.000060 0.002223 0.002871 0.000000 0.034166 0.000000
# 6 0.000000 0.000000 0.000000 0.018541 0.000000 0.042023
#
#
# Mechanical properties :
#
#
# Convention : Reuss Voigt Hill
#
# Bulk Modulus (GPa) = 56.84743 65.65932 61.25337
# Shear Modulus (GPa) = 23.92926 28.41455 26.17191
#
# Velocity S-wave (km/s) = 3.48309 3.79551 3.64265
# Velocity P-wave (km/s) = 6.70798 7.24545 6.98189
#
# Compressibility (1/GPa) = 0.01759095
#
# Stress axis : x y z
#
# Youngs Moduli (GPa) = 96.95830 50.95424 92.64337
#
# Poissons Ratio (x) = 0.14979 0.21788
# Poissons Ratio (y) = 0.28503 0.58177
# Poissons Ratio (z) = 0.22802 0.31998
#
# Static dielectric constant tensor:
#      x y z
#    x 4.095640 0.000000 0.212070 
#    y 0.000000 3.223500 0.000000 
#    z 0.212070 0.000000 3.856970 
# 
# 
# High freq. dielectric constant tensor:
#      x y z
#    x 1.780290 0.000000 0.004410 
#    y 0.000000 1.741310 0.000000 
#    z 0.004410 0.000000 1.781920 
# 
# From -- ./inp_files/125840.got.cif
#   From: 2010.06.25/outbox.cif.g09.slc.cpg/sg15_63_cif.got.tgz:125840.got - 2010.06.28 07:06:18.
