data_PCOD8139347
_publ_section_title
;
Structure prediction by ZEFSAII (Michael W. Deem and Ramdas Pophale) SiO2 
 PCOD8139347
Probable space group: C 2/C
;
_chemical_formula_sum "Si O2"
_cell_formula_units_Z 60
_cell_length_a 25.818751
_cell_length_b 13.533150
_cell_length_c 11.977459
_cell_angle_alpha 90.000000
_cell_angle_beta 46.455118
_cell_angle_gamma 90.000000
_cell_volume 3033.457633
_symmetry_space_group_name_H-M "C 2/C"
_symmetry_group_IT_number 15
_symmetry_cell_setting 'monoclinic'
loop_
_space_group_symop_operation_xyz
x,y,z
-x,y,1/2-z
-x,-y,-z
x,-y,1/2+z
1/2+x,1/2+y,z
1/2-x,1/2+y,1/2-z
1/2-x,1/2-y,-z
1/2+x,1/2-y,1/2+z
loop_
_atom_site_type_symbol
_atom_site_label
_atom_site_fract_x
_atom_site_fract_y
_atom_site_fract_z
Si Si1 0.000000 0.145689 0.250000
Si Si2 0.944676 0.794546 0.608331
Si Si3 0.808906 0.891720 0.754027
Si Si4 0.379315 0.488207 0.447289
Si Si5 0.762164 0.472718 0.445813
Si Si6 0.813978 0.676532 0.436688
Si Si7 0.949033 0.797927 0.237139
Si Si8 0.827681 0.679091 0.675452
O O1 0.022951 0.219272 0.316015
O O2 0.065389 0.076608 0.111965
O O3 0.883851 0.878573 0.710683
O O4 0.908388 0.695997 0.606502
O O5 0.007868 0.834141 0.434982
O O6 0.827189 0.970563 0.631022
O O7 0.786143 0.784035 0.739879
O O8 0.738942 0.923337 0.929344
O O9 0.323050 0.512127 0.434822
O O10 0.420467 0.389293 0.352515
O O11 0.805117 0.575217 0.380990
O O12 0.790977 0.402580 0.306560
O O13 0.750000 0.750000 0.500000
O O14 0.886482 0.727066 0.287188
O O15 0.823067 0.647550 0.553442
O O16 0.000000 0.740309 0.250000
#
# Coordination Sequence:
#
# PCOD8139347 Si02
#       8
#     4   8   8   8   8   8   8   8
#     4  12  24  36  62 108 132 172 224 270 346 418
#     4  10  23  40  65  91 132 175 216 263 338 396
#     4  10  20  39  60  88 129 176 206 265 338 387
#     4  12  21  35  62  98 132 162 216 277 334 394
#     4  12  24  38  63  99 132 173 223 271 333 396
#     4  12  24  41  68 102 131 171 233 274 328 407
#     4  12  20  42  67  88 129 176 211 274 337 389
#     4  10  22  45  63  90 137 177 214 272 335 396
#
# _framework density 19.779408
#
# number of rings (size 3 to 8) (size 9 to 14) (size 15 to 20)
#    0.800    0.000    7.333    1.200    1.867    2.133 
#    0.000    3.333    1.467    0.000    0.000    0.000 
#    0.000    0.000    0.000    0.000    0.000    0.000 
#
# Total GULP energy -371669.009471 kJ/mol
# GULP energy per Si atom -12388.966982 kJ/mol
# Density = 1.973439 g / cm^3
# Si number density = 19.779408 Si / 1000 Ang^3
#
#
#
# Elastic Constant Matrix: (Units=GPa)
#
#
# Indices 1 2 3 4 5 6 
#
# 1 98.1407 35.0789 28.1046 0.0000 0.6064 0.0000
# 2 35.0789 62.2010 29.0130 0.0000 -4.3320 0.0000
# 3 28.1046 29.0130 95.8206 0.0000 12.0598 0.0000
# 4 0.0000 0.0000 0.0000 24.0391 0.0000 2.5359
# 5 0.6064 -4.3320 12.0598 0.0000 32.5692 0.0000
# 6 0.0000 0.0000 0.0000 2.5359 0.0000 25.1544
#
#
#
# Elastic Compliance Matrix: (Units=1/GPa)
#
#
# Indices 1 2 3 4 5 6 
#
# 1 0.013047 -0.006558 -0.001784 0.000000 -0.000455 0.000000
# 2 -0.006558 0.022765 -0.005628 0.000000 0.005234 0.000000
# 3 -0.001784 -0.005628 0.013377 0.000000 -0.005669 0.000000
# 4 0.000000 0.000000 0.000000 0.042046 0.000000 -0.004239
# 5 -0.000455 0.005234 -0.005669 0.000000 0.033507 0.000000
# 6 0.000000 0.000000 0.000000 -0.004239 0.000000 0.040182
#
#
# Mechanical properties :
#
#
# Convention : Reuss Voigt Hill
#
# Bulk Modulus (GPa) = 47.06031 48.95057 48.00544
# Shear Modulus (GPa) = 25.00666 27.28362 26.14514
#
# Velocity S-wave (km/s) = 3.55953 3.71805 3.63965
# Velocity P-wave (km/s) = 6.38262 6.57524 6.47965
#
# Compressibility (1/GPa) = 0.02124933
#
# Stress axis : x y z
#
# Youngs Moduli (GPa) = 76.64575 43.92741 74.75507
#
# Poissons Ratio (x) = 0.28805 0.13337
# Poissons Ratio (y) = 0.50261 0.42074
# Poissons Ratio (z) = 0.13674 0.24723
#
# Static dielectric constant tensor:
#      x y z
#    x 3.736000 0.000000 -0.002350 
#    y 0.000000 3.288440 0.000000 
#    z -0.002350 0.000000 3.508370 
# 
# 
# High freq. dielectric constant tensor:
#      x y z
#    x 1.773550 0.000000 0.009830 
#    y 0.000000 1.739720 0.000000 
#    z 0.009830 0.000000 1.771630 
# 
# From -- ./inp_files/123137.got.cif
#   From: 2010.06.25/outbox.cif.g09.slc.cpg/sg15_62_cif.got.tgz:123137.got - 2010.06.28 07:06:18.
