data_PCOD8139738
_publ_section_title
;
Structure prediction by ZEFSAII (Michael W. Deem and Ramdas Pophale) SiO2 
 PCOD8139738
Probable space group: C 2/C
;
_chemical_formula_sum "Si O2"
_cell_formula_units_Z 52
_cell_length_a 29.562630
_cell_length_b 8.633581
_cell_length_c 15.126028
_cell_angle_alpha 90.000000
_cell_angle_beta 39.762251
_cell_angle_gamma 90.000000
_cell_volume 2469.276293
_symmetry_space_group_name_H-M "C 2/C"
_symmetry_group_IT_number 15
_symmetry_cell_setting 'monoclinic'
loop_
_space_group_symop_operation_xyz
x,y,z
-x,y,1/2-z
-x,-y,-z
x,-y,1/2+z
1/2+x,1/2+y,z
1/2-x,1/2+y,1/2-z
1/2-x,1/2-y,-z
1/2+x,1/2-y,1/2+z
loop_
_atom_site_type_symbol
_atom_site_label
_atom_site_fract_x
_atom_site_fract_y
_atom_site_fract_z
Si Si1 0.536352 0.567997 0.531360
Si Si2 0.316995 0.597117 0.675103
Si Si3 0.389192 0.853683 0.471235
Si Si4 0.739381 0.948175 0.939810
Si Si5 0.557262 0.078109 0.975185
Si Si6 0.713917 0.892829 0.171613
Si Si7 0.500000 0.388984 0.750000
O O1 0.500000 0.500000 0.500000
O O2 0.617746 0.521069 0.421114
O O3 0.530908 0.751944 0.539301
O O4 0.490287 0.498945 0.680360
O O5 0.342617 0.772979 0.619506
O O6 0.277688 0.587724 0.829096
O O7 0.262674 0.547537 0.678878
O O8 0.341625 0.937566 0.469986
O O9 0.430963 0.718055 0.358768
O O10 0.440482 0.979673 0.437709
O O11 0.779672 0.790148 0.854793
O O12 0.739457 0.982195 0.044413
O O13 0.632556 0.074057 0.813944
O O14 0.500000 0.000000 0.000000
#
# Coordination Sequence:
#
# PCOD8139738 Si02
#       7
#     8   8   8   8   8   8   4
#     4  11  25  44  70  94 134 182 224 276 331 410
#     4  10  20  42  65  95 132 173 222 271 328 402
#     4  10  23  39  70  95 135 177 219 287 330 390
#     4  10  20  39  69  95 128 175 223 266 326 402
#     4  12  24  42  65 101 139 172 222 285 342 389
#     4  10  22  38  65  99 125 174 224 266 333 391
#     4  10  24  46  66  98 130 180 236 264 344 404
#
# _framework density 21.058802
#
# number of rings (size 3 to 8) (size 9 to 14) (size 15 to 20)
#    0.000    1.538    3.077    1.846    4.308    3.077 
#    0.000    0.769    0.000    0.000    0.000    0.000 
#    0.000    0.000    0.000    0.000    0.000    0.000 
#
# Total GULP energy -322436.952974 kJ/mol
# GULP energy per Si atom -12401.421268 kJ/mol
# Density = 2.101087 g / cm^3
# Si number density = 21.058802 Si / 1000 Ang^3
#
#
#
# Elastic Constant Matrix: (Units=GPa)
#
#
# Indices 1 2 3 4 5 6 
#
# 1 144.1154 51.9920 54.2661 -0.0001 -0.7596 0.0000
# 2 51.9920 107.5708 40.4505 0.0007 2.1737 0.0002
# 3 54.2661 40.4505 114.3755 0.0001 12.7894 0.0001
# 4 -0.0001 0.0007 0.0001 29.6026 0.0000 2.3042
# 5 -0.7596 2.1737 12.7894 0.0000 43.8792 -0.0001
# 6 0.0000 0.0002 0.0001 2.3042 -0.0001 36.7727
#
#
#
# Elastic Compliance Matrix: (Units=1/GPa)
#
#
# Indices 1 2 3 4 5 6 
#
# 1 0.009435 -0.003285 -0.003464 0.000000 0.001336 0.000000
# 2 -0.003285 0.011881 -0.002658 0.000000 0.000129 0.000000
# 3 -0.003464 -0.002658 0.011700 0.000000 -0.003339 0.000000
# 4 0.000000 0.000000 0.000000 0.033946 0.000000 -0.002127
# 5 0.001336 0.000129 -0.003339 0.000000 0.023780 0.000000
# 6 0.000000 0.000000 0.000000 -0.002127 0.000000 0.027327
#
#
# Mechanical properties :
#
#
# Convention : Reuss Voigt Hill
#
# Bulk Modulus (GPa) = 70.41031 73.27544 71.84287
# Shear Modulus (GPa) = 35.30642 36.67443 35.99042
#
# Velocity S-wave (km/s) = 4.09903 4.17769 4.13854
# Velocity P-wave (km/s) = 7.47732 7.62508 7.55157
#
# Compressibility (1/GPa) = 0.01420247
#
# Stress axis : x y z
#
# Youngs Moduli (GPa) = 105.98353 84.17100 85.46932
#
# Poissons Ratio (x) = 0.27647 0.29610
# Poissons Ratio (y) = 0.34812 0.22716
# Poissons Ratio (z) = 0.36717 0.22371
#
# Static dielectric constant tensor:
#      x y z
#    x 3.901660 0.000000 -0.004130 
#    y 0.000000 3.773640 0.000000 
#    z -0.004130 0.000000 3.793960 
# 
# 
# High freq. dielectric constant tensor:
#      x y z
#    x 1.835390 0.000000 -0.003510 
#    y 0.000000 1.813890 0.000000 
#    z -0.003510 0.000000 1.826140 
# 
# From -- ./inp_files/181052.got.cif
#   From: 2010.06.25/outbox.cif.g09.slc.cpg/sg15_91_cif.got.tgz:181052.got - 2010.06.28 07:06:18.
