data_PCOD8139999
_publ_section_title
;
Structure prediction by ZEFSAII (Michael W. Deem and Ramdas Pophale) SiO2 
 PCOD8139999
Probable space group: C 2/C
;
_chemical_formula_sum "Si O2"
_cell_formula_units_Z 60
_cell_length_a 15.490601
_cell_length_b 18.725567
_cell_length_c 16.808635
_cell_angle_alpha 90.000000
_cell_angle_beta 143.354553
_cell_angle_gamma 90.000000
_cell_volume 2910.108919
_symmetry_space_group_name_H-M "C 2/C"
_symmetry_group_IT_number 15
_symmetry_cell_setting 'monoclinic'
loop_
_space_group_symop_operation_xyz
x,y,z
-x,y,1/2-z
-x,-y,-z
x,-y,1/2+z
1/2+x,1/2+y,z
1/2-x,1/2+y,1/2-z
1/2-x,1/2-y,-z
1/2+x,1/2-y,1/2+z
loop_
_atom_site_type_symbol
_atom_site_label
_atom_site_fract_x
_atom_site_fract_y
_atom_site_fract_z
Si Si1 0.753338 0.890428 0.646936
Si Si2 0.575240 0.107753 0.625528
Si Si3 0.439453 0.726045 0.534569
Si Si4 0.313508 0.960517 0.740301
Si Si5 0.600544 0.118825 0.458897
Si Si6 0.500000 0.472933 0.750000
Si Si7 0.725486 0.251448 0.746904
Si Si8 0.645360 0.421482 0.465194
O O1 0.596454 0.889592 0.490384
O O2 0.752973 0.939538 0.724595
O O3 0.863451 0.922261 0.664585
O O4 0.801827 0.810377 0.705674
O O5 0.618677 0.099303 0.565124
O O6 0.643024 0.179760 0.711465
O O7 0.636192 0.042277 0.720899
O O8 0.391435 0.795947 0.548817
O O9 0.334669 0.717994 0.381002
O O10 0.604232 0.736224 0.630331
O O11 0.425261 0.656847 0.579446
O O12 0.446056 0.909009 0.814382
O O13 0.191770 0.951846 0.584246
O O14 0.724464 0.079830 0.501505
O O15 0.474030 0.523656 0.654852
#
# Coordination Sequence:
#
# PCOD8139999 Si02
#       8
#     8   8   8   8   8   4   8   8
#     4  11  22  47  64  94 132 173 224 272 335 391
#     4  10  22  40  72  93 127 178 224 270 325 404
#     4  11  22  39  65 101 135 176 214 266 332 405
#     4  11  21  40  69  91 129 177 226 268 322 403
#     4  10  20  40  64  96 137 174 208 263 340 401
#     4  12  30  42  64  92 138 178 214 290 336 384
#     4  11  21  42  70  97 124 176 228 270 324 394
#     4  12  25  39  59 103 139 167 219 271 337 400
#
# _framework density 20.617785000000001
#
# number of rings (size 3 to 8) (size 9 to 14) (size 15 to 20)
#    0.000    1.067    5.333    4.000    5.600    1.600 
#    2.400    0.667    2.933    0.000    0.000    0.000 
#    0.000    0.000    0.000    0.000    0.000    0.000 
#
# Total GULP energy -372154.869154 kJ/mol
# GULP energy per Si atom -12405.162305 kJ/mol
# Density = 2.057086 g / cm^3
# Si number density = 20.617785 Si / 1000 Ang^3
#
#
#
# Elastic Constant Matrix: (Units=GPa)
#
#
# Indices 1 2 3 4 5 6 
#
# 1 50.8157 28.9668 2.8631 0.0006 17.3987 0.0003
# 2 28.9668 127.3425 39.2360 0.0005 -4.1955 0.0013
# 3 2.8631 39.2360 81.2781 0.0029 4.1337 0.0019
# 4 0.0006 0.0005 0.0029 36.8030 0.0027 3.2354
# 5 17.3987 -4.1955 4.1337 0.0027 18.1371 0.0020
# 6 0.0003 0.0013 0.0019 3.2354 0.0020 31.4693
#
#
#
# Elastic Compliance Matrix: (Units=1/GPa)
#
#
# Indices 1 2 3 4 5 6 
#
# 1 0.042513 -0.013420 0.007297 0.000002 -0.045549 0.000002
# 2 -0.013420 0.013647 -0.007012 -0.000001 0.017628 -0.000001
# 3 0.007297 -0.007012 0.016056 0.000000 -0.012281 0.000000
# 4 0.000002 -0.000001 0.000000 0.027420 -0.000006 -0.002819
# 5 -0.045549 0.017628 -0.012281 -0.000006 0.105707 -0.000006
# 6 0.000002 -0.000001 0.000000 -0.002819 -0.000006 0.032067
#
#
# Mechanical properties :
#
#
# Convention : Reuss Voigt Hill
#
# Bulk Modulus (GPa) = 21.76397 44.61866 33.19132
# Shear Modulus (GPa) = 17.92163 29.83992 23.88077
#
# Velocity S-wave (km/s) = 2.95147 3.80845 3.40702
# Velocity P-wave (km/s) = 4.71102 6.40523 5.62231
#
# Compressibility (1/GPa) = 0.04594749
#
# Stress axis : x y z
#
# Youngs Moduli (GPa) = 23.52217 73.27871 62.28311
#
# Poissons Ratio (x) = 0.98337 -0.45449
# Poissons Ratio (y) = 0.31566 0.43670
# Poissons Ratio (z) = -0.17164 0.51379
#
# Static dielectric constant tensor:
#      x y z
#    x 3.356530 0.000000 0.117400 
#    y 0.000000 4.011010 0.000000 
#    z 0.117400 0.000000 3.778800 
# 
# 
# High freq. dielectric constant tensor:
#      x y z
#    x 1.776730 0.000000 0.015300 
#    y 0.000000 1.824570 0.000000 
#    z 0.015300 0.000000 1.810190 
# 
# From -- ./inp_files/211763.got.cif
#   From: 2010.06.25/outbox.cif.g09.slc.cpg/sg15_106_cif.got.tgz:211763.got - 2010.06.28 07:06:18.
