data_PCOD8139181
_publ_section_title
;
Structure prediction by ZEFSAII (Michael W. Deem and Ramdas Pophale) SiO2 
 PCOD8139181
Probable space group: C 2/C
;
_chemical_formula_sum "Si O2"
_cell_formula_units_Z 60
_cell_length_a 23.458338
_cell_length_b 21.935727
_cell_length_c 8.989285
_cell_angle_alpha 90.000000
_cell_angle_beta 37.159335
_cell_angle_gamma 90.000000
_cell_volume 2794.058818
_symmetry_space_group_name_H-M "C 2/C"
_symmetry_group_IT_number 15
_symmetry_cell_setting 'monoclinic'
loop_
_space_group_symop_operation_xyz
x,y,z
-x,y,1/2-z
-x,-y,-z
x,-y,1/2+z
1/2+x,1/2+y,z
1/2-x,1/2+y,1/2-z
1/2-x,1/2-y,-z
1/2+x,1/2-y,1/2+z
loop_
_atom_site_type_symbol
_atom_site_label
_atom_site_fract_x
_atom_site_fract_y
_atom_site_fract_z
Si Si1 0.059183 0.600660 0.491243
Si Si2 0.402418 0.851304 0.120597
Si Si3 0.663744 0.802405 0.945972
Si Si4 0.607605 0.674124 0.030199
Si Si5 0.500000 0.257075 0.250000
Si Si6 0.258622 0.425291 0.175950
Si Si7 0.346037 0.329957 0.402800
Si Si8 0.743138 0.452395 0.981524
O O1 0.096253 0.667110 0.463460
O O2 0.146149 0.556664 0.279828
O O3 0.996503 0.611916 0.474328
O O4 0.000000 0.570775 0.750000
O O5 0.335441 0.841548 0.403995
O O6 0.344538 0.894791 0.129324
O O7 0.429496 0.787048 0.988100
O O8 0.766599 0.793695 0.660421
O O9 0.618007 0.738605 0.089385
O O10 0.500000 0.652419 0.250000
O O11 0.662369 0.625692 0.017394
O O12 0.656543 0.682894 0.767393
O O13 0.444851 0.304596 0.258384
O O14 0.272434 0.450635 0.311644
O O15 0.282201 0.479869 0.015629
O O16 0.322944 0.402708 0.467344
#
# Coordination Sequence:
#
# PCOD8139181 Si02
#       8
#     8   8   8   8   4   8   8   8
#     4   9  19  37  63  94 126 164 207 255 320 389
#     4  11  23  38  62 102 130 163 205 270 325 385
#     4  10  20  38  66  94 133 165 203 257 328 392
#     4  11  22  42  64  95 124 166 208 263 322 378
#     4  12  22  38  62 100 130 160 212 268 330 390
#     4  11  26  43  65  88 129 167 220 263 317 371
#     4  10  23  40  64  93 127 172 210 258 323 378
#     4  10  24  46  61  88 125 178 215 263 310 380
#
# _framework density 21.474136000000001
#
# number of rings (size 3 to 8) (size 9 to 14) (size 15 to 20)
#    0.000    1.600    0.000    4.800    5.600    5.867 
#    2.400    1.333    0.000    0.000    0.000    0.000 
#    0.000    0.000    0.000    0.000    0.000    0.000 
#
# Total GULP energy -371958.225965 kJ/mol
# GULP energy per Si atom -12398.607532 kJ/mol
# Density = 2.142526 g / cm^3
# Si number density = 21.474136 Si / 1000 Ang^3
#
#
#
# Elastic Constant Matrix: (Units=GPa)
#
#
# Indices 1 2 3 4 5 6 
#
# 1 102.9125 56.9259 1.0896 0.0000 -5.5580 0.0000
# 2 56.9259 105.3503 9.1941 0.0000 -10.4587 0.0000
# 3 1.0896 9.1941 59.8795 0.0000 -0.2217 0.0000
# 4 0.0000 0.0000 0.0000 22.7826 0.0000 3.0155
# 5 -5.5580 -10.4587 -0.2217 0.0000 22.4228 0.0000
# 6 0.0000 0.0000 0.0000 3.0155 0.0000 34.0742
#
#
#
# Elastic Compliance Matrix: (Units=1/GPa)
#
#
# Indices 1 2 3 4 5 6 
#
# 1 0.013909 -0.007604 0.000914 0.000000 -0.000090 0.000000
# 2 -0.007604 0.014249 -0.002032 0.000000 0.004741 0.000000
# 3 0.000914 -0.002032 0.016994 0.000000 -0.000553 0.000000
# 4 0.000000 0.000000 0.000000 0.044413 0.000000 -0.003930
# 5 -0.000090 0.004741 -0.000553 0.000000 0.046781 0.000000
# 6 0.000000 0.000000 0.000000 -0.003930 0.000000 0.029696
#
#
# Mechanical properties :
#
#
# Convention : Reuss Voigt Hill
#
# Bulk Modulus (GPa) = 36.09167 44.72907 40.41037
# Shear Modulus (GPa) = 25.94420 29.25144 27.59782
#
# Velocity S-wave (km/s) = 3.47963 3.69476 3.58881
# Velocity P-wave (km/s) = 5.74346 6.25110 6.00265
#
# Compressibility (1/GPa) = 0.02770723
#
# Stress axis : x y z
#
# Youngs Moduli (GPa) = 71.89707 70.17957 58.84601
#
# Poissons Ratio (x) = 0.53367 -0.05380
# Poissons Ratio (y) = 0.54673 0.11957
# Poissons Ratio (z) = -0.06573 0.14260
#
# Static dielectric constant tensor:
#      x y z
#    x 3.854940 0.000000 -0.029460 
#    y 0.000000 3.791420 0.000000 
#    z -0.029460 0.000000 3.901340 
# 
# 
# High freq. dielectric constant tensor:
#      x y z
#    x 1.839610 0.000000 0.003510 
#    y 0.000000 1.834630 0.000000 
#    z 0.003510 0.000000 1.842420 
# 
# From -- ./inp_files/63503.got.cif
#   From: 2010.06.25/outbox.cif.g09.slc.cpg/sg15_32_cif.got.tgz:63503.got - 2010.06.28 07:06:18.
