data_PCOD8139495
_publ_section_title
;
Structure prediction by ZEFSAII (Michael W. Deem and Ramdas Pophale) SiO2 
 PCOD8139495
Probable space group: C 2/C
;
_chemical_formula_sum "Si O2"
_cell_formula_units_Z 64
_cell_length_a 22.475327
_cell_length_b 12.522691
_cell_length_c 12.242984
_cell_angle_alpha 90.000000
_cell_angle_beta 109.261602
_cell_angle_gamma 90.000000
_cell_volume 3252.918570
_symmetry_space_group_name_H-M "C 2/C"
_symmetry_group_IT_number 15
_symmetry_cell_setting 'monoclinic'
loop_
_space_group_symop_operation_xyz
x,y,z
-x,y,1/2-z
-x,-y,-z
x,-y,1/2+z
1/2+x,1/2+y,z
1/2-x,1/2+y,1/2-z
1/2-x,1/2-y,-z
1/2+x,1/2-y,1/2+z
loop_
_atom_site_type_symbol
_atom_site_label
_atom_site_fract_x
_atom_site_fract_y
_atom_site_fract_z
Si Si1 0.787018 0.996276 0.234431
Si Si2 0.377415 0.578797 0.979926
Si Si3 0.301646 0.703345 0.110543
Si Si4 0.843838 0.390837 0.284023
Si Si5 0.614228 0.397571 0.364754
Si Si6 0.543438 0.712770 0.637561
Si Si7 0.070165 0.429286 0.764405
Si Si8 0.596836 0.206520 0.472917
O O1 0.779012 0.120866 0.193080
O O2 0.824442 0.976233 0.370391
O O3 0.718305 0.944210 0.203154
O O4 0.824601 0.938781 0.161117
O O5 0.424735 0.657449 0.947045
O O6 0.350984 0.647954 0.062311
O O7 0.413454 0.482896 0.064318
O O8 0.330365 0.807739 0.181726
O O9 0.250000 0.750000 0.000000
O O10 0.889489 0.479225 0.264160
O O11 0.883049 0.325114 0.395762
O O12 0.557059 0.363763 0.249725
O O13 0.642268 0.296038 0.448303
O O14 0.572368 0.828964 0.682661
O O15 0.470380 0.731290 0.569042
O O16 0.099414 0.398109 0.899041
O O17 0.000000 0.469703 0.750000
#
# Coordination Sequence:
#
# PCOD8139495 Si02
#       8
#     8   8   8   8   8   8   8   8
#     4  10  23  38  59  90 122 160 202 244 320 368
#     4  10  20  39  63  88 126 160 197 262 302 359
#     4  11  24  40  58  89 125 153 206 260 293 366
#     4  12  25  37  64  91 118 164 207 246 310 373
#     4   9  19  38  61  87 121 160 200 250 301 363
#     4   9  20  40  63  89 121 163 205 245 308 364
#     4   9  22  40  59  86 122 159 201 249 300 362
#     4  10  22  40  61  88 123 159 205 253 295 373
#
# _framework density 19.674638999999999
#
# number of rings (size 3 to 8) (size 9 to 14) (size 15 to 20)
#    0.000    2.000    1.250    1.875    3.500    5.000 
#    0.000    2.500    0.000    0.000    0.000    0.000 
#    0.000    0.000    0.000    0.000    0.000    0.000 
#
# Total GULP energy -396510.570415 kJ/mol
# GULP energy per Si atom -12390.955325 kJ/mol
# Density = 1.962986 g / cm^3
# Si number density = 19.674639 Si / 1000 Ang^3
#
#
#
# Elastic Constant Matrix: (Units=GPa)
#
#
# Indices 1 2 3 4 5 6 
#
# 1 85.6123 50.2806 40.4212 0.0000 -9.2082 0.0000
# 2 50.2806 108.2730 53.5577 0.0000 -5.0582 0.0000
# 3 40.4212 53.5577 107.6457 0.0000 -10.8456 0.0000
# 4 0.0000 0.0000 0.0000 41.2753 0.0000 -8.7253
# 5 -9.2082 -5.0582 -10.8456 0.0000 23.6556 0.0000
# 6 0.0000 0.0000 0.0000 -8.7253 0.0000 34.0567
#
#
#
# Elastic Compliance Matrix: (Units=1/GPa)
#
#
# Indices 1 2 3 4 5 6 
#
# 1 0.017225 -0.006383 -0.002887 0.000000 0.004016 0.000000
# 2 -0.006383 0.014617 -0.005044 0.000000 -0.001672 0.000000
# 3 -0.002887 -0.005044 0.013275 0.000000 0.003884 0.000000
# 4 0.000000 0.000000 0.000000 0.025615 0.000000 0.006563
# 5 0.004016 -0.001672 0.003884 0.000000 0.045260 0.000000
# 6 0.000000 0.000000 0.000000 0.006563 0.000000 0.031044
#
#
# Mechanical properties :
#
#
# Convention : Reuss Voigt Hill
#
# Bulk Modulus (GPa) = 60.65228 65.56112 63.10670
# Shear Modulus (GPa) = 27.59988 30.28229 28.94108
#
# Velocity S-wave (km/s) = 3.74948 3.92746 3.83950
# Velocity P-wave (km/s) = 7.04552 7.34586 7.19726
#
# Compressibility (1/GPa) = 0.01648743
#
# Stress axis : x y z
#
# Youngs Moduli (GPa) = 58.05659 68.41304 75.32992
#
# Poissons Ratio (x) = 0.43668 0.21751
# Poissons Ratio (y) = 0.37057 0.37998
# Poissons Ratio (z) = 0.16764 0.34509
#
# Static dielectric constant tensor:
#      x y z
#    x 3.501030 0.000000 -0.092890 
#    y 0.000000 3.973780 0.000000 
#    z -0.092890 0.000000 3.884470 
# 
# 
# High freq. dielectric constant tensor:
#      x y z
#    x 1.754250 0.000000 -0.009340 
#    y 0.000000 1.781060 0.000000 
#    z -0.009340 0.000000 1.777650 
# 
# From -- ./inp_files/118016.got.cif
#   From: 2010.06.25/outbox.cif.g09.slc.cpg/sg15_60_cif.got.tgz:118016.got - 2010.06.28 07:06:18.
