data_PCOD8139826
_publ_section_title
;
Structure prediction by ZEFSAII (Michael W. Deem and Ramdas Pophale) SiO2 
 PCOD8139826
Probable space group: C 2/C
;
_chemical_formula_sum "Si O2"
_cell_formula_units_Z 56
_cell_length_a 14.395741
_cell_length_b 12.131265
_cell_length_c 15.811238
_cell_angle_alpha 90.000000
_cell_angle_beta 64.242413
_cell_angle_gamma 90.000000
_cell_volume 2486.895637
_symmetry_space_group_name_H-M "C 2/C"
_symmetry_group_IT_number 15
_symmetry_cell_setting 'monoclinic'
loop_
_space_group_symop_operation_xyz
x,y,z
-x,y,1/2-z
-x,-y,-z
x,-y,1/2+z
1/2+x,1/2+y,z
1/2-x,1/2+y,1/2-z
1/2-x,1/2-y,-z
1/2+x,1/2-y,1/2+z
loop_
_atom_site_type_symbol
_atom_site_label
_atom_site_fract_x
_atom_site_fract_y
_atom_site_fract_z
Si Si1 0.068591 0.098111 0.942148
Si Si2 0.254756 0.424214 0.014091
Si Si3 0.566190 0.740062 0.390891
Si Si4 0.099637 0.207304 0.760014
Si Si5 0.620863 0.741891 0.137092
Si Si6 0.763687 0.140594 0.262036
Si Si7 0.221845 0.422577 0.382764
O O1 0.186260 0.064568 0.919946
O O2 0.066431 0.116143 0.842456
O O3 0.021033 0.208329 0.005401
O O4 0.000000 0.000000 0.000000
O O5 0.157417 0.346331 0.067423
O O6 0.340988 0.372598 0.918820
O O7 0.214002 0.535118 0.983338
O O8 0.504298 0.748204 0.323860
O O9 0.654505 0.642677 0.348942
O O10 0.618571 0.856170 0.397654
O O11 0.151389 0.312861 0.783631
O O12 0.179095 0.155926 0.661474
O O13 0.000000 0.249819 0.750000
O O14 0.676924 0.735933 0.205882
O O15 0.742010 0.022905 0.310198
#
# Coordination Sequence:
#
# PCOD8139826 Si02
#       7
#     8   8   8   8   8   8   8
#     4  11  21  38  63  88 118 163 216 250 301 369
#     4   9  18  34  58  90 115 155 199 258 303 354
#     4  10  22  36  61  95 123 160 206 258 303 373
#     4  11  23  41  60  85 122 165 200 251 309 375
#     4   9  17  34  60  88 118 149 202 256 304 351
#     4  10  20  40  61  86 124 158 204 254 312 365
#     4  10  22  39  62  89 125 162 204 256 316 364
#
# _framework density 22.518034
#
# number of rings (size 3 to 8) (size 9 to 14) (size 15 to 20)
#    0.000    2.000    1.429    2.143    2.000    2.857 
#    0.000   10.714    0.000    0.000    0.000    0.000 
#    0.000    0.000    0.000    0.000    0.000    0.000 
#
# Total GULP energy -346907.546703 kJ/mol
# GULP energy per Si atom -12389.555239 kJ/mol
# Density = 2.246678 g / cm^3
# Si number density = 22.518034 Si / 1000 Ang^3
#
#
#
# Elastic Constant Matrix: (Units=GPa)
#
#
# Indices 1 2 3 4 5 6 
#
# 1 177.4513 43.4816 18.5842 0.0000 -1.5975 0.0000
# 2 43.4816 73.4117 0.0425 0.0000 -7.2328 0.0000
# 3 18.5842 0.0425 25.9719 0.0000 5.7978 0.0000
# 4 0.0000 0.0000 0.0000 23.8938 0.0000 6.3424
# 5 -1.5975 -7.2328 5.7978 0.0000 27.2269 0.0000
# 6 0.0000 0.0000 0.0000 6.3424 0.0000 24.9023
#
#
#
# Elastic Compliance Matrix: (Units=1/GPa)
#
#
# Indices 1 2 3 4 5 6 
#
# 1 0.007228 -0.004237 -0.005258 0.000000 0.000418 0.000000
# 2 -0.004237 0.016491 0.002186 0.000000 0.003667 0.000000
# 3 -0.005258 0.002186 0.044308 0.000000 -0.009163 0.000000
# 4 0.000000 0.000000 0.000000 0.044886 0.000000 -0.011432
# 5 0.000418 0.003667 -0.009163 0.000000 0.039678 0.000000
# 6 0.000000 0.000000 0.000000 -0.011432 0.000000 0.043069
#
#
# Mechanical properties :
#
#
# Convention : Reuss Voigt Hill
#
# Bulk Modulus (GPa) = 18.72355 44.56129 31.64242
# Shear Modulus (GPa) = 21.92199 29.51970 25.72085
#
# Velocity S-wave (km/s) = 3.12353 3.62461 3.38336
# Velocity P-wave (km/s) = 4.61969 6.11140 5.41714
#
# Compressibility (1/GPa) = 0.05340867
#
# Stress axis : x y z
#
# Youngs Moduli (GPa) = 138.35077 60.63808 22.56942
#
# Poissons Ratio (x) = 0.25692 0.11868
# Poissons Ratio (y) = 0.58617 -0.04934
# Poissons Ratio (z) = 0.72751 -0.13256
#
# Static dielectric constant tensor:
#      x y z
#    x 4.227590 0.000000 0.085680 
#    y 0.000000 3.859320 0.000000 
#    z 0.085680 0.000000 4.188340 
# 
# 
# High freq. dielectric constant tensor:
#      x y z
#    x 1.896950 0.000000 -0.003970 
#    y 0.000000 1.862350 0.000000 
#    z -0.003970 0.000000 1.884570 
# 
# From -- ./inp_files/204369.got.cif
#   From: 2010.06.25/outbox.cif.g09.slc.cpg/sg15_103_cif.got.tgz:204369.got - 2010.06.28 07:06:18.
