data_PCOD8139912
_publ_section_title
;
Structure prediction by ZEFSAII (Michael W. Deem and Ramdas Pophale) SiO2 
 PCOD8139912
Probable space group: C 2/C
;
_chemical_formula_sum "Si O2"
_cell_formula_units_Z 64
_cell_length_a 31.430264
_cell_length_b 9.051602
_cell_length_c 14.768449
_cell_angle_alpha 90.000000
_cell_angle_beta 47.105735
_cell_angle_gamma 90.000000
_cell_volume 3078.093588
_symmetry_space_group_name_H-M "C 2/C"
_symmetry_group_IT_number 15
_symmetry_cell_setting 'monoclinic'
loop_
_space_group_symop_operation_xyz
x,y,z
-x,y,1/2-z
-x,-y,-z
x,-y,1/2+z
1/2+x,1/2+y,z
1/2-x,1/2+y,1/2-z
1/2-x,1/2-y,-z
1/2+x,1/2-y,1/2+z
loop_
_atom_site_type_symbol
_atom_site_label
_atom_site_fract_x
_atom_site_fract_y
_atom_site_fract_z
Si Si1 0.886125 0.315941 0.172978
Si Si2 0.675408 0.744460 0.407243
Si Si3 0.214146 0.128919 0.101102
Si Si4 0.510319 0.723770 0.015845
Si Si5 0.477970 0.450316 0.180179
Si Si6 0.231661 0.451653 0.796618
Si Si7 0.850662 0.136592 0.865850
Si Si8 0.132031 0.644775 0.322408
O O1 0.881635 0.267066 0.073102
O O2 0.847583 0.195448 0.280133
O O3 0.864189 0.481044 0.225446
O O4 0.951892 0.316950 0.113365
O O5 0.709104 0.589038 0.343460
O O6 0.655558 0.747639 0.540132
O O7 0.719413 0.873433 0.310881
O O8 0.258430 0.088631 0.115152
O O9 0.202189 0.980335 0.060749
O O10 0.250000 0.250000 0.000000
O O11 0.508753 0.594305 0.093123
O O12 0.509726 0.677263 0.911077
O O13 0.567410 0.821017 0.953878
O O14 0.500000 0.415722 0.250000
O O15 0.408621 0.461809 0.288419
O O16 0.177512 0.353499 0.839154
O O17 0.848657 0.234663 0.778574
#
# Coordination Sequence:
#
# PCOD8139912 Si02
#       8
#     8   8   8   8   8   8   8   8
#     4  10  21  43  61  92 124 162 203 250 317 367
#     4  10  23  39  65  87 128 162 204 256 304 371
#     4  11  25  39  62  86 124 162 202 255 302 365
#     4  10  20  40  63  89 125 163 204 261 308 376
#     4  10  21  38  62  94 123 160 210 255 313 370
#     4  10  23  41  56  92 121 163 205 245 314 364
#     4  11  23  41  64  94 118 166 207 255 308 370
#     4  10  23  39  65  89 123 161 204 255 310 363
#
# _framework density 20.792090999999999
#
# number of rings (size 3 to 8) (size 9 to 14) (size 15 to 20)
#    0.000    1.750    1.250    1.875    7.000    2.000 
#    0.000    0.000    0.000    1.500    0.000    0.000 
#    0.000    0.000    0.000    0.000    0.000    0.000 
#
# Total GULP energy -396577.969523 kJ/mol
# GULP energy per Si atom -12393.061548 kJ/mol
# Density = 2.074477 g / cm^3
# Si number density = 20.792091 Si / 1000 Ang^3
#
#
#
# Elastic Constant Matrix: (Units=GPa)
#
#
# Indices 1 2 3 4 5 6 
#
# 1 101.9042 25.0454 25.9675 0.0000 -1.6750 0.0000
# 2 25.0454 77.9440 13.9836 0.0000 -0.7580 -0.0002
# 3 25.9675 13.9836 56.8536 0.0000 7.7148 0.0000
# 4 0.0000 0.0000 0.0000 30.2160 0.0000 -5.2131
# 5 -1.6750 -0.7580 7.7148 0.0000 32.9068 0.0000
# 6 0.0000 -0.0002 0.0000 -5.2131 0.0000 27.5602
#
#
#
# Elastic Compliance Matrix: (Units=1/GPa)
#
#
# Indices 1 2 3 4 5 6 
#
# 1 0.011803 -0.002896 -0.004907 0.000000 0.001685 0.000000
# 2 -0.002896 0.014172 -0.002259 0.000000 0.000709 0.000000
# 3 -0.004907 -0.002259 0.021098 0.000000 -0.005248 0.000000
# 4 0.000000 0.000000 0.000000 0.034212 0.000000 0.006471
# 5 0.001685 0.000709 -0.005248 0.000000 0.031721 0.000000
# 6 0.000000 0.000000 0.000000 0.006471 0.000000 0.037508
#
#
# Mechanical properties :
#
#
# Convention : Reuss Voigt Hill
#
# Bulk Modulus (GPa) = 37.10738 40.74386 38.92562
# Shear Modulus (GPa) = 27.83612 29.58363 28.70988
#
# Velocity S-wave (km/s) = 3.66291 3.77614 3.71995
# Velocity P-wave (km/s) = 5.98121 6.21696 6.10022
#
# Compressibility (1/GPa) = 0.02694882
#
# Stress axis : x y z
#
# Youngs Moduli (GPa) = 84.72403 70.55934 47.39722
#
# Poissons Ratio (x) = 0.20433 0.23259
# Poissons Ratio (y) = 0.24535 0.10709
# Poissons Ratio (z) = 0.41576 0.15942
#
# Static dielectric constant tensor:
#      x y z
#    x -5.768490 -0.000100 -13.385480 
#    y -0.000100 3.694610 -0.000130 
#    z -13.385480 -0.000130 -14.783930 
# 
# 
# High freq. dielectric constant tensor:
#      x y z
#    x 1.826530 0.000000 -0.006730 
#    y 0.000000 1.811660 0.000000 
#    z -0.006730 0.000000 1.800130 
# 
# From -- ./inp_files/181123.got.cif
#   From: 2010.06.25/outbox.cif.g09.slc.cpg/sg15_91_cif.got.tgz:181123.got - 2010.06.28 07:06:18.
