data_PCOD8139727
_publ_section_title
;
Structure prediction by ZEFSAII (Michael W. Deem and Ramdas Pophale) SiO2 
 PCOD8139727
Probable space group: C 2/C
;
_chemical_formula_sum "Si O2"
_cell_formula_units_Z 40
_cell_length_a 27.563562
_cell_length_b 7.589499
_cell_length_c 15.022195
_cell_angle_alpha 90.000000
_cell_angle_beta 142.445962
_cell_angle_gamma 90.000000
_cell_volume 1915.412215
_symmetry_space_group_name_H-M "C 2/C"
_symmetry_group_IT_number 15
_symmetry_cell_setting 'monoclinic'
loop_
_space_group_symop_operation_xyz
x,y,z
-x,y,1/2-z
-x,-y,-z
x,-y,1/2+z
1/2+x,1/2+y,z
1/2-x,1/2+y,1/2-z
1/2-x,1/2-y,-z
1/2+x,1/2-y,1/2+z
loop_
_atom_site_type_symbol
_atom_site_label
_atom_site_fract_x
_atom_site_fract_y
_atom_site_fract_z
Si Si1 0.906150 0.028747 0.714771
Si Si2 0.005840 0.715862 0.921987
Si Si3 0.529188 0.824826 0.928772
Si Si4 0.170601 0.124776 0.716499
Si Si5 0.320405 0.356124 0.922514
O O1 0.852458 0.032984 0.724648
O O2 0.850106 0.022301 0.547150
O O3 0.962354 0.199637 0.789479
O O4 0.960577 0.854238 0.793377
O O5 0.002836 0.525170 0.871265
O O6 0.096476 0.773589 0.066270
O O7 0.961926 0.711407 0.953248
O O8 0.613933 0.788813 0.007569
O O9 0.240610 0.261160 0.838128
O O10 0.200504 0.977345 0.691796
#
# Coordination Sequence:
#
# PCOD8139727 Si02
#       5
#     8   8   8   8   8
#     4  11  22  44  66  94 127 175 219 270 320 392
#     4  10  20  41  70  91 127 173 216 271 328 388
#     4  10  20  39  68  96 125 166 225 270 322 388
#     4  11  23  42  63  92 136 168 212 273 335 382
#     4  12  23  41  64  97 134 173 216 273 331 387
#
# _framework density 20.883234000000002
#
# number of rings (size 3 to 8) (size 9 to 14) (size 15 to 20)
#    0.000    1.200    4.000    3.600    0.000    0.000 
#   10.800    1.000    0.000    0.000    0.000    0.000 
#    0.000    0.000    0.000    0.000    0.000    0.000 
#
# Total GULP energy -248122.076179 kJ/mol
# GULP energy per Si atom -12406.103809 kJ/mol
# Density = 2.083570 g / cm^3
# Si number density = 20.883234 Si / 1000 Ang^3
#
#
#
# Elastic Constant Matrix: (Units=GPa)
#
#
# Indices 1 2 3 4 5 6 
#
# 1 70.6491 33.5645 50.1635 0.0000 8.3031 0.0000
# 2 33.5645 123.2111 49.4671 0.0000 1.0678 0.0000
# 3 50.1635 49.4671 114.1877 0.0000 3.7723 0.0000
# 4 0.0000 0.0000 0.0000 27.7944 0.0000 3.5502
# 5 8.3031 1.0678 3.7723 0.0000 28.3371 0.0000
# 6 0.0000 0.0000 0.0000 3.5502 0.0000 24.0716
#
#
#
# Elastic Compliance Matrix: (Units=1/GPa)
#
#
# Indices 1 2 3 4 5 6 
#
# 1 0.021911 -0.002576 -0.008337 0.000000 -0.005213 0.000000
# 2 -0.002576 0.010129 -0.003283 0.000000 0.000810 0.000000
# 3 -0.008337 -0.003283 0.013818 0.000000 0.000727 0.000000
# 4 0.000000 0.000000 0.000000 0.036669 0.000000 -0.005408
# 5 -0.005213 0.000810 0.000727 0.000000 0.036690 0.000000
# 6 0.000000 0.000000 0.000000 -0.005408 0.000000 0.042340
#
#
# Mechanical properties :
#
#
# Convention : Reuss Voigt Hill
#
# Bulk Modulus (GPa) = 57.25718 63.82644 60.54181
# Shear Modulus (GPa) = 25.53983 27.69746 26.61865
#
# Velocity S-wave (km/s) = 3.50091 3.64579 3.57409
# Velocity P-wave (km/s) = 6.61960 6.95358 6.78864
#
# Compressibility (1/GPa) = 0.01746506
#
# Stress axis : x y z
#
# Youngs Moduli (GPa) = 45.63921 98.72634 72.36778
#
# Poissons Ratio (x) = 0.25436 0.60335
# Poissons Ratio (y) = 0.11759 0.23758
# Poissons Ratio (z) = 0.38051 0.32411
#
# Static dielectric constant tensor:
#      x y z
#    x 3.876100 0.000000 0.001590 
#    y 0.000000 3.858530 0.000000 
#    z 0.001590 0.000000 3.592430 
# 
# 
# High freq. dielectric constant tensor:
#      x y z
#    x 1.829720 0.000000 -0.000090 
#    y 0.000000 1.818240 0.000000 
#    z -0.000090 0.000000 1.804970 
# 
# From -- ./inp_files/172134.got.cif
#   From: 2010.06.25/outbox.cif.g09.slc.cpg/sg15_87_cif.got.tgz:172134.got - 2010.06.28 07:06:18.
