data_PCOD8139039
_publ_section_title
;
Structure prediction by ZEFSAII (Michael W. Deem and Ramdas Pophale) SiO2 
 PCOD8139039
Probable space group: C 2/C
;
_chemical_formula_sum "Si O2"
_cell_formula_units_Z 32
_cell_length_a 12.237123
_cell_length_b 7.328460
_cell_length_c 15.504423
_cell_angle_alpha 90.000000
_cell_angle_beta 88.247115
_cell_angle_gamma 90.000000
_cell_volume 1389.774634
_symmetry_space_group_name_H-M "C 2/C"
_symmetry_group_IT_number 15
_symmetry_cell_setting 'monoclinic'
loop_
_space_group_symop_operation_xyz
x,y,z
-x,y,1/2-z
-x,-y,-z
x,-y,1/2+z
1/2+x,1/2+y,z
1/2-x,1/2+y,1/2-z
1/2-x,1/2-y,-z
1/2+x,1/2-y,1/2+z
loop_
_atom_site_type_symbol
_atom_site_label
_atom_site_fract_x
_atom_site_fract_y
_atom_site_fract_z
Si Si1 0.385888 0.991752 0.226142
Si Si2 0.405878 0.131620 0.038095
Si Si3 0.227093 0.741327 0.142174
Si Si4 0.827692 0.008387 0.002562
O O1 0.500000 0.896121 0.250000
O O2 0.291406 0.844397 0.216397
O O3 0.397403 0.116988 0.141168
O O4 0.357587 0.109361 0.310663
O O5 0.294610 0.071119 0.995743
O O6 0.419165 0.347881 0.012320
O O7 0.500000 0.000000 0.000000
O O8 0.152133 0.876439 0.085388
O O9 0.323842 0.645818 0.084055
#
# Coordination Sequence:
#
# PCOD8139039 Si02
#       4
#     8   8   8   8
#     4  11  23  39  60  90 127 162 204 258 317 374
#     4  10  20  38  64  89 120 164 210 260 315 378
#     4  10  21  41  64  90 126 166 209 263 318 379
#     4   9  20  40  63  87 121 164 210 260 314 374
#
# _framework density 23.025314000000002
#
# number of rings (size 3 to 8) (size 9 to 14) (size 15 to 20)
#    0.000    2.000    0.000    3.000    0.000    4.000 
#    0.000   32.500    0.000    0.000    0.000    0.000 
#    0.000    0.000    0.000    0.000    0.000    0.000 
#
# Total GULP energy -198357.894586 kJ/mol
# GULP energy per Si atom -12397.368412 kJ/mol
# Density = 2.297291 g / cm^3
# Si number density = 23.025314 Si / 1000 Ang^3
#
#
#
# Elastic Constant Matrix: (Units=GPa)
#
#
# Indices 1 2 3 4 5 6 
#
# 1 64.3548 18.8419 19.9071 0.0000 4.4182 0.0000
# 2 18.8419 99.1573 23.8853 0.0000 -4.4202 0.0000
# 3 19.9071 23.8853 83.9305 0.0000 -4.2139 0.0000
# 4 0.0000 0.0000 0.0000 39.4098 0.0000 -1.5307
# 5 4.4182 -4.4202 -4.2139 0.0000 26.6040 0.0000
# 6 0.0000 0.0000 0.0000 -1.5307 0.0000 36.8679
#
#
#
# Elastic Compliance Matrix: (Units=1/GPa)
#
#
# Indices 1 2 3 4 5 6 
#
# 1 0.017718 -0.002666 -0.003643 0.000000 -0.003962 0.000000
# 2 -0.002666 0.011275 -0.002480 0.000000 0.001923 0.000000
# 3 -0.003643 -0.002480 0.013602 0.000000 0.002347 0.000000
# 4 0.000000 0.000000 0.000000 0.025415 0.000000 0.001055
# 5 -0.003962 0.001923 0.002347 0.000000 0.038938 0.000000
# 6 0.000000 0.000000 0.000000 0.001055 0.000000 0.027168
#
#
# Mechanical properties :
#
#
# Convention : Reuss Voigt Hill
#
# Bulk Modulus (GPa) = 39.97090 41.41234 40.69162
# Shear Modulus (GPa) = 31.24373 32.89690 32.07031
#
# Velocity S-wave (km/s) = 3.68765 3.78395 3.73611
# Velocity P-wave (km/s) = 5.96061 6.09226 6.02680
#
# Compressibility (1/GPa) = 0.02501820
#
# Stress axis : x y z
#
# Youngs Moduli (GPa) = 56.43894 88.69477 73.51772
#
# Poissons Ratio (x) = 0.23646 0.26781
# Poissons Ratio (y) = 0.15047 0.18230
# Poissons Ratio (z) = 0.20559 0.21994
#
# Static dielectric constant tensor:
#      x y z
#    x 3.997520 0.000000 0.197130 
#    y 0.000000 4.605270 0.000000 
#    z 0.197130 0.000000 4.066730 
# 
# 
# High freq. dielectric constant tensor:
#      x y z
#    x 1.903340 0.000000 0.012520 
#    y 0.000000 1.909160 0.000000 
#    z 0.012520 0.000000 1.912900 
# 
# From -- ./inp_files/140712.got.cif
#   From: 2010.06.25/outbox.cif.g09.slc.cpg/sg15_71_cif.got.tgz:140712.got - 2010.06.28 07:06:18.
