data_PCOD8139676
_publ_section_title
;
Structure prediction by ZEFSAII (Michael W. Deem and Ramdas Pophale) SiO2 
 PCOD8139676
Probable space group: C 2/C
;
_chemical_formula_sum "Si O2"
_cell_formula_units_Z 48
_cell_length_a 11.141925
_cell_length_b 22.346721
_cell_length_c 11.222540
_cell_angle_alpha 90.000000
_cell_angle_beta 125.374830
_cell_angle_gamma 90.000000
_cell_volume 2278.381383
_symmetry_space_group_name_H-M "C 2/C"
_symmetry_group_IT_number 15
_symmetry_cell_setting 'monoclinic'
loop_
_space_group_symop_operation_xyz
x,y,z
-x,y,1/2-z
-x,-y,-z
x,-y,1/2+z
1/2+x,1/2+y,z
1/2-x,1/2+y,1/2-z
1/2-x,1/2-y,-z
1/2+x,1/2-y,1/2+z
loop_
_atom_site_type_symbol
_atom_site_label
_atom_site_fract_x
_atom_site_fract_y
_atom_site_fract_z
Si Si1 0.619898 0.921696 0.996025
Si Si2 0.124743 0.666131 0.721266
Si Si3 0.334749 0.301350 0.761746
Si Si4 0.837440 0.026641 0.174526
Si Si5 0.860643 0.856173 0.539720
Si Si6 0.807615 0.596600 0.218389
O O1 0.713123 0.899752 0.935518
O O2 0.457364 0.934320 0.852022
O O3 0.604557 0.874806 0.094614
O O4 0.702708 0.980858 0.086667
O O5 0.130036 0.734302 0.677778
O O6 0.000000 0.655215 0.750000
O O7 0.282301 0.651838 0.868742
O O8 0.308462 0.304932 0.604069
O O9 0.466435 0.345982 0.877425
O O10 0.194898 0.332945 0.743776
O O11 0.821156 0.078184 0.065719
O O12 0.822408 0.056935 0.296615
O O13 0.000000 0.997006 0.250000
#
# Coordination Sequence:
#
# PCOD8139676 Si02
#       6
#     8   8   8   8   8   8
#     4  11  27  41  65 100 136 184 212 277 343 401
#     4  12  24  38  68 103 133 169 237 275 321 400
#     4  10  20  40  70  94 129 175 218 276 333 382
#     4  11  22  44  72  94 132 175 230 277 328 399
#     4  10  20  39  67 103 122 170 218 283 324 373
#     4  10  23  47  65  92 141 176 220 270 350 399
#
# _framework density 21.067589999999999
#
# number of rings (size 3 to 8) (size 9 to 14) (size 15 to 20)
#    0.000    1.333    5.000    3.000    4.667    2.667 
#    0.000    0.000    3.667    0.000    0.000    0.000 
#    0.000    0.000    0.000    0.000    0.000    0.000 
#
# Total GULP energy -297361.044942 kJ/mol
# GULP energy per Si atom -12390.043539 kJ/mol
# Density = 2.101964 g / cm^3
# Si number density = 21.067590 Si / 1000 Ang^3
#
#
#
# Elastic Constant Matrix: (Units=GPa)
#
#
# Indices 1 2 3 4 5 6 
#
# 1 105.8010 50.9001 38.9331 0.0000 -12.8427 0.0000
# 2 50.9001 135.8581 36.1135 0.0000 -5.1853 0.0000
# 3 38.9331 36.1135 94.2814 0.0000 -19.7079 0.0000
# 4 0.0000 0.0000 0.0000 4.5003 0.0000 18.1832
# 5 -12.8427 -5.1853 -19.7079 0.0000 22.3287 0.0000
# 6 0.0000 0.0000 0.0000 18.1832 0.0000 19.9712
#
#
#
# Elastic Compliance Matrix: (Units=1/GPa)
#
#
# Indices 1 2 3 4 5 6 
#
# 1 0.012903 -0.003879 -0.003040 0.000000 0.003837 0.000000
# 2 -0.003879 0.009382 -0.002456 0.000000 -0.002220 0.000000
# 3 -0.003040 -0.002456 0.015105 0.000000 0.011013 0.000000
# 4 0.000000 0.000000 0.000000 -0.082952 0.000000 0.075526
# 5 0.003837 -0.002220 0.011013 0.000000 0.056197 0.000000
# 6 0.000000 0.000000 0.000000 0.075526 0.000000 -0.018692
#
#
# Mechanical properties :
#
#
# Convention : Reuss Voigt Hill
#
# Bulk Modulus (GPa) = 53.65165 65.31490 59.48327
# Shear Modulus (GPa) = 295.77087 23.35961 159.56524
#
# Velocity S-wave (km/s) = 11.86154 3.33347 8.71230
# Velocity P-wave (km/s) = 14.59852 6.77391 11.37986
#
# Compressibility (1/GPa) = 0.01863876
#
# Stress axis : x y z
#
# Youngs Moduli (GPa) = 77.50426 106.58527 66.20484
#
# Poissons Ratio (x) = 0.41350 0.20126
# Poissons Ratio (y) = 0.30068 0.16259
# Poissons Ratio (z) = 0.23561 0.26175
#
# Static dielectric constant tensor:
#      x y z
#    x 4.039100 0.000000 0.015690 
#    y 0.000000 3.746180 0.000000 
#    z 0.015690 0.000000 3.725830 
# 
# 
# High freq. dielectric constant tensor:
#      x y z
#    x 1.825760 0.000000 0.007390 
#    y 0.000000 1.818260 0.000000 
#    z 0.007390 0.000000 1.814120 
# 
# From -- ./inp_files/89779.got.cif
#   From: 2010.06.25/outbox.cif.g09.slc.cpg/sg15_45_cif.got.tgz:89779.got - 2010.06.28 07:06:18.
