data_PCOD8139704
_publ_section_title
;
Structure prediction by ZEFSAII (Michael W. Deem and Ramdas Pophale) SiO2 
 PCOD8139704
Probable space group: C 2/C
;
_chemical_formula_sum "Si O2"
_cell_formula_units_Z 64
_cell_length_a 14.518121
_cell_length_b 15.229647
_cell_length_c 23.282972
_cell_angle_alpha 90.000000
_cell_angle_beta 148.789793
_cell_angle_gamma 90.000000
_cell_volume 2667.588229
_symmetry_space_group_name_H-M "C 2/C"
_symmetry_group_IT_number 15
_symmetry_cell_setting 'monoclinic'
loop_
_space_group_symop_operation_xyz
x,y,z
-x,y,1/2-z
-x,-y,-z
x,-y,1/2+z
1/2+x,1/2+y,z
1/2-x,1/2+y,1/2-z
1/2-x,1/2-y,-z
1/2+x,1/2-y,1/2+z
loop_
_atom_site_type_symbol
_atom_site_label
_atom_site_fract_x
_atom_site_fract_y
_atom_site_fract_z
Si Si1 0.634958 0.383276 0.923109
Si Si2 0.697535 0.068097 0.870784
Si Si3 0.518049 0.573696 0.846489
Si Si4 0.959899 0.166583 0.928050
Si Si5 0.691356 0.133195 0.331217
Si Si6 0.161911 0.396364 0.575626
Si Si7 0.786969 0.404460 0.400757
Si Si8 0.272207 0.677719 0.246936
O O1 0.535411 0.470019 0.846826
O O2 0.742785 0.343235 0.925901
O O3 0.488286 0.311286 0.866948
O O4 0.771478 0.412321 0.045661
O O5 0.500000 0.100195 0.750000
O O6 0.840288 0.124165 0.912761
O O7 0.721364 0.966128 0.867984
O O8 0.515173 0.593164 0.911794
O O9 0.335057 0.604850 0.720092
O O10 0.680351 0.625724 0.901024
O O11 0.845697 0.239085 0.833736
O O12 0.150094 0.194650 0.058303
O O13 0.500000 0.169284 0.250000
O O14 0.694110 0.136941 0.263543
O O15 0.148343 0.497019 0.549981
O O16 0.263073 0.391113 0.689802
O O17 0.967430 0.351100 0.482838
#
# Coordination Sequence:
#
# PCOD8139704 Si02
#       8
#     8   8   8   8   8   8   8   8
#     4  11  21  45  73 101 138 185 236 304 351 419
#     4  11  25  45  77 107 135 183 251 300 354 414
#     4  10  20  39  67  98 139 176 234 294 352 408
#     4  12  26  45  69 104 143 188 233 292 354 428
#     4  11  26  48  77 103 138 190 242 301 357 418
#     4  10  22  37  68 101 135 176 235 285 357 419
#     4   9  20  36  63 103 131 174 228 297 353 405
#     4  12  26  44  69  98 146 191 229 283 367 429
#
# _framework density 23.991709
#
# number of rings (size 3 to 8) (size 9 to 14) (size 15 to 20)
#    0.000    1.250    3.750    1.500    3.500    4.500 
#    2.250    1.250    0.000    0.000    0.000    0.000 
#    0.000    0.000    0.000    0.000    0.000    0.000 
#
# Total GULP energy -396569.201651 kJ/mol
# GULP energy per Si atom -12392.787552 kJ/mol
# Density = 2.393710 g / cm^3
# Si number density = 23.991709 Si / 1000 Ang^3
#
#
#
# Elastic Constant Matrix: (Units=GPa)
#
#
# Indices 1 2 3 4 5 6 
#
# 1 192.2697 14.4889 83.7804 -0.0001 5.8338 0.0000
# 2 14.4889 35.3473 24.7702 0.0002 6.5679 0.0001
# 3 83.7804 24.7702 153.1753 0.0004 13.9382 0.0005
# 4 -0.0001 0.0002 0.0004 28.6923 0.0000 -0.1144
# 5 5.8338 6.5679 13.9382 0.0000 52.6115 0.0001
# 6 0.0000 0.0001 0.0005 -0.1144 0.0001 12.1821
#
#
#
# Elastic Compliance Matrix: (Units=1/GPa)
#
#
# Indices 1 2 3 4 5 6 
#
# 1 0.006833 -0.000241 -0.003722 0.000000 0.000258 0.000000
# 2 -0.000241 0.032288 -0.004842 0.000000 -0.002721 0.000000
# 3 -0.003722 -0.004842 0.009483 0.000000 -0.001495 0.000000
# 4 0.000000 0.000000 0.000000 0.034854 0.000000 0.000327
# 5 0.000258 -0.002721 -0.001495 0.000000 0.019714 0.000000
# 6 0.000000 0.000000 0.000000 0.000327 0.000000 0.082091
#
#
# Mechanical properties :
#
#
# Convention : Reuss Voigt Hill
#
# Bulk Modulus (GPa) = 32.26321 69.65236 50.95779
# Shear Modulus (GPa) = 23.45159 35.88071 29.66615
#
# Velocity S-wave (km/s) = 3.12987 3.87142 3.52023
# Velocity P-wave (km/s) = 5.15153 7.00562 6.14887
#
# Compressibility (1/GPa) = 0.03099505
#
# Stress axis : x y z
#
# Youngs Moduli (GPa) = 146.34464 30.97111 105.44798
#
# Poissons Ratio (x) = 0.00745 0.39248
# Poissons Ratio (y) = 0.03522 0.51059
# Poissons Ratio (z) = 0.54470 0.14997
#
# Static dielectric constant tensor:
#      x y z
#    x 4.745780 0.000000 0.253770 
#    y 0.000000 3.824230 0.000000 
#    z 0.253770 0.000000 4.613830 
# 
# 
# High freq. dielectric constant tensor:
#      x y z
#    x 1.970420 0.000000 0.007250 
#    y 0.000000 1.915330 0.000000 
#    z 0.007250 0.000000 1.969620 
# 
# From -- ./inp_files/274853.got.cif
#   From: 2010.06.25/outbox.cif.g09.slc.cpg/sg15_138_cif.got.tgz:274853.got - 2010.06.28 07:06:18.
