data_PCOD8139584
_publ_section_title
;
Structure prediction by ZEFSAII (Michael W. Deem and Ramdas Pophale) SiO2 
 PCOD8139584
Probable space group: C 2/C
;
_chemical_formula_sum "Si O2"
_cell_formula_units_Z 64
_cell_length_a 12.599608
_cell_length_b 10.479217
_cell_length_c 21.724551
_cell_angle_alpha 90.000000
_cell_angle_beta 87.596762
_cell_angle_gamma 90.000000
_cell_volume 2865.857090
_symmetry_space_group_name_H-M "C 2/C"
_symmetry_group_IT_number 15
_symmetry_cell_setting 'monoclinic'
loop_
_space_group_symop_operation_xyz
x,y,z
-x,y,1/2-z
-x,-y,-z
x,-y,1/2+z
1/2+x,1/2+y,z
1/2-x,1/2+y,1/2-z
1/2-x,1/2-y,-z
1/2+x,1/2-y,1/2+z
loop_
_atom_site_type_symbol
_atom_site_label
_atom_site_fract_x
_atom_site_fract_y
_atom_site_fract_z
Si Si1 0.246860 0.866274 0.351120
Si Si2 0.758791 0.881952 0.375951
Si Si3 0.846156 0.639924 0.076678
Si Si4 0.577140 0.706125 0.197774
Si Si5 0.931741 0.746815 0.451212
Si Si6 0.616113 0.423945 0.242459
Si Si7 0.543146 0.778392 0.417970
Si Si8 0.374855 0.025032 0.949016
O O1 0.215726 0.766517 0.404269
O O2 0.320845 0.795001 0.300344
O O3 0.155225 0.929040 0.312220
O O4 0.307125 0.974513 0.387883
O O5 0.861218 0.851624 0.417249
O O6 0.802411 0.854279 0.305851
O O7 0.663968 0.783300 0.391204
O O8 0.707610 0.023739 0.383414
O O9 0.968800 0.683886 0.088845
O O10 0.829207 0.612358 0.004962
O O11 0.500000 0.768295 0.250000
O O12 0.604705 0.563609 0.215035
O O13 0.528165 0.705690 0.130267
O O14 0.964024 0.803008 0.517840
O O15 0.864470 0.620544 0.471413
O O16 0.500000 0.357145 0.250000
O O17 0.495043 0.922460 0.431386
#
# Coordination Sequence:
#
# PCOD8139584 Si02
#       8
#     8   8   8   8   8   8   8   8
#     4  11  23  41  67  88 123 176 209 260 346 383
#     4  12  22  40  70  93 130 178 219 268 339 398
#     4  11  21  42  64  95 134 167 214 271 332 401
#     4  10  22  41  63  86 125 164 214 270 314 389
#     4  11  22  39  64 101 133 165 215 280 327 396
#     4  11  25  44  59  89 126 168 216 272 318 394
#     4  10  20  39  64  94 126 168 210 265 332 394
#     4  10  21  39  66  96 131 163 209 277 325 395
#
# _framework density 22.331889
#
# number of rings (size 3 to 8) (size 9 to 14) (size 15 to 20)
#    0.000    1.250    3.750    3.000    0.000    3.000 
#    0.000    0.625    0.000    0.000    0.000    0.000 
#    0.000    0.000    0.000    0.000    0.000    0.000 
#
# Total GULP energy -396470.531079 kJ/mol
# GULP energy per Si atom -12389.704096 kJ/mol
# Density = 2.228106 g / cm^3
# Si number density = 22.331889 Si / 1000 Ang^3
#
#
#
# Elastic Constant Matrix: (Units=GPa)
#
#
# Indices 1 2 3 4 5 6 
#
# 1 113.0902 12.4688 42.7069 0.0000 -4.1432 0.0000
# 2 12.4688 49.7275 15.8201 0.0000 0.6980 0.0000
# 3 42.7069 15.8201 113.2984 0.0000 5.0719 0.0000
# 4 0.0000 0.0000 0.0000 11.3383 0.0000 3.3503
# 5 -4.1432 0.6980 5.0719 0.0000 45.8557 0.0000
# 6 0.0000 0.0000 0.0000 3.3503 0.0000 18.1577
#
#
#
# Elastic Compliance Matrix: (Units=1/GPa)
#
#
# Indices 1 2 3 4 5 6 
#
# 1 0.010493 -0.001436 -0.003817 0.000000 0.001392 0.000000
# 2 -0.001436 0.021241 -0.002416 0.000000 -0.000186 0.000000
# 3 -0.003817 -0.002416 0.010669 0.000000 -0.001488 0.000000
# 4 0.000000 0.000000 0.000000 0.093282 0.000000 -0.017212
# 5 0.001392 -0.000186 -0.001488 0.000000 0.022101 0.000000
# 6 0.000000 0.000000 0.000000 -0.017212 0.000000 0.058249
#
#
# Mechanical properties :
#
#
# Convention : Reuss Voigt Hill
#
# Bulk Modulus (GPa) = 36.94921 46.45640 41.70280
# Shear Modulus (GPa) = 20.79900 28.74503 24.77201
#
# Velocity S-wave (km/s) = 3.05513 3.59161 3.33418
# Velocity P-wave (km/s) = 5.38762 6.16826 5.79111
#
# Compressibility (1/GPa) = 0.02706418
#
# Stress axis : x y z
#
# Youngs Moduli (GPa) = 95.29836 47.07865 93.72864
#
# Poissons Ratio (x) = 0.06762 0.35778
# Poissons Ratio (y) = 0.13688 0.22647
# Poissons Ratio (z) = 0.36377 0.11375
#
# Static dielectric constant tensor:
#      x y z
#    x 4.433200 0.000000 -0.272550 
#    y 0.000000 3.617690 0.000000 
#    z -0.272550 0.000000 4.088330 
# 
# 
# High freq. dielectric constant tensor:
#      x y z
#    x 1.892740 0.000000 -0.007160 
#    y 0.000000 1.844520 0.000000 
#    z -0.007160 0.000000 1.885040 
# 
# From -- ./inp_files/268899.got.cif
#   From: 2010.06.25/outbox.cif.g09.slc.cpg/sg15_135_cif.got.tgz:268899.got - 2010.06.28 07:06:18.
