data_PCOD8139942
_publ_section_title
;
Structure prediction by ZEFSAII (Michael W. Deem and Ramdas Pophale) SiO2 
 PCOD8139942
Probable space group: C 2/C
;
_chemical_formula_sum "Si O2"
_cell_formula_units_Z 48
_cell_length_a 18.894550
_cell_length_b 12.725816
_cell_length_c 17.835954
_cell_angle_alpha 90.000000
_cell_angle_beta 32.583211
_cell_angle_gamma 90.000000
_cell_volume 2309.529540
_symmetry_space_group_name_H-M "C 2/C"
_symmetry_group_IT_number 15
_symmetry_cell_setting 'monoclinic'
loop_
_space_group_symop_operation_xyz
x,y,z
-x,y,1/2-z
-x,-y,-z
x,-y,1/2+z
1/2+x,1/2+y,z
1/2-x,1/2+y,1/2-z
1/2-x,1/2-y,-z
1/2+x,1/2-y,1/2+z
loop_
_atom_site_type_symbol
_atom_site_label
_atom_site_fract_x
_atom_site_fract_y
_atom_site_fract_z
Si Si1 0.761226 0.731508 0.614846
Si Si2 0.607487 0.518335 0.090215
Si Si3 0.904283 0.946079 0.159761
Si Si4 0.893611 0.816808 0.023724
Si Si5 0.829210 0.821009 0.706326
Si Si6 0.359302 0.118198 0.392666
O O1 0.692024 0.638197 0.719660
O O2 0.825774 0.806537 0.619592
O O3 0.658623 0.798153 0.657819
O O4 0.869257 0.680864 0.462534
O O5 0.500000 0.541720 0.250000
O O6 0.537800 0.446110 0.089692
O O7 0.654572 0.627898 0.009938
O O8 0.737717 0.462858 0.005946
O O9 0.931064 0.910642 0.049992
O O10 0.827263 0.056835 0.230500
O O11 0.792385 0.731611 0.142583
O O12 0.037155 0.764364 0.882686
O O13 0.500000 0.062180 0.250000
#
# Coordination Sequence:
#
# PCOD8139942 Si02
#       6
#     8   8   8   8   8   8
#     4  10  22  36  60  91 125 162 194 256 305 364
#     4  11  21  41  63  88 121 165 205 243 311 375
#     4  10  20  40  64  85 122 169 206 240 301 377
#     4  10  22  40  64  90 118 166 208 256 297 366
#     4  10  21  40  62  89 120 161 214 246 302 359
#     4  11  24  35  59  96 128 152 199 257 316 352
#
# _framework density 20.783453000000002
#
# number of rings (size 3 to 8) (size 9 to 14) (size 15 to 20)
#    0.000    1.667    1.667    4.000    9.333    0.000 
#    3.000    5.000    0.000    0.000    0.000    0.000 
#    0.000    0.000    0.000    0.000    0.000    0.000 
#
# Total GULP energy -297490.507867 kJ/mol
# GULP energy per Si atom -12395.437828 kJ/mol
# Density = 2.073615 g / cm^3
# Si number density = 20.783453 Si / 1000 Ang^3
#
#
#
# Elastic Constant Matrix: (Units=GPa)
#
#
# Indices 1 2 3 4 5 6 
#
# 1 67.7363 20.0697 26.2234 0.0000 10.6091 0.0000
# 2 20.0697 45.0070 10.4348 0.0000 0.5342 0.0000
# 3 26.2234 10.4348 83.0624 0.0000 -5.1560 0.0000
# 4 0.0000 0.0000 0.0000 21.8806 0.0000 -1.9888
# 5 10.6091 0.5342 -5.1560 0.0000 31.6712 0.0000
# 6 0.0000 0.0000 0.0000 -1.9888 0.0000 25.3586
#
#
#
# Elastic Compliance Matrix: (Units=1/GPa)
#
#
# Indices 1 2 3 4 5 6 
#
# 1 0.020583 -0.007693 -0.006012 0.000000 -0.007744 0.000000
# 2 -0.007693 0.025784 -0.000684 0.000000 0.002031 0.000000
# 3 -0.006012 -0.000684 0.014293 0.000000 0.004353 0.000000
# 4 0.000000 0.000000 0.000000 0.046031 0.000000 0.003610
# 5 -0.007744 0.002031 0.004353 0.000000 0.034843 0.000000
# 6 0.000000 0.000000 0.000000 0.003610 0.000000 0.039717
#
#
# Mechanical properties :
#
#
# Convention : Reuss Voigt Hill
#
# Bulk Modulus (GPa) = 31.36656 34.36238 32.86447
# Shear Modulus (GPa) = 22.65961 25.05394 23.85678
#
# Velocity S-wave (km/s) = 3.30551 3.47576 3.39170
# Velocity P-wave (km/s) = 5.44916 5.71641 5.58438
#
# Compressibility (1/GPa) = 0.03188109
#
# Stress axis : x y z
#
# Youngs Moduli (GPa) = 48.58399 38.78431 69.96195
#
# Poissons Ratio (x) = 0.29835 0.42064
# Poissons Ratio (y) = 0.37373 0.04789
# Poissons Ratio (z) = 0.29211 0.02655
#
# Static dielectric constant tensor:
#      x y z
#    x 3.997130 0.000000 0.226290 
#    y 0.000000 3.561310 0.000000 
#    z 0.226290 0.000000 3.755460 
# 
# 
# High freq. dielectric constant tensor:
#      x y z
#    x 1.811570 0.000000 0.014230 
#    y 0.000000 1.794900 0.000000 
#    z 0.014230 0.000000 1.825680 
# 
# From -- ./inp_files/211306.got.cif
#   From: 2010.06.25/outbox.cif.g09.slc.cpg/sg15_106_cif.got.tgz:211306.got - 2010.06.28 07:06:18.
