data_PCOD8139392
_publ_section_title
;
Structure prediction by ZEFSAII (Michael W. Deem and Ramdas Pophale) SiO2 
 PCOD8139392
Probable space group: C 2/C
;
_chemical_formula_sum "Si O2"
_cell_formula_units_Z 52
_cell_length_a 28.547907
_cell_length_b 9.420423
_cell_length_c 13.622819
_cell_angle_alpha 90.000000
_cell_angle_beta 133.567078
_cell_angle_gamma 90.000000
_cell_volume 2654.549394
_symmetry_space_group_name_H-M "C 2/C"
_symmetry_group_IT_number 15
_symmetry_cell_setting 'monoclinic'
loop_
_space_group_symop_operation_xyz
x,y,z
-x,y,1/2-z
-x,-y,-z
x,-y,1/2+z
1/2+x,1/2+y,z
1/2-x,1/2+y,1/2-z
1/2-x,1/2-y,-z
1/2+x,1/2-y,1/2+z
loop_
_atom_site_type_symbol
_atom_site_label
_atom_site_fract_x
_atom_site_fract_y
_atom_site_fract_z
Si Si1 0.666789 0.895294 0.904572
Si Si2 0.185005 0.893197 0.154393
Si Si3 0.873538 0.635208 0.521445
Si Si4 0.955666 0.892946 0.489447
Si Si5 0.562869 0.904636 0.594173
Si Si6 0.000000 0.233172 0.250000
Si Si7 0.769164 0.832215 0.894640
O O1 0.602392 0.927552 0.750643
O O2 0.727592 0.905026 0.920037
O O3 0.671616 0.019545 0.992462
O O4 0.667991 0.742043 0.963218
O O5 0.119704 0.938687 0.117500
O O6 0.232389 0.802802 0.293018
O O7 0.214955 0.041195 0.158256
O O8 0.165521 0.784255 0.039215
O O9 0.891618 0.581149 0.437111
O O10 0.938663 0.663005 0.678172
O O11 0.964064 0.752734 0.437957
O O12 0.985056 0.870482 0.639157
O O13 0.000000 0.000000 0.500000
O O14 0.500000 0.000000 0.500000
#
# Coordination Sequence:
#
# PCOD8139392 Si02
#       7
#     8   8   8   8   8   4   8
#     4  11  22  39  64  92 122 168 212 262 315 376
#     4  10  22  44  60  90 127 168 207 263 317 371
#     4  10  20  39  61  88 123 160 210 259 316 371
#     4  10  21  39  60  87 122 157 202 259 318 371
#     4  10  21  39  62  90 127 161 207 264 313 373
#     4   8  18  38  58  86 122 154 194 264 306 372
#     4  11  23  40  64  89 130 165 211 264 312 385
#
# _framework density 19.589012
#
# number of rings (size 3 to 8) (size 9 to 14) (size 15 to 20)
#    0.000    2.154    3.077    2.769    0.000    4.308 
#    2.769    0.000    0.000    0.000    0.000    0.000 
#    0.000    0.000    0.000    0.000    0.000    0.000 
#
# Total GULP energy -322099.117339 kJ/mol
# GULP energy per Si atom -12388.427590 kJ/mol
# Density = 1.954443 g / cm^3
# Si number density = 19.589012 Si / 1000 Ang^3
#
#
#
# Elastic Constant Matrix: (Units=GPa)
#
#
# Indices 1 2 3 4 5 6 
#
# 1 102.2544 88.0413 31.6205 0.0000 3.7134 0.0000
# 2 88.0413 125.4086 33.0319 0.0000 5.7429 0.0000
# 3 31.6205 33.0319 96.7435 0.0000 3.7644 0.0000
# 4 0.0000 0.0000 0.0000 29.7475 0.0000 1.7984
# 5 3.7134 5.7429 3.7644 0.0000 20.0471 0.0000
# 6 0.0000 0.0000 0.0000 1.7984 0.0000 50.1270
#
#
#
# Elastic Compliance Matrix: (Units=1/GPa)
#
#
# Indices 1 2 3 4 5 6 
#
# 1 0.025237 -0.017107 -0.002434 0.000000 0.000683 0.000000
# 2 -0.017107 0.020436 -0.001291 0.000000 -0.002443 0.000000
# 3 -0.002434 -0.001291 0.011626 0.000000 -0.001362 0.000000
# 4 0.000000 0.000000 0.000000 0.033689 0.000000 -0.001209
# 5 0.000683 -0.002443 -0.001362 0.000000 0.050712 0.000000
# 6 0.000000 0.000000 0.000000 -0.001209 0.000000 0.019993
#
#
# Mechanical properties :
#
#
# Convention : Reuss Voigt Hill
#
# Bulk Modulus (GPa) = 63.96403 69.97710 66.97057
# Shear Modulus (GPa) = 23.97292 31.43183 27.70237
#
# Velocity S-wave (km/s) = 3.50207 4.01005 3.76464
# Velocity P-wave (km/s) = 7.00547 7.56577 7.29100
#
# Compressibility (1/GPa) = 0.01563379
#
# Stress axis : x y z
#
# Youngs Moduli (GPa) = 39.62445 48.93366 86.01405
#
# Poissons Ratio (x) = 0.83713 0.20937
# Poissons Ratio (y) = 0.67787 0.11104
# Poissons Ratio (z) = 0.09645 0.06317
#
# Static dielectric constant tensor:
#      x y z
#    x 3.429000 0.000000 0.013500 
#    y 0.000000 3.590050 0.000000 
#    z 0.013500 0.000000 3.850780 
# 
# 
# High freq. dielectric constant tensor:
#      x y z
#    x 1.744820 0.000000 -0.001080 
#    y 0.000000 1.759310 0.000000 
#    z -0.001080 0.000000 1.782140 
# 
# From -- ./inp_files/181229.got.cif
#   From: 2010.06.25/outbox.cif.g09.slc.cpg/sg15_91_cif.got.tgz:181229.got - 2010.06.28 07:06:18.
