data_PCOD8139611
_publ_section_title
;
Structure prediction by ZEFSAII (Michael W. Deem and Ramdas Pophale) SiO2 
 PCOD8139611
Probable space group: C 2/C
;
_chemical_formula_sum "Si O2"
_cell_formula_units_Z 64
_cell_length_a 23.666448
_cell_length_b 9.168907
_cell_length_c 21.143295
_cell_angle_alpha 90.000000
_cell_angle_beta 133.524002
_cell_angle_gamma 90.000000
_cell_volume 3326.693624
_symmetry_space_group_name_H-M "C 2/C"
_symmetry_group_IT_number 15
_symmetry_cell_setting 'monoclinic'
loop_
_space_group_symop_operation_xyz
x,y,z
-x,y,1/2-z
-x,-y,-z
x,-y,1/2+z
1/2+x,1/2+y,z
1/2-x,1/2+y,1/2-z
1/2-x,1/2-y,-z
1/2+x,1/2-y,1/2+z
loop_
_atom_site_type_symbol
_atom_site_label
_atom_site_fract_x
_atom_site_fract_y
_atom_site_fract_z
Si Si1 0.411781 0.744262 0.188358
Si Si2 0.805219 0.293208 0.661865
Si Si3 0.663620 0.227878 0.732619
Si Si4 0.357295 0.447525 0.110315
Si Si5 0.865937 0.727100 0.011582
Si Si6 0.185158 0.487417 0.437299
Si Si7 0.577702 0.088864 0.561690
Si Si8 0.789349 0.565769 0.276380
O O1 0.500000 0.806559 0.250000
O O2 0.372627 0.753563 0.226687
O O3 0.416535 0.576334 0.170949
O O4 0.355036 0.829735 0.096363
O O5 0.851265 0.156128 0.667510
O O6 0.714222 0.264030 0.584581
O O7 0.826589 0.439347 0.640378
O O8 0.822497 0.317785 0.749756
O O9 0.588579 0.197945 0.629657
O O10 0.710564 0.374100 0.748190
O O11 0.723326 0.088626 0.771521
O O12 0.391972 0.358526 0.077403
O O13 0.274631 0.517996 0.027559
O O14 0.861534 0.580807 0.048265
O O15 0.926309 0.692269 0.002885
O O16 0.500000 0.000000 0.500000
O O17 0.648025 0.967787 0.619377
#
# Coordination Sequence:
#
# PCOD8139611 Si02
#       8
#     8   8   8   8   8   8   8   8
#     4  12  25  40  53  89 134 159 199 249 311 364
#     4   9  15  37  61  91 108 148 212 250 287 357
#     4  10  24  39  64  90 119 165 208 253 307 367
#     4   9  21  36  62  87 114 161 199 256 292 359
#     4   9  18  36  63  84 121 152 208 246 297 362
#     4   9  18  35  61  83 112 158 202 249 294 352
#     4  10  22  38  61  94 123 157 206 258 308 365
#     4  10  20  39  65  91 117 161 201 264 298 367
#
# _framework density 19.238320999999999
#
# number of rings (size 3 to 8) (size 9 to 14) (size 15 to 20)
#    0.750    1.500    2.500    1.875    7.000    0.000 
#    2.250    1.250    0.000    1.500    0.000    0.000 
#    0.000    0.000    0.000    0.000    0.000    0.000 
#
# Total GULP energy -396419.566340 kJ/mol
# GULP energy per Si atom -12388.111448 kJ/mol
# Density = 1.919453 g / cm^3
# Si number density = 19.238321 Si / 1000 Ang^3
#
#
#
# Elastic Constant Matrix: (Units=GPa)
#
#
# Indices 1 2 3 4 5 6 
#
# 1 74.0361 49.8349 37.7423 0.0000 -11.9786 0.0000
# 2 49.8349 100.7441 34.2243 0.0000 -5.3068 0.0000
# 3 37.7423 34.2243 63.2133 0.0000 -9.7461 0.0000
# 4 0.0000 0.0000 0.0000 31.2735 0.0000 -2.7778
# 5 -11.9786 -5.3068 -9.7461 0.0000 25.8166 0.0000
# 6 0.0000 0.0000 0.0000 -2.7778 0.0000 29.9803
#
#
#
# Elastic Compliance Matrix: (Units=1/GPa)
#
#
# Indices 1 2 3 4 5 6 
#
# 1 0.025360 -0.009067 -0.009244 0.000000 0.006413 0.000000
# 2 -0.009067 0.015405 -0.003278 0.000000 -0.002278 0.000000
# 3 -0.009244 -0.003278 0.023729 0.000000 0.003995 0.000000
# 4 0.000000 0.000000 0.000000 0.032241 0.000000 0.002987
# 5 0.006413 -0.002278 0.003995 0.000000 0.042751 0.000000
# 6 0.000000 0.000000 0.000000 0.002987 0.000000 0.033632
#
#
# Mechanical properties :
#
#
# Convention : Reuss Voigt Hill
#
# Bulk Modulus (GPa) = 46.91141 53.51071 50.21106
# Shear Modulus (GPa) = 22.38133 25.16020 23.77076
#
# Velocity S-wave (km/s) = 3.41452 3.62030 3.51892
# Velocity P-wave (km/s) = 6.32318 6.73427 6.53196
#
# Compressibility (1/GPa) = 0.02131678
#
# Stress axis : x y z
#
# Youngs Moduli (GPa) = 39.43256 64.91507 42.14179
#
# Poissons Ratio (x) = 0.58856 0.38955
# Poissons Ratio (y) = 0.35752 0.13815
# Poissons Ratio (z) = 0.36451 0.21280
#
# Static dielectric constant tensor:
#      x y z
#    x 3.471440 0.000000 -0.402090 
#    y 0.000000 3.771910 0.000000 
#    z -0.402090 0.000000 3.461420 
# 
# 
# High freq. dielectric constant tensor:
#      x y z
#    x 1.731470 0.000000 -0.024870 
#    y 0.000000 1.748210 0.000000 
#    z -0.024870 0.000000 1.729580 
# 
# From -- ./inp_files/255060.got.cif
#   From: 2010.06.25/outbox.cif.g09.slc.cpg/sg15_128_cif.got.tgz:255060.got - 2010.06.28 07:06:18.
