data_PCOD8139661
_publ_section_title
;
Structure prediction by ZEFSAII (Michael W. Deem and Ramdas Pophale) SiO2 
 PCOD8139661
Probable space group: C 2/C
;
_chemical_formula_sum "Si O2"
_cell_formula_units_Z 56
_cell_length_a 8.306348
_cell_length_b 33.336608
_cell_length_c 17.662384
_cell_angle_alpha 90.000000
_cell_angle_beta 32.608969
_cell_angle_gamma 90.000000
_cell_volume 2635.670866
_symmetry_space_group_name_H-M "C 2/C"
_symmetry_group_IT_number 15
_symmetry_cell_setting 'monoclinic'
loop_
_space_group_symop_operation_xyz
x,y,z
-x,y,1/2-z
-x,-y,-z
x,-y,1/2+z
1/2+x,1/2+y,z
1/2-x,1/2+y,1/2-z
1/2-x,1/2-y,-z
1/2+x,1/2-y,1/2+z
loop_
_atom_site_type_symbol
_atom_site_label
_atom_site_fract_x
_atom_site_fract_y
_atom_site_fract_z
Si Si1 0.030948 0.248353 0.830130
Si Si2 0.796632 0.624728 0.989642
Si Si3 0.735219 0.169653 0.223083
Si Si4 0.122889 0.533238 0.085185
Si Si5 0.487640 0.460032 0.592568
Si Si6 0.928360 0.383182 0.957960
Si Si7 0.871594 0.160611 0.716319
O O1 0.000000 0.249125 0.750000
O O2 0.225925 0.288083 0.772966
O O3 0.196131 0.206359 0.782770
O O4 0.750000 0.250000 0.000000
O O5 0.076088 0.633291 0.823546
O O6 0.567967 0.661011 0.062169
O O7 0.647442 0.582062 0.038408
O O8 0.916136 0.628774 0.026557
O O9 0.500000 0.172543 0.250000
O O10 0.658926 0.130194 0.302267
O O11 0.339319 0.541785 0.069460
O O12 0.145753 0.569588 0.016647
O O13 0.773444 0.529415 0.244574
O O14 0.248294 0.492420 0.999099
O O15 0.624006 0.358652 0.063036
O O16 0.000000 0.159166 0.750000
#
# Coordination Sequence:
#
# PCOD8139661 Si02
#       7
#     8   8   8   8   8   8   8
#     4  10  20  39  66  92 128 174 219 268 329 389
#     4  11  23  39  62  92 122 163 211 259 313 384
#     4  11  22  38  64  88 123 164 212 258 319 379
#     4  10  22  39  61  85 121 161 201 252 313 373
#     4  10  22  40  59  87 122 160 203 252 310 378
#     4  11  21  39  63  88 120 166 202 257 315 376
#     4   9  21  39  60  88 126 160 207 259 317 370
#
# _framework density 21.246960999999999
#
# number of rings (size 3 to 8) (size 9 to 14) (size 15 to 20)
#    0.000    1.714    2.857    1.286    2.000    1.143 
#    0.000    2.143    0.000    0.000    0.000    0.000 
#    0.000    0.000    0.000    0.000    0.000    0.000 
#
# Total GULP energy -346919.469429 kJ/mol
# GULP energy per Si atom -12389.981051 kJ/mol
# Density = 2.119860 g / cm^3
# Si number density = 21.246961 Si / 1000 Ang^3
#
#
#
# Elastic Constant Matrix: (Units=GPa)
#
#
# Indices 1 2 3 4 5 6 
#
# 1 33.4991 23.5163 25.0404 0.0000 -5.5222 0.0000
# 2 23.5163 154.4471 73.7274 0.0000 -26.5901 0.0000
# 3 25.0404 73.7274 117.1547 0.0000 -18.7794 0.0000
# 4 0.0000 0.0000 0.0000 42.2287 0.0000 4.2049
# 5 -5.5222 -26.5901 -18.7794 0.0000 31.1789 0.0000
# 6 0.0000 0.0000 0.0000 4.2049 0.0000 10.5012
#
#
#
# Elastic Compliance Matrix: (Units=1/GPa)
#
#
# Indices 1 2 3 4 5 6 
#
# 1 0.036255 -0.002518 -0.006065 0.000000 0.000621 0.000000
# 2 -0.002518 0.010145 -0.005015 0.000000 0.005185 0.000000
# 3 -0.006065 -0.005015 0.013426 0.000000 0.002736 0.000000
# 4 0.000000 0.000000 0.000000 0.024664 0.000000 -0.009876
# 5 0.000621 0.005185 0.002736 0.000000 0.038253 0.000000
# 6 0.000000 0.000000 0.000000 -0.009876 0.000000 0.099182
#
#
# Mechanical properties :
#
#
# Convention : Reuss Voigt Hill
#
# Bulk Modulus (GPa) = 30.64614 61.07433 45.86024
# Shear Modulus (GPa) = 19.23091 28.96954 24.10023
#
# Velocity S-wave (km/s) = 3.01177 3.69652 3.37158
# Velocity P-wave (km/s) = 5.15262 6.85758 6.06531
#
# Compressibility (1/GPa) = 0.03263054
#
# Stress axis : x y z
#
# Youngs Moduli (GPa) = 27.58229 98.57321 74.47973
#
# Poissons Ratio (x) = 0.24824 0.45170
# Poissons Ratio (y) = 0.06946 0.37350
# Poissons Ratio (z) = 0.16728 0.49433
#
# Static dielectric constant tensor:
#      x y z
#    x 3.578590 0.000000 0.024230 
#    y 0.000000 4.189350 0.000000 
#    z 0.024230 0.000000 4.282130 
# 
# 
# High freq. dielectric constant tensor:
#      x y z
#    x 1.801580 0.000000 0.001080 
#    y 0.000000 1.851470 0.000000 
#    z 0.001080 0.000000 1.841440 
# 
# From -- ./inp_files/234923.got.cif
#   From: 2010.06.25/outbox.cif.g09.slc.cpg/sg15_118_cif.got.tgz:234923.got - 2010.06.28 07:06:18.
