data_PCOD8139910
_publ_section_title
;
Structure prediction by ZEFSAII (Michael W. Deem and Ramdas Pophale) SiO2 
 PCOD8139910
Probable space group: C 2/C
;
_chemical_formula_sum "Si O2"
_cell_formula_units_Z 48
_cell_length_a 10.645118
_cell_length_b 18.102800
_cell_length_c 20.265352
_cell_angle_alpha 90.000000
_cell_angle_beta 143.248012
_cell_angle_gamma 90.000000
_cell_volume 2336.724022
_symmetry_space_group_name_H-M "C 2/C"
_symmetry_group_IT_number 15
_symmetry_cell_setting 'monoclinic'
loop_
_space_group_symop_operation_xyz
x,y,z
-x,y,1/2-z
-x,-y,-z
x,-y,1/2+z
1/2+x,1/2+y,z
1/2-x,1/2+y,1/2-z
1/2-x,1/2-y,-z
1/2+x,1/2-y,1/2+z
loop_
_atom_site_type_symbol
_atom_site_label
_atom_site_fract_x
_atom_site_fract_y
_atom_site_fract_z
Si Si1 0.105035 0.913184 0.974604
Si Si2 0.611961 0.335088 0.732265
Si Si3 0.656067 0.419652 0.505640
Si Si4 0.502517 0.830727 0.174395
Si Si5 0.442204 0.796277 0.612838
Si Si6 0.428721 0.350528 0.289380
O O1 0.932547 0.892719 0.846347
O O2 0.200362 0.995308 0.007624
O O3 0.294704 0.856186 0.049310
O O4 0.010822 0.907906 0.007602
O O5 0.500000 0.368527 0.750000
O O6 0.504939 0.257176 0.670399
O O7 0.861806 0.322327 0.851485
O O8 0.862163 0.372178 0.613152
O O9 0.584815 0.382821 0.408316
O O10 0.500000 0.857068 0.250000
O O11 0.692948 0.868658 0.213892
O O12 0.250000 0.750000 0.500000
O O13 0.546881 0.738630 0.707767
O O14 0.500000 0.386564 0.250000
#
# Coordination Sequence:
#
# PCOD8139910 Si02
#       6
#     8   8   8   8   8   8
#     4  11  23  39  62  89 127 169 205 255 321 384
#     4  10  23  39  63  93 121 164 212 265 312 372
#     4  10  23  40  58  90 128 164 208 258 313 391
#     4  10  20  40  63  88 123 164 212 258 309 373
#     4   9  21  40  62  87 126 160 208 260 315 369
#     4  10  21  38  63  91 118 160 213 263 309 366
#
# _framework density 20.541578999999999
#
# number of rings (size 3 to 8) (size 9 to 14) (size 15 to 20)
#    0.000    2.000    1.667    0.500    7.000    4.667 
#    0.000    1.667    0.000    0.000    0.000    0.000 
#    0.000    0.000    0.000    0.000    0.000    0.000 
#
# Total GULP energy -297338.876551 kJ/mol
# GULP energy per Si atom -12389.119856 kJ/mol
# Density = 2.049483 g / cm^3
# Si number density = 20.541579 Si / 1000 Ang^3
#
#
#
# Elastic Constant Matrix: (Units=GPa)
#
#
# Indices 1 2 3 4 5 6 
#
# 1 127.1554 37.5329 38.1275 0.0000 -0.8196 0.0000
# 2 37.5329 104.5884 34.3627 0.0001 13.3060 0.0000
# 3 38.1275 34.3627 82.4171 0.0005 16.0397 0.0001
# 4 0.0000 0.0001 0.0005 21.1656 0.0001 4.4887
# 5 -0.8196 13.3060 16.0397 0.0001 37.6034 0.0000
# 6 0.0000 0.0000 0.0001 4.4887 0.0000 24.3861
#
#
#
# Elastic Compliance Matrix: (Units=1/GPa)
#
#
# Indices 1 2 3 4 5 6 
#
# 1 0.009853 -0.002571 -0.004041 0.000000 0.002848 0.000000
# 2 -0.002571 0.011908 -0.003211 0.000000 -0.002900 0.000000
# 3 -0.004041 -0.003211 0.016508 0.000000 -0.005993 0.000000
# 4 0.000000 0.000000 0.000000 0.049166 0.000000 -0.009050
# 5 0.002848 -0.002900 -0.005993 0.000000 0.030238 0.000000
# 6 0.000000 0.000000 0.000000 -0.009050 0.000000 0.042673
#
#
# Mechanical properties :
#
#
# Convention : Reuss Voigt Hill
#
# Bulk Modulus (GPa) = 53.69480 59.35636 56.52558
# Shear Modulus (GPa) = 26.85309 30.24020 28.54665
#
# Velocity S-wave (km/s) = 3.61952 3.84102 3.73191
# Velocity P-wave (km/s) = 6.60789 6.97350 6.79315
#
# Compressibility (1/GPa) = 0.01862378
#
# Stress axis : x y z
#
# Youngs Moduli (GPa) = 101.49041 83.97869 60.57693
#
# Poissons Ratio (x) = 0.21588 0.24477
# Poissons Ratio (y) = 0.26090 0.19452
# Poissons Ratio (z) = 0.41009 0.26967
#
# Static dielectric constant tensor:
#      x y z
#    x 3.759420 0.000000 0.249410 
#    y 0.000000 3.922660 0.000000 
#    z 0.249410 0.000000 3.617680 
# 
# 
# High freq. dielectric constant tensor:
#      x y z
#    x 1.802710 0.000000 0.015270 
#    y 0.000000 1.794640 0.000000 
#    z 0.015270 0.000000 1.791340 
# 
# From -- ./inp_files/270656.got.cif
#   From: 2010.06.25/outbox.cif.g09.slc.cpg/sg15_136_cif.got.tgz:270656.got - 2010.06.28 07:06:18.
