data_PCOD8139930
_publ_section_title
;
Structure prediction by ZEFSAII (Michael W. Deem and Ramdas Pophale) SiO2 
 PCOD8139930
Probable space group: C 2/C
;
_chemical_formula_sum "Si O2"
_cell_formula_units_Z 48
_cell_length_a 18.604713
_cell_length_b 27.735159
_cell_length_c 8.748910
_cell_angle_alpha 90.000000
_cell_angle_beta 147.356523
_cell_angle_gamma 90.000000
_cell_volume 2435.154353
_symmetry_space_group_name_H-M "C 2/C"
_symmetry_group_IT_number 15
_symmetry_cell_setting 'monoclinic'
loop_
_space_group_symop_operation_xyz
x,y,z
-x,y,1/2-z
-x,-y,-z
x,-y,1/2+z
1/2+x,1/2+y,z
1/2-x,1/2+y,1/2-z
1/2-x,1/2-y,-z
1/2+x,1/2-y,1/2+z
loop_
_atom_site_type_symbol
_atom_site_label
_atom_site_fract_x
_atom_site_fract_y
_atom_site_fract_z
Si Si1 0.134960 0.461564 0.400323
Si Si2 0.380088 0.270532 0.312411
Si Si3 0.763126 0.864023 0.662719
Si Si4 0.500000 0.321507 0.250000
Si Si5 0.350206 0.640791 0.982792
Si Si6 0.500000 0.804324 0.250000
Si Si7 0.859251 0.559065 0.939754
O O1 0.244696 0.421475 0.637413
O O2 0.189839 0.514118 0.545314
O O3 0.112058 0.460229 0.178410
O O4 0.000000 0.450445 0.250000
O O5 0.479727 0.289645 0.362930
O O6 0.338363 0.311381 0.359211
O O7 0.463083 0.228347 0.539968
O O8 0.250000 0.250000 0.000000
O O9 0.816923 0.845600 0.596566
O O10 0.623495 0.838057 0.434239
O O11 0.867813 0.853107 0.984918
O O12 0.250938 0.600272 0.741435
O O13 0.500000 0.619885 0.250000
O O14 0.000000 0.580365 0.250000
#
# Coordination Sequence:
#
# PCOD8139930 Si02
#       7
#     8   8   8   4   8   4   8
#     4  10  20  40  63  96 126 161 209 264 317 374
#     4  12  26  41  66  94 126 172 217 264 319 380
#     4  11  24  42  66  94 128 172 209 265 325 374
#     4  12  24  42  62  95 127 162 220 264 318 380
#     4  11  24  46  62  90 136 171 205 265 323 380
#     4  12  24  44  66  91 131 174 212 270 316 382
#     4  10  22  39  67  93 123 166 212 261 316 377
#
# _framework density 19.711278
#
# number of rings (size 3 to 8) (size 9 to 14) (size 15 to 20)
#    0.000    1.000    5.000    2.000    2.333    6.667 
#    1.500    1.667    0.000    0.000    0.000    0.000 
#    0.000    0.000    0.000    0.000    0.000    0.000 
#
# Total GULP energy -297643.956209 kJ/mol
# GULP energy per Si atom -12401.831509 kJ/mol
# Density = 1.966641 g / cm^3
# Si number density = 19.711278 Si / 1000 Ang^3
#
#
#
# Elastic Constant Matrix: (Units=GPa)
#
#
# Indices 1 2 3 4 5 6 
#
# 1 95.4176 29.2112 34.9950 0.0000 6.9921 0.0000
# 2 29.2112 99.1704 66.7760 0.0000 6.8482 0.0000
# 3 34.9950 66.7760 164.3985 0.0000 8.4109 0.0000
# 4 0.0000 0.0000 0.0000 -225.3107 0.0000 132.8496
# 5 6.9921 6.8482 8.4109 0.0000 29.3680 0.0000
# 6 0.0000 0.0000 0.0000 132.8496 0.0000 -57.6658
#
#
#
# Elastic Compliance Matrix: (Units=1/GPa)
#
#
# Indices 1 2 3 4 5 6 
#
# 1 0.011884 -0.002385 -0.001466 0.000000 -0.001853 0.000000
# 2 -0.002385 0.014437 -0.005291 0.000000 -0.001283 0.000000
# 3 -0.001466 -0.005291 0.008589 0.000000 -0.000877 0.000000
# 4 0.000000 0.000000 0.000000 0.012385 0.000000 0.028531
# 5 -0.001853 -0.001283 -0.000877 0.000000 0.035042 0.000000
# 6 0.000000 0.000000 0.000000 0.028531 0.000000 0.048389
#
#
# Mechanical properties :
#
#
# Convention : Reuss Voigt Hill
#
# Bulk Modulus (GPa) = 60.14752 68.99454 64.57103
# Shear Modulus (GPa) = 32.35159 -35.52140 -1.58491
#
# Velocity S-wave (km/s) = 4.05566 -4.24970 -0.89767
# Velocity P-wave (km/s) = 7.24649 3.31641 5.63517
#
# Compressibility (1/GPa) = 0.01662579
#
# Stress axis : x y z
#
# Youngs Moduli (GPa) = 84.14694 69.26421 116.43124
#
# Poissons Ratio (x) = 0.16522 0.17069
# Poissons Ratio (y) = 0.20072 0.61602
# Poissons Ratio (z) = 0.12336 0.36647
#
# Static dielectric constant tensor:
#      x y z
#    x 3.795370 0.000000 0.092310 
#    y 0.000000 3.741340 0.000000 
#    z 0.092310 0.000000 4.164830 
# 
# 
# High freq. dielectric constant tensor:
#      x y z
#    x 1.778590 0.000000 -0.008210 
#    y 0.000000 1.771400 0.000000 
#    z -0.008210 0.000000 1.779480 
# 
# From -- ./inp_files/32166.got.cif
#   From: 2010.06.25/outbox.cif.g09.slc.cpg/sg15_17_cif.got.tgz:32166.got - 2010.06.28 07:06:18.
