data_PCOD8139525
_publ_section_title
;
Structure prediction by ZEFSAII (Michael W. Deem and Ramdas Pophale) SiO2 
 PCOD8139525
Probable space group: C 2/C
;
_chemical_formula_sum "Si O2"
_cell_formula_units_Z 40
_cell_length_a 22.976664
_cell_length_b 8.120689
_cell_length_c 17.494857
_cell_angle_alpha 90.000000
_cell_angle_beta 149.791854
_cell_angle_gamma 90.000000
_cell_volume 1642.409801
_symmetry_space_group_name_H-M "C 2/C"
_symmetry_group_IT_number 15
_symmetry_cell_setting 'monoclinic'
loop_
_space_group_symop_operation_xyz
x,y,z
-x,y,1/2-z
-x,-y,-z
x,-y,1/2+z
1/2+x,1/2+y,z
1/2-x,1/2+y,1/2-z
1/2-x,1/2-y,-z
1/2+x,1/2-y,1/2+z
loop_
_atom_site_type_symbol
_atom_site_label
_atom_site_fract_x
_atom_site_fract_y
_atom_site_fract_z
Si Si1 0.484278 0.008041 0.822662
Si Si2 0.707938 0.156556 0.314487
Si Si3 0.636235 0.467631 0.909311
Si Si4 0.723690 0.014351 0.681942
Si Si5 0.805034 0.783589 0.662776
O O1 0.500000 0.998116 0.750000
O O2 0.408169 0.852271 0.766173
O O3 0.416506 0.173888 0.769821
O O4 0.604401 0.000978 0.001917
O O5 0.711625 0.318399 0.267617
O O6 0.817380 0.133131 0.495900
O O7 0.706499 0.998724 0.253773
O O8 0.500000 0.471716 0.750000
O O9 0.690649 0.447919 0.886517
O O10 0.683013 0.308666 0.009244
O O11 0.804742 0.859489 0.747810
#
# Coordination Sequence:
#
# PCOD8139525 Si02
#       5
#     8   8   8   8   8
#     4  11  24  45  71  97 132 176 217 271 334 391
#     4  11  26  43  66  98 133 177 222 270 329 392
#     4  10  20  39  63  93 129 168 216 265 322 388
#     4  12  25  45  67  96 139 174 219 277 327 390
#     4  10  21  39  68  97 126 172 219 265 327 395
#
# _framework density 24.354455999999999
#
# number of rings (size 3 to 8) (size 9 to 14) (size 15 to 20)
#    0.000    1.200    0.000    8.400    0.000    5.600 
#    0.000    6.000    0.000    0.000    0.000    0.000 
#    0.000    0.000    0.000    0.000    0.000    0.000 
#
# Total GULP energy -247930.927300 kJ/mol
# GULP energy per Si atom -12396.546365 kJ/mol
# Density = 2.429902 g / cm^3
# Si number density = 24.354456 Si / 1000 Ang^3
#
#
#
# Elastic Constant Matrix: (Units=GPa)
#
#
# Indices 1 2 3 4 5 6 
#
# 1 149.6028 31.3769 40.8254 0.0000 6.3542 0.0000
# 2 31.3769 50.3201 6.4328 0.0000 20.1544 0.0000
# 3 40.8254 6.4328 100.4516 0.0000 9.3841 0.0000
# 4 0.0000 0.0000 0.0000 19.1875 0.0000 -2.6082
# 5 6.3542 20.1544 9.3841 0.0000 29.6724 0.0000
# 6 0.0000 0.0000 0.0000 -2.6082 0.0000 45.8816
#
#
#
# Elastic Compliance Matrix: (Units=1/GPa)
#
#
# Indices 1 2 3 4 5 6 
#
# 1 0.008863 -0.006542 -0.003525 0.000000 0.003660 0.000000
# 2 -0.006542 0.032128 0.002585 0.000000 -0.021239 0.000000
# 3 -0.003525 0.002585 0.011660 0.000000 -0.004689 0.000000
# 4 0.000000 0.000000 0.000000 0.052523 0.000000 0.002986
# 5 0.003660 -0.021239 -0.004689 0.000000 0.048827 0.000000
# 6 0.000000 0.000000 0.000000 0.002986 0.000000 0.021965
#
#
# Mechanical properties :
#
#
# Convention : Reuss Voigt Hill
#
# Bulk Modulus (GPa) = 26.53340 50.84939 38.69140
# Shear Modulus (GPa) = 24.57103 33.73093 29.15098
#
# Velocity S-wave (km/s) = 3.17975 3.72560 3.46344
# Velocity P-wave (km/s) = 4.93958 6.27941 5.64935
#
# Compressibility (1/GPa) = 0.03768834
#
# Stress axis : x y z
#
# Youngs Moduli (GPa) = 112.82984 31.12532 85.76216
#
# Poissons Ratio (x) = 0.20362 0.30232
# Poissons Ratio (y) = 0.73811 -0.22173
# Poissons Ratio (z) = 0.39773 -0.08047
#
# Static dielectric constant tensor:
#      x y z
#    x 4.823350 0.000000 -0.159790 
#    y 0.000000 4.377660 0.000000 
#    z -0.159790 0.000000 4.146800 
# 
# 
# High freq. dielectric constant tensor:
#      x y z
#    x 1.991470 0.000000 -0.007600 
#    y 0.000000 1.964610 0.000000 
#    z -0.007600 0.000000 1.951780 
# 
# From -- ./inp_files/218831.got.cif
#   From: 2010.06.25/outbox.cif.g09.slc.cpg/sg15_110_cif.got.tgz:218831.got - 2010.06.28 07:06:18.
