data_PCOD8139479
_publ_section_title
;
Structure prediction by ZEFSAII (Michael W. Deem and Ramdas Pophale) SiO2 
 PCOD8139479
Probable space group: C 2/C
;
_chemical_formula_sum "Si O2"
_cell_formula_units_Z 60
_cell_length_a 13.476232
_cell_length_b 14.203186
_cell_length_c 16.883102
_cell_angle_alpha 90.000000
_cell_angle_beta 119.155671
_cell_angle_gamma 90.000000
_cell_volume 2822.081769
_symmetry_space_group_name_H-M "C 2/C"
_symmetry_group_IT_number 15
_symmetry_cell_setting 'monoclinic'
loop_
_space_group_symop_operation_xyz
x,y,z
-x,y,1/2-z
-x,-y,-z
x,-y,1/2+z
1/2+x,1/2+y,z
1/2-x,1/2+y,1/2-z
1/2-x,1/2-y,-z
1/2+x,1/2-y,1/2+z
loop_
_atom_site_type_symbol
_atom_site_label
_atom_site_fract_x
_atom_site_fract_y
_atom_site_fract_z
Si Si1 0.703090 0.697692 0.613511
Si Si2 0.085185 0.572634 0.853148
Si Si3 0.000000 0.197433 0.750000
Si Si4 0.494894 0.580007 0.598061
Si Si5 0.984966 0.285900 0.047403
Si Si6 0.387954 0.600531 0.395826
Si Si7 0.173092 0.666084 0.233466
Si Si8 0.483257 0.072079 0.064061
O O1 0.799830 0.624059 0.627589
O O2 0.597706 0.639404 0.604051
O O3 0.647847 0.756662 0.519056
O O4 0.743767 0.770754 0.697157
O O5 0.012233 0.639426 0.881641
O O6 0.000000 0.547277 0.750000
O O7 0.109318 0.474235 0.911227
O O8 0.047948 0.128559 0.837767
O O9 0.898057 0.263943 0.738213
O O10 0.395604 0.577908 0.492923
O O11 0.541504 0.474549 0.629486
O O12 0.060176 0.200638 0.106290
O O13 0.044325 0.327832 0.989240
O O14 0.256516 0.602969 0.319483
O O15 0.097218 0.588989 0.159141
O O16 0.500000 0.000000 0.000000
#
# Coordination Sequence:
#
# PCOD8139479 Si02
#       8
#     8   8   4   8   8   8   8   8
#     4   9  19  37  58  83 118 162 194 248 309 357
#     4  11  21  32  58  90 120 149 203 251 302 362
#     4  10  22  42  62  92 124 162 204 262 312 370
#     4   9  21  40  61  84 125 158 200 258 309 363
#     4   9  19  40  58  81 121 161 199 244 304 369
#     4  10  20  39  63  86 116 164 205 245 306 368
#     4  10  21  38  65  87 122 164 208 252 306 368
#     4   9  21  39  58  90 127 161 197 259 310 363
#
# _framework density 21.260899999999999
#
# number of rings (size 3 to 8) (size 9 to 14) (size 15 to 20)
#    0.000    2.400    0.000    2.000    2.800    0.533 
#    6.000    4.000    2.933    0.000    0.000    0.000 
#    0.000    0.000    0.000    0.000    0.000    0.000 
#
# Total GULP energy -371695.561146 kJ/mol
# GULP energy per Si atom -12389.852038 kJ/mol
# Density = 2.121251 g / cm^3
# Si number density = 21.260900 Si / 1000 Ang^3
#
#
#
# Elastic Constant Matrix: (Units=GPa)
#
#
# Indices 1 2 3 4 5 6 
#
# 1 61.3651 28.3948 40.6088 0.0000 -5.4241 0.0000
# 2 28.3948 105.6691 47.2983 0.0000 0.0989 0.0000
# 3 40.6088 47.2983 121.8341 0.0000 0.3027 0.0000
# 4 0.0000 0.0000 0.0000 35.2277 0.0000 -5.1030
# 5 -5.4241 0.0989 0.3027 0.0000 22.5873 0.0000
# 6 0.0000 0.0000 0.0000 -5.1030 0.0000 34.0238
#
#
#
# Elastic Compliance Matrix: (Units=1/GPa)
#
#
# Indices 1 2 3 4 5 6 
#
# 1 0.022395 -0.003238 -0.006221 0.000000 0.005476 0.000000
# 2 -0.003238 0.011922 -0.003547 0.000000 -0.000782 0.000000
# 3 -0.006221 -0.003547 0.011662 0.000000 -0.001635 0.000000
# 4 0.000000 0.000000 0.000000 0.029017 0.000000 0.004352
# 5 0.005476 -0.000782 -0.001635 0.000000 0.045613 0.000000
# 6 0.000000 0.000000 0.000000 0.004352 0.000000 0.030044
#
#
# Mechanical properties :
#
#
# Convention : Reuss Voigt Hill
#
# Bulk Modulus (GPa) = 50.08299 57.94136 54.01217
# Shear Modulus (GPa) = 27.27437 29.87219 28.57328
#
# Velocity S-wave (km/s) = 3.58556 3.75244 3.66995
# Velocity P-wave (km/s) = 6.38351 6.78867 6.58921
#
# Compressibility (1/GPa) = 0.01996686
#
# Stress axis : x y z
#
# Youngs Moduli (GPa) = 44.65252 83.87756 85.74501
#
# Poissons Ratio (x) = 0.27164 0.53342
# Poissons Ratio (y) = 0.14461 0.30414
# Poissons Ratio (z) = 0.27778 0.29752
#
# Static dielectric constant tensor:
#      x y z
#    x 3.551050 0.000000 -0.205400 
#    y 0.000000 4.602310 0.000000 
#    z -0.205400 0.000000 4.214100 
# 
# 
# High freq. dielectric constant tensor:
#      x y z
#    x 1.789270 0.000000 -0.009690 
#    y 0.000000 1.856680 0.000000 
#    z -0.009690 0.000000 1.844340 
# 
# From -- ./inp_files/154281.got.cif
#   From: 2010.06.25/outbox.cif.g09.slc.cpg/sg15_78_cif.got.tgz:154281.got - 2010.06.28 07:06:18.
