data_PCOD8139377
_publ_section_title
;
Structure prediction by ZEFSAII (Michael W. Deem and Ramdas Pophale) SiO2 
 PCOD8139377
Probable space group: C 2/C
;
_chemical_formula_sum "Si O2"
_cell_formula_units_Z 40
_cell_length_a 21.282721
_cell_length_b 7.600808
_cell_length_c 13.556516
_cell_angle_alpha 90.000000
_cell_angle_beta 61.575562
_cell_angle_gamma 90.000000
_cell_volume 1928.608157
_symmetry_space_group_name_H-M "C 2/C"
_symmetry_group_IT_number 15
_symmetry_cell_setting 'monoclinic'
loop_
_space_group_symop_operation_xyz
x,y,z
-x,y,1/2-z
-x,-y,-z
x,-y,1/2+z
1/2+x,1/2+y,z
1/2-x,1/2+y,1/2-z
1/2-x,1/2-y,-z
1/2+x,1/2-y,1/2+z
loop_
_atom_site_type_symbol
_atom_site_label
_atom_site_fract_x
_atom_site_fract_y
_atom_site_fract_z
Si Si1 0.941460 0.782127 0.486387
Si Si2 0.414836 0.325223 0.017271
Si Si3 0.718176 0.881283 0.862916
Si Si4 0.843515 0.353718 0.232591
Si Si5 0.113789 0.474300 0.094709
O O1 0.904464 0.709859 0.613003
O O2 0.926469 0.654144 0.405423
O O3 0.025919 0.795466 0.442557
O O4 0.912235 0.974924 0.480747
O O5 0.338015 0.275353 0.121417
O O6 0.430952 0.193486 0.913337
O O7 0.798955 0.810408 0.810806
O O8 0.713902 0.024561 0.779684
O O9 0.693635 0.970027 0.985462
O O10 0.881112 0.462945 0.291697
#
# Coordination Sequence:
#
# PCOD8139377 Si02
#       5
#     8   8   8   8   8
#     4  10  20  39  61  85 115 158 186 242 294 338
#     4   9  20  40  58  81 124 147 190 244 291 338
#     4   9  21  37  55  85 114 154 184 247 285 338
#     4  11  20  38  61  84 118 155 198 236 293 348
#     4   9  21  37  60  85 115 149 193 241 284 345
#
# _framework density 20.740347
#
# number of rings (size 3 to 8) (size 9 to 14) (size 15 to 20)
#    1.200    1.200    0.000    2.400    0.000    0.800 
#    7.200    3.000    0.000    0.000    0.000    0.000 
#    0.000    0.000    0.000    0.000    0.000    0.000 
#
# Total GULP energy -247876.438568 kJ/mol
# GULP energy per Si atom -12393.821928 kJ/mol
# Density = 2.069314 g / cm^3
# Si number density = 20.740347 Si / 1000 Ang^3
#
#
#
# Elastic Constant Matrix: (Units=GPa)
#
#
# Indices 1 2 3 4 5 6 
#
# 1 46.0495 16.8938 13.7717 0.0000 -2.3645 0.0000
# 2 16.8938 123.1009 23.9754 0.0001 14.1117 -0.0001
# 3 13.7717 23.9754 46.8361 0.0000 8.6863 0.0000
# 4 0.0000 0.0001 0.0000 13.2487 0.0000 0.9484
# 5 -2.3645 14.1117 8.6863 0.0000 19.7880 0.0000
# 6 0.0000 -0.0001 0.0000 0.9484 0.0000 37.4018
#
#
#
# Elastic Compliance Matrix: (Units=1/GPa)
#
#
# Indices 1 2 3 4 5 6 
#
# 1 0.025510 -0.003007 -0.007538 0.000000 0.008502 0.000000
# 2 -0.003007 0.009816 -0.003022 0.000000 -0.006033 0.000000
# 3 -0.007538 -0.003022 0.027087 0.000000 -0.010636 0.000000
# 4 0.000000 0.000000 0.000000 0.075616 0.000000 -0.001917
# 5 0.008502 -0.006033 -0.010636 0.000000 0.060523 0.000000
# 6 0.000000 0.000000 0.000000 -0.001917 0.000000 0.026785
#
#
# Mechanical properties :
#
#
# Convention : Reuss Voigt Hill
#
# Bulk Modulus (GPa) = 28.34578 36.14091 32.24335
# Shear Modulus (GPa) = 18.92273 24.84408 21.88340
#
# Velocity S-wave (km/s) = 3.02381 3.46477 3.25177
# Velocity P-wave (km/s) = 5.08802 5.78528 5.44781
#
# Compressibility (1/GPa) = 0.03527862
#
# Stress axis : x y z
#
# Youngs Moduli (GPa) = 39.20024 101.87158 36.91800
#
# Poissons Ratio (x) = 0.30636 0.27830
# Poissons Ratio (y) = 0.11789 0.11156
# Poissons Ratio (z) = 0.29550 0.30783
#
# Static dielectric constant tensor:
#      x y z
#    x 3.453300 0.000000 -0.063170 
#    y 0.000000 3.831630 0.000000 
#    z -0.063170 0.000000 3.342430 
# 
# 
# High freq. dielectric constant tensor:
#      x y z
#    x 1.799020 0.000000 -0.006370 
#    y 0.000000 1.814940 0.000000 
#    z -0.006370 0.000000 1.785850 
# 
# From -- ./inp_files/115906.got.cif
#   From: 2010.06.25/outbox.cif.g09.slc.cpg/sg15_58_cif.got.tgz:115906.got - 2010.06.28 07:06:18.
