data_PCOD8139576
_publ_section_title
;
Structure prediction by ZEFSAII (Michael W. Deem and Ramdas Pophale) SiO2 
 PCOD8139576
Probable space group: C 2/C
;
_chemical_formula_sum "Si O2"
_cell_formula_units_Z 40
_cell_length_a 5.014121
_cell_length_b 24.022329
_cell_length_c 18.341416
_cell_angle_alpha 90.000000
_cell_angle_beta 132.125211
_cell_angle_gamma 90.000000
_cell_volume 1638.550390
_symmetry_space_group_name_H-M "C 2/C"
_symmetry_group_IT_number 15
_symmetry_cell_setting 'monoclinic'
loop_
_space_group_symop_operation_xyz
x,y,z
-x,y,1/2-z
-x,-y,-z
x,-y,1/2+z
1/2+x,1/2+y,z
1/2-x,1/2+y,1/2-z
1/2-x,1/2-y,-z
1/2+x,1/2-y,1/2+z
loop_
_atom_site_type_symbol
_atom_site_label
_atom_site_fract_x
_atom_site_fract_y
_atom_site_fract_z
Si Si1 0.295812 0.513790 0.138253
Si Si2 0.875337 0.905680 0.360924
Si Si3 0.081060 0.209479 0.681735
Si Si4 0.398041 0.431316 0.948175
Si Si5 0.077171 0.330847 0.680681
O O1 0.500000 0.530749 0.250000
O O2 0.362085 0.450318 0.128273
O O3 0.425582 0.555465 0.097484
O O4 0.865236 0.518381 0.072593
O O5 0.500000 0.908180 0.250000
O O6 0.059801 0.844326 0.388800
O O7 0.813047 0.919689 0.434811
O O8 0.500000 0.214713 0.750000
O O9 0.929153 0.269585 0.627371
O O10 0.000000 0.196979 0.750000
O O11 0.138713 0.377773 0.901425
O O12 0.500000 0.339027 0.750000
O O13 0.000000 0.338175 0.750000
#
# Coordination Sequence:
#
# PCOD8139576 Si02
#       5
#     8   8   8   8   8
#     4  12  25  44  67  94 127 165 210 265 322 375
#     4  11  25  44  65  93 132 172 212 258 312 376
#     4   9  20  38  62  89 123 168 212 255 309 370
#     4  12  25  41  67  98 128 165 213 260 317 380
#     4  10  20  39  64  92 126 163 209 264 314 366
#
# _framework density 24.411823999999999
#
# number of rings (size 3 to 8) (size 9 to 14) (size 15 to 20)
#    0.000    1.200    0.000    6.600    0.000    7.200 
#    0.000    0.000    0.000   16.800    0.000    0.000 
#    0.000    0.000    0.000    0.000    0.000    0.000 
#
# Total GULP energy -247898.810398 kJ/mol
# GULP energy per Si atom -12394.940520 kJ/mol
# Density = 2.435626 g / cm^3
# Si number density = 24.411824 Si / 1000 Ang^3
#
#
#
# Elastic Constant Matrix: (Units=GPa)
#
#
# Indices 1 2 3 4 5 6 
#
# 1 129.9161 0.7319 19.4023 0.0000 -22.8458 0.0000
# 2 0.7319 150.1208 18.7774 0.0000 -26.1369 0.0000
# 3 19.4023 18.7774 105.4662 0.0000 -28.1378 0.0000
# 4 0.0000 0.0000 0.0000 -81.8791 0.0000 -3.5873
# 5 -22.8458 -26.1369 -28.1378 0.0000 32.9943 0.0000
# 6 0.0000 0.0000 0.0000 -3.5873 0.0000 33.7569
#
#
#
# Elastic Compliance Matrix: (Units=1/GPa)
#
#
# Indices 1 2 3 4 5 6 
#
# 1 0.008947 0.001202 0.000061 0.000000 0.007200 0.000000
# 2 0.001202 0.007898 0.000342 0.000000 0.007380 0.000000
# 3 0.000061 0.000342 0.012289 0.000000 0.010793 0.000000
# 4 0.000000 0.000000 0.000000 -0.012157 0.000000 -0.001292
# 5 0.007200 0.007380 0.010793 0.000000 0.050344 0.000000
# 6 0.000000 0.000000 0.000000 -0.001292 0.000000 0.029486
#
#
# Mechanical properties :
#
#
# Convention : Reuss Voigt Hill
#
# Bulk Modulus (GPa) = 30.91798 51.48067 41.19932
# Shear Modulus (GPa) = 47.90192 20.08053 33.99122
#
# Velocity S-wave (km/s) = 4.43453 2.87117 3.73555
# Velocity P-wave (km/s) = 6.23800 5.66795 5.95980
#
# Compressibility (1/GPa) = 0.03234364
#
# Stress axis : x y z
#
# Youngs Moduli (GPa) = 111.76333 126.62048 81.37199
#
# Poissons Ratio (x) = -0.15223 -0.00494
# Poissons Ratio (y) = -0.13437 -0.02780
# Poissons Ratio (z) = -0.00678 -0.04326
#
# Static dielectric constant tensor:
#      x y z
#    x 4.348770 0.000000 -0.146860 
#    y 0.000000 5.962710 0.000000 
#    z -0.146860 0.000000 4.237330 
# 
# 
# High freq. dielectric constant tensor:
#      x y z
#    x 1.983510 0.000000 -0.009510 
#    y 0.000000 2.003390 0.000000 
#    z -0.009510 0.000000 1.943660 
# 
# From -- ./inp_files/228269.got.cif
#   From: 2010.06.25/outbox.cif.g09.slc.cpg/sg15_115_cif.got.tgz:228269.got - 2010.06.28 07:06:18.
