data_PCOD8139922
_publ_section_title
;
Structure prediction by ZEFSAII (Michael W. Deem and Ramdas Pophale) SiO2 
 PCOD8139922
Probable space group: C 2/C
;
_chemical_formula_sum "Si O2"
_cell_formula_units_Z 44
_cell_length_a 22.760052
_cell_length_b 6.374624
_cell_length_c 15.767065
_cell_angle_alpha 90.000000
_cell_angle_beta 55.629661
_cell_angle_gamma 90.000000
_cell_volume 1888.192333
_symmetry_space_group_name_H-M "C 2/C"
_symmetry_group_IT_number 15
_symmetry_cell_setting 'monoclinic'
loop_
_space_group_symop_operation_xyz
x,y,z
-x,y,1/2-z
-x,-y,-z
x,-y,1/2+z
1/2+x,1/2+y,z
1/2-x,1/2+y,1/2-z
1/2-x,1/2-y,-z
1/2+x,1/2-y,1/2+z
loop_
_atom_site_type_symbol
_atom_site_label
_atom_site_fract_x
_atom_site_fract_y
_atom_site_fract_z
Si Si1 0.926215 0.055437 0.665770
Si Si2 0.319184 0.784378 0.851697
Si Si3 0.386060 0.070609 0.931883
Si Si4 0.000000 0.171256 0.250000
Si Si5 0.310654 0.478230 0.002953
Si Si6 0.574758 0.292084 0.990962
O O1 0.906462 0.860624 0.620357
O O2 0.943383 0.970192 0.745690
O O3 0.858209 0.209367 0.733600
O O4 0.990075 0.192197 0.574392
O O5 0.374783 0.911151 0.864135
O O6 0.251773 0.934489 0.883730
O O7 0.293005 0.578225 0.925191
O O8 0.458667 0.192277 0.853197
O O9 0.316753 0.224538 0.994115
O O10 0.397570 0.943576 0.010884
O O11 0.387638 0.546309 0.975575
#
# Coordination Sequence:
#
# PCOD8139922 Si02
#       6
#     8   8   8   4   8   8
#     4  11  21  42  62  95 133 179 226 278 327 406
#     4  10  21  38  66  91 130 172 228 273 331 398
#     4  11  20  37  63  97 127 180 221 280 335 390
#     4  12  20  36  66  94 130 170 236 272 324 396
#     4  10  20  40  63  93 128 172 219 280 333 402
#     4  10  23  40  64  89 137 177 218 278 344 393
#
# _framework density 23.302712
#
# number of rings (size 3 to 8) (size 9 to 14) (size 15 to 20)
#    0.000    1.455    3.636    2.727    0.000    0.727 
#    3.273    1.818    0.000    0.000    0.000    0.000 
#    0.000    0.000    0.000    0.000    0.000    0.000 
#
# Total GULP energy -272788.929585 kJ/mol
# GULP energy per Si atom -12399.496799 kJ/mol
# Density = 2.324967 g / cm^3
# Si number density = 23.302712 Si / 1000 Ang^3
#
#
#
# Elastic Constant Matrix: (Units=GPa)
#
#
# Indices 1 2 3 4 5 6 
#
# 1 54.7108 38.6566 38.5709 -0.0046 -2.3683 0.0006
# 2 38.6566 146.5035 68.2979 -0.0088 -2.0875 0.0148
# 3 38.5709 68.2979 130.2079 -0.0020 -15.2002 -0.0004
# 4 -0.0046 -0.0088 -0.0020 38.2366 0.0004 -3.5618
# 5 -2.3683 -2.0875 -15.2002 0.0004 36.2593 0.0007
# 6 0.0006 0.0148 -0.0004 -3.5618 0.0007 39.1028
#
#
#
# Elastic Compliance Matrix: (Units=1/GPa)
#
#
# Indices 1 2 3 4 5 6 
#
# 1 0.024889 -0.004099 -0.005321 0.000002 -0.000841 0.000001
# 2 -0.004099 0.009793 -0.004088 0.000001 -0.001418 -0.000004
# 3 -0.005321 -0.004088 0.011916 -0.000001 0.004412 0.000002
# 4 0.000002 0.000001 -0.000001 0.026377 0.000000 0.002403
# 5 -0.000841 -0.001418 0.004412 0.000000 0.029292 0.000000
# 6 0.000001 -0.000004 0.000002 0.002403 0.000000 0.025792
#
#
# Mechanical properties :
#
#
# Convention : Reuss Voigt Hill
#
# Bulk Modulus (GPa) = 51.06752 69.16367 60.11559
# Shear Modulus (GPa) = 30.94040 35.11287 33.02663
#
# Velocity S-wave (km/s) = 3.64780 3.88598 3.76877
# Velocity P-wave (km/s) = 6.30114 7.06254 6.69267
#
# Compressibility (1/GPa) = 0.01958192
#
# Stress axis : x y z
#
# Youngs Moduli (GPa) = 40.17890 102.11583 83.92359
#
# Poissons Ratio (x) = 0.41853 0.44656
# Poissons Ratio (y) = 0.16468 0.34308
# Poissons Ratio (z) = 0.21379 0.41745
#
# Static dielectric constant tensor:
#      x y z
#    x 4.072070 -0.000030 -0.187020 
#    y -0.000030 4.311560 0.000010 
#    z -0.187020 0.000010 3.913840 
# 
# 
# High freq. dielectric constant tensor:
#      x y z
#    x 1.908900 0.000000 -0.021520 
#    y 0.000000 1.925440 0.000000 
#    z -0.021520 0.000000 1.898840 
# 
# From -- ./inp_files/221124.got.cif
#   From: 2010.06.25/outbox.cif.g09.slc.cpg/sg15_111_cif.got.tgz:221124.got - 2010.06.28 07:06:18.
