data_PCOD8139770
_publ_section_title
;
Structure prediction by ZEFSAII (Michael W. Deem and Ramdas Pophale) SiO2 
 PCOD8139770
Probable space group: C 2/C
;
_chemical_formula_sum "Si O2"
_cell_formula_units_Z 60
_cell_length_a 18.676663
_cell_length_b 26.301301
_cell_length_c 7.650782
_cell_angle_alpha 90.000000
_cell_angle_beta 44.998965
_cell_angle_gamma 90.000000
_cell_volume 2657.415711
_symmetry_space_group_name_H-M "C 2/C"
_symmetry_group_IT_number 15
_symmetry_cell_setting 'monoclinic'
loop_
_space_group_symop_operation_xyz
x,y,z
-x,y,1/2-z
-x,-y,-z
x,-y,1/2+z
1/2+x,1/2+y,z
1/2-x,1/2+y,1/2-z
1/2-x,1/2-y,-z
1/2+x,1/2-y,1/2+z
loop_
_atom_site_type_symbol
_atom_site_label
_atom_site_fract_x
_atom_site_fract_y
_atom_site_fract_z
Si Si1 0.885500 0.845147 0.284147
Si Si2 0.259228 0.358726 0.160120
Si Si3 0.214979 0.468626 0.338857
Si Si4 0.061792 0.614078 0.481681
Si Si5 0.500000 0.947361 0.750000
Si Si6 0.894801 0.191321 0.135743
Si Si7 0.234017 0.069127 0.383160
Si Si8 0.553279 0.801530 0.478473
O O1 0.810932 0.837334 0.248530
O O2 0.861139 0.807460 0.488875
O O3 0.870183 0.901879 0.393319
O O4 0.999952 0.839110 0.022566
O O5 0.259305 0.420491 0.153154
O O6 0.144006 0.340709 0.358616
O O7 0.314751 0.338322 0.892485
O O8 0.282091 0.520096 0.211519
O O9 0.216220 0.456800 0.537632
O O10 0.094847 0.479956 0.508137
O O11 0.039248 0.588472 0.336055
O O12 0.180904 0.609988 0.328420
O O13 0.000000 0.589718 0.750000
O O14 0.027154 0.672985 0.515988
O O15 0.905377 0.249519 0.180853
O O16 0.500000 0.785725 0.750000
#
# Coordination Sequence:
#
# PCOD8139770 Si02
#       8
#     8   8   8   8   4   8   8   8
#     4  10  23  46  66  95 124 173 218 281 323 376
#     4  11  24  43  70  94 136 170 218 271 325 400
#     4  10  22  38  64  95 131 174 210 267 325 391
#     4  11  24  38  62  96 136 177 212 263 318 405
#     4  10  20  40  56  90 142 172 204 264 324 380
#     4  11  25  45  71  91 128 172 227 277 328 378
#     4  10  24  40  64  96 131 173 219 263 329 391
#     4  12  22  46  63 101 137 170 211 273 330 393
#
# _framework density 22.578327999999999
#
# number of rings (size 3 to 8) (size 9 to 14) (size 15 to 20)
#    0.000    1.333    3.333    2.400    6.533    2.667 
#    2.400    0.667    2.933    0.000    0.000    0.000 
#    0.000    0.000    0.000    0.000    0.000    0.000 
#
# Total GULP energy -371764.488932 kJ/mol
# GULP energy per Si atom -12392.149631 kJ/mol
# Density = 2.252694 g / cm^3
# Si number density = 22.578328 Si / 1000 Ang^3
#
#
#
# Elastic Constant Matrix: (Units=GPa)
#
#
# Indices 1 2 3 4 5 6 
#
# 1 49.9340 29.9454 21.0829 0.0000 -5.3776 0.0000
# 2 29.9454 107.9727 23.9391 0.0000 -9.4986 0.0000
# 3 21.0829 23.9391 90.1683 0.0000 8.0234 0.0000
# 4 0.0000 0.0000 0.0000 46.5443 0.0000 -5.6784
# 5 -5.3776 -9.4986 8.0234 0.0000 27.3734 0.0000
# 6 0.0000 0.0000 0.0000 -5.6784 0.0000 17.0219
#
#
#
# Elastic Compliance Matrix: (Units=1/GPa)
#
#
# Indices 1 2 3 4 5 6 
#
# 1 0.026053 -0.005717 -0.004983 0.000000 0.004595 0.000000
# 2 -0.005717 0.011612 -0.002059 0.000000 0.003510 0.000000
# 3 -0.004983 -0.002059 0.013300 0.000000 -0.005591 0.000000
# 4 0.000000 0.000000 0.000000 0.022396 0.000000 0.007471
# 5 0.004595 0.003510 -0.005591 0.000000 0.040291 0.000000
# 6 0.000000 0.000000 0.000000 0.007471 0.000000 0.061240
#
#
# Mechanical properties :
#
#
# Convention : Reuss Voigt Hill
#
# Bulk Modulus (GPa) = 39.29454 44.22332 41.75893
# Shear Modulus (GPa) = 23.93572 29.72844 26.83208
#
# Velocity S-wave (km/s) = 3.25948 3.63255 3.45106
# Velocity P-wave (km/s) = 5.62201 6.10106 5.86643
#
# Compressibility (1/GPa) = 0.02544883
#
# Stress axis : x y z
#
# Youngs Moduli (GPa) = 38.38263 86.11575 75.19047
#
# Poissons Ratio (x) = 0.49230 0.37467
# Poissons Ratio (y) = 0.21942 0.15479
# Poissons Ratio (z) = 0.19126 0.17728
#
# Static dielectric constant tensor:
#      x y z
#    x 4.068180 0.000000 0.017220 
#    y 0.000000 5.113910 0.000000 
#    z 0.017220 0.000000 4.116430 
# 
# 
# High freq. dielectric constant tensor:
#      x y z
#    x 1.877640 0.000000 0.011860 
#    y 0.000000 1.884560 0.000000 
#    z 0.011860 0.000000 1.894480 
# 
# From -- ./inp_files/59109.got.cif
#   From: 2010.06.25/outbox.cif.g09.slc.cpg/sg15_30_cif.got.tgz:59109.got - 2010.06.28 07:06:18.
