data_PCOD8139189
_publ_section_title
;
Structure prediction by ZEFSAII (Michael W. Deem and Ramdas Pophale) SiO2 
 PCOD8139189
Probable space group: C 2/C
;
_chemical_formula_sum "Si O2"
_cell_formula_units_Z 64
_cell_length_a 21.284805
_cell_length_b 11.595007
_cell_length_c 16.907272
_cell_angle_alpha 90.000000
_cell_angle_beta 49.419944
_cell_angle_gamma 90.000000
_cell_volume 3169.135030
_symmetry_space_group_name_H-M "C 2/C"
_symmetry_group_IT_number 15
_symmetry_cell_setting 'monoclinic'
loop_
_space_group_symop_operation_xyz
x,y,z
-x,y,1/2-z
-x,-y,-z
x,-y,1/2+z
1/2+x,1/2+y,z
1/2-x,1/2+y,1/2-z
1/2-x,1/2-y,-z
1/2+x,1/2-y,1/2+z
loop_
_atom_site_type_symbol
_atom_site_label
_atom_site_fract_x
_atom_site_fract_y
_atom_site_fract_z
Si Si1 0.417094 0.324652 0.268791
Si Si2 0.052987 0.519445 0.780643
Si Si3 0.070007 0.925292 0.759065
Si Si4 0.506714 0.175793 0.420400
Si Si5 0.176697 0.834563 0.545847
Si Si6 0.164469 0.266415 0.513007
Si Si7 0.480674 0.241459 0.911536
Si Si8 0.227455 0.560392 0.071872
O O1 0.500000 0.329130 0.250000
O O2 0.397149 0.448116 0.245421
O O3 0.424379 0.238143 0.189682
O O4 0.348683 0.283770 0.386874
O O5 0.149461 0.490928 0.685269
O O6 0.000000 0.470978 0.750000
O O7 0.018426 0.457845 0.888244
O O8 0.030832 0.653451 0.812970
O O9 0.143436 0.852255 0.661367
O O10 0.000000 0.936260 0.750000
O O11 0.033783 0.860128 0.865673
O O12 0.414729 0.222876 0.477956
O O13 0.526931 0.193900 0.494614
O O14 0.250000 0.750000 0.500000
O O15 0.111220 0.769037 0.543560
O O16 0.205404 0.957798 0.487358
O O17 0.199647 0.394740 0.506067
O O18 0.226868 0.171378 0.422836
#
# Coordination Sequence:
#
# PCOD8139189 Si02
#       8
#     8   8   8   8   8   8   8   8
#     4   9  16  34  62  89 115 154 211 254 295 364
#     4  12  21  42  66  91 117 169 218 257 301 384
#     4   9  18  36  58  84 115 158 209 250 294 372
#     4  11  22  39  64  92 126 161 209 263 321 371
#     4  11  22  39  62  88 122 163 214 257 303 372
#     4  10  20  38  66  97 119 156 213 271 310 368
#     4  11  25  39  61  91 128 169 207 254 316 385
#     4  11  21  37  68  95 119 155 221 265 307 353
#
# _framework density 20.194783999999999
#
# number of rings (size 3 to 8) (size 9 to 14) (size 15 to 20)
#    0.000    1.500    3.750    3.375    1.750    0.500 
#    0.000    2.500    0.000    0.000    0.000    0.000 
#    0.000    0.000    0.000    0.000    0.000    0.000 
#
# Total GULP energy -396452.961915 kJ/mol
# GULP energy per Si atom -12389.155060 kJ/mol
# Density = 2.014882 g / cm^3
# Si number density = 20.194784 Si / 1000 Ang^3
#
#
#
# Elastic Constant Matrix: (Units=GPa)
#
#
# Indices 1 2 3 4 5 6 
#
# 1 72.8380 35.3554 35.0396 0.0000 -12.1805 0.0000
# 2 35.3554 111.6514 26.9507 0.0000 -8.1257 0.0000
# 3 35.0396 26.9507 76.9012 0.0000 -6.9657 0.0000
# 4 0.0000 0.0000 0.0000 32.6132 0.0000 -13.5857
# 5 -12.1805 -8.1257 -6.9657 0.0000 32.9861 0.0000
# 6 0.0000 0.0000 0.0000 -13.5857 0.0000 24.8484
#
#
#
# Elastic Compliance Matrix: (Units=1/GPa)
#
#
# Indices 1 2 3 4 5 6 
#
# 1 0.020080 -0.004264 -0.007216 0.000000 0.004840 0.000000
# 2 -0.004264 0.010786 -0.001773 0.000000 0.000708 0.000000
# 3 -0.007216 -0.001773 0.016957 0.000000 0.000479 0.000000
# 4 0.000000 0.000000 0.000000 0.039706 0.000000 0.021709
# 5 0.004840 0.000708 0.000479 0.000000 0.032379 0.000000
# 6 0.000000 0.000000 0.000000 0.021709 0.000000 0.052113
#
#
# Mechanical properties :
#
#
# Convention : Reuss Voigt Hill
#
# Bulk Modulus (GPa) = 46.91448 50.67578 48.79513
# Shear Modulus (GPa) = 24.31512 29.02586 26.67049
#
# Velocity S-wave (km/s) = 3.47368 3.79528 3.63803
# Velocity P-wave (km/s) = 6.27455 6.65984 6.47007
#
# Compressibility (1/GPa) = 0.02131538
#
# Stress axis : x y z
#
# Youngs Moduli (GPa) = 49.80082 92.71037 58.97409
#
# Poissons Ratio (x) = 0.39535 0.42558
# Poissons Ratio (y) = 0.21237 0.10456
# Poissons Ratio (z) = 0.35938 0.16438
#
# Static dielectric constant tensor:
#      x y z
#    x 3.393870 0.000000 -0.416590 
#    y 0.000000 4.240030 0.000000 
#    z -0.416590 0.000000 3.841180 
# 
# 
# High freq. dielectric constant tensor:
#      x y z
#    x 1.751440 0.000000 -0.035100 
#    y 0.000000 1.813400 0.000000 
#    z -0.035100 0.000000 1.778660 
# 
# From -- ./inp_files/219137.got.cif
#   From: 2010.06.25/outbox.cif.g09.slc.cpg/sg15_110_cif.got.tgz:219137.got - 2010.06.28 07:06:18.
