data_PCOD8139322
_publ_section_title
;
Structure prediction by ZEFSAII (Michael W. Deem and Ramdas Pophale) SiO2 
 PCOD8139322
Probable space group: C 2/C
;
_chemical_formula_sum "Si O2"
_cell_formula_units_Z 64
_cell_length_a 15.859906
_cell_length_b 11.829680
_cell_length_c 28.376765
_cell_angle_alpha 90.000000
_cell_angle_beta 37.202388
_cell_angle_gamma 90.000000
_cell_volume 3219.050888
_symmetry_space_group_name_H-M "C 2/C"
_symmetry_group_IT_number 15
_symmetry_cell_setting 'monoclinic'
loop_
_space_group_symop_operation_xyz
x,y,z
-x,y,1/2-z
-x,-y,-z
x,-y,1/2+z
1/2+x,1/2+y,z
1/2-x,1/2+y,1/2-z
1/2-x,1/2-y,-z
1/2+x,1/2-y,1/2+z
loop_
_atom_site_type_symbol
_atom_site_label
_atom_site_fract_x
_atom_site_fract_y
_atom_site_fract_z
Si Si1 0.065292 0.132439 0.084763
Si Si2 0.690416 0.187305 0.589531
Si Si3 0.939381 0.551958 0.667647
Si Si4 0.687395 0.768932 0.334813
Si Si5 0.042554 0.109218 0.564647
Si Si6 0.268877 0.151804 0.386224
Si Si7 0.975446 0.296705 0.665519
Si Si8 0.239127 0.421822 0.162467
O O1 0.127675 0.189203 0.104525
O O2 0.906442 0.170983 0.147133
O O3 0.066924 0.996916 0.088901
O O4 0.154013 0.174366 0.000073
O O5 0.598069 0.089348 0.606115
O O6 0.692015 0.171697 0.645086
O O7 0.881350 0.609185 0.645561
O O8 0.933524 0.418372 0.663402
O O9 0.845508 0.599649 0.752247
O O10 0.698694 0.751019 0.386159
O O11 0.840093 0.766801 0.244323
O O12 0.169824 0.112916 0.472076
O O13 0.042760 0.224553 0.593636
O O14 0.903078 0.090940 0.597058
O O15 0.416124 0.193625 0.340183
O O16 0.298886 0.046842 0.338354
#
# Coordination Sequence:
#
# PCOD8139322 Si02
#       8
#     8   8   8   8   8   8   8   8
#     4  10  20  39  59  92 129 159 198 257 322 363
#     4  10  21  34  63  94 123 159 204 258 308 370
#     4  11  22  39  60  92 125 161 207 262 314 368
#     4  11  23  39  62  88 124 163 209 260 314 365
#     4  12  23  40  63  96 130 162 205 265 318 373
#     4  12  23  39  66  92 122 165 218 252 304 384
#     4  12  24  40  61  94 125 166 209 259 318 372
#     4  12  20  37  64  95 121 157 220 258 303 373
#
# _framework density 19.881636
#
# number of rings (size 3 to 8) (size 9 to 14) (size 15 to 20)
#    0.000    0.750    6.250    2.250    0.000    0.000 
#    0.000    1.875    0.000    1.500    0.000    0.000 
#    0.000    0.000    0.000    0.000    0.000    0.000 
#
# Total GULP energy -396946.790097 kJ/mol
# GULP energy per Si atom -12404.587191 kJ/mol
# Density = 1.983638 g / cm^3
# Si number density = 19.881636 Si / 1000 Ang^3
#
#
#
# Elastic Constant Matrix: (Units=GPa)
#
#
# Indices 1 2 3 4 5 6 
#
# 1 112.1422 52.8352 19.1347 0.0000 -6.2419 0.0000
# 2 52.8352 109.8931 12.1855 0.0000 12.4332 0.0000
# 3 19.1347 12.1855 57.9882 0.0000 -10.8473 0.0000
# 4 0.0000 0.0000 0.0000 26.4002 0.0000 5.7322
# 5 -6.2419 12.4332 -10.8473 0.0000 32.0777 0.0000
# 6 0.0000 0.0000 0.0000 5.7322 0.0000 35.8985
#
#
#
# Elastic Compliance Matrix: (Units=1/GPa)
#
#
# Indices 1 2 3 4 5 6 
#
# 1 0.012421 -0.006217 -0.002017 0.000000 0.004145 0.000000
# 2 -0.006217 0.013099 -0.002004 0.000000 -0.006965 0.000000
# 3 -0.002017 -0.002004 0.019646 0.000000 0.007028 0.000000
# 4 0.000000 0.000000 0.000000 0.039239 0.000000 -0.006266
# 5 0.004145 -0.006965 0.007028 0.000000 0.037057 0.000000
# 6 0.000000 0.000000 0.000000 -0.006266 0.000000 0.028857
#
#
# Mechanical properties :
#
#
# Convention : Reuss Voigt Hill
#
# Bulk Modulus (GPa) = 40.50161 49.81494 45.15827
# Shear Modulus (GPa) = 27.92903 31.93317 29.93110
#
# Velocity S-wave (km/s) = 3.75209 4.01205 3.88424
# Velocity P-wave (km/s) = 6.25991 6.82438 6.54823
#
# Compressibility (1/GPa) = 0.02469038
#
# Stress axis : x y z
#
# Youngs Moduli (GPa) = 80.50658 76.34100 50.90072
#
# Poissons Ratio (x) = 0.47464 0.10266
# Poissons Ratio (y) = 0.50053 0.10200
# Poissons Ratio (z) = 0.16237 0.15298
#
# Static dielectric constant tensor:
#      x y z
#    x 3.786370 0.000000 -0.106620 
#    y 0.000000 3.611360 0.000000 
#    z -0.106620 0.000000 3.663890 
# 
# 
# High freq. dielectric constant tensor:
#      x y z
#    x 1.775260 0.000000 -0.022240 
#    y 0.000000 1.761020 0.000000 
#    z -0.022240 0.000000 1.781360 
# 
# From -- ./inp_files/296129.got.cif
#   From: 2010.06.25/outbox.cif.g09.slc.cpg/sg15_149_cif.got.tgz:296129.got - 2010.06.28 07:06:18.
