data_PCOD8139246
_publ_section_title
;
Structure prediction by ZEFSAII (Michael W. Deem and Ramdas Pophale) SiO2 
 PCOD8139246
Probable space group: C 2/C
;
_chemical_formula_sum "Si O2"
_cell_formula_units_Z 44
_cell_length_a 11.469723
_cell_length_b 16.547200
_cell_length_c 10.671135
_cell_angle_alpha 90.000000
_cell_angle_beta 111.442411
_cell_angle_gamma 90.000000
_cell_volume 1885.114167
_symmetry_space_group_name_H-M "C 2/C"
_symmetry_group_IT_number 15
_symmetry_cell_setting 'monoclinic'
loop_
_space_group_symop_operation_xyz
x,y,z
-x,y,1/2-z
-x,-y,-z
x,-y,1/2+z
1/2+x,1/2+y,z
1/2-x,1/2+y,1/2-z
1/2-x,1/2-y,-z
1/2+x,1/2-y,1/2+z
loop_
_atom_site_type_symbol
_atom_site_label
_atom_site_fract_x
_atom_site_fract_y
_atom_site_fract_z
Si Si1 0.140749 0.341992 0.661865
Si Si2 0.045390 0.177302 0.531273
Si Si3 0.223964 0.160957 0.037444
Si Si4 0.070106 0.541004 0.414282
Si Si5 0.192241 0.615071 0.897909
Si Si6 0.000000 0.257300 0.250000
O O1 0.075751 0.255231 0.626398
O O2 0.254161 0.340826 0.804032
O O3 0.189656 0.368114 0.545309
O O4 0.040724 0.403243 0.686211
O O5 0.161587 0.114828 0.583794
O O6 0.921239 0.136326 0.541930
O O7 0.011618 0.202459 0.376413
O O8 0.250000 0.250000 0.000000
O O9 0.313515 0.098073 0.998112
O O10 0.125744 0.471291 0.343358
O O11 0.000000 0.500000 0.500000
O O12 0.122598 0.684846 0.791588
#
# Coordination Sequence:
#
# PCOD8139246 Si02
#       6
#     8   8   8   8   8   4
#     4  10  21  41  63  93 130 171 223 264 319 402
#     4  11  21  39  63  99 132 167 218 277 326 384
#     4  12  24  39  66  94 133 176 215 271 333 388
#     4  10  23  43  63  90 130 172 221 264 326 390
#     4  10  22  39  66  98 130 169 223 271 325 387
#     4  10  20  38  68  96 128 176 224 262 322 400
#
# _framework density 23.340762000000002
#
# number of rings (size 3 to 8) (size 9 to 14) (size 15 to 20)
#    0.000    1.455    1.818    4.909    2.545    0.727 
#    0.000    0.000    0.000    4.364    0.000    0.000 
#    0.000    0.000    0.000    0.000    0.000    0.000 
#
# Total GULP energy -272659.964026 kJ/mol
# GULP energy per Si atom -12393.634728 kJ/mol
# Density = 2.328764 g / cm^3
# Si number density = 23.340762 Si / 1000 Ang^3
#
#
#
# Elastic Constant Matrix: (Units=GPa)
#
#
# Indices 1 2 3 4 5 6 
#
# 1 169.4515 45.9025 27.7946 0.0000 45.6943 0.0000
# 2 45.9025 96.0273 10.1926 0.0000 9.8712 0.0000
# 3 27.7946 10.1926 63.4483 0.0000 12.3339 0.0000
# 4 0.0000 0.0000 0.0000 22.9218 0.0000 9.1911
# 5 45.6943 9.8712 12.3339 0.0000 37.4600 0.0000
# 6 0.0000 0.0000 0.0000 9.1911 0.0000 45.0030
#
#
#
# Elastic Compliance Matrix: (Units=1/GPa)
#
#
# Indices 1 2 3 4 5 6 
#
# 1 0.010034 -0.003507 -0.001744 0.000000 -0.010741 0.000000
# 2 -0.003507 0.012023 -0.000653 0.000000 0.001325 0.000000
# 3 -0.001744 -0.000653 0.017289 0.000000 -0.003393 0.000000
# 4 0.000000 0.000000 0.000000 0.047518 0.000000 -0.009705
# 5 -0.010741 0.001325 -0.003393 0.000000 0.040565 0.000000
# 6 0.000000 0.000000 0.000000 -0.009705 0.000000 0.024203
#
#
# Mechanical properties :
#
#
# Convention : Reuss Voigt Hill
#
# Bulk Modulus (GPa) = 36.31236 55.18960 45.75098
# Shear Modulus (GPa) = 28.96533 37.41280 33.18906
#
# Velocity S-wave (km/s) = 3.52657 4.00796 3.77495
# Velocity P-wave (km/s) = 5.67217 6.71676 6.21644
#
# Compressibility (1/GPa) = 0.02753883
#
# Stress axis : x y z
#
# Youngs Moduli (GPa) = 99.66136 83.17212 57.83907
#
# Poissons Ratio (x) = 0.29169 0.10088
# Poissons Ratio (y) = 0.34952 0.03775
# Poissons Ratio (z) = 0.17382 0.05428
#
# Static dielectric constant tensor:
#      x y z
#    x 4.703900 0.000000 0.288330 
#    y 0.000000 4.530070 0.000000 
#    z 0.288330 0.000000 4.121420 
# 
# 
# High freq. dielectric constant tensor:
#      x y z
#    x 1.936940 0.000000 0.006460 
#    y 0.000000 1.907030 0.000000 
#    z 0.006460 0.000000 1.922340 
# 
# From -- ./inp_files/87937.got.cif
#   From: 2010.06.25/outbox.cif.g09.slc.cpg/sg15_44_cif.got.tgz:87937.got - 2010.06.28 07:06:18.
