data_PCOD8139681
_publ_section_title
;
Structure prediction by ZEFSAII (Michael W. Deem and Ramdas Pophale) SiO2 
 PCOD8139681
Probable space group: C 2/C
;
_chemical_formula_sum "Si O2"
_cell_formula_units_Z 56
_cell_length_a 18.534190
_cell_length_b 8.583279
_cell_length_c 27.265890
_cell_angle_alpha 90.000000
_cell_angle_beta 142.835286
_cell_angle_gamma 90.000000
_cell_volume 2620.362831
_symmetry_space_group_name_H-M "C 2/C"
_symmetry_group_IT_number 15
_symmetry_cell_setting 'monoclinic'
loop_
_space_group_symop_operation_xyz
x,y,z
-x,y,1/2-z
-x,-y,-z
x,-y,1/2+z
1/2+x,1/2+y,z
1/2-x,1/2+y,1/2-z
1/2-x,1/2-y,-z
1/2+x,1/2-y,1/2+z
loop_
_atom_site_type_symbol
_atom_site_label
_atom_site_fract_x
_atom_site_fract_y
_atom_site_fract_z
Si Si1 0.781526 0.835127 0.210534
Si Si2 0.118212 0.805566 0.053105
Si Si3 0.897780 0.671717 0.062747
Si Si4 0.355702 0.341902 0.940443
Si Si5 0.344736 0.862240 0.828868
Si Si6 0.539765 0.597006 0.826238
Si Si7 0.250473 0.619619 0.041319
O O1 0.754073 0.753661 0.143341
O O2 0.758067 0.706463 0.240006
O O3 0.914158 0.909921 0.287520
O O4 0.691498 0.974900 0.168400
O O5 0.152942 0.764553 0.127101
O O6 0.175254 0.678454 0.047376
O O7 0.173297 0.975017 0.072507
O O8 0.973829 0.808554 0.971114
O O9 0.883069 0.764771 0.106367
O O10 0.029359 0.604047 0.128320
O O11 0.870314 0.788584 0.003714
O O12 0.808813 0.528491 0.016015
O O13 0.500000 0.639516 0.750000
O O14 0.615139 0.434548 0.869418
O O15 0.250000 0.750000 0.000000
#
# Coordination Sequence:
#
# PCOD8139681 Si02
#       7
#     8   8   8   8   8   8   8
#     4  11  22  37  60  90 124 160 199 252 313 364
#     4  10  21  38  62  93 119 153 204 255 309 362
#     4  10  22  41  63  87 115 158 207 248 301 362
#     4  10  20  39  67  91 118 154 204 263 310 363
#     4  10  21  37  61  89 119 152 197 257 309 356
#     4  11  24  41  61  87 123 167 204 245 305 375
#     4  12  25  41  62  89 124 165 208 252 300 371
#
# _framework density 21.371086999999999
#
# number of rings (size 3 to 8) (size 9 to 14) (size 15 to 20)
#    0.000    1.429    0.000    5.571    0.000    8.000 
#    0.000    3.571    0.000    1.714    0.000    0.000 
#    0.000    0.000    0.000    0.000    0.000    0.000 
#
# Total GULP energy -347197.460296 kJ/mol
# GULP energy per Si atom -12399.909296 kJ/mol
# Density = 2.132245 g / cm^3
# Si number density = 21.371087 Si / 1000 Ang^3
#
#
#
# Elastic Constant Matrix: (Units=GPa)
#
#
# Indices 1 2 3 4 5 6 
#
# 1 76.3504 36.1389 33.3472 0.0000 -7.5391 0.0000
# 2 36.1389 120.3641 59.9558 0.0000 1.2082 0.0000
# 3 33.3472 59.9558 112.5767 0.0000 -16.0257 0.0000
# 4 0.0000 0.0000 0.0000 36.2702 0.0000 -2.1287
# 5 -7.5391 1.2082 -16.0257 0.0000 40.1636 0.0000
# 6 0.0000 0.0000 0.0000 -2.1287 0.0000 32.4172
#
#
#
# Elastic Compliance Matrix: (Units=1/GPa)
#
#
# Indices 1 2 3 4 5 6 
#
# 1 0.016123 -0.003583 -0.002567 0.000000 0.002110 0.000000
# 2 -0.003583 0.012434 -0.006054 0.000000 -0.003462 0.000000
# 3 -0.002567 -0.006054 0.013597 0.000000 0.005125 0.000000
# 4 0.000000 0.000000 0.000000 0.027678 0.000000 0.001817
# 5 0.002110 -0.003462 0.005125 0.000000 0.027443 0.000000
# 6 0.000000 0.000000 0.000000 0.001817 0.000000 0.030967
#
#
# Mechanical properties :
#
#
# Convention : Reuss Voigt Hill
#
# Bulk Modulus (GPa) = 56.35049 63.13055 59.74052
# Shear Modulus (GPa) = 31.53261 33.76015 32.64638
#
# Velocity S-wave (km/s) = 3.84536 3.97887 3.91269
# Velocity P-wave (km/s) = 6.79269 7.12129 6.95893
#
# Compressibility (1/GPa) = 0.01774608
#
# Stress axis : x y z
#
# Youngs Moduli (GPa) = 62.02236 80.42368 73.54617
#
# Poissons Ratio (x) = 0.28818 0.18881
# Poissons Ratio (y) = 0.22225 0.44521
# Poissons Ratio (z) = 0.15923 0.48685
#
# Static dielectric constant tensor:
#      x y z
#    x 3.964390 0.000000 0.100340 
#    y 0.000000 3.858840 0.000000 
#    z 0.100340 0.000000 4.048190 
# 
# 
# High freq. dielectric constant tensor:
#      x y z
#    x 1.843900 0.000000 -0.002430 
#    y 0.000000 1.836550 0.000000 
#    z -0.002430 0.000000 1.845360 
# 
# From -- ./inp_files/298561.got.cif
#   From: 2010.06.25/outbox.cif.g09.slc.cpg/sg15_150_cif.got.tgz:298561.got - 2010.06.28 07:06:18.
