data_PCOD8139290
_publ_section_title
;
Structure prediction by ZEFSAII (Michael W. Deem and Ramdas Pophale) SiO2 
 PCOD8139290
Probable space group: C 2/C
;
_chemical_formula_sum "Si O2"
_cell_formula_units_Z 56
_cell_length_a 24.326926
_cell_length_b 15.414986
_cell_length_c 7.117080
_cell_angle_alpha 90.000000
_cell_angle_beta 103.462528
_cell_angle_gamma 90.000000
_cell_volume 2595.564491
_symmetry_space_group_name_H-M "C 2/C"
_symmetry_group_IT_number 15
_symmetry_cell_setting 'monoclinic'
loop_
_space_group_symop_operation_xyz
x,y,z
-x,y,1/2-z
-x,-y,-z
x,-y,1/2+z
1/2+x,1/2+y,z
1/2-x,1/2+y,1/2-z
1/2-x,1/2-y,-z
1/2+x,1/2-y,1/2+z
loop_
_atom_site_type_symbol
_atom_site_label
_atom_site_fract_x
_atom_site_fract_y
_atom_site_fract_z
Si Si1 0.500000 0.271308 0.250000
Si Si2 0.216517 0.891854 0.701542
Si Si3 0.386196 0.294306 0.988931
Si Si4 0.802231 0.756855 0.234237
Si Si5 0.751971 0.085525 0.859573
Si Si6 0.000000 0.509445 0.750000
Si Si7 0.447529 0.879556 0.920090
Si Si8 0.855831 0.676464 0.625171
O O1 0.449923 0.324339 0.101877
O O2 0.533520 0.216255 0.121645
O O3 0.150988 0.879711 0.587546
O O4 0.251387 0.810056 0.639487
O O5 0.241748 0.983094 0.658742
O O6 0.218325 0.886116 0.925393
O O7 0.355416 0.243271 0.136979
O O8 0.389428 0.231174 0.809946
O O9 0.780973 0.857753 0.215393
O O10 0.820087 0.740072 0.463692
O O11 0.685562 0.108077 0.807260
O O12 0.055376 0.444279 0.764339
O O13 0.998346 0.574029 0.572358
O O14 0.394678 0.879245 0.016558
#
# Coordination Sequence:
#
# PCOD8139290 Si02
#       8
#     4   8   8   8   8   4   8   8
#     4  11  24  40  64  94 123 186 242 268 337 394
#     4  11  23  40  67  99 136 178 217 278 346 403
#     4  12  23  41  69  92 134 180 222 285 332 391
#     4  11  22  44  64  98 135 171 218 282 337 420
#     4  11  23  41  65 103 138 171 221 271 354 417
#     4   9  20  36  58  78 129 166 212 276 327 382
#     4  10  20  39  56  89 123 170 219 272 327 399
#     4  11  22  40  65  96 135 171 217 280 337 411
#
# _framework density 21.57527
#
# number of rings (size 3 to 8) (size 9 to 14) (size 15 to 20)
#    0.000    1.143    4.286    3.000    2.000    2.286 
#    2.571    0.000    0.000    3.429    0.000    0.000 
#    0.000    0.000    0.000    0.000    0.000    0.000 
#
# Total GULP energy -346888.758540 kJ/mol
# GULP energy per Si atom -12388.884234 kJ/mol
# Density = 2.152616 g / cm^3
# Si number density = 21.575270 Si / 1000 Ang^3
#
#
#
# Elastic Constant Matrix: (Units=GPa)
#
#
# Indices 1 2 3 4 5 6 
#
# 1 118.1326 30.0314 36.1062 0.0000 6.6113 0.0000
# 2 30.0314 101.2326 12.2681 0.0000 -1.1744 0.0000
# 3 36.1062 12.2681 72.3161 0.0000 7.0949 0.0000
# 4 0.0000 0.0000 0.0000 26.5719 0.0000 -3.5632
# 5 6.6113 -1.1744 7.0949 0.0000 43.7843 0.0000
# 6 0.0000 0.0000 0.0000 -3.5632 0.0000 21.1429
#
#
#
# Elastic Compliance Matrix: (Units=1/GPa)
#
#
# Indices 1 2 3 4 5 6 
#
# 1 0.010635 -0.002586 -0.004783 0.000000 -0.000900 0.000000
# 2 -0.002586 0.010728 -0.000605 0.000000 0.000776 0.000000
# 3 -0.004783 -0.000605 0.016512 0.000000 -0.001970 0.000000
# 4 0.000000 0.000000 0.000000 0.038504 0.000000 0.006489
# 5 -0.000900 0.000776 -0.001970 0.000000 0.023315 0.000000
# 6 0.000000 0.000000 0.000000 0.006489 0.000000 0.048391
#
#
# Mechanical properties :
#
#
# Convention : Reuss Voigt Hill
#
# Bulk Modulus (GPa) = 45.60519 49.83251 47.71885
# Shear Modulus (GPa) = 29.18177 32.51820 30.84998
#
# Velocity S-wave (km/s) = 3.68170 3.88648 3.78547
# Velocity P-wave (km/s) = 6.26553 6.57927 6.42431
#
# Compressibility (1/GPa) = 0.02192733
#
# Stress axis : x y z
#
# Youngs Moduli (GPa) = 94.03313 93.21728 60.56206
#
# Poissons Ratio (x) = 0.24103 0.28965
# Poissons Ratio (y) = 0.24314 0.03664
# Poissons Ratio (z) = 0.44973 0.05640
#
# Static dielectric constant tensor:
#      x y z
#    x 3.909890 0.000000 -0.149990 
#    y 0.000000 3.728760 0.000000 
#    z -0.149990 0.000000 4.266290 
# 
# 
# High freq. dielectric constant tensor:
#      x y z
#    x 1.833780 0.000000 -0.019420 
#    y 0.000000 1.818060 0.000000 
#    z -0.019420 0.000000 1.870860 
# 
# From -- ./inp_files/61636.got.cif
#   From: 2010.06.25/outbox.cif.g09.slc.cpg/sg15_31_cif.got.tgz:61636.got - 2010.06.28 07:06:18.
