data_PCOD8139639
_publ_section_title
;
Structure prediction by ZEFSAII (Michael W. Deem and Ramdas Pophale) SiO2 
 PCOD8139639
Probable space group: C 2/C
;
_chemical_formula_sum "Si O2"
_cell_formula_units_Z 60
_cell_length_a 26.256715
_cell_length_b 20.662810
_cell_length_c 4.977247
_cell_angle_alpha 90.000000
_cell_angle_beta 69.191747
_cell_angle_gamma 90.000000
_cell_volume 2524.212018
_symmetry_space_group_name_H-M "C 2/C"
_symmetry_group_IT_number 15
_symmetry_cell_setting 'monoclinic'
loop_
_space_group_symop_operation_xyz
x,y,z
-x,y,1/2-z
-x,-y,-z
x,-y,1/2+z
1/2+x,1/2+y,z
1/2-x,1/2+y,1/2-z
1/2-x,1/2-y,-z
1/2+x,1/2-y,1/2+z
loop_
_atom_site_type_symbol
_atom_site_label
_atom_site_fract_x
_atom_site_fract_y
_atom_site_fract_z
Si Si1 0.207087 0.774164 0.368184
Si Si2 0.379598 0.458260 0.409147
Si Si3 0.089718 0.740685 0.617175
Si Si4 0.533858 0.358718 0.451453
Si Si5 0.091056 0.654652 0.101938
Si Si6 0.292613 0.848371 0.989272
Si Si7 0.500000 0.952909 0.750000
Si Si8 0.744316 0.459090 0.790244
O O1 0.250000 0.750000 0.500000
O O2 0.145541 0.779067 0.591875
O O3 0.232952 0.844957 0.247991
O O4 0.200956 0.724600 0.132085
O O5 0.393623 0.482672 0.681252
O O6 0.413873 0.396659 0.252844
O O7 0.316916 0.436054 0.528284
O O8 0.048650 0.792718 0.576975
O O9 0.093301 0.681686 0.400560
O O10 0.068643 0.708196 0.933614
O O11 0.500000 0.341840 0.250000
O O12 0.500000 0.397541 0.750000
O O13 0.053918 0.591312 0.154054
O O14 0.154866 0.636632 0.919032
O O15 0.287319 0.902229 0.768264
O O16 0.500000 0.000000 0.500000
O O17 0.755538 0.520679 0.963196
#
# Coordination Sequence:
#
# PCOD8139639 Si02
#       8
#     8   8   8   8   8   8   4   8
#     4  10  20  39  65  97 136 172 207 257 332 406
#     4  10  22  43  62  88 128 175 219 266 325 377
#     4  11  24  43  65 101 136 170 211 272 338 399
#     4  12  26  41  63  97 126 169 225 275 318 377
#     4  11  25  43  71  94 132 177 213 272 337 396
#     4  10  22  39  63 101 132 171 219 264 325 402
#     4  12  28  50  72  98 128 178 232 284 342 398
#     4  10  23  39  62  91 126 169 209 260 322 377
#
# _framework density 23.769794000000001
#
# number of rings (size 3 to 8) (size 9 to 14) (size 15 to 20)
#    0.000    1.333    1.333    3.200    4.667    2.667 
#    4.800    0.000    0.000    0.000    0.000    0.000 
#    0.000    0.000    0.000    0.000    0.000    0.000 
#
# Total GULP energy -371764.034551 kJ/mol
# GULP energy per Si atom -12392.134485 kJ/mol
# Density = 2.371569 g / cm^3
# Si number density = 23.769794 Si / 1000 Ang^3
#
#
#
# Elastic Constant Matrix: (Units=GPa)
#
#
# Indices 1 2 3 4 5 6 
#
# 1 138.0858 52.6828 25.6016 0.0000 10.6070 0.0000
# 2 52.6828 77.3746 1.0597 0.0000 -7.2538 0.0000
# 3 25.6016 1.0597 73.1709 0.0000 11.5455 0.0000
# 4 0.0000 0.0000 0.0000 28.1636 0.0000 -1.4995
# 5 10.6070 -7.2538 11.5455 0.0000 34.7096 0.0000
# 6 0.0000 0.0000 0.0000 -1.4995 0.0000 34.3381
#
#
#
# Elastic Compliance Matrix: (Units=1/GPa)
#
#
# Indices 1 2 3 4 5 6 
#
# 1 0.011163 -0.007934 -0.003157 0.000000 -0.004019 0.000000
# 2 -0.007934 0.018852 0.001582 0.000000 0.005838 0.000000
# 3 -0.003157 0.001582 0.015349 0.000000 -0.003810 0.000000
# 4 0.000000 0.000000 0.000000 0.035590 0.000000 0.001554
# 5 -0.004019 0.005838 -0.003810 0.000000 0.032526 0.000000
# 6 0.000000 0.000000 0.000000 0.001554 0.000000 0.029190
#
#
# Mechanical properties :
#
#
# Convention : Reuss Voigt Hill
#
# Bulk Modulus (GPa) = 37.95582 49.70216 43.82899
# Shear Modulus (GPa) = 29.33056 33.39474 31.36265
#
# Velocity S-wave (km/s) = 3.51656 3.75230 3.63634
# Velocity P-wave (km/s) = 5.70009 6.30303 6.00913
#
# Compressibility (1/GPa) = 0.02634642
#
# Stress axis : x y z
#
# Youngs Moduli (GPa) = 89.58195 53.04459 65.14891
#
# Poissons Ratio (x) = 0.42087 0.20565
# Poissons Ratio (y) = 0.71076 -0.10306
# Poissons Ratio (z) = 0.28278 -0.08391
#
# Static dielectric constant tensor:
#      x y z
#    x 4.652830 0.000000 -0.178680 
#    y 0.000000 4.105820 0.000000 
#    z -0.178680 0.000000 4.312590 
# 
# 
# High freq. dielectric constant tensor:
#      x y z
#    x 1.956220 0.000000 0.005880 
#    y 0.000000 1.923880 0.000000 
#    z 0.005880 0.000000 1.945190 
# 
# From -- ./inp_files/17409.got.cif
#   From: 2010.06.25/outbox.cif.g09.slc.cpg/sg15_9_cif.got.tgz:17409.got - 2010.06.28 07:06:18.
