data_PCOD8139514
_publ_section_title
;
Structure prediction by ZEFSAII (Michael W. Deem and Ramdas Pophale) SiO2 
 PCOD8139514
Probable space group: C 2/C
;
_chemical_formula_sum "Si O2"
_cell_formula_units_Z 60
_cell_length_a 5.564550
_cell_length_b 18.427760
_cell_length_c 25.184600
_cell_angle_alpha 90.000000
_cell_angle_beta 99.000764
_cell_angle_gamma 90.000000
_cell_volume 2550.684035
_symmetry_space_group_name_H-M "C 2/C"
_symmetry_group_IT_number 15
_symmetry_cell_setting 'monoclinic'
loop_
_space_group_symop_operation_xyz
x,y,z
-x,y,1/2-z
-x,-y,-z
x,-y,1/2+z
1/2+x,1/2+y,z
1/2-x,1/2+y,1/2-z
1/2-x,1/2-y,-z
1/2+x,1/2-y,1/2+z
loop_
_atom_site_type_symbol
_atom_site_label
_atom_site_fract_x
_atom_site_fract_y
_atom_site_fract_z
Si Si1 0.691417 0.157760 0.843819
Si Si2 0.855916 0.830425 0.545776
Si Si3 0.017361 0.105055 0.552610
Si Si4 0.000000 0.557759 0.750000
Si Si5 0.562443 0.536697 0.102470
Si Si6 0.850571 0.700354 0.917344
Si Si7 0.400097 0.956705 0.836942
Si Si8 0.936687 0.699498 0.365850
O O1 0.916508 0.126134 0.884461
O O2 0.671511 0.112314 0.789161
O O3 0.458147 0.149266 0.874432
O O4 0.736274 0.244008 0.835409
O O5 0.067647 0.882998 0.577609
O O6 0.947159 0.747533 0.543939
O O7 0.796089 0.864275 0.485469
O O8 0.627352 0.831202 0.577324
O O9 0.764314 0.150037 0.540039
O O10 0.998755 0.018179 0.551539
O O11 0.845761 0.503824 0.782400
O O12 0.339511 0.529692 0.136175
O O13 0.834193 0.515934 0.132399
O O14 0.688964 0.759111 0.880024
O O15 0.437746 0.870411 0.826823
#
# Coordination Sequence:
#
# PCOD8139514 Si02
#       8
#     8   8   8   4   8   8   8   8
#     4  10  23  42  64  95 134 169 230 283 343 398
#     4  10  21  38  65  94 134 180 222 266 348 407
#     4  11  22  37  61  99 133 179 221 281 330 413
#     4  12  24  48  72 100 126 184 226 298 346 408
#     4  11  23  45  66  99 138 175 224 284 335 410
#     4  10  20  39  63  90 136 171 222 275 334 409
#     4  11  24  46  72  97 135 178 231 280 346 403
#     4   9  21  43  63  95 134 176 216 285 328 417
#
# _framework density 23.523099999999999
#
# number of rings (size 3 to 8) (size 9 to 14) (size 15 to 20)
#    0.000    1.600    2.667    1.600    0.000    6.400 
#    7.200    2.000    0.000    0.000    0.000    0.000 
#    0.000    0.000    0.000    0.000    0.000    0.000 
#
# Total GULP energy -371670.594616 kJ/mol
# GULP energy per Si atom -12389.019821 kJ/mol
# Density = 2.346956 g / cm^3
# Si number density = 23.523100 Si / 1000 Ang^3
#
#
#
# Elastic Constant Matrix: (Units=GPa)
#
#
# Indices 1 2 3 4 5 6 
#
# 1 75.5694 0.8916 -13.0089 0.0000 -9.0984 0.0000
# 2 0.8916 74.6936 0.4340 0.0000 -19.1980 0.0000
# 3 -13.0089 0.4340 56.6183 0.0000 -4.3739 0.0000
# 4 0.0000 0.0000 0.0000 23.8703 0.0000 -9.0242
# 5 -9.0984 -19.1980 -4.3739 0.0000 18.9045 0.0000
# 6 0.0000 0.0000 0.0000 -9.0242 0.0000 36.1428
#
#
#
# Elastic Compliance Matrix: (Units=1/GPa)
#
#
# Indices 1 2 3 4 5 6 
#
# 1 0.015276 0.002626 0.004341 0.000000 0.011023 0.000000
# 2 0.002626 0.018663 0.002059 0.000000 0.020693 0.000000
# 3 0.004341 0.002059 0.019312 0.000000 0.008648 0.000000
# 4 0.000000 0.000000 0.000000 0.046260 0.000000 0.011550
# 5 0.011023 0.020693 0.008648 0.000000 0.081218 0.000000
# 6 0.000000 0.000000 0.000000 0.011550 0.000000 0.030552
#
#
# Mechanical properties :
#
#
# Convention : Reuss Voigt Hill
#
# Bulk Modulus (GPa) = 14.02455 20.39051 17.20753
# Shear Modulus (GPa) = 23.04171 30.35448 26.69810
#
# Velocity S-wave (km/s) = 3.13315 3.59613 3.37259
# Velocity P-wave (km/s) = 4.36621 5.09215 4.74309
#
# Compressibility (1/GPa) = 0.07130355
#
# Stress axis : x y z
#
# Youngs Moduli (GPa) = 65.46034 53.58087 51.78136
#
# Poissons Ratio (x) = -0.14068 -0.22481
# Poissons Ratio (y) = -0.17188 -0.10661
# Poissons Ratio (z) = -0.28419 -0.11031
#
# Static dielectric constant tensor:
#      x y z
#    x 4.085500 0.000000 -0.048010 
#    y 0.000000 4.774310 0.000000 
#    z -0.048010 0.000000 3.858280 
# 
# 
# High freq. dielectric constant tensor:
#      x y z
#    x 1.922520 0.000000 -0.006350 
#    y 0.000000 1.964510 0.000000 
#    z -0.006350 0.000000 1.889380 
# 
# From -- ./inp_files/261379.got.cif
#   From: 2010.06.25/outbox.cif.g09.slc.cpg/sg15_131_cif.got.tgz:261379.got - 2010.06.28 07:06:18.
