data_PCOD8139808
_publ_section_title
;
Structure prediction by ZEFSAII (Michael W. Deem and Ramdas Pophale) SiO2 
 PCOD8139808
Probable space group: C 2/C
;
_chemical_formula_sum "Si O2"
_cell_formula_units_Z 64
_cell_length_a 14.038698
_cell_length_b 27.634712
_cell_length_c 11.058289
_cell_angle_alpha 90.000000
_cell_angle_beta 139.951514
_cell_angle_gamma 90.000000
_cell_volume 2760.417812
_symmetry_space_group_name_H-M "C 2/C"
_symmetry_group_IT_number 15
_symmetry_cell_setting 'monoclinic'
loop_
_space_group_symop_operation_xyz
x,y,z
-x,y,1/2-z
-x,-y,-z
x,-y,1/2+z
1/2+x,1/2+y,z
1/2-x,1/2+y,1/2-z
1/2-x,1/2-y,-z
1/2+x,1/2-y,1/2+z
loop_
_atom_site_type_symbol
_atom_site_label
_atom_site_fract_x
_atom_site_fract_y
_atom_site_fract_z
Si Si1 0.080786 0.880458 0.549810
Si Si2 0.549188 0.293811 0.663722
Si Si3 0.009232 0.349537 0.395424
Si Si4 0.668183 0.058468 0.117433
Si Si5 0.091713 0.537961 0.454242
Si Si6 0.325841 0.763676 0.814322
Si Si7 0.249992 0.871245 0.319623
Si Si8 0.336941 0.301859 0.066103
O O1 0.097263 0.849060 0.690000
O O2 0.183434 0.927798 0.663311
O O3 0.140205 0.848625 0.496442
O O4 0.909321 0.893816 0.369697
O O5 0.500000 0.282188 0.750000
O O6 0.421067 0.283968 0.438083
O O7 0.682788 0.257995 0.760735
O O8 0.847862 0.362261 0.294242
O O9 0.000000 0.327698 0.250000
O O10 0.116336 0.396169 0.485332
O O11 0.083702 0.311525 0.560320
O O12 0.525688 0.046615 0.056294
O O13 0.701227 0.008299 0.079675
O O14 0.182650 0.587447 0.528053
O O15 0.000000 0.524152 0.250000
O O16 0.275126 0.765552 0.620830
O O17 0.240129 0.821108 0.385773
O O18 0.500000 0.278529 0.250000
#
# Coordination Sequence:
#
# PCOD8139808 Si02
#       8
#     8   8   8   8   8   8   8   8
#     4  10  21  40  64  92 131 171 215 275 335 398
#     4  11  24  41  66  95 135 177 225 276 344 401
#     4  11  23  39  64  93 128 173 217 271 333 404
#     4  10  20  40  60  91 132 167 217 272 331 383
#     4  10  21  36  63  95 127 174 221 272 318 395
#     4  11  24  42  65  95 127 174 219 287 324 402
#     4  10  23  37  67  95 127 175 224 264 333 408
#     4   9  19  42  66  91 126 171 220 267 334 396
#
# _framework density 23.184895999999998
#
# number of rings (size 3 to 8) (size 9 to 14) (size 15 to 20)
#    0.000    1.750    2.500    1.875    5.250    0.500 
#    0.000    5.625    5.500    5.250    0.000    0.000 
#    0.000    0.000    0.000    0.000    0.000    0.000 
#
# Total GULP energy -396678.802064 kJ/mol
# GULP energy per Si atom -12396.212565 kJ/mol
# Density = 2.313213 g / cm^3
# Si number density = 23.184896 Si / 1000 Ang^3
#
#
#
# Elastic Constant Matrix: (Units=GPa)
#
#
# Indices 1 2 3 4 5 6 
#
# 1 89.2744 22.3716 39.8256 0.0000 6.2422 0.0000
# 2 22.3716 93.3499 48.8358 0.0000 -1.0977 0.0000
# 3 39.8256 48.8358 142.1675 0.0000 6.2948 0.0000
# 4 0.0000 0.0000 0.0000 51.4621 0.0000 8.7534
# 5 6.2422 -1.0977 6.2948 0.0000 39.3942 0.0000
# 6 0.0000 0.0000 0.0000 8.7534 0.0000 17.7331
#
#
#
# Elastic Compliance Matrix: (Units=1/GPa)
#
#
# Indices 1 2 3 4 5 6 
#
# 1 0.013067 -0.001552 -0.003055 0.000000 -0.001626 0.000000
# 2 -0.001552 0.013290 -0.004187 0.000000 0.001285 0.000000
# 3 -0.003055 -0.004187 0.009378 0.000000 -0.001131 0.000000
# 4 0.000000 0.000000 0.000000 0.021213 0.000000 -0.010471
# 5 -0.001626 0.001285 -0.001131 0.000000 0.025859 0.000000
# 6 0.000000 0.000000 0.000000 -0.010471 0.000000 0.061560
#
#
# Mechanical properties :
#
#
# Convention : Reuss Voigt Hill
#
# Bulk Modulus (GPa) = 55.10975 60.76197 57.93586
# Shear Modulus (GPa) = 29.76090 35.96847 32.86468
#
# Velocity S-wave (km/s) = 3.58667 3.94302 3.76906
# Velocity P-wave (km/s) = 6.40106 6.85524 6.63204
#
# Compressibility (1/GPa) = 0.01814561
#
# Stress axis : x y z
#
# Youngs Moduli (GPa) = 76.52836 75.24396 106.62908
#
# Poissons Ratio (x) = 0.11680 0.32578
# Poissons Ratio (y) = 0.11880 0.44649
# Poissons Ratio (z) = 0.23382 0.31507
#
# Static dielectric constant tensor:
#      x y z
#    x 4.056870 0.000000 0.206630 
#    y 0.000000 4.568760 0.000000 
#    z 0.206630 0.000000 4.302630 
# 
# 
# High freq. dielectric constant tensor:
#      x y z
#    x 1.912390 0.000000 0.005570 
#    y 0.000000 1.915040 0.000000 
#    z 0.005570 0.000000 1.926640 
# 
# From -- ./inp_files/101665.got.cif
#   From: 2010.06.25/outbox.cif.g09.slc.cpg/sg15_51_cif.got.tgz:101665.got - 2010.06.28 07:06:18.
