data_PCOD8139548
_publ_section_title
;
Structure prediction by ZEFSAII (Michael W. Deem and Ramdas Pophale) SiO2 
 PCOD8139548
Probable space group: C 2/C
;
_chemical_formula_sum "Si O2"
_cell_formula_units_Z 36
_cell_length_a 7.897734
_cell_length_b 24.772888
_cell_length_c 8.079752
_cell_angle_alpha 90.000000
_cell_angle_beta 96.791104
_cell_angle_gamma 90.000000
_cell_volume 1569.709803
_symmetry_space_group_name_H-M "C 2/C"
_symmetry_group_IT_number 15
_symmetry_cell_setting 'monoclinic'
loop_
_space_group_symop_operation_xyz
x,y,z
-x,y,1/2-z
-x,-y,-z
x,-y,1/2+z
1/2+x,1/2+y,z
1/2-x,1/2+y,1/2-z
1/2-x,1/2-y,-z
1/2+x,1/2-y,1/2+z
loop_
_atom_site_type_symbol
_atom_site_label
_atom_site_fract_x
_atom_site_fract_y
_atom_site_fract_z
Si Si1 0.651289 0.041878 0.532713
Si Si2 0.000000 0.290563 0.750000
Si Si3 0.307049 0.446056 0.701936
Si Si4 0.185475 0.267604 0.315035
Si Si5 0.415515 0.868492 0.038989
O O1 0.706346 0.062395 0.359575
O O2 0.575452 0.094184 0.619029
O O3 0.500000 0.000000 0.500000
O O4 0.800035 0.009762 0.647210
O O5 0.831621 0.252572 0.705340
O O6 0.987444 0.326645 0.911986
O O7 0.500000 0.428887 0.750000
O O8 0.230550 0.406505 0.554826
O O9 0.250000 0.250000 0.500000
O O10 0.162107 0.333245 0.317516
O O11 0.000000 0.241468 0.250000
#
# Coordination Sequence:
#
# PCOD8139548 Si02
#       5
#     8   4   8   8   8
#     4  10  20  39  64  85 126 172 213 260 334 402
#     4  10  20  44  66  92 136 174 224 276 346 386
#     4  11  22  38  64  97 132 169 220 278 332 405
#     4  10  24  42  67  96 131 174 231 284 331 406
#     4  10  20  39  64  90 126 178 214 261 341 402
#
# _framework density 22.934176999999998
#
# number of rings (size 3 to 8) (size 9 to 14) (size 15 to 20)
#    0.000    1.778    2.222    2.667    0.000   10.667 
#    4.000    0.000    9.778    0.000    0.000    0.000 
#    0.000    0.000    0.000    0.000    0.000    0.000 
#
# Total GULP energy -223041.094207 kJ/mol
# GULP energy per Si atom -12391.171900 kJ/mol
# Density = 2.288198 g / cm^3
# Si number density = 22.934177 Si / 1000 Ang^3
#
#
#
# Elastic Constant Matrix: (Units=GPa)
#
#
# Indices 1 2 3 4 5 6 
#
# 1 162.4612 61.0552 26.1684 0.0000 16.6240 0.0000
# 2 61.0552 147.6928 15.7833 0.0000 0.6617 0.0000
# 3 26.1684 15.7833 36.3515 0.0000 12.7468 0.0000
# 4 0.0000 0.0000 0.0000 48.4816 0.0000 -4.3907
# 5 16.6240 0.6617 12.7468 0.0000 34.9466 0.0000
# 6 0.0000 0.0000 0.0000 -4.3907 0.0000 42.2270
#
#
#
# Elastic Compliance Matrix: (Units=1/GPa)
#
#
# Indices 1 2 3 4 5 6 
#
# 1 0.008109 -0.002946 -0.003698 0.000000 -0.002453 0.000000
# 2 -0.002946 0.008210 -0.002157 0.000000 0.002033 0.000000
# 3 -0.003698 -0.002157 0.034946 0.000000 -0.010947 0.000000
# 4 0.000000 0.000000 0.000000 0.020822 0.000000 0.002165
# 5 -0.002453 0.002033 -0.010947 0.000000 0.033736 0.000000
# 6 0.000000 0.000000 0.000000 0.002165 0.000000 0.023907
#
#
# Mechanical properties :
#
#
# Convention : Reuss Voigt Hill
#
# Bulk Modulus (GPa) = 29.70582 61.39104 45.54843
# Shear Modulus (GPa) = 31.53498 41.36428 36.44963
#
# Velocity S-wave (km/s) = 3.71215 4.25150 3.99095
# Velocity P-wave (km/s) = 5.59948 7.13630 6.41409
#
# Compressibility (1/GPa) = 0.03366344
#
# Stress axis : x y z
#
# Youngs Moduli (GPa) = 123.31697 121.80178 28.61530
#
# Poissons Ratio (x) = 0.35884 0.10583
# Poissons Ratio (y) = 0.36330 0.06171
# Poissons Ratio (z) = 0.45607 0.26268
#
# Static dielectric constant tensor:
#      x y z
#    x 4.879980 0.000000 -0.177120 
#    y 0.000000 5.153460 0.000000 
#    z -0.177120 0.000000 4.289880 
# 
# 
# High freq. dielectric constant tensor:
#      x y z
#    x 1.896830 0.000000 0.002190 
#    y 0.000000 1.916640 0.000000 
#    z 0.002190 0.000000 1.905170 
# 
# From -- ./inp_files/23175.got.cif
#   From: 2010.06.25/outbox.cif.g09.slc.cpg/sg15_12_cif.got.tgz:23175.got - 2010.06.28 07:06:18.
