data_PCOD8139110
_publ_section_title
;
Structure prediction by ZEFSAII (Michael W. Deem and Ramdas Pophale) SiO2 
 PCOD8139110
Probable space group: C 2/C
;
_chemical_formula_sum "Si O2"
_cell_formula_units_Z 40
_cell_length_a 9.099214
_cell_length_b 15.242902
_cell_length_c 11.683984
_cell_angle_alpha 90.000000
_cell_angle_beta 73.166239
_cell_angle_gamma 90.000000
_cell_volume 1551.108044
_symmetry_space_group_name_H-M "C 2/C"
_symmetry_group_IT_number 15
_symmetry_cell_setting 'monoclinic'
loop_
_space_group_symop_operation_xyz
x,y,z
-x,y,1/2-z
-x,-y,-z
x,-y,1/2+z
1/2+x,1/2+y,z
1/2-x,1/2+y,1/2-z
1/2-x,1/2-y,-z
1/2+x,1/2-y,1/2+z
loop_
_atom_site_type_symbol
_atom_site_label
_atom_site_fract_x
_atom_site_fract_y
_atom_site_fract_z
Si Si1 0.178140 0.361174 0.322816
Si Si2 0.397546 0.228320 0.161145
Si Si3 0.106456 0.418727 0.008923
Si Si4 0.165813 0.986557 0.364765
Si Si5 0.897398 0.868924 0.474047
O O1 0.245457 0.284602 0.226622
O O2 0.228545 0.458489 0.265437
O O3 0.245279 0.349415 0.435495
O O4 0.993472 0.360588 0.376456
O O5 0.500000 0.211323 0.250000
O O6 0.498604 0.281832 0.043845
O O7 0.348883 0.137673 0.113358
O O8 0.262275 0.448451 0.033120
O O9 0.000000 0.500000 0.000000
O O10 0.997370 0.944519 0.387412
O O11 0.152348 0.092723 0.388799
#
# Coordination Sequence:
#
# PCOD8139110 Si02
#       5
#     8   8   8   8   8
#     4  10  21  42  64  92 130 173 217 268 325 393
#     4   9  22  42  67  91 132 177 219 264 332 403
#     4  12  24  41  61 102 132 165 221 281 325 385
#     4  10  20  38  65  90 134 168 210 274 327 381
#     4   9  19  40  64  93 123 176 218 260 321 404
#
# _framework density 25.788015999999999
#
# number of rings (size 3 to 8) (size 9 to 14) (size 15 to 20)
#    0.000    2.000    2.000    2.400    0.000    8.000 
#    3.600    0.000    0.000    2.400    0.000    0.000 
#    0.000    0.000    0.000    0.000    0.000    0.000 
#
# Total GULP energy -247867.188862 kJ/mol
# GULP energy per Si atom -12393.359443 kJ/mol
# Density = 2.572932 g / cm^3
# Si number density = 25.788016 Si / 1000 Ang^3
#
#
#
# Elastic Constant Matrix: (Units=GPa)
#
#
# Indices 1 2 3 4 5 6 
#
# 1 69.5211 2.7242 -2.4700 0.0000 -11.3082 0.0000
# 2 2.7242 97.5769 24.7183 0.0000 4.6975 0.0000
# 3 -2.4700 24.7183 58.5247 0.0000 -11.7466 0.0000
# 4 0.0000 0.0000 0.0000 51.5334 0.0000 7.5636
# 5 -11.3082 4.6975 -11.7466 0.0000 28.6045 0.0000
# 6 0.0000 0.0000 0.0000 7.5636 0.0000 24.1625
#
#
#
# Elastic Compliance Matrix: (Units=1/GPa)
#
#
# Indices 1 2 3 4 5 6 
#
# 1 0.015793 -0.001533 0.002853 0.000000 0.007666 0.000000
# 2 -0.001533 0.012113 -0.006214 0.000000 -0.005147 0.000000
# 3 0.002853 -0.006214 0.022083 0.000000 0.011217 0.000000
# 4 0.000000 0.000000 0.000000 0.020339 0.000000 -0.006367
# 5 0.007666 -0.005147 0.011217 0.000000 0.043442 0.000000
# 6 0.000000 0.000000 0.000000 -0.006367 0.000000 0.043380
#
#
# Mechanical properties :
#
#
# Convention : Reuss Voigt Hill
#
# Bulk Modulus (GPa) = 24.87511 30.61865 27.74688
# Shear Modulus (GPa) = 27.72592 34.23675 30.98134
#
# Velocity S-wave (km/s) = 3.28250 3.64761 3.46986
# Velocity P-wave (km/s) = 4.90238 5.44418 5.18037
#
# Compressibility (1/GPa) = 0.04020083
#
# Stress axis : x y z
#
# Youngs Moduli (GPa) = 63.32116 82.55630 45.28398
#
# Poissons Ratio (x) = 0.12652 -0.12917
# Poissons Ratio (y) = 0.09704 0.28138
# Poissons Ratio (z) = -0.18062 0.51298
#
# Static dielectric constant tensor:
#      x y z
#    x 4.595830 0.000000 -0.219510 
#    y 0.000000 4.685580 0.000000 
#    z -0.219510 0.000000 4.606120 
# 
# 
# High freq. dielectric constant tensor:
#      x y z
#    x 2.025810 0.000000 -0.012910 
#    y 0.000000 2.021700 0.000000 
#    z -0.012910 0.000000 2.013890 
# 
# From -- ./inp_files/85975.got.cif
#   From: 2010.06.25/outbox.cif.g09.slc.cpg/sg15_43_cif.got.tgz:85975.got - 2010.06.28 07:06:18.
