data_PCOD8139327
_publ_section_title
;
Structure prediction by ZEFSAII (Michael W. Deem and Ramdas Pophale) SiO2 
 PCOD8139327
Probable space group: C 2/C
;
_chemical_formula_sum "Si O2"
_cell_formula_units_Z 56
_cell_length_a 15.574035
_cell_length_b 14.648164
_cell_length_c 16.968934
_cell_angle_alpha 90.000000
_cell_angle_beta 130.280402
_cell_angle_gamma 90.000000
_cell_volume 2953.252288
_symmetry_space_group_name_H-M "C 2/C"
_symmetry_group_IT_number 15
_symmetry_cell_setting 'monoclinic'
loop_
_space_group_symop_operation_xyz
x,y,z
-x,y,1/2-z
-x,-y,-z
x,-y,1/2+z
1/2+x,1/2+y,z
1/2-x,1/2+y,1/2-z
1/2-x,1/2-y,-z
1/2+x,1/2-y,1/2+z
loop_
_atom_site_type_symbol
_atom_site_label
_atom_site_fract_x
_atom_site_fract_y
_atom_site_fract_z
Si Si1 0.931675 0.164191 0.836612
Si Si2 0.806195 0.333198 0.700692
Si Si3 0.917820 0.040301 0.273647
Si Si4 0.126010 0.287721 0.920274
Si Si5 0.333893 0.045727 0.360565
Si Si6 0.446804 0.132124 0.957491
Si Si7 0.550691 0.670303 0.066557
O O1 0.829788 0.234578 0.756703
O O2 0.043756 0.201592 0.860908
O O3 0.906268 0.064697 0.789552
O O4 0.953831 0.155770 0.943760
O O5 0.877461 0.345740 0.662705
O O6 0.846650 0.414429 0.780647
O O7 0.674372 0.344196 0.602443
O O8 0.789731 0.071126 0.178419
O O9 0.970697 0.101193 0.374830
O O10 0.000000 0.056197 0.250000
O O11 0.250000 0.250000 0.000000
O O12 0.087134 0.346885 0.971847
O O13 0.428698 0.088460 0.473300
O O14 0.354274 0.936805 0.367197
O O15 0.451951 0.223569 0.907683
#
# Coordination Sequence:
#
# PCOD8139327 Si02
#       7
#     8   8   8   8   8   8   8
#     4  11  21  36  60  89 117 148 182 244 305 339
#     4  11  19  35  58  91 118 146 185 237 298 350
#     4  11  24  37  58  84 116 154 200 239 282 342
#     4  11  20  33  62  94 121 143 182 245 301 349
#     4  10  22  37  59  82 113 158 192 232 289 348
#     4  10  20  39  60  82 118 156 189 233 294 344
#     4  10  21  38  59  82 119 151 192 236 288 349
#
# _framework density 18.962147000000002
#
# number of rings (size 3 to 8) (size 9 to 14) (size 15 to 20)
#    0.000    1.429    5.714    2.571    2.000    0.000 
#    0.000    0.714    6.286    0.000    0.000    0.000 
#    0.000    0.000    0.000    0.000    0.000    0.000 
#
# Total GULP energy -347055.500747 kJ/mol
# GULP energy per Si atom -12394.839312 kJ/mol
# Density = 1.891899 g / cm^3
# Si number density = 18.962147 Si / 1000 Ang^3
#
#
#
# Elastic Constant Matrix: (Units=GPa)
#
#
# Indices 1 2 3 4 5 6 
#
# 1 94.8859 45.0771 36.7512 0.0000 -8.6318 0.0000
# 2 45.0771 99.7603 18.4336 0.0000 -23.5525 0.0000
# 3 36.7512 18.4336 57.1116 0.0000 -11.2007 0.0000
# 4 0.0000 0.0000 0.0000 34.7447 0.0000 -0.5104
# 5 -8.6318 -23.5525 -11.2007 0.0000 24.2809 0.0000
# 6 0.0000 0.0000 0.0000 -0.5104 0.0000 22.0450
#
#
#
# Elastic Compliance Matrix: (Units=1/GPa)
#
#
# Indices 1 2 3 4 5 6 
#
# 1 0.017332 -0.007300 -0.009870 0.000000 -0.005472 0.000000
# 2 -0.007300 0.016265 0.002235 0.000000 0.014213 0.000000
# 3 -0.009870 0.002235 0.025152 0.000000 0.010262 0.000000
# 4 0.000000 0.000000 0.000000 0.028791 0.000000 0.000667
# 5 -0.005472 0.014213 0.010262 0.000000 0.057760 0.000000
# 6 0.000000 0.000000 0.000000 0.000667 0.000000 0.045377
#
#
# Mechanical properties :
#
#
# Convention : Reuss Voigt Hill
#
# Bulk Modulus (GPa) = 34.62678 50.25353 42.44015
# Shear Modulus (GPa) = 21.72277 26.31385 24.01831
#
# Velocity S-wave (km/s) = 3.38832 3.72923 3.56286
# Velocity P-wave (km/s) = 5.79727 6.71584 6.27339
#
# Compressibility (1/GPa) = 0.02887938
#
# Stress axis : x y z
#
# Youngs Moduli (GPa) = 57.69706 61.48170 39.75797
#
# Poissons Ratio (x) = 0.44880 0.39242
# Poissons Ratio (y) = 0.42117 -0.08886
# Poissons Ratio (z) = 0.56948 -0.13741
#
# Static dielectric constant tensor:
#      x y z
#    x 3.543860 0.000000 0.069060 
#    y 0.000000 3.581520 0.000000 
#    z 0.069060 0.000000 3.769320 
# 
# 
# High freq. dielectric constant tensor:
#      x y z
#    x 1.713540 0.000000 0.020040 
#    y 0.000000 1.733960 0.000000 
#    z 0.020040 0.000000 1.749930 
# 
# From -- ./inp_files/205500.got.cif
#   From: 2010.06.25/outbox.cif.g09.slc.cpg/sg15_103_cif.got.tgz:205500.got - 2010.06.28 07:06:18.
