data_PCOD8139435
_publ_section_title
;
Structure prediction by ZEFSAII (Michael W. Deem and Ramdas Pophale) SiO2 
 PCOD8139435
Probable space group: C 2/C
;
_chemical_formula_sum "Si O2"
_cell_formula_units_Z 52
_cell_length_a 20.895360
_cell_length_b 8.368664
_cell_length_c 15.116022
_cell_angle_alpha 90.000000
_cell_angle_beta 74.522403
_cell_angle_gamma 90.000000
_cell_volume 2547.423074
_symmetry_space_group_name_H-M "C 2/C"
_symmetry_group_IT_number 15
_symmetry_cell_setting 'monoclinic'
loop_
_space_group_symop_operation_xyz
x,y,z
-x,y,1/2-z
-x,-y,-z
x,-y,1/2+z
1/2+x,1/2+y,z
1/2-x,1/2+y,1/2-z
1/2-x,1/2-y,-z
1/2+x,1/2-y,1/2+z
loop_
_atom_site_type_symbol
_atom_site_label
_atom_site_fract_x
_atom_site_fract_y
_atom_site_fract_z
Si Si1 0.874506 0.161063 0.336190
Si Si2 0.750725 0.485762 0.670408
Si Si3 0.180938 0.445582 0.035132
Si Si4 0.000000 0.352378 0.250000
Si Si5 0.437906 0.341664 0.333012
Si Si6 0.460915 0.056832 0.430765
Si Si7 0.691337 0.824890 0.687200
O O1 0.820606 0.098408 0.284435
O O2 0.838380 0.272379 0.420718
O O3 0.933640 0.247395 0.261190
O O4 0.903547 0.005921 0.377262
O O5 0.769725 0.427416 0.565071
O O6 0.742392 0.677233 0.674601
O O7 0.803654 0.428276 0.724177
O O8 0.115391 0.525515 0.020654
O O9 0.213202 0.558085 0.099122
O O10 0.009042 0.462190 0.162365
O O11 0.500000 0.387070 0.250000
O O12 0.465787 0.246234 0.408121
O O13 0.384975 0.229913 0.298916
O O14 0.500000 0.000000 0.500000
#
# Coordination Sequence:
#
# PCOD8139435 Si02
#       7
#     8   8   8   4   8   8   8
#     4  10  21  38  62  89 120 169 202 259 317 364
#     4  11  22  39  62  90 126 160 210 256 313 375
#     4  10  22  39  60  89 126 160 209 257 309 376
#     4  10  20  40  58  84 122 156 212 256 312 372
#     4  10  20  39  62  87 127 164 206 262 306 365
#     4  10  22  36  60  90 114 166 210 252 313 370
#     4  10  23  39  62  94 120 170 210 252 318 365
#
# _framework density 20.412785
#
# number of rings (size 3 to 8) (size 9 to 14) (size 15 to 20)
#    0.000    1.846    1.538    1.846    2.154    1.231 
#    0.000    6.154    0.000    0.000    0.000    0.000 
#    0.000    0.000    0.000    0.000    0.000    0.000 
#
# Total GULP energy -322316.410682 kJ/mol
# GULP energy per Si atom -12396.785026 kJ/mol
# Density = 2.036633 g / cm^3
# Si number density = 20.412785 Si / 1000 Ang^3
#
#
#
# Elastic Constant Matrix: (Units=GPa)
#
#
# Indices 1 2 3 4 5 6 
#
# 1 72.1484 47.2904 44.4925 0.0000 1.2716 0.0000
# 2 47.2904 138.2427 40.1674 0.0000 4.4776 0.0000
# 3 44.4925 40.1674 91.3818 0.0000 5.6117 0.0000
# 4 0.0000 0.0000 0.0000 18.5844 0.0000 -0.1285
# 5 1.2716 4.4776 5.6117 0.0000 26.8623 0.0000
# 6 0.0000 0.0000 0.0000 -0.1285 0.0000 31.3868
#
#
#
# Elastic Compliance Matrix: (Units=1/GPa)
#
#
# Indices 1 2 3 4 5 6 
#
# 1 0.022744 -0.005258 -0.008864 0.000000 0.001652 0.000000
# 2 -0.005258 0.009519 -0.001562 0.000000 -0.001012 0.000000
# 3 -0.008864 -0.001562 0.016110 0.000000 -0.002686 0.000000
# 4 0.000000 0.000000 0.000000 0.053810 0.000000 0.000220
# 5 0.001652 -0.001012 -0.002686 0.000000 0.037878 0.000000
# 6 0.000000 0.000000 0.000000 0.000220 0.000000 0.031861
#
#
# Mechanical properties :
#
#
# Convention : Reuss Voigt Hill
#
# Bulk Modulus (GPa) = 58.80539 62.85260 60.82900
# Shear Modulus (GPa) = 23.92810 26.68821 25.30816
#
# Velocity S-wave (km/s) = 3.42747 3.61976 3.52493
# Velocity P-wave (km/s) = 6.67339 6.95182 6.81403
#
# Compressibility (1/GPa) = 0.01700524
#
# Stress axis : x y z
#
# Youngs Moduli (GPa) = 43.96767 105.05303 62.07263
#
# Poissons Ratio (x) = 0.55241 0.55020
# Poissons Ratio (y) = 0.23120 0.09694
# Poissons Ratio (z) = 0.38972 0.16407
#
# Static dielectric constant tensor:
#      x y z
#    x 3.902070 0.000000 -0.033450 
#    y 0.000000 4.014770 0.000000 
#    z -0.033450 0.000000 3.290400 
# 
# 
# High freq. dielectric constant tensor:
#      x y z
#    x 1.806030 0.000000 -0.009390 
#    y 0.000000 1.818090 0.000000 
#    z -0.009390 0.000000 1.765700 
# 
# From -- ./inp_files/166227.got.cif
#   From: 2010.06.25/outbox.cif.g09.slc.cpg/sg15_84_cif.got.tgz:166227.got - 2010.06.28 07:06:18.
