data_PCOD8139687
_publ_section_title
;
Structure prediction by ZEFSAII (Michael W. Deem and Ramdas Pophale) SiO2 
 PCOD8139687
Probable space group: C 2/C
;
_chemical_formula_sum "Si O2"
_cell_formula_units_Z 36
_cell_length_a 12.748427
_cell_length_b 11.690910
_cell_length_c 10.755365
_cell_angle_alpha 90.000000
_cell_angle_beta 75.589366
_cell_angle_gamma 90.000000
_cell_volume 1552.552457
_symmetry_space_group_name_H-M "C 2/C"
_symmetry_group_IT_number 15
_symmetry_cell_setting 'monoclinic'
loop_
_space_group_symop_operation_xyz
x,y,z
-x,y,1/2-z
-x,-y,-z
x,-y,1/2+z
1/2+x,1/2+y,z
1/2-x,1/2+y,1/2-z
1/2-x,1/2-y,-z
1/2+x,1/2-y,1/2+z
loop_
_atom_site_type_symbol
_atom_site_label
_atom_site_fract_x
_atom_site_fract_y
_atom_site_fract_z
Si Si1 0.353280 0.802339 0.407756
Si Si2 0.000000 0.360644 0.750000
Si Si3 0.325648 0.029009 0.713594
Si Si4 0.895825 0.101537 0.218662
Si Si5 0.568274 0.781804 0.479446
O O1 0.250000 0.750000 0.500000
O O2 0.321812 0.922198 0.354716
O O3 0.393929 0.722503 0.286984
O O4 0.447582 0.821093 0.478360
O O5 0.919763 0.434919 0.687490
O O6 0.069824 0.284412 0.630595
O O7 0.346868 0.125208 0.601637
O O8 0.208699 0.973964 0.723275
O O9 0.908512 0.149104 0.072089
O O10 0.000000 0.036148 0.250000
#
# Coordination Sequence:
#
# PCOD8139687 Si02
#       5
#     8   4   8   8   8
#     4  10  20  39  67  92 125 173 211 262 321 387
#     4  12  22  34  70  96 128 162 220 280 302 384
#     4  11  21  38  68  98 123 168 220 268 314 384
#     4   9  21  41  65  90 132 170 211 262 322 388
#     4  10  22  41  62  98 128 169 218 259 330 376
#
# _framework density 23.187621
#
# number of rings (size 3 to 8) (size 9 to 14) (size 15 to 20)
#    0.000    1.778    2.222    3.333    3.111    0.889 
#    0.000    4.444   22.000    0.000    0.000    0.000 
#    0.000    0.000    0.000    0.000    0.000    0.000 
#
# Total GULP energy -223044.821890 kJ/mol
# GULP energy per Si atom -12391.378994 kJ/mol
# Density = 2.313485 g / cm^3
# Si number density = 23.187621 Si / 1000 Ang^3
#
#
#
# Elastic Constant Matrix: (Units=GPa)
#
#
# Indices 1 2 3 4 5 6 
#
# 1 153.2483 43.0514 17.1751 0.0000 -20.1049 0.0000
# 2 43.0514 51.5460 28.8403 0.0000 -10.7154 0.0000
# 3 17.1751 28.8403 120.1670 0.0000 -20.0617 0.0000
# 4 0.0000 0.0000 0.0000 15.7937 0.0000 8.0036
# 5 -20.1049 -10.7154 -20.0617 0.0000 26.8100 0.0000
# 6 0.0000 0.0000 0.0000 8.0036 0.0000 18.1193
#
#
#
# Elastic Compliance Matrix: (Units=1/GPa)
#
#
# Indices 1 2 3 4 5 6 
#
# 1 0.009059 -0.007264 0.001255 0.000000 0.004829 0.000000
# 2 -0.007264 0.029005 -0.005596 0.000000 0.001958 0.000000
# 3 0.001255 -0.005596 0.010592 0.000000 0.006631 0.000000
# 4 0.000000 0.000000 0.000000 0.081576 0.000000 -0.036034
# 5 0.004829 0.001958 0.006631 0.000000 0.046665 0.000000
# 6 0.000000 0.000000 0.000000 -0.036034 0.000000 0.071106
#
#
# Mechanical properties :
#
#
# Convention : Reuss Voigt Hill
#
# Bulk Modulus (GPa) = 39.29978 55.89943 47.59961
# Shear Modulus (GPa) = 17.87642 27.87089 22.87366
#
# Velocity S-wave (km/s) = 2.77961 3.47071 3.14420
# Velocity P-wave (km/s) = 5.22370 6.34199 5.80981
#
# Compressibility (1/GPa) = 0.02544544
#
# Stress axis : x y z
#
# Youngs Moduli (GPa) = 110.38754 34.47622 94.40669
#
# Poissons Ratio (x) = 0.25045 -0.11847
# Poissons Ratio (y) = 0.80190 0.52832
# Poissons Ratio (z) = -0.13852 0.19294
#
# Static dielectric constant tensor:
#      x y z
#    x 3.918770 0.000000 0.250640 
#    y 0.000000 3.965820 0.000000 
#    z 0.250640 0.000000 4.270830 
# 
# 
# High freq. dielectric constant tensor:
#      x y z
#    x 1.914320 0.000000 -0.010330 
#    y 0.000000 1.890690 0.000000 
#    z -0.010330 0.000000 1.923970 
# 
# From -- ./inp_files/84342.got.cif
#   From: 2010.06.25/outbox.cif.g09.slc.cpg/sg15_43_cif.got.tgz:84342.got - 2010.06.28 07:06:18.
