data_PCOD8139834
_publ_section_title
;
Structure prediction by ZEFSAII (Michael W. Deem and Ramdas Pophale) SiO2 
 PCOD8139834
Probable space group: C 2/C
;
_chemical_formula_sum "Si O2"
_cell_formula_units_Z 56
_cell_length_a 9.344403
_cell_length_b 15.818389
_cell_length_c 22.305878
_cell_angle_alpha 90.000000
_cell_angle_beta 57.653507
_cell_angle_gamma 90.000000
_cell_volume 2785.488747
_symmetry_space_group_name_H-M "C 2/C"
_symmetry_group_IT_number 15
_symmetry_cell_setting 'monoclinic'
loop_
_space_group_symop_operation_xyz
x,y,z
-x,y,1/2-z
-x,-y,-z
x,-y,1/2+z
1/2+x,1/2+y,z
1/2-x,1/2+y,1/2-z
1/2-x,1/2-y,-z
1/2+x,1/2-y,1/2+z
loop_
_atom_site_type_symbol
_atom_site_label
_atom_site_fract_x
_atom_site_fract_y
_atom_site_fract_z
Si Si1 0.815639 0.799936 0.762663
Si Si2 0.862971 0.945481 0.660254
Si Si3 0.275335 0.577428 0.045328
Si Si4 0.232411 0.925774 0.536333
Si Si5 0.450519 0.839465 0.577983
Si Si6 0.620528 0.663181 0.952977
Si Si7 0.693675 0.115105 0.706723
O O1 0.806000 0.859622 0.706657
O O2 0.676061 0.835573 0.838426
O O3 0.779427 0.699480 0.757492
O O4 0.000000 0.808211 0.750000
O O5 0.772334 0.941638 0.616298
O O6 0.065612 0.949328 0.611706
O O7 0.801311 0.033571 0.705575
O O8 0.139747 0.649494 0.060199
O O9 0.213095 0.496229 0.023245
O O10 0.464125 0.598402 0.981047
O O11 0.386604 0.913020 0.547651
O O12 0.196140 0.843014 0.503283
O O13 0.452665 0.755878 0.537814
O O14 0.757906 0.641405 0.871815
O O15 0.500000 0.086393 0.750000
#
# Coordination Sequence:
#
# PCOD8139834 Si02
#       7
#     8   8   8   8   8   8   8
#     4  10  22  40  62  87 122 164 205 253 304 359
#     4  11  21  40  66  88 124 162 204 256 307 364
#     4  11  22  38  61  95 121 159 199 252 316 359
#     4  11  20  39  65  89 120 163 205 243 305 370
#     4  11  23  36  61  91 127 156 204 252 298 364
#     4  10  20  40  61  89 120 162 199 250 304 353
#     4  10  21  38  64  89 118 158 212 248 296 369
#
# _framework density 20.104192000000001
#
# number of rings (size 3 to 8) (size 9 to 14) (size 15 to 20)
#    0.000    1.429    4.286    2.143    2.000    0.000 
#    0.000    0.000    9.429    0.000    0.000    0.000 
#    0.000    0.000    0.000    0.000    0.000    0.000 
#
# Total GULP energy -347115.485734 kJ/mol
# GULP energy per Si atom -12396.981633 kJ/mol
# Density = 2.005843 g / cm^3
# Si number density = 20.104192 Si / 1000 Ang^3
#
#
#
# Elastic Constant Matrix: (Units=GPa)
#
#
# Indices 1 2 3 4 5 6 
#
# 1 63.1340 14.5959 14.1970 -0.0001 -1.1349 0.0001
# 2 14.5959 115.7410 40.5018 -0.0001 9.2738 0.0001
# 3 14.1970 40.5018 71.2175 -0.0001 -2.8792 0.0000
# 4 -0.0001 -0.0001 -0.0001 40.9572 0.0001 2.5771
# 5 -1.1349 9.2738 -2.8792 0.0001 16.4148 0.0000
# 6 0.0001 0.0001 0.0000 2.5771 0.0000 24.1824
#
#
#
# Elastic Compliance Matrix: (Units=1/GPa)
#
#
# Indices 1 2 3 4 5 6 
#
# 1 0.016743 -0.001352 -0.002509 0.000000 0.001482 0.000000
# 2 -0.001352 0.011818 -0.006773 0.000000 -0.007959 0.000000
# 3 -0.002509 -0.006773 0.018674 0.000000 0.006929 0.000000
# 4 0.000000 0.000000 0.000000 0.024581 0.000000 -0.002620
# 5 0.001482 -0.007959 0.006929 0.000000 0.066735 0.000000
# 6 0.000000 0.000000 0.000000 -0.002620 0.000000 0.041632
#
#
# Mechanical properties :
#
#
# Convention : Reuss Voigt Hill
#
# Bulk Modulus (GPa) = 38.51150 43.18689 40.84920
# Shear Modulus (GPa) = 23.79752 28.36407 26.08079
#
# Velocity S-wave (km/s) = 3.44424 3.76021 3.60569
# Velocity P-wave (km/s) = 5.91731 6.35456 6.13983
#
# Compressibility (1/GPa) = 0.02596627
#
# Stress axis : x y z
#
# Youngs Moduli (GPa) = 59.72753 84.61348 53.55102
#
# Poissons Ratio (x) = 0.11442 0.13434
# Poissons Ratio (y) = 0.08077 0.36272
# Poissons Ratio (z) = 0.14984 0.57312
#
# Static dielectric constant tensor:
#      x y z
#    x 3.536660 0.000000 -0.088210 
#    y 0.000000 3.957020 0.000000 
#    z -0.088210 0.000000 3.619750 
# 
# 
# High freq. dielectric constant tensor:
#      x y z
#    x 1.764240 0.000000 -0.014260 
#    y 0.000000 1.796930 0.000000 
#    z -0.014260 0.000000 1.784950 
# 
# From -- ./inp_files/232775.got.cif
#   From: 2010.06.25/outbox.cif.g09.slc.cpg/sg15_117_cif.got.tgz:232775.got - 2010.06.28 07:06:18.
