data_PCOD8139244
_publ_section_title
;
Structure prediction by ZEFSAII (Michael W. Deem and Ramdas Pophale) SiO2 
 PCOD8139244
Probable space group: C 2/C
;
_chemical_formula_sum "Si O2"
_cell_formula_units_Z 60
_cell_length_a 20.652116
_cell_length_b 9.416237
_cell_length_c 22.824321
_cell_angle_alpha 90.000000
_cell_angle_beta 141.012780
_cell_angle_gamma 90.000000
_cell_volume 2792.492108
_symmetry_space_group_name_H-M "C 2/C"
_symmetry_group_IT_number 15
_symmetry_cell_setting 'monoclinic'
loop_
_space_group_symop_operation_xyz
x,y,z
-x,y,1/2-z
-x,-y,-z
x,-y,1/2+z
1/2+x,1/2+y,z
1/2-x,1/2+y,1/2-z
1/2-x,1/2-y,-z
1/2+x,1/2-y,1/2+z
loop_
_atom_site_type_symbol
_atom_site_label
_atom_site_fract_x
_atom_site_fract_y
_atom_site_fract_z
Si Si1 0.000000 0.910991 0.750000
Si Si2 0.814626 0.531810 0.058011
Si Si3 0.341286 0.146020 0.464260
Si Si4 0.571083 0.236562 0.642710
Si Si5 0.787326 0.630990 0.859957
Si Si6 0.561963 0.547731 0.676556
Si Si7 0.867504 0.793235 0.026167
Si Si8 0.149406 0.319001 0.322469
O O1 0.100375 0.810996 0.824752
O O2 0.006914 0.010966 0.698848
O O3 0.810231 0.408901 0.006492
O O4 0.882924 0.663022 0.082602
O O5 0.864030 0.465907 0.151692
O O6 0.698758 0.583938 0.989360
O O7 0.457927 0.196705 0.541924
O O8 0.269707 0.281033 0.398330
O O9 0.323257 0.026114 0.402784
O O10 0.653714 0.176447 0.656364
O O11 0.583954 0.406453 0.654669
O O12 0.591418 0.164084 0.719938
O O13 0.666457 0.633578 0.760612
O O14 0.807925 0.741297 0.926554
O O15 0.479783 0.649165 0.586036
#
# Coordination Sequence:
#
# PCOD8139244 Si02
#       8
#     4   8   8   8   8   8   8   8
#     4  10  20  38  68  94 128 168 214 272 346 406
#     4  10  21  39  64 102 138 162 222 274 337 404
#     4  11  21  43  67  96 132 172 215 281 338 385
#     4  11  25  42  70  94 128 183 227 268 328 402
#     4  11  25  46  63  97 134 175 227 274 327 394
#     4  11  23  45  68  94 132 178 219 273 343 397
#     4  10  24  42  63  97 134 180 213 276 341 396
#     4  11  21  40  66 103 131 171 219 277 330 402
#
# _framework density 21.486186
#
# number of rings (size 3 to 8) (size 9 to 14) (size 15 to 20)
#    0.000    1.333    2.667    4.000    3.733    2.667 
#   14.400    0.000    0.000    0.000    0.000    0.000 
#    0.000    0.000    0.000    0.000    0.000    0.000 
#
# Total GULP energy -372110.259507 kJ/mol
# GULP energy per Si atom -12403.675317 kJ/mol
# Density = 2.143728 g / cm^3
# Si number density = 21.486186 Si / 1000 Ang^3
#
#
#
# Elastic Constant Matrix: (Units=GPa)
#
#
# Indices 1 2 3 4 5 6 
#
# 1 111.1687 30.3317 41.7965 0.0000 11.7985 0.0000
# 2 30.3317 69.6540 38.4001 0.0000 0.3513 0.0000
# 3 41.7965 38.4001 106.7247 0.0000 30.9905 0.0000
# 4 0.0000 0.0000 0.0000 39.8858 0.0000 3.0173
# 5 11.7985 0.3513 30.9905 0.0000 28.1563 0.0000
# 6 0.0000 0.0000 0.0000 3.0173 0.0000 22.8682
#
#
#
# Elastic Compliance Matrix: (Units=1/GPa)
#
#
# Indices 1 2 3 4 5 6 
#
# 1 0.011085 -0.003365 -0.002637 0.000000 -0.001701 0.000000
# 2 -0.003365 0.021122 -0.009722 0.000000 0.011847 0.000000
# 3 -0.002637 -0.009722 0.019907 0.000000 -0.020685 0.000000
# 4 0.000000 0.000000 0.000000 0.025324 0.000000 -0.003341
# 5 -0.001701 0.011847 -0.020685 0.000000 0.058848 0.000000
# 6 0.000000 0.000000 0.000000 -0.003341 0.000000 0.044170
#
#
# Mechanical properties :
#
#
# Convention : Reuss Voigt Hill
#
# Bulk Modulus (GPa) = 48.38720 56.51153 52.44937
# Shear Modulus (GPa) = 22.85269 29.98335 26.41802
#
# Velocity S-wave (km/s) = 3.26483 3.73965 3.51028
# Velocity P-wave (km/s) = 6.06475 6.70858 6.39477
#
# Compressibility (1/GPa) = 0.02066662
#
# Stress axis : x y z
#
# Youngs Moduli (GPa) = 90.20938 47.34370 50.23393
#
# Poissons Ratio (x) = 0.15932 0.13244
# Poissons Ratio (y) = 0.30357 0.48838
# Poissons Ratio (z) = 0.23784 0.46028
#
# Static dielectric constant tensor:
#      x y z
#    x 3.889510 0.000000 0.092930 
#    y 0.000000 3.870140 0.000000 
#    z 0.092930 0.000000 3.876510 
# 
# 
# High freq. dielectric constant tensor:
#      x y z
#    x 1.838380 0.000000 0.008120 
#    y 0.000000 1.839960 0.000000 
#    z 0.008120 0.000000 1.845720 
# 
# From -- ./inp_files/279723.got.cif
#   From: 2010.06.25/outbox.cif.g09.slc.cpg/sg15_140_cif.got.tgz:279723.got - 2010.06.28 07:06:18.
