data_PCOD8139674
_publ_section_title
;
Structure prediction by ZEFSAII (Michael W. Deem and Ramdas Pophale) SiO2 
 PCOD8139674
Probable space group: C 2/C
;
_chemical_formula_sum "Si O2"
_cell_formula_units_Z 48
_cell_length_a 16.282876
_cell_length_b 9.857540
_cell_length_c 22.559100
_cell_angle_alpha 90.000000
_cell_angle_beta 147.927764
_cell_angle_gamma 90.000000
_cell_volume 1922.676240
_symmetry_space_group_name_H-M "C 2/C"
_symmetry_group_IT_number 15
_symmetry_cell_setting 'monoclinic'
loop_
_space_group_symop_operation_xyz
x,y,z
-x,y,1/2-z
-x,-y,-z
x,-y,1/2+z
1/2+x,1/2+y,z
1/2-x,1/2+y,1/2-z
1/2-x,1/2-y,-z
1/2+x,1/2-y,1/2+z
loop_
_atom_site_type_symbol
_atom_site_label
_atom_site_fract_x
_atom_site_fract_y
_atom_site_fract_z
Si Si1 0.350067 0.595452 0.798348
Si Si2 0.328643 0.942288 0.500426
Si Si3 0.071451 0.343877 0.734674
Si Si4 0.016287 0.681997 0.599291
Si Si5 0.108431 0.825164 0.538433
Si Si6 0.974375 0.901577 0.666668
O O1 0.384708 0.732422 0.785756
O O2 0.174972 0.603322 0.715323
O O3 0.369500 0.468265 0.765597
O O4 0.477265 0.581995 0.928395
O O5 0.442322 0.941262 0.627363
O O6 0.334063 0.803936 0.466291
O O7 0.391193 0.070370 0.501259
O O8 0.156915 0.980145 0.418457
O O9 0.236756 0.414264 0.853303
O O10 0.000000 0.277159 0.750000
O O11 0.038148 0.778310 0.557179
O O12 0.943044 0.765906 0.609589
O O13 0.000000 0.858240 0.750000
#
# Coordination Sequence:
#
# PCOD8139674 Si02
#       6
#     8   8   8   8   8   8
#     4  10  23  41  69  99 132 183 234 289 336 409
#     4  11  24  44  69  99 142 183 228 285 354 408
#     4  10  20  39  67 100 130 173 234 289 339 403
#     4  11  26  42  67 101 141 183 236 276 353 412
#     4  10  22  42  72  97 135 179 236 290 338 407
#     4  12  26  44  70 101 143 185 230 282 348 415
#
# _framework density 24.965201
#
# number of rings (size 3 to 8) (size 9 to 14) (size 15 to 20)
#    0.000    1.333    0.000    5.500    9.333    4.000 
#    3.000    0.000    0.000    0.000    0.000    0.000 
#    0.000    0.000    0.000    0.000    0.000    0.000 
#
# Total GULP energy -297493.141730 kJ/mol
# GULP energy per Si atom -12395.547572 kJ/mol
# Density = 2.490838 g / cm^3
# Si number density = 24.965201 Si / 1000 Ang^3
#
#
#
# Elastic Constant Matrix: (Units=GPa)
#
#
# Indices 1 2 3 4 5 6 
#
# 1 93.3286 14.0146 38.9428 -0.0001 -8.9239 0.0000
# 2 14.0146 45.5752 -0.0283 -0.0001 5.1870 0.0000
# 3 38.9428 -0.0283 112.0724 0.0004 -4.7006 0.0002
# 4 -0.0001 -0.0001 0.0004 22.6533 0.0000 9.5516
# 5 -8.9239 5.1870 -4.7006 0.0000 33.0644 0.0000
# 6 0.0000 0.0000 0.0002 9.5516 0.0000 29.5311
#
#
#
# Elastic Compliance Matrix: (Units=1/GPa)
#
#
# Indices 1 2 3 4 5 6 
#
# 1 0.013692 -0.004642 -0.004601 0.000000 0.003770 0.000000
# 2 -0.004642 0.023917 0.001418 0.000000 -0.004803 0.000000
# 3 -0.004601 0.001418 0.010523 0.000000 0.000032 0.000000
# 4 0.000000 0.000000 0.000000 0.051115 0.000000 -0.016533
# 5 0.003770 -0.004803 0.000032 0.000000 0.032019 0.000000
# 6 0.000000 0.000000 0.000000 -0.016533 0.000000 0.039210
#
#
# Mechanical properties :
#
#
# Convention : Reuss Voigt Hill
#
# Bulk Modulus (GPa) = 30.78691 39.64828 35.21760
# Shear Modulus (GPa) = 25.38664 30.25291 27.81977
#
# Velocity S-wave (km/s) = 3.19232 3.48487 3.34180
# Velocity P-wave (km/s) = 5.09378 5.66642 5.38771
#
# Compressibility (1/GPa) = 0.03248133
#
# Stress axis : x y z
#
# Youngs Moduli (GPa) = 73.03467 41.81154 95.02830
#
# Poissons Ratio (x) = 0.19410 0.43721
# Poissons Ratio (y) = 0.33905 -0.13472
# Poissons Ratio (z) = 0.33602 -0.05927
#
# Static dielectric constant tensor:
#      x y z
#    x 4.563820 0.000000 0.126720 
#    y 0.000000 4.096500 0.000000 
#    z 0.126720 0.000000 5.341920 
# 
# 
# High freq. dielectric constant tensor:
#      x y z
#    x 2.004680 0.000000 0.005470 
#    y 0.000000 1.969950 0.000000 
#    z 0.005470 0.000000 2.006420 
# 
# From -- ./inp_files/243982.got.cif
#   From: 2010.06.25/outbox.cif.g09.slc.cpg/sg15_122_cif.got.tgz:243982.got - 2010.06.28 07:06:18.
