data_PCOD8139865
_publ_section_title
;
Structure prediction by ZEFSAII (Michael W. Deem and Ramdas Pophale) SiO2 
 PCOD8139865
Probable space group: C 2/C
;
_chemical_formula_sum "Si O2"
_cell_formula_units_Z 44
_cell_length_a 15.145055
_cell_length_b 10.487074
_cell_length_c 17.609034
_cell_angle_alpha 90.000000
_cell_angle_beta 126.789970
_cell_angle_gamma 90.000000
_cell_volume 2239.775178
_symmetry_space_group_name_H-M "C 2/C"
_symmetry_group_IT_number 15
_symmetry_cell_setting 'monoclinic'
loop_
_space_group_symop_operation_xyz
x,y,z
-x,y,1/2-z
-x,-y,-z
x,-y,1/2+z
1/2+x,1/2+y,z
1/2-x,1/2+y,1/2-z
1/2-x,1/2-y,-z
1/2+x,1/2-y,1/2+z
loop_
_atom_site_type_symbol
_atom_site_label
_atom_site_fract_x
_atom_site_fract_y
_atom_site_fract_z
Si Si1 0.386653 0.431847 0.732255
Si Si2 0.335521 0.950902 0.384949
Si Si3 0.078542 0.069913 0.598327
Si Si4 0.500000 0.037572 0.250000
Si Si5 0.500774 0.156204 0.411028
Si Si6 0.817783 0.352500 0.211359
O O1 0.500000 0.468372 0.750000
O O2 0.286211 0.515529 0.646747
O O3 0.396382 0.464406 0.825574
O O4 0.357217 0.285021 0.704404
O O5 0.395555 0.081975 0.391067
O O6 0.394482 0.877856 0.483456
O O7 0.329228 0.858909 0.308582
O O8 0.193361 0.116964 0.620324
O O9 0.017242 0.193337 0.599181
O O10 0.000000 0.000000 0.500000
O O11 0.524180 0.122396 0.336012
O O12 0.392643 0.953176 0.206765
#
# Coordination Sequence:
#
# PCOD8139865 Si02
#       6
#     8   8   8   4   8   8
#     4  11  22  39  62  92 123 155 201 258 304 348
#     4   9  20  38  63  85 116 167 197 248 298 367
#     4  11  24  40  62  91 122 163 202 249 301 365
#     4  10  22  38  66  92 118 160 198 258 304 356
#     4  10  20  40  62  88 121 157 209 240 304 363
#     4  10  20  41  62  88 123 156 206 246 305 361
#
# _framework density 19.644828
#
# number of rings (size 3 to 8) (size 9 to 14) (size 15 to 20)
#    0.000    1.818    2.727    1.091    1.273    1.455 
#    0.000    3.636    0.000    0.000    0.000    0.000 
#    0.000    0.000    0.000    0.000    0.000    0.000 
#
# Total GULP energy -272832.687300 kJ/mol
# GULP energy per Si atom -12401.485786 kJ/mol
# Density = 1.960012 g / cm^3
# Si number density = 19.644828 Si / 1000 Ang^3
#
#
#
# Elastic Constant Matrix: (Units=GPa)
#
#
# Indices 1 2 3 4 5 6 
#
# 1 135.0273 39.1800 51.5745 0.0000 18.7422 0.0000
# 2 39.1800 86.8979 29.9708 0.0000 4.2725 0.0000
# 3 51.5745 29.9708 117.2941 0.0000 18.4580 0.0000
# 4 0.0000 0.0000 0.0000 22.6167 0.0000 -3.4517
# 5 18.7422 4.2725 18.4580 0.0000 31.9924 0.0000
# 6 0.0000 0.0000 0.0000 -3.4517 0.0000 24.0084
#
#
#
# Elastic Compliance Matrix: (Units=1/GPa)
#
#
# Indices 1 2 3 4 5 6 
#
# 1 0.010017 -0.003308 -0.002976 0.000000 -0.003710 0.000000
# 2 -0.003308 0.013713 -0.002273 0.000000 0.001418 0.000000
# 3 -0.002976 -0.002273 0.011100 0.000000 -0.004358 0.000000
# 4 0.000000 0.000000 0.000000 0.045207 0.000000 0.006499
# 5 -0.003710 0.001418 -0.004358 0.000000 0.035756 0.000000
# 6 0.000000 0.000000 0.000000 0.006499 0.000000 0.042587
#
#
# Mechanical properties :
#
#
# Convention : Reuss Voigt Hill
#
# Bulk Modulus (GPa) = 56.43709 64.51886 60.47798
# Shear Modulus (GPa) = 27.56363 30.28976 28.92669
#
# Velocity S-wave (km/s) = 3.74986 3.93092 3.84146
# Velocity P-wave (km/s) = 6.89490 7.31552 7.10832
#
# Compressibility (1/GPa) = 0.01771884
#
# Stress axis : x y z
#
# Youngs Moduli (GPa) = 99.82824 72.92194 90.08699
#
# Poissons Ratio (x) = 0.24121 0.26806
# Poissons Ratio (y) = 0.33021 0.20473
# Poissons Ratio (z) = 0.29705 0.16572
#
# Static dielectric constant tensor:
#      x y z
#    x 3.638480 0.000000 0.240810 
#    y 0.000000 3.564790 0.000000 
#    z 0.240810 0.000000 3.609230 
# 
# 
# High freq. dielectric constant tensor:
#      x y z
#    x 1.765020 0.000000 0.017260 
#    y 0.000000 1.771880 0.000000 
#    z 0.017260 0.000000 1.764000 
# 
# From -- ./inp_files/151740.got.cif
#   From: 2010.06.25/outbox.cif.g09.slc.cpg/sg15_76_cif.got.tgz:151740.got - 2010.06.28 07:06:18.
