data_PCOD8139609
_publ_section_title
;
Structure prediction by ZEFSAII (Michael W. Deem and Ramdas Pophale) SiO2 
 PCOD8139609
Probable space group: C 2/C
;
_chemical_formula_sum "Si O2"
_cell_formula_units_Z 56
_cell_length_a 23.555487
_cell_length_b 13.859564
_cell_length_c 19.484567
_cell_angle_alpha 90.000000
_cell_angle_beta 155.689674
_cell_angle_gamma 90.000000
_cell_volume 2618.729947
_symmetry_space_group_name_H-M "C 2/C"
_symmetry_group_IT_number 15
_symmetry_cell_setting 'monoclinic'
loop_
_space_group_symop_operation_xyz
x,y,z
-x,y,1/2-z
-x,-y,-z
x,-y,1/2+z
1/2+x,1/2+y,z
1/2-x,1/2+y,1/2-z
1/2-x,1/2-y,-z
1/2+x,1/2-y,1/2+z
loop_
_atom_site_type_symbol
_atom_site_label
_atom_site_fract_x
_atom_site_fract_y
_atom_site_fract_z
Si Si1 0.482035 0.729571 0.117364
Si Si2 0.866574 0.481465 0.777245
Si Si3 0.742275 0.861696 0.434398
Si Si4 0.819524 0.064558 0.168821
Si Si5 0.373988 0.105310 0.421191
Si Si6 0.906148 0.662533 0.209556
Si Si7 0.114473 0.876075 0.325400
O O1 0.598758 0.803286 0.273542
O O2 0.552447 0.631767 0.167048
O O3 0.371285 0.705861 0.055309
O O4 0.398451 0.780126 0.962089
O O5 0.754812 0.543127 0.610825
O O6 0.796536 0.422792 0.764331
O O7 0.944758 0.402496 0.816922
O O8 0.976540 0.558799 0.924088
O O9 0.759883 0.895873 0.531592
O O10 0.704118 0.062701 0.099589
O O11 0.865284 0.953549 0.212350
O O12 0.935237 0.774107 0.261344
O O13 0.000000 0.628449 0.250000
O O14 0.748184 0.644394 0.017858
O O15 0.000000 0.919292 0.250000
#
# Coordination Sequence:
#
# PCOD8139609 Si02
#       7
#     8   8   8   8   8   8   8
#     4  11  23  40  62  97 130 166 209 262 314 384
#     4  10  22  43  65  88 126 168 212 259 310 382
#     4  11  23  38  69  94 131 164 217 265 316 375
#     4  12  22  38  64  97 130 166 208 264 324 376
#     4  10  24  42  62  91 128 171 210 249 316 391
#     4  10  20  39  65  91 115 159 213 262 310 364
#     4  10  21  37  60  94 125 151 204 271 314 361
#
# _framework density 21.384412000000001
#
# number of rings (size 3 to 8) (size 9 to 14) (size 15 to 20)
#    0.000    1.429    2.857    2.571    2.000    1.143 
#    2.571    5.000    0.000    0.000    0.000    0.000 
#    0.000    0.000    0.000    0.000    0.000    0.000 
#
# Total GULP energy -347083.167694 kJ/mol
# GULP energy per Si atom -12395.827418 kJ/mol
# Density = 2.133574 g / cm^3
# Si number density = 21.384412 Si / 1000 Ang^3
#
#
#
# Elastic Constant Matrix: (Units=GPa)
#
#
# Indices 1 2 3 4 5 6 
#
# 1 145.0602 54.8856 44.0564 0.0003 -5.7301 0.0000
# 2 54.8856 125.2705 23.5580 0.0004 -13.7272 0.0000
# 3 44.0564 23.5580 50.8151 0.0011 9.4369 0.0003
# 4 0.0003 0.0004 0.0011 38.4501 0.0006 -1.3291
# 5 -5.7301 -13.7272 9.4369 0.0006 32.1178 0.0000
# 6 0.0000 0.0000 0.0003 -1.3291 0.0000 32.7201
#
#
#
# Elastic Compliance Matrix: (Units=1/GPa)
#
#
# Indices 1 2 3 4 5 6 
#
# 1 0.010652 -0.002692 -0.008596 0.000000 0.003276 0.000000
# 2 -0.002692 0.010337 -0.003374 0.000000 0.004929 0.000000
# 3 -0.008596 -0.003374 0.030936 -0.000001 -0.012065 0.000000
# 4 0.000000 0.000000 -0.000001 0.026044 0.000000 0.001058
# 5 0.003276 0.004929 -0.012065 0.000000 0.037372 0.000000
# 6 0.000000 0.000000 0.000000 0.001058 0.000000 0.030605
#
#
# Mechanical properties :
#
#
# Convention : Reuss Voigt Hill
#
# Bulk Modulus (GPa) = 44.24249 62.90509 53.57379
# Shear Modulus (GPa) = 27.35184 33.90066 30.62625
#
# Velocity S-wave (km/s) = 3.58027 3.98590 3.78852
# Velocity P-wave (km/s) = 6.15021 7.11782 6.65164
#
# Compressibility (1/GPa) = 0.02260270
#
# Stress axis : x y z
#
# Youngs Moduli (GPa) = 93.87762 96.74345 32.32429
#
# Poissons Ratio (x) = 0.26040 0.27785
# Poissons Ratio (y) = 0.25269 0.10906
# Poissons Ratio (z) = 0.80696 0.32639
#
# Static dielectric constant tensor:
#      x y z
#    x 3.845730 0.000000 0.023570 
#    y 0.000000 4.520890 0.000010 
#    z 0.023570 0.000010 4.125220 
# 
# 
# High freq. dielectric constant tensor:
#      x y z
#    x 1.828960 0.000000 0.018230 
#    y 0.000000 1.858290 0.000000 
#    z 0.018230 0.000000 1.812420 
# 
# From -- ./inp_files/215780.got.cif
#   From: 2010.06.25/outbox.cif.g09.slc.cpg/sg15_108_cif.got.tgz:215780.got - 2010.06.28 07:06:18.
