data_PCOD8139373
_publ_section_title
;
Structure prediction by ZEFSAII (Michael W. Deem and Ramdas Pophale) SiO2 
 PCOD8139373
Probable space group: C 2/C
;
_chemical_formula_sum "Si O2"
_cell_formula_units_Z 44
_cell_length_a 12.785411
_cell_length_b 27.028165
_cell_length_c 7.649053
_cell_angle_alpha 90.000000
_cell_angle_beta 54.444367
_cell_angle_gamma 90.000000
_cell_volume 2150.422820
_symmetry_space_group_name_H-M "C 2/C"
_symmetry_group_IT_number 15
_symmetry_cell_setting 'monoclinic'
loop_
_space_group_symop_operation_xyz
x,y,z
-x,y,1/2-z
-x,-y,-z
x,-y,1/2+z
1/2+x,1/2+y,z
1/2-x,1/2+y,1/2-z
1/2-x,1/2-y,-z
1/2+x,1/2-y,1/2+z
loop_
_atom_site_type_symbol
_atom_site_label
_atom_site_fract_x
_atom_site_fract_y
_atom_site_fract_z
Si Si1 0.101355 0.062234 0.382367
Si Si2 0.328367 0.538007 0.577979
Si Si3 0.284912 0.340026 0.812850
Si Si4 0.000000 0.230014 0.250000
Si Si5 0.037951 0.693622 0.405599
Si Si6 0.890434 0.608298 0.734935
O O1 0.140523 0.118885 0.377013
O O2 0.950947 0.053886 0.579703
O O3 0.187849 0.021759 0.401977
O O4 0.133248 0.054482 0.149945
O O5 0.197198 0.565212 0.768711
O O6 0.378526 0.303724 0.825064
O O7 0.191495 0.315072 0.761438
O O8 0.197429 0.359297 0.054456
O O9 0.986017 0.263159 0.434086
O O10 0.000000 0.712149 0.250000
O O11 0.955797 0.643881 0.527617
O O12 0.000000 0.582934 0.750000
#
# Coordination Sequence:
#
# PCOD8139373 Si02
#       6
#     8   8   8   4   8   8
#     4   9  18  33  57  85 113 152 195 236 290 352
#     4   9  17  32  55  82 114 151 191 239 287 348
#     4  10  20  39  61  84 116 163 200 237 305 353
#     4  12  22  42  66  82 118 166 194 254 302 342
#     4  11  24  39  60  89 120 152 201 250 296 356
#     4   9  18  37  57  82 117 157 193 236 295 360
#
# _framework density 20.461091
#
# number of rings (size 3 to 8) (size 9 to 14) (size 15 to 20)
#    0.000    2.182    2.727    2.727    0.000    2.182 
#    0.000    9.091    8.000    0.000    0.000    0.000 
#    0.000    0.000    0.000    0.000    0.000    0.000 
#
# Total GULP energy -272587.141737 kJ/mol
# GULP energy per Si atom -12390.324624 kJ/mol
# Density = 2.041452 g / cm^3
# Si number density = 20.461091 Si / 1000 Ang^3
#
#
#
# Elastic Constant Matrix: (Units=GPa)
#
#
# Indices 1 2 3 4 5 6 
#
# 1 144.9893 63.8334 46.0903 0.0000 -16.1799 0.0000
# 2 63.8334 86.1328 35.9392 0.0000 -10.5949 0.0000
# 3 46.0903 35.9392 52.3684 0.0000 -14.5122 0.0000
# 4 0.0000 0.0000 0.0000 10.7094 0.0000 -3.9255
# 5 -16.1799 -10.5949 -14.5122 0.0000 29.7874 0.0000
# 6 0.0000 0.0000 0.0000 -3.9255 0.0000 47.9576
#
#
#
# Elastic Compliance Matrix: (Units=1/GPa)
#
#
# Indices 1 2 3 4 5 6 
#
# 1 0.011470 -0.005995 -0.005601 0.000000 0.001369 0.000000
# 2 -0.005995 0.019406 -0.008129 0.000000 -0.000314 0.000000
# 3 -0.005601 -0.008129 0.032323 0.000000 0.009814 0.000000
# 4 0.000000 0.000000 0.000000 0.096264 0.000000 0.007880
# 5 0.001369 -0.000314 0.009814 0.000000 0.038984 0.000000
# 6 0.000000 0.000000 0.000000 0.007880 0.000000 0.021497
#
#
# Mechanical properties :
#
#
# Convention : Reuss Voigt Hill
#
# Bulk Modulus (GPa) = 42.10616 63.91291 53.00954
# Shear Modulus (GPa) = 18.70488 26.86606 22.78547
#
# Velocity S-wave (km/s) = 3.02680 3.62751 3.34068
# Velocity P-wave (km/s) = 5.73051 6.98922 6.39093
#
# Compressibility (1/GPa) = 0.02374950
#
# Stress axis : x y z
#
# Youngs Moduli (GPa) = 87.18678 51.53106 30.93730
#
# Poissons Ratio (x) = 0.30891 0.17329
# Poissons Ratio (y) = 0.52266 0.25148
# Poissons Ratio (z) = 0.48836 0.41888
#
# Static dielectric constant tensor:
#      x y z
#    x 4.502850 0.000000 -0.518670 
#    y 0.000000 4.085540 0.000000 
#    z -0.518670 0.000000 3.854350 
# 
# 
# High freq. dielectric constant tensor:
#      x y z
#    x 1.800890 0.000000 -0.020340 
#    y 0.000000 1.798330 0.000000 
#    z -0.020340 0.000000 1.776500 
# 
# From -- ./inp_files/35059.got.cif
#   From: 2010.06.25/outbox.cif.g09.slc.cpg/sg15_18_cif.got.tgz:35059.got - 2010.06.28 07:06:18.
