data_PCOD8139698
_publ_section_title
;
Structure prediction by ZEFSAII (Michael W. Deem and Ramdas Pophale) SiO2 
 PCOD8139698
Probable space group: C 2/C
;
_chemical_formula_sum "Si O2"
_cell_formula_units_Z 32
_cell_length_a 10.742039
_cell_length_b 9.387196
_cell_length_c 13.002997
_cell_angle_alpha 90.000000
_cell_angle_beta 80.059030
_cell_angle_gamma 90.000000
_cell_volume 1291.505292
_symmetry_space_group_name_H-M "C 2/C"
_symmetry_group_IT_number 15
_symmetry_cell_setting 'monoclinic'
loop_
_space_group_symop_operation_xyz
x,y,z
-x,y,1/2-z
-x,-y,-z
x,-y,1/2+z
1/2+x,1/2+y,z
1/2-x,1/2+y,1/2-z
1/2-x,1/2-y,-z
1/2+x,1/2-y,1/2+z
loop_
_atom_site_type_symbol
_atom_site_label
_atom_site_fract_x
_atom_site_fract_y
_atom_site_fract_z
Si Si1 0.819585 0.023840 0.528667
Si Si2 0.351367 0.048344 0.284255
Si Si3 0.504765 0.340484 0.872149
Si Si4 0.230432 0.660130 0.866800
O O1 0.688727 0.049221 0.610155
O O2 0.924955 0.985603 0.600388
O O3 0.795611 0.880670 0.464663
O O4 0.866956 0.154453 0.449341
O O5 0.500000 0.036212 0.250000
O O6 0.308605 0.212244 0.301878
O O7 0.273389 0.983868 0.199986
O O8 0.500000 0.337904 0.750000
O O9 0.583669 0.205383 0.900608
#
# Coordination Sequence:
#
# PCOD8139698 Si02
#       4
#     8   8   8   8
#     4  10  22  41  68  97 129 176 220 264 327 392
#     4  11  25  42  66  99 133 172 220 271 325 388
#     4  10  20  39  67  95 127 167 217 268 318 382
#     4  11  24  44  66  97 134 172 221 270 324 390
#
# _framework density 24.777289
#
# number of rings (size 3 to 8) (size 9 to 14) (size 15 to 20)
#    0.000    1.500    0.000    6.750    0.000   10.000 
#    0.000   11.250    0.000    0.000    0.000    0.000 
#    0.000    0.000    0.000    0.000    0.000    0.000 
#
# Total GULP energy -198219.984971 kJ/mol
# GULP energy per Si atom -12388.749061 kJ/mol
# Density = 2.472089 g / cm^3
# Si number density = 24.777289 Si / 1000 Ang^3
#
#
#
# Elastic Constant Matrix: (Units=GPa)
#
#
# Indices 1 2 3 4 5 6 
#
# 1 123.0885 24.5969 72.6659 0.0000 -22.1457 0.0000
# 2 24.5969 42.8612 10.8941 0.0000 -3.7910 0.0000
# 3 72.6659 10.8941 115.6827 0.0000 -15.7746 0.0000
# 4 0.0000 0.0000 0.0000 17.1629 0.0000 11.0139
# 5 -22.1457 -3.7910 -15.7746 0.0000 55.4744 0.0000
# 6 0.0000 0.0000 0.0000 11.0139 0.0000 17.5568
#
#
#
# Elastic Compliance Matrix: (Units=1/GPa)
#
#
# Indices 1 2 3 4 5 6 
#
# 1 0.014809 -0.006112 -0.008299 0.000000 0.003134 0.000000
# 2 -0.006112 0.026483 0.001310 0.000000 -0.000258 0.000000
# 3 -0.008299 0.001310 0.013831 0.000000 0.000709 0.000000
# 4 0.000000 0.000000 0.000000 0.097528 0.000000 -0.061182
# 5 0.003134 -0.000258 0.000709 0.000000 0.019462 0.000000
# 6 0.000000 0.000000 0.000000 -0.061182 0.000000 0.095339
#
#
# Mechanical properties :
#
#
# Convention : Reuss Voigt Hill
#
# Bulk Modulus (GPa) = 34.57748 55.32735 44.95242
# Shear Modulus (GPa) = 16.48568 29.60385 23.04477
#
# Velocity S-wave (km/s) = 2.58225 3.46033 3.05302
# Velocity P-wave (km/s) = 4.78291 6.19222 5.53262
#
# Compressibility (1/GPa) = 0.02892056
#
# Stress axis : x y z
#
# Youngs Moduli (GPa) = 67.52649 37.76035 72.30200
#
# Poissons Ratio (x) = 0.23079 0.60006
# Poissons Ratio (y) = 0.41271 -0.09472
# Poissons Ratio (z) = 0.56042 -0.04947
#
# Static dielectric constant tensor:
#      x y z
#    x 4.608250 0.000000 -0.208010 
#    y 0.000000 4.184100 0.000000 
#    z -0.208010 0.000000 4.910260 
# 
# 
# High freq. dielectric constant tensor:
#      x y z
#    x 1.990520 0.000000 0.000950 
#    y 0.000000 1.963100 0.000000 
#    z 0.000950 0.000000 2.000250 
# 
# From -- ./inp_files/83819.got.cif
#   From: 2010.06.25/outbox.cif.g09.slc.cpg/sg15_42_cif.got.tgz:83819.got - 2010.06.28 07:06:18.
