data_PCOD8139764
_publ_section_title
;
Structure prediction by ZEFSAII (Michael W. Deem and Ramdas Pophale) SiO2 
 PCOD8139764
Probable space group: C 2/C
;
_chemical_formula_sum "Si O2"
_cell_formula_units_Z 40
_cell_length_a 18.781860
_cell_length_b 16.235419
_cell_length_c 11.778190
_cell_angle_alpha 90.000000
_cell_angle_beta 151.515786
_cell_angle_gamma 90.000000
_cell_volume 1712.864887
_symmetry_space_group_name_H-M "C 2/C"
_symmetry_group_IT_number 15
_symmetry_cell_setting 'monoclinic'
loop_
_space_group_symop_operation_xyz
x,y,z
-x,y,1/2-z
-x,-y,-z
x,-y,1/2+z
1/2+x,1/2+y,z
1/2-x,1/2+y,1/2-z
1/2-x,1/2-y,-z
1/2+x,1/2-y,1/2+z
loop_
_atom_site_type_symbol
_atom_site_label
_atom_site_fract_x
_atom_site_fract_y
_atom_site_fract_z
Si Si1 0.527480 0.596605 0.020240
Si Si2 0.189707 0.238943 0.788693
Si Si3 0.250894 0.573400 0.989722
Si Si4 0.597111 0.835715 0.073414
Si Si5 0.500000 0.035954 0.250000
Si Si6 0.500000 0.453264 0.250000
O O1 0.662398 0.625898 0.290980
O O2 0.500000 0.500000 0.000000
O O3 0.377746 0.648311 0.832157
O O4 0.563852 0.606700 0.937619
O O5 0.323199 0.241442 0.881634
O O6 0.059685 0.306385 0.591465
O O7 0.250000 0.250000 0.000000
O O8 0.197147 0.635955 0.818601
O O9 0.118515 0.523311 0.859512
O O10 0.362174 0.508767 0.091261
O O11 0.572904 0.908812 0.950036
#
# Coordination Sequence:
#
# PCOD8139764 Si02
#       6
#     8   8   8   8   4   4
#     4  10  23  42  72 102 138 187 246 298 361 438
#     4  12  26  46  70 105 146 193 242 300 371 449
#     4  11  24  44  69 109 144 189 245 310 365 432
#     4  12  26  45  74 103 152 192 243 307 371 444
#     4  12  24  45  70 111 148 188 248 306 376 441
#     4  10  20  39  76  99 140 186 246 296 358 439
#
# _framework density 23.352687
#
# number of rings (size 3 to 8) (size 9 to 14) (size 15 to 20)
#    0.000    0.800    2.000    6.600    2.800    2.400 
#    0.000    0.000    0.000    0.000    0.000    0.000 
#    0.000    0.000    0.000    0.000    0.000    0.000 
#
# Total GULP energy -247911.571274 kJ/mol
# GULP energy per Si atom -12395.578564 kJ/mol
# Density = 2.329954 g / cm^3
# Si number density = 23.352687 Si / 1000 Ang^3
#
#
#
# Elastic Constant Matrix: (Units=GPa)
#
#
# Indices 1 2 3 4 5 6 
#
# 1 -46.2939 49.9105 40.1088 0.0000 39.0245 0.0000
# 2 49.9105 63.8661 41.5065 0.0000 -17.9381 0.0000
# 3 40.1088 41.5065 170.1631 0.0000 -27.3390 0.0000
# 4 0.0000 0.0000 0.0000 43.7659 0.0000 4.0038
# 5 39.0245 -17.9381 -27.3390 0.0000 55.5529 0.0000
# 6 0.0000 0.0000 0.0000 4.0038 0.0000 40.8248
#
#
#
# Elastic Compliance Matrix: (Units=1/GPa)
#
#
# Indices 1 2 3 4 5 6 
#
# 1 -0.006887 0.006737 0.001202 0.000000 0.007604 0.000000
# 2 0.006737 0.012919 -0.005244 0.000000 -0.003141 0.000000
# 3 0.001202 -0.005244 0.007020 0.000000 0.000917 0.000000
# 4 0.000000 0.000000 0.000000 0.023056 0.000000 -0.002261
# 5 0.007604 -0.003141 0.000917 0.000000 0.012096 0.000000
# 6 0.000000 0.000000 0.000000 -0.002261 0.000000 0.024717
#
#
# Mechanical properties :
#
#
# Convention : Reuss Voigt Hill
#
# Bulk Modulus (GPa) = 54.22612 50.08742 52.15677
# Shear Modulus (GPa) = 67.86287 31.77603 49.81945
#
# Velocity S-wave (km/s) = 5.39658 3.69277 4.62383
# Velocity P-wave (km/s) = 7.88046 6.29896 7.13367
#
# Compressibility (1/GPa) = 0.01844130
#
# Stress axis : x y z
#
# Youngs Moduli (GPa) = -145.20836 77.40702 142.45264
#
# Poissons Ratio (x) = -0.52146 -0.17120
# Poissons Ratio (y) = 0.97822 0.74699
# Poissons Ratio (z) = 0.17451 0.40590
#
# Static dielectric constant tensor:
#      x y z
#    x 4.749610 0.000000 -0.404340 
#    y 0.000000 4.072280 0.000000 
#    z -0.404340 0.000000 5.100740 
# 
# 
# High freq. dielectric constant tensor:
#      x y z
#    x 1.935100 0.000000 -0.004650 
#    y 0.000000 1.913540 0.000000 
#    z -0.004650 0.000000 1.945130 
# 
# From -- ./inp_files/85820.got.cif
#   From: 2010.06.25/outbox.cif.g09.slc.cpg/sg15_43_cif.got.tgz:85820.got - 2010.06.28 07:06:18.
