data_PCOD8139887
_publ_section_title
;
Structure prediction by ZEFSAII (Michael W. Deem and Ramdas Pophale) SiO2 
 PCOD8139887
Probable space group: C 2/C
;
_chemical_formula_sum "Si O2"
_cell_formula_units_Z 44
_cell_length_a 9.589000
_cell_length_b 28.593603
_cell_length_c 8.291386
_cell_angle_alpha 90.000000
_cell_angle_beta 59.139544
_cell_angle_gamma 90.000000
_cell_volume 1951.500760
_symmetry_space_group_name_H-M "C 2/C"
_symmetry_group_IT_number 15
_symmetry_cell_setting 'monoclinic'
loop_
_space_group_symop_operation_xyz
x,y,z
-x,y,1/2-z
-x,-y,-z
x,-y,1/2+z
1/2+x,1/2+y,z
1/2-x,1/2+y,1/2-z
1/2-x,1/2-y,-z
1/2+x,1/2-y,1/2+z
loop_
_atom_site_type_symbol
_atom_site_label
_atom_site_fract_x
_atom_site_fract_y
_atom_site_fract_z
Si Si1 0.327691 0.476349 0.635330
Si Si2 0.740721 0.563503 0.976022
Si Si3 0.500000 0.865846 0.250000
Si Si4 0.549719 0.611848 0.541282
Si Si5 0.266823 0.300585 0.668251
Si Si6 0.566641 0.206386 0.963847
O O1 0.500000 0.500000 0.500000
O O2 0.201205 0.518031 0.665766
O O3 0.317158 0.430426 0.524922
O O4 0.315808 0.458431 0.823205
O O5 0.884643 0.600068 0.921245
O O6 0.600397 0.592478 0.971150
O O7 0.395284 0.833092 0.191934
O O8 0.500000 0.629078 0.750000
O O9 0.624796 0.653116 0.387873
O O10 0.390352 0.257845 0.626800
O O11 0.184156 0.301955 0.543001
O O12 0.124963 0.297619 0.884749
#
# Coordination Sequence:
#
# PCOD8139887 Si02
#       6
#     8   8   4   8   8   8
#     4  10  20  40  62  93 126 164 214 270 315 391
#     4  11  24  40  65  94 135 171 219 270 335 389
#     4  12  26  44  62 100 136 172 218 280 328 396
#     4  11  21  37  67  95 126 174 223 270 323 389
#     4  10  23  43  68  92 129 179 218 269 332 393
#     4  10  24  43  65  94 133 170 224 273 325 394
#
# _framework density 22.546748999999998
#
# number of rings (size 3 to 8) (size 9 to 14) (size 15 to 20)
#    0.000    1.455    0.000    6.545    7.636    1.455 
#    3.273    1.818    0.000    0.000    0.000    0.000 
#    0.000    0.000    0.000    0.000    0.000    0.000 
#
# Total GULP energy -272629.215192 kJ/mol
# GULP energy per Si atom -12392.237054 kJ/mol
# Density = 2.249543 g / cm^3
# Si number density = 22.546749 Si / 1000 Ang^3
#
#
#
# Elastic Constant Matrix: (Units=GPa)
#
#
# Indices 1 2 3 4 5 6 
#
# 1 47.9093 41.2504 31.5132 0.0000 -4.6211 0.0000
# 2 41.2504 186.0160 54.3015 0.0000 -18.7154 0.0000
# 3 31.5132 54.3015 118.2924 0.0000 0.7192 0.0000
# 4 0.0000 0.0000 0.0000 45.1534 0.0000 -3.8931
# 5 -4.6211 -18.7154 0.7192 0.0000 21.2802 0.0000
# 6 0.0000 0.0000 0.0000 -3.8931 0.0000 26.7616
#
#
#
# Elastic Compliance Matrix: (Units=1/GPa)
#
#
# Indices 1 2 3 4 5 6 
#
# 1 0.028638 -0.004469 -0.005593 0.000000 0.002478 0.000000
# 2 -0.004469 0.007640 -0.002352 0.000000 0.005828 0.000000
# 3 -0.005593 -0.002352 0.011045 0.000000 -0.003656 0.000000
# 4 0.000000 0.000000 0.000000 0.022428 0.000000 0.003263
# 5 0.002478 0.005828 -0.003656 0.000000 0.052779 0.000000
# 6 0.000000 0.000000 0.000000 0.003263 0.000000 0.037842
#
#
# Mechanical properties :
#
#
# Convention : Reuss Voigt Hill
#
# Bulk Modulus (GPa) = 44.45196 67.37200 55.91198
# Shear Modulus (GPa) = 25.94724 33.64922 29.79823
#
# Velocity S-wave (km/s) = 3.39605 3.86738 3.63935
# Velocity P-wave (km/s) = 5.92755 7.06315 6.52012
#
# Compressibility (1/GPa) = 0.02249620
#
# Stress axis : x y z
#
# Youngs Moduli (GPa) = 34.91832 130.89317 90.53473
#
# Poissons Ratio (x) = 0.58493 0.50636
# Poissons Ratio (y) = 0.15604 0.21294
# Poissons Ratio (z) = 0.19530 0.30786
#
# Static dielectric constant tensor:
#      x y z
#    x 3.858020 0.000000 -0.045180 
#    y 0.000000 5.029410 0.000000 
#    z -0.045180 0.000000 4.032580 
# 
# 
# High freq. dielectric constant tensor:
#      x y z
#    x 1.856290 0.000000 0.004450 
#    y 0.000000 1.920510 0.000000 
#    z 0.004450 0.000000 1.885240 
# 
# From -- ./inp_files/33987.got.cif
#   From: 2010.06.25/outbox.cif.g09.slc.cpg/sg15_17_cif.got.tgz:33987.got - 2010.06.28 07:06:18.
