data_PCOD8139483
_publ_section_title
;
Structure prediction by ZEFSAII (Michael W. Deem and Ramdas Pophale) SiO2 
 PCOD8139483
Probable space group: C 2/C
;
_chemical_formula_sum "Si O2"
_cell_formula_units_Z 60
_cell_length_a 23.248470
_cell_length_b 24.477477
_cell_length_c 8.618320
_cell_angle_alpha 90.000000
_cell_angle_beta 143.392451
_cell_angle_gamma 90.000000
_cell_volume 2924.628929
_symmetry_space_group_name_H-M "C 2/C"
_symmetry_group_IT_number 15
_symmetry_cell_setting 'monoclinic'
loop_
_space_group_symop_operation_xyz
x,y,z
-x,y,1/2-z
-x,-y,-z
x,-y,1/2+z
1/2+x,1/2+y,z
1/2-x,1/2+y,1/2-z
1/2-x,1/2-y,-z
1/2+x,1/2-y,1/2+z
loop_
_atom_site_type_symbol
_atom_site_label
_atom_site_fract_x
_atom_site_fract_y
_atom_site_fract_z
Si Si1 0.571345 0.488607 0.293447
Si Si2 0.549750 0.811478 0.121457
Si Si3 0.076190 0.433391 0.127600
Si Si4 0.666535 0.431417 0.245094
Si Si5 0.349169 0.317492 0.158212
Si Si6 0.127450 0.535123 0.397035
Si Si7 0.358412 0.791086 0.864061
Si Si8 0.500000 0.731597 0.750000
O O1 0.500000 0.452405 0.250000
O O2 0.660852 0.459405 0.405039
O O3 0.607586 0.540189 0.475958
O O4 0.500000 0.500000 0.000000
O O5 0.599619 0.869451 0.192484
O O6 0.607939 0.784007 0.386672
O O7 0.438370 0.821455 0.930858
O O8 0.558712 0.771394 0.993457
O O9 0.133123 0.469339 0.379730
O O10 0.112928 0.455783 0.045235
O O11 0.961257 0.441479 0.895946
O O12 0.624727 0.370874 0.183576
O O13 0.778566 0.431764 0.448973
O O14 0.346224 0.269700 0.276056
O O15 0.425988 0.306457 0.186319
O O16 0.241904 0.324215 0.854908
#
# Coordination Sequence:
#
# PCOD8139483 Si02
#       8
#     8   8   8   8   8   8   8   4
#     4   9  21  41  58  85 111 148 201 261 305 369
#     4  10  20  39  63  86 123 170 194 257 310 373
#     4  10  21  35  57  85 131 158 192 240 299 357
#     4  11  21  39  65  84 120 159 203 253 315 363
#     4  10  22  40  63  89 121 161 201 271 303 374
#     4  10  21  35  54  93 118 158 203 237 283 381
#     4   9  21  40  61  91 121 157 218 245 310 372
#     4  10  22  40  58  94 124 154 220 252 310 370
#
# _framework density 20.515422999999998
#
# number of rings (size 3 to 8) (size 9 to 14) (size 15 to 20)
#    0.000    2.133    0.000    2.400    0.933    9.067 
#   14.400    0.000    0.000    0.000    0.000    0.000 
#    0.000    0.000    0.000    0.000    0.000    0.000 
#
# Total GULP energy -371698.308003 kJ/mol
# GULP energy per Si atom -12389.943600 kJ/mol
# Density = 2.046873 g / cm^3
# Si number density = 20.515423 Si / 1000 Ang^3
#
#
#
# Elastic Constant Matrix: (Units=GPa)
#
#
# Indices 1 2 3 4 5 6 
#
# 1 120.2447 52.0363 50.4649 0.0000 -4.6837 0.0000
# 2 52.0363 118.1404 36.0327 0.0000 -10.3248 0.0000
# 3 50.4649 36.0327 83.3898 0.0000 -8.3862 0.0000
# 4 0.0000 0.0000 0.0000 23.3357 0.0000 -4.1976
# 5 -4.6837 -10.3248 -8.3862 0.0000 33.3074 0.0000
# 6 0.0000 0.0000 0.0000 -4.1976 0.0000 30.8055
#
#
#
# Elastic Compliance Matrix: (Units=1/GPa)
#
#
# Indices 1 2 3 4 5 6 
#
# 1 0.012404 -0.003716 -0.005993 0.000000 -0.000917 0.000000
# 2 -0.003716 0.010996 -0.002270 0.000000 0.002314 0.000000
# 3 -0.005993 -0.002270 0.016871 0.000000 0.002701 0.000000
# 4 0.000000 0.000000 0.000000 0.043929 0.000000 0.005986
# 5 -0.000917 0.002314 0.002701 0.000000 0.031292 0.000000
# 6 0.000000 0.000000 0.000000 0.005986 0.000000 0.033277
#
#
# Mechanical properties :
#
#
# Convention : Reuss Voigt Hill
#
# Bulk Modulus (GPa) = 61.29875 66.53806 63.91841
# Shear Modulus (GPa) = 28.06393 29.70579 28.88486
#
# Velocity S-wave (km/s) = 3.70258 3.80935 3.75635
# Velocity P-wave (km/s) = 6.94428 7.20082 7.07371
#
# Compressibility (1/GPa) = 0.01631355
#
# Stress axis : x y z
#
# Youngs Moduli (GPa) = 80.62037 90.94477 59.27266
#
# Poissons Ratio (x) = 0.33792 0.35522
# Poissons Ratio (y) = 0.29955 0.13454
# Poissons Ratio (z) = 0.48316 0.20644
#
# Static dielectric constant tensor:
#      x y z
#    x 2.828270 0.000000 0.397190 
#    y 0.000000 3.702890 0.000000 
#    z 0.397190 0.000000 3.667730 
# 
# 
# High freq. dielectric constant tensor:
#      x y z
#    x 1.818510 0.000000 -0.003660 
#    y 0.000000 1.785860 0.000000 
#    z -0.003660 0.000000 1.796900 
# 
# From -- ./inp_files/63932.got.cif
#   From: 2010.06.25/outbox.cif.g09.slc.cpg/sg15_32_cif.got.tgz:63932.got - 2010.06.28 07:06:18.
