data_PCOD8139205
_publ_section_title
;
Structure prediction by ZEFSAII (Michael W. Deem and Ramdas Pophale) SiO2 
 PCOD8139205
Probable space group: C 2/C
;
_chemical_formula_sum "Si O2"
_cell_formula_units_Z 32
_cell_length_a 17.503759
_cell_length_b 17.762649
_cell_length_c 13.032426
_cell_angle_alpha 90.000000
_cell_angle_beta 22.681911
_cell_angle_gamma 90.000000
_cell_volume 1562.492648
_symmetry_space_group_name_H-M "C 2/C"
_symmetry_group_IT_number 15
_symmetry_cell_setting 'monoclinic'
loop_
_space_group_symop_operation_xyz
x,y,z
-x,y,1/2-z
-x,-y,-z
x,-y,1/2+z
1/2+x,1/2+y,z
1/2-x,1/2+y,1/2-z
1/2-x,1/2-y,-z
1/2+x,1/2-y,1/2+z
loop_
_atom_site_type_symbol
_atom_site_label
_atom_site_fract_x
_atom_site_fract_y
_atom_site_fract_z
Si Si1 0.287188 0.184634 0.035899
Si Si2 0.477318 0.411970 0.016835
Si Si3 0.568716 0.152719 0.057699
Si Si4 0.278790 0.690009 0.158112
O O1 0.500000 0.145707 0.750000
O O2 0.250000 0.250000 0.000000
O O3 0.303885 0.220763 0.129642
O O4 0.112585 0.121012 0.254843
O O5 0.246876 0.394006 0.285568
O O6 0.500000 0.500000 0.000000
O O7 0.549880 0.372017 0.033081
O O8 0.500000 0.114823 0.250000
O O9 0.392473 0.150913 0.194553
O O10 0.634833 0.237441 0.005836
#
# Coordination Sequence:
#
# PCOD8139205 Si02
#       4
#     8   8   8   8
#     4  10  20  38  67  91 129 168 225 263 326 393
#     4  10  25  42  63  97 141 164 220 289 328 378
#     4  12  22  39  71  92 126 172 218 267 329 403
#     4  10  22  38  68  97 127 162 228 266 323 397
#
# _framework density 20.480096
#
# number of rings (size 3 to 8) (size 9 to 14) (size 15 to 20)
#    1.500    0.000    2.500    3.750    0.000    2.000 
#    0.000    0.000   22.000    0.000    0.000    0.000 
#    0.000    0.000    0.000    0.000    0.000    0.000 
#
# Total GULP energy -198263.960639 kJ/mol
# GULP energy per Si atom -12391.497540 kJ/mol
# Density = 2.043348 g / cm^3
# Si number density = 20.480096 Si / 1000 Ang^3
#
#
#
# Elastic Constant Matrix: (Units=GPa)
#
#
# Indices 1 2 3 4 5 6 
#
# 1 103.0306 -0.4833 14.8355 0.0020 -2.7177 -0.0030
# 2 -0.4833 102.2716 11.2532 -0.0187 3.4858 0.0002
# 3 14.8355 11.2532 96.9313 -0.0298 8.3990 -0.0139
# 4 0.0020 -0.0187 -0.0298 23.1972 -0.0153 -1.8622
# 5 -2.7177 3.4858 8.3990 -0.0153 38.1001 0.0146
# 6 -0.0030 0.0002 -0.0139 -1.8622 0.0146 22.1111
#
#
#
# Elastic Compliance Matrix: (Units=1/GPa)
#
#
# Indices 1 2 3 4 5 6 
#
# 1 0.009971 0.000192 -0.001640 -0.000002 0.001055 -0.000001
# 2 0.000192 0.009925 -0.001126 0.000006 -0.000646 0.000000
# 3 -0.001640 -0.001126 0.010908 0.000012 -0.002419 0.000009
# 4 -0.000002 0.000006 0.000012 0.043402 0.000013 0.003655
# 5 0.001055 -0.000646 -0.002419 0.000013 0.026914 -0.000018
# 6 -0.000001 0.000000 0.000009 0.003655 -0.000018 0.045534
#
#
# Mechanical properties :
#
#
# Convention : Reuss Voigt Hill
#
# Bulk Modulus (GPa) = 38.97750 39.27160 39.12455
# Shear Modulus (GPa) = 31.18128 35.12356 33.15242
#
# Velocity S-wave (km/s) = 3.90618 4.14576 4.02775
# Velocity P-wave (km/s) = 6.27834 6.49104 6.38557
#
# Compressibility (1/GPa) = 0.02565583
#
# Stress axis : x y z
#
# Youngs Moduli (GPa) = 100.29397 100.75910 91.67765
#
# Poissons Ratio (x) = -0.01930 0.15032
# Poissons Ratio (y) = -0.01921 0.10319
# Poissons Ratio (z) = 0.16445 0.11341
#
# Static dielectric constant tensor:
#      x y z
#    x 3.589690 0.000010 -0.191560 
#    y 0.000010 3.208310 -0.000020 
#    z -0.191560 -0.000020 4.178750 
# 
# 
# High freq. dielectric constant tensor:
#      x y z
#    x 1.791380 0.000000 -0.009610 
#    y 0.000000 1.757650 0.000000 
#    z -0.009610 0.000000 1.821850 
# 
# From -- ./inp_files/98032.got.cif
#   From: 2010.06.25/outbox.cif.g09.slc.cpg/sg15_50_cif.got.tgz:98032.got - 2010.06.28 07:06:18.
