data_PCOD8139324
_publ_section_title
;
Structure prediction by ZEFSAII (Michael W. Deem and Ramdas Pophale) SiO2 
 PCOD8139324
Probable space group: C 2/C
;
_chemical_formula_sum "Si O2"
_cell_formula_units_Z 56
_cell_length_a 18.904231
_cell_length_b 18.316859
_cell_length_c 9.793179
_cell_angle_alpha 90.000000
_cell_angle_beta 124.155779
_cell_angle_gamma 90.000000
_cell_volume 2806.138721
_symmetry_space_group_name_H-M "C 2/C"
_symmetry_group_IT_number 15
_symmetry_cell_setting 'monoclinic'
loop_
_space_group_symop_operation_xyz
x,y,z
-x,y,1/2-z
-x,-y,-z
x,-y,1/2+z
1/2+x,1/2+y,z
1/2-x,1/2+y,1/2-z
1/2-x,1/2-y,-z
1/2+x,1/2-y,1/2+z
loop_
_atom_site_type_symbol
_atom_site_label
_atom_site_fract_x
_atom_site_fract_y
_atom_site_fract_z
Si Si1 0.835200 0.486296 0.866798
Si Si2 0.397683 0.425629 0.249692
Si Si3 0.594637 0.924512 0.823871
Si Si4 0.317566 0.784875 0.470731
Si Si5 0.763900 0.120504 0.824414
Si Si6 0.082861 0.149014 0.983729
Si Si7 0.830080 0.918224 0.682798
O O1 0.893380 0.441081 0.823942
O O2 0.809340 0.559290 0.757300
O O3 0.752444 0.441288 0.821122
O O4 0.887646 0.505012 0.061072
O O5 0.341083 0.403805 0.313689
O O6 0.360420 0.396324 0.065189
O O7 0.487947 0.384569 0.370910
O O8 0.395477 0.513597 0.230099
O O9 0.500000 0.896587 0.750000
O O10 0.658753 0.860890 0.934343
O O11 0.250000 0.750000 0.500000
O O12 0.273785 0.803023 0.275197
O O13 0.401967 0.734355 0.538354
O O14 0.801990 0.125497 0.017354
O O15 0.117607 0.140108 0.173197
#
# Coordination Sequence:
#
# PCOD8139324 Si02
#       7
#     8   8   8   8   8   8   8
#     4  10  20  39  59  95 119 152 205 261 306 368
#     4  10  21  37  61  89 124 158 211 262 308 364
#     4  11  23  38  66  89 122 157 202 260 314 365
#     4  11  23  40  63  88 122 172 213 245 313 391
#     4  10  21  37  63  89 123 162 209 257 313 382
#     4  11  23  37  59  90 127 162 209 257 308 382
#     4  11  21  37  63  91 125 160 206 263 321 354
#
# _framework density 19.956249
#
# number of rings (size 3 to 8) (size 9 to 14) (size 15 to 20)
#    0.000    1.429    2.857    3.429    4.000    2.286 
#    0.000    0.000    0.000    1.714    0.000    0.000 
#    0.000    0.000    0.000    0.000    0.000    0.000 
#
# Total GULP energy -346954.869069 kJ/mol
# GULP energy per Si atom -12391.245324 kJ/mol
# Density = 1.991083 g / cm^3
# Si number density = 19.956249 Si / 1000 Ang^3
#
#
#
# Elastic Constant Matrix: (Units=GPa)
#
#
# Indices 1 2 3 4 5 6 
#
# 1 91.3679 38.0530 36.8578 0.0000 -4.0311 0.0000
# 2 38.0530 81.0568 29.0512 0.0000 -6.2244 0.0000
# 3 36.8578 29.0512 113.6696 0.0000 -14.0472 0.0000
# 4 0.0000 0.0000 0.0000 31.5309 0.0000 3.8607
# 5 -4.0311 -6.2244 -14.0472 0.0000 30.4832 0.0000
# 6 0.0000 0.0000 0.0000 3.8607 0.0000 20.3851
#
#
#
# Elastic Compliance Matrix: (Units=1/GPa)
#
#
# Indices 1 2 3 4 5 6 
#
# 1 0.014663 -0.005730 -0.003388 0.000000 -0.000792 0.000000
# 2 -0.005730 0.015865 -0.002004 0.000000 0.001558 0.000000
# 3 -0.003388 -0.002004 0.010924 0.000000 0.004177 0.000000
# 4 0.000000 0.000000 0.000000 0.032468 0.000000 -0.006149
# 5 -0.000792 0.001558 0.004177 0.000000 0.034943 0.000000
# 6 0.000000 0.000000 0.000000 -0.006149 0.000000 0.050220
#
#
# Mechanical properties :
#
#
# Convention : Reuss Voigt Hill
#
# Bulk Modulus (GPa) = 52.06206 54.89092 53.47649
# Shear Modulus (GPa) = 26.63386 28.62199 27.62793
#
# Velocity S-wave (km/s) = 3.65720 3.79124 3.72482
# Velocity P-wave (km/s) = 6.63161 6.83594 6.73455
#
# Compressibility (1/GPa) = 0.01920785
#
# Stress axis : x y z
#
# Youngs Moduli (GPa) = 68.19853 63.03136 91.53865
#
# Poissons Ratio (x) = 0.36119 0.31013
# Poissons Ratio (y) = 0.39080 0.18345
# Poissons Ratio (z) = 0.23105 0.12632
#
# Static dielectric constant tensor:
#      x y z
#    x 3.615820 0.000000 -0.129430 
#    y 0.000000 3.649220 0.000000 
#    z -0.129430 0.000000 3.890480 
# 
# 
# High freq. dielectric constant tensor:
#      x y z
#    x 1.775350 0.000000 -0.007730 
#    y 0.000000 1.759400 0.000000 
#    z -0.007730 0.000000 1.785920 
# 
# From -- ./inp_files/57578.got.cif
#   From: 2010.06.25/outbox.cif.g09.slc.cpg/sg15_29_cif.got.tgz:57578.got - 2010.06.28 07:06:18.
