data_PCOD8139118
_publ_section_title
;
Structure prediction by ZEFSAII (Michael W. Deem and Ramdas Pophale) SiO2 
 PCOD8139118
Probable space group: C 2/C
;
_chemical_formula_sum "Si O2"
_cell_formula_units_Z 64
_cell_length_a 9.202210
_cell_length_b 14.991628
_cell_length_c 31.606152
_cell_angle_alpha 90.000000
_cell_angle_beta 46.840182
_cell_angle_gamma 90.000000
_cell_volume 3180.586512
_symmetry_space_group_name_H-M "C 2/C"
_symmetry_group_IT_number 15
_symmetry_cell_setting 'monoclinic'
loop_
_space_group_symop_operation_xyz
x,y,z
-x,y,1/2-z
-x,-y,-z
x,-y,1/2+z
1/2+x,1/2+y,z
1/2-x,1/2+y,1/2-z
1/2-x,1/2-y,-z
1/2+x,1/2-y,1/2+z
loop_
_atom_site_type_symbol
_atom_site_label
_atom_site_fract_x
_atom_site_fract_y
_atom_site_fract_z
Si Si1 0.578862 0.975353 0.939142
Si Si2 0.946651 0.791187 0.213203
Si Si3 0.125805 0.663394 0.905892
Si Si4 0.140023 0.284758 0.115651
Si Si5 0.093142 0.105387 0.167186
Si Si6 0.808229 0.401140 0.710548
Si Si7 0.939025 0.708530 0.483610
Si Si8 0.438188 0.916361 0.213996
O O1 0.817098 0.951260 0.890254
O O2 0.469093 0.882342 0.950192
O O3 0.548134 0.060950 0.915134
O O4 0.500000 0.000000 0.000000
O O5 0.886242 0.698216 0.203466
O O6 0.774450 0.866330 0.248281
O O7 0.000000 0.765959 0.250000
O O8 0.140177 0.830512 0.151141
O O9 0.989753 0.720735 0.901526
O O10 0.094638 0.694014 0.960067
O O11 0.059074 0.207281 0.161875
O O12 0.372747 0.274311 0.058776
O O13 0.102834 0.372986 0.150396
O O14 0.258706 0.094934 0.170977
O O15 0.882828 0.070055 0.223841
O O16 0.953355 0.480902 0.695395
O O17 0.750000 0.750000 0.500000
O O18 0.500000 0.908568 0.250000
#
# Coordination Sequence:
#
# PCOD8139118 Si02
#       8
#     8   8   8   8   8   8   8   8
#     4   9  20  39  62  90 123 164 218 262 312 393
#     4  12  24  41  64  97 133 169 221 262 327 396
#     4  11  22  41  68  93 127 171 221 268 319 391
#     4  11  22  42  64  94 129 168 218 266 327 387
#     4  10  20  38  65  91 126 172 213 261 335 390
#     4  11  23  38  63  93 133 169 215 266 326 397
#     4  10  24  42  68  94 125 171 219 272 330 384
#     4  12  25  39  62  94 133 171 212 274 329 389
#
# _framework density 20.122074000000001
#
# number of rings (size 3 to 8) (size 9 to 14) (size 15 to 20)
#    0.000    1.250    2.500    3.000    7.000    0.000 
#    0.000    0.625    2.750    0.000    0.000    0.000 
#    0.000    0.000    0.000    0.000    0.000    0.000 
#
# Total GULP energy -396511.591727 kJ/mol
# GULP energy per Si atom -12390.987241 kJ/mol
# Density = 2.007628 g / cm^3
# Si number density = 20.122074 Si / 1000 Ang^3
#
#
#
# Elastic Constant Matrix: (Units=GPa)
#
#
# Indices 1 2 3 4 5 6 
#
# 1 99.4917 37.2231 35.5061 0.0000 -1.7278 0.0005
# 2 37.2231 112.7380 46.0913 0.0000 -4.8470 0.0003
# 3 35.5061 46.0913 128.9270 0.0001 -6.5666 0.0010
# 4 0.0000 0.0000 0.0001 35.9210 0.0004 4.4586
# 5 -1.7278 -4.8470 -6.5666 0.0004 31.2157 -0.0008
# 6 0.0005 0.0003 0.0010 4.4586 -0.0008 24.7047
#
#
#
# Elastic Compliance Matrix: (Units=1/GPa)
#
#
# Indices 1 2 3 4 5 6 
#
# 1 0.011984 -0.003061 -0.002220 0.000000 -0.000279 0.000000
# 2 -0.003061 0.011192 -0.003112 0.000000 0.000914 0.000000
# 3 -0.002220 -0.003112 0.009552 0.000000 0.001403 0.000000
# 4 0.000000 0.000000 0.000000 0.028477 0.000000 -0.005139
# 5 -0.000279 0.000914 0.001403 0.000000 0.032457 0.000001
# 6 0.000000 0.000000 0.000000 -0.005139 0.000001 0.041406
#
#
# Mechanical properties :
#
#
# Convention : Reuss Voigt Hill
#
# Bulk Modulus (GPa) = 62.72778 64.31084 63.51931
# Shear Modulus (GPa) = 31.81338 33.19072 32.50205
#
# Velocity S-wave (km/s) = 3.98052 4.06577 4.02337
# Velocity P-wave (km/s) = 7.23653 7.35326 7.29512
#
# Compressibility (1/GPa) = 0.01594190
#
# Stress axis : x y z
#
# Youngs Moduli (GPa) = 83.44589 89.34760 104.69397
#
# Poissons Ratio (x) = 0.27350 0.23244
# Poissons Ratio (y) = 0.25543 0.32577
# Poissons Ratio (z) = 0.18527 0.27802
#
# Static dielectric constant tensor:
#      x y z
#    x 3.480250 0.000000 0.024940 
#    y 0.000000 4.010550 0.000010 
#    z 0.024940 0.000010 3.985160 
# 
# 
# High freq. dielectric constant tensor:
#      x y z
#    x 1.759850 0.000000 0.004460 
#    y 0.000000 1.798840 0.000000 
#    z 0.004460 0.000000 1.811600 
# 
# From -- ./inp_files/308266.got.cif
#   From: 2010.06.25/outbox.cif.g09.slc.cpg/sg15_155_cif.got.tgz:308266.got - 2010.06.28 07:06:18.
