data_PCOD8139729
_publ_section_title
;
Structure prediction by ZEFSAII (Michael W. Deem and Ramdas Pophale) SiO2 
 PCOD8139729
Probable space group: C 2/C
;
_chemical_formula_sum "Si O2"
_cell_formula_units_Z 48
_cell_length_a 13.862766
_cell_length_b 11.850133
_cell_length_c 15.380390
_cell_angle_alpha 90.000000
_cell_angle_beta 61.063074
_cell_angle_gamma 90.000000
_cell_volume 2211.181495
_symmetry_space_group_name_H-M "C 2/C"
_symmetry_group_IT_number 15
_symmetry_cell_setting 'monoclinic'
loop_
_space_group_symop_operation_xyz
x,y,z
-x,y,1/2-z
-x,-y,-z
x,-y,1/2+z
1/2+x,1/2+y,z
1/2-x,1/2+y,1/2-z
1/2-x,1/2-y,-z
1/2+x,1/2-y,1/2+z
loop_
_atom_site_type_symbol
_atom_site_label
_atom_site_fract_x
_atom_site_fract_y
_atom_site_fract_z
Si Si1 0.934473 0.608649 0.999937
Si Si2 0.705588 0.471102 0.532039
Si Si3 0.861305 0.129139 0.074687
Si Si4 0.831872 0.194819 0.844243
Si Si5 0.474059 0.273050 0.125334
Si Si6 0.509120 0.305223 0.645192
O O1 0.001305 0.688230 0.903908
O O2 0.824334 0.577814 0.998278
O O3 0.914944 0.671656 0.099965
O O4 0.000000 0.500000 0.000000
O O5 0.701280 0.518335 0.434108
O O6 0.679669 0.571136 0.610253
O O7 0.623100 0.367587 0.577906
O O8 0.782813 0.238686 0.100565
O O9 0.905674 0.118398 0.154755
O O10 0.973081 0.140332 0.967327
O O11 0.876468 0.174440 0.726847
O O12 0.923366 0.266395 0.858280
O O13 0.500000 0.278669 0.750000
#
# Coordination Sequence:
#
# PCOD8139729 Si02
#       6
#     8   8   8   8   8   8
#     4  11  23  46  66  93 135 180 216 278 341 398
#     4  11  22  40  69  95 132 176 222 272 340 391
#     4  10  21  42  65  93 132 178 216 275 332 402
#     4  10  20  39  68  97 126 172 231 269 325 410
#     4   9  20  37  64  96 129 163 220 273 320 396
#     4  11  26  43  63  96 138 167 223 279 337 400
#
# _framework density 21.707851999999999
#
# number of rings (size 3 to 8) (size 9 to 14) (size 15 to 20)
#    0.000    1.667    0.000    6.000    7.000    0.000 
#    6.000    0.000    0.000    0.000    0.000    0.000 
#    0.000    0.000    0.000    0.000    0.000    0.000 
#
# Total GULP energy -297412.882848 kJ/mol
# GULP energy per Si atom -12392.203452 kJ/mol
# Density = 2.165844 g / cm^3
# Si number density = 21.707852 Si / 1000 Ang^3
#
#
#
# Elastic Constant Matrix: (Units=GPa)
#
#
# Indices 1 2 3 4 5 6 
#
# 1 121.0880 32.3658 28.0250 0.0000 21.6155 0.0000
# 2 32.3658 75.5269 22.4873 0.0000 11.0574 0.0000
# 3 28.0250 22.4873 102.8764 0.0000 21.8361 0.0000
# 4 0.0000 0.0000 0.0000 24.4024 0.0000 6.6995
# 5 21.6155 11.0574 21.8361 0.0000 36.3062 0.0000
# 6 0.0000 0.0000 0.0000 6.6995 0.0000 33.4266
#
#
#
# Elastic Compliance Matrix: (Units=1/GPa)
#
#
# Indices 1 2 3 4 5 6 
#
# 1 0.010205 -0.003403 -0.001108 0.000000 -0.004373 0.000000
# 2 -0.003403 0.015551 -0.002175 0.000000 -0.001402 0.000000
# 3 -0.001108 -0.002175 0.011712 0.000000 -0.005722 0.000000
# 4 0.000000 0.000000 0.000000 0.043366 0.000000 -0.008692
# 5 -0.004373 -0.001402 -0.005722 0.000000 0.034016 0.000000
# 6 0.000000 0.000000 0.000000 -0.008692 0.000000 0.031658
#
#
# Mechanical properties :
#
#
# Convention : Reuss Voigt Hill
#
# Bulk Modulus (GPa) = 41.49838 51.69416 46.59627
# Shear Modulus (GPa) = 29.77743 33.26790 31.52267
#
# Velocity S-wave (km/s) = 3.70771 3.91900 3.81482
# Velocity P-wave (km/s) = 6.12273 6.65908 6.39653
#
# Compressibility (1/GPa) = 0.02409733
#
# Stress axis : x y z
#
# Youngs Moduli (GPa) = 97.98989 64.30268 85.38144
#
# Poissons Ratio (x) = 0.21883 0.09460
# Poissons Ratio (y) = 0.33347 0.18567
# Poissons Ratio (z) = 0.10857 0.13983
#
# Static dielectric constant tensor:
#      x y z
#    x 4.491680 0.000000 0.439020 
#    y 0.000000 3.892660 0.000000 
#    z 0.439020 0.000000 4.049160 
# 
# 
# High freq. dielectric constant tensor:
#      x y z
#    x 1.872120 0.000000 0.020580 
#    y 0.000000 1.835000 0.000000 
#    z 0.020580 0.000000 1.841480 
# 
# From -- ./inp_files/151829.got.cif
#   From: 2010.06.25/outbox.cif.g09.slc.cpg/sg15_76_cif.got.tgz:151829.got - 2010.06.28 07:06:18.
