data_PCOD8139008
_publ_section_title
;
Structure prediction by ZEFSAII (Michael W. Deem and Ramdas Pophale) SiO2 
 PCOD8139008
Probable space group: C 2/C
;
_chemical_formula_sum "Si O2"
_cell_formula_units_Z 56
_cell_length_a 8.880350
_cell_length_b 30.962478
_cell_length_c 14.655779
_cell_angle_alpha 90.000000
_cell_angle_beta 133.398731
_cell_angle_gamma 90.000000
_cell_volume 2927.952664
_symmetry_space_group_name_H-M "C 2/C"
_symmetry_group_IT_number 15
_symmetry_cell_setting 'monoclinic'
loop_
_space_group_symop_operation_xyz
x,y,z
-x,y,1/2-z
-x,-y,-z
x,-y,1/2+z
1/2+x,1/2+y,z
1/2-x,1/2+y,1/2-z
1/2-x,1/2-y,-z
1/2+x,1/2-y,1/2+z
loop_
_atom_site_type_symbol
_atom_site_label
_atom_site_fract_x
_atom_site_fract_y
_atom_site_fract_z
Si Si1 0.739115 0.218473 0.377121
Si Si2 0.095087 0.306313 0.003399
Si Si3 0.681606 0.331571 0.753970
Si Si4 0.500000 0.071558 0.750000
Si Si5 0.566501 0.101230 0.581537
Si Si6 0.000000 0.054453 0.750000
Si Si7 0.773878 0.927150 0.699108
Si Si8 0.641561 0.493841 0.145165
O O1 0.500000 0.222001 0.250000
O O2 0.847146 0.265092 0.411831
O O3 0.754421 0.196252 0.483574
O O4 0.875279 0.188032 0.367717
O O5 0.862682 0.301892 0.869983
O O6 0.101804 0.349819 0.064740
O O7 0.500000 0.330097 0.750000
O O8 0.748038 0.380766 0.761644
O O9 0.481441 0.100888 0.650665
O O10 0.695349 0.041254 0.818443
O O11 0.405237 0.072902 0.453519
O O12 0.792980 0.081871 0.667514
O O13 0.985757 0.024201 0.656172
O O14 0.000000 0.933233 0.750000
O O15 0.742397 0.963751 0.764103
O O16 0.500000 0.500000 0.000000
#
# Coordination Sequence:
#
# PCOD8139008 Si02
#       8
#     8   8   8   4   8   4   8   8
#     4   9  18  35  58  85 115 147 195 236 288 351
#     4   9  19  36  59  81 113 158 188 238 289 352
#     4   9  19  35  56  87 115 144 194 240 288 355
#     4  10  24  38  56  86 120 154 194 252 288 360
#     4  10  22  41  60  86 122 156 202 244 305 352
#     4  10  24  38  58  86 118 158 200 250 290 366
#     4  10  20  38  64  82 115 160 195 248 303 351
#     4  11  23  38  59  87 117 154 203 245 304 354
#
# _framework density 19.125993000000001
#
# number of rings (size 3 to 8) (size 9 to 14) (size 15 to 20)
#    0.000    2.286    0.714    0.857    3.000    2.857 
#    5.143    2.857    0.000    0.000    0.000    0.000 
#    0.000    0.000    0.000    0.000    0.000    0.000 
#
# Total GULP energy -346950.646729 kJ/mol
# GULP energy per Si atom -12391.094526 kJ/mol
# Density = 1.908246 g / cm^3
# Si number density = 19.125993 Si / 1000 Ang^3
#
#
#
# Elastic Constant Matrix: (Units=GPa)
#
#
# Indices 1 2 3 4 5 6 
#
# 1 100.2023 55.8353 46.7931 0.0000 -19.9413 0.0000
# 2 55.8353 114.6250 54.3396 0.0000 -25.2534 0.0000
# 3 46.7931 54.3396 108.4753 0.0000 -22.2081 0.0000
# 4 0.0000 0.0000 0.0000 33.1153 0.0000 -12.0255
# 5 -19.9413 -25.2534 -22.2081 0.0000 34.6139 0.0000
# 6 0.0000 0.0000 0.0000 -12.0255 0.0000 17.0848
#
#
#
# Elastic Compliance Matrix: (Units=1/GPa)
#
#
# Indices 1 2 3 4 5 6 
#
# 1 0.014911 -0.005082 -0.003323 0.000000 0.002750 0.000000
# 2 -0.005082 0.014114 -0.003879 0.000000 0.004881 0.000000
# 3 -0.003323 -0.003879 0.013382 0.000000 0.003841 0.000000
# 4 0.000000 0.000000 0.000000 0.040566 0.000000 0.028554
# 5 0.002750 0.004881 0.003841 0.000000 0.036500 0.000000
# 6 0.000000 0.000000 0.000000 0.028554 0.000000 0.078630
#
#
# Mechanical properties :
#
#
# Convention : Reuss Voigt Hill
#
# Bulk Modulus (GPa) = 56.05882 70.80430 63.43156
# Shear Modulus (GPa) = 21.87073 28.05178 24.96125
#
# Velocity S-wave (km/s) = 3.38525 3.83388 3.61653
# Velocity P-wave (km/s) = 6.68235 7.52984 7.11872
#
# Compressibility (1/GPa) = 0.01783841
#
# Stress axis : x y z
#
# Youngs Moduli (GPa) = 67.06526 70.85394 74.72914
#
# Poissons Ratio (x) = 0.36007 0.24835
# Poissons Ratio (y) = 0.34082 0.28985
# Poissons Ratio (z) = 0.22288 0.27482
#
# Static dielectric constant tensor:
#      x y z
#    x 4.785190 0.000000 -0.179060 
#    y 0.000000 3.644490 0.000000 
#    z -0.179060 0.000000 3.539250 
# 
# 
# High freq. dielectric constant tensor:
#      x y z
#    x 1.746110 0.000000 -0.007180 
#    y 0.000000 1.745110 0.000000 
#    z -0.007180 0.000000 1.744250 
# 
# From -- ./inp_files/139600.got.cif
#   From: 2010.06.25/outbox.cif.g09.slc.cpg/sg15_70_cif.got.tgz:139600.got - 2010.06.28 07:06:18.
