data_PCOD8139407
_publ_section_title
;
Structure prediction by ZEFSAII (Michael W. Deem and Ramdas Pophale) SiO2 
 PCOD8139407
Probable space group: C 2/C
;
_chemical_formula_sum "Si O2"
_cell_formula_units_Z 40
_cell_length_a 10.382124
_cell_length_b 17.210219
_cell_length_c 14.805421
_cell_angle_alpha 90.000000
_cell_angle_beta 137.457691
_cell_angle_gamma 90.000000
_cell_volume 1788.654401
_symmetry_space_group_name_H-M "C 2/C"
_symmetry_group_IT_number 15
_symmetry_cell_setting 'monoclinic'
loop_
_space_group_symop_operation_xyz
x,y,z
-x,y,1/2-z
-x,-y,-z
x,-y,1/2+z
1/2+x,1/2+y,z
1/2-x,1/2+y,1/2-z
1/2-x,1/2-y,-z
1/2+x,1/2-y,1/2+z
loop_
_atom_site_type_symbol
_atom_site_label
_atom_site_fract_x
_atom_site_fract_y
_atom_site_fract_z
Si Si1 0.244005 0.530429 0.440130
Si Si2 0.815911 0.803041 0.202173
Si Si3 0.334603 0.447914 0.316494
Si Si4 0.304589 0.045111 0.407150
Si Si5 0.499637 0.834527 0.903019
O O1 0.195232 0.488707 0.319053
O O2 0.454113 0.567746 0.535960
O O3 0.258704 0.461078 0.521601
O O4 0.095452 0.597792 0.391150
O O5 0.743232 0.864691 0.239715
O O6 0.000000 0.842702 0.250000
O O7 0.880848 0.721174 0.276448
O O8 0.657358 0.788132 0.043107
O O9 0.348724 0.503819 0.236807
O O10 0.343269 0.132455 0.392920
O O11 0.500000 0.000000 0.500000
#
# Coordination Sequence:
#
# PCOD8139407 Si02
#       5
#     8   8   8   8   8
#     4  10  22  39  65  95 123 170 221 274 315 398
#     4  12  23  41  62  96 137 169 210 280 328 390
#     4  11  21  38  65  93 128 167 221 260 339 379
#     4  10  20  39  61  91 128 166 219 269 316 389
#     4  11  25  40  66  99 133 170 221 272 337 388
#
# _framework density 22.36318
#
# number of rings (size 3 to 8) (size 9 to 14) (size 15 to 20)
#    0.000    1.200    6.000    1.200    2.800    4.000 
#    0.000    1.000    0.000    0.000    0.000    0.000 
#    0.000    0.000    0.000    0.000    0.000    0.000 
#
# Total GULP energy -247890.028351 kJ/mol
# GULP energy per Si atom -12394.501418 kJ/mol
# Density = 2.231228 g / cm^3
# Si number density = 22.363180 Si / 1000 Ang^3
#
#
#
# Elastic Constant Matrix: (Units=GPa)
#
#
# Indices 1 2 3 4 5 6 
#
# 1 70.1301 47.3812 23.1315 0.0001 -32.1263 0.0002
# 2 47.3812 122.9749 56.2770 0.0001 -19.1986 0.0000
# 3 23.1315 56.2770 81.9837 0.0000 -23.9506 0.0004
# 4 0.0001 0.0001 0.0000 47.5202 0.0002 -8.4335
# 5 -32.1263 -19.1986 -23.9506 0.0002 40.7362 0.0002
# 6 0.0002 0.0000 0.0004 -8.4335 0.0002 28.5867
#
#
#
# Elastic Compliance Matrix: (Units=1/GPa)
#
#
# Indices 1 2 3 4 5 6 
#
# 1 0.029212 -0.010220 0.004946 0.000000 0.021129 0.000000
# 2 -0.010220 0.015463 -0.009607 0.000000 -0.006420 0.000000
# 3 0.004946 -0.009607 0.020783 0.000000 0.011592 0.000000
# 4 0.000000 0.000000 0.000000 0.022206 0.000000 0.006551
# 5 0.021129 -0.006420 0.011592 0.000000 0.045001 -0.000001
# 6 0.000000 0.000000 0.000000 0.006551 -0.000001 0.036914
#
#
# Mechanical properties :
#
#
# Convention : Reuss Voigt Hill
#
# Bulk Modulus (GPa) = 28.01380 58.74090 43.37735
# Shear Modulus (GPa) = 23.66976 33.25523 28.46250
#
# Velocity S-wave (km/s) = 3.25687 3.86042 3.57142
# Velocity P-wave (km/s) = 5.16691 6.79663 6.03702
#
# Compressibility (1/GPa) = 0.03569670
#
# Stress axis : x y z
#
# Youngs Moduli (GPa) = 34.23298 64.66884 48.11579
#
# Poissons Ratio (x) = 0.66090 -0.23797
# Poissons Ratio (y) = 0.34985 0.46224
# Poissons Ratio (z) = -0.16931 0.62126
#
# Static dielectric constant tensor:
#      x y z
#    x 3.504930 -0.000010 -0.663110 
#    y -0.000010 3.751360 0.000000 
#    z -0.663110 0.000000 4.092710 
# 
# 
# High freq. dielectric constant tensor:
#      x y z
#    x 1.861010 0.000000 -0.011520 
#    y 0.000000 1.851800 0.000000 
#    z -0.011520 0.000000 1.904360 
# 
# From -- ./inp_files/145877.got.cif
#   From: 2010.06.25/outbox.cif.g09.slc.cpg/sg15_73_cif.got.tgz:145877.got - 2010.06.28 07:06:18.
