data_PCOD8139129
_publ_section_title
;
Structure prediction by ZEFSAII (Michael W. Deem and Ramdas Pophale) SiO2 
 PCOD8139129
Probable space group: C 2/C
;
_chemical_formula_sum "Si O2"
_cell_formula_units_Z 52
_cell_length_a 10.418840
_cell_length_b 18.069697
_cell_length_c 14.533864
_cell_angle_alpha 90.000000
_cell_angle_beta 54.451172
_cell_angle_gamma 90.000000
_cell_volume 2226.245883
_symmetry_space_group_name_H-M "C 2/C"
_symmetry_group_IT_number 15
_symmetry_cell_setting 'monoclinic'
loop_
_space_group_symop_operation_xyz
x,y,z
-x,y,1/2-z
-x,-y,-z
x,-y,1/2+z
1/2+x,1/2+y,z
1/2-x,1/2+y,1/2-z
1/2-x,1/2-y,-z
1/2+x,1/2-y,1/2+z
loop_
_atom_site_type_symbol
_atom_site_label
_atom_site_fract_x
_atom_site_fract_y
_atom_site_fract_z
Si Si1 0.813029 0.969297 0.911224
Si Si2 0.560808 0.035366 0.381808
Si Si3 0.000000 0.094148 0.750000
Si Si4 0.404483 0.400680 0.608352
Si Si5 0.308376 0.035543 0.845773
Si Si6 0.098495 0.684457 0.297128
Si Si7 0.385355 0.335517 0.127468
O O1 0.743253 0.947411 0.839673
O O2 0.941490 0.908210 0.889368
O O3 0.673006 0.980087 0.050021
O O4 0.894631 0.047794 0.864731
O O5 0.493411 0.116114 0.382492
O O6 0.500000 0.000000 0.500000
O O7 0.556968 0.984067 0.289008
O O8 0.112668 0.143660 0.765758
O O9 0.341283 0.484024 0.616852
O O10 0.269952 0.346487 0.700523
O O11 0.460375 0.361109 0.491524
O O12 0.267654 0.122448 0.851544
O O13 0.124192 0.746244 0.365855
O O14 0.000000 0.714300 0.250000
#
# Coordination Sequence:
#
# PCOD8139129 Si02
#       7
#     8   8   4   8   8   8   8
#     4  11  20  39  68  94 118 160 231 268 294 379
#     4  11  26  40  62  92 132 172 210 255 329 392
#     4  12  16  32  66  98 114 156 206 266 322 362
#     4  10  21  40  63  91 126 170 214 265 314 385
#     4  10  20  38  65  94 121 161 220 267 306 380
#     4  11  26  40  57  96 139 166 200 271 340 382
#     4  11  20  37  62  97 125 159 214 266 327 381
#
# _framework density 23.357706
#
# number of rings (size 3 to 8) (size 9 to 14) (size 15 to 20)
#    0.000    1.231    5.385    1.846    4.308    1.846 
#    0.000    3.077    0.000    3.692    0.000    0.000 
#    0.000    0.000    0.000    0.000    0.000    0.000 
#
# Total GULP energy -322112.239893 kJ/mol
# GULP energy per Si atom -12388.932304 kJ/mol
# Density = 2.330454 g / cm^3
# Si number density = 23.357706 Si / 1000 Ang^3
#
#
#
# Elastic Constant Matrix: (Units=GPa)
#
#
# Indices 1 2 3 4 5 6 
#
# 1 94.7461 8.9321 56.0364 0.0000 26.8086 0.0000
# 2 8.9321 127.6533 51.1852 0.0000 3.8716 0.0000
# 3 56.0364 51.1852 146.2075 0.0000 -4.8872 0.0000
# 4 0.0000 0.0000 0.0000 28.8948 0.0000 10.1508
# 5 26.8086 3.8716 -4.8872 0.0000 50.2658 0.0000
# 6 0.0000 0.0000 0.0000 10.1508 0.0000 23.3537
#
#
#
# Elastic Compliance Matrix: (Units=1/GPa)
#
#
# Indices 1 2 3 4 5 6 
#
# 1 0.018154 0.002310 -0.008122 0.000000 -0.010650 0.000000
# 2 0.002310 0.009459 -0.004276 0.000000 -0.002376 0.000000
# 3 -0.008122 -0.004276 0.011643 0.000000 0.005793 0.000000
# 4 0.000000 0.000000 0.000000 0.040845 0.000000 -0.017754
# 5 -0.010650 -0.002376 0.005793 0.000000 0.026320 0.000000
# 6 0.000000 0.000000 0.000000 -0.017754 0.000000 0.050537
#
#
# Mechanical properties :
#
#
# Convention : Reuss Voigt Hill
#
# Bulk Modulus (GPa) = 52.41514 66.76824 59.59169
# Shear Modulus (GPa) = 27.24869 37.33308 32.29088
#
# Velocity S-wave (km/s) = 3.41923 4.00224 3.72217
# Velocity P-wave (km/s) = 6.17067 7.07138 6.63632
#
# Compressibility (1/GPa) = 0.01907846
#
# Stress axis : x y z
#
# Youngs Moduli (GPa) = 55.08417 105.72262 85.88688
#
# Poissons Ratio (x) = -0.24417 0.69760
# Poissons Ratio (y) = -0.12722 0.36725
# Poissons Ratio (z) = 0.44741 0.45207
#
# Static dielectric constant tensor:
#      x y z
#    x 5.439940 0.000000 0.057910 
#    y 0.000000 4.044750 0.000000 
#    z 0.057910 0.000000 4.553370 
# 
# 
# High freq. dielectric constant tensor:
#      x y z
#    x 1.948570 0.000000 0.010180 
#    y 0.000000 1.886710 0.000000 
#    z 0.010180 0.000000 1.954960 
# 
# From -- ./inp_files/145483.got.cif
#   From: 2010.06.25/outbox.cif.g09.slc.cpg/sg15_73_cif.got.tgz:145483.got - 2010.06.28 07:06:18.
