data_PCOD8139958
_publ_section_title
;
Structure prediction by ZEFSAII (Michael W. Deem and Ramdas Pophale) SiO2 
 PCOD8139958
Probable space group: C 2/C
;
_chemical_formula_sum "Si O2"
_cell_formula_units_Z 56
_cell_length_a 16.599240
_cell_length_b 16.550261
_cell_length_c 10.823032
_cell_angle_alpha 90.000000
_cell_angle_beta 66.509408
_cell_angle_gamma 90.000000
_cell_volume 2726.909846
_symmetry_space_group_name_H-M "C 2/C"
_symmetry_group_IT_number 15
_symmetry_cell_setting 'monoclinic'
loop_
_space_group_symop_operation_xyz
x,y,z
-x,y,1/2-z
-x,-y,-z
x,-y,1/2+z
1/2+x,1/2+y,z
1/2-x,1/2+y,1/2-z
1/2-x,1/2-y,-z
1/2+x,1/2-y,1/2+z
loop_
_atom_site_type_symbol
_atom_site_label
_atom_site_fract_x
_atom_site_fract_y
_atom_site_fract_z
Si Si1 0.272076 0.667770 0.234435
Si Si2 0.788499 0.580883 0.004864
Si Si3 0.224345 0.601692 0.011573
Si Si4 0.905553 0.856990 0.301255
Si Si5 0.099727 0.733129 0.987927
Si Si6 0.446847 0.800214 0.407986
Si Si7 0.827745 0.817999 0.093931
O O1 0.272276 0.596551 0.336456
O O2 0.213608 0.636494 0.155740
O O3 0.367234 0.695589 0.125240
O O4 0.231628 0.745233 0.323966
O O5 0.814446 0.487620 0.974065
O O6 0.882260 0.624002 0.958053
O O7 0.733816 0.610690 0.919126
O O8 0.326787 0.593471 0.911779
O O9 0.173993 0.663041 0.950686
O O10 0.916120 0.771056 0.366749
O O11 0.887978 0.848629 0.167377
O O12 0.000000 0.902711 0.250000
O O13 0.011215 0.695095 0.987205
O O14 0.500000 0.803806 0.250000
O O15 0.390791 0.716968 0.447029
#
# Coordination Sequence:
#
# PCOD8139958 Si02
#       7
#     8   8   8   8   8   8   8
#     4  10  20  40  64  89 121 173 220 251 306 373
#     4  11  26  40  62  98 133 172 201 262 339 377
#     4  11  24  40  66  95 132 169 206 266 323 383
#     4  11  21  40  67  95 116 162 222 270 301 368
#     4  11  20  39  67  93 124 166 224 258 303 378
#     4  11  23  38  64  96 129 168 215 264 308 380
#     4  11  20  41  66  87 126 166 217 263 303 376
#
# _framework density 20.536065000000001
#
# number of rings (size 3 to 8) (size 9 to 14) (size 15 to 20)
#    0.000    1.143    4.286    4.286    2.000    0.571 
#    0.000    5.000    0.000    0.000    0.000    0.000 
#    0.000    0.000    0.000    0.000    0.000    0.000 
#
# Total GULP energy -347130.711829 kJ/mol
# GULP energy per Si atom -12397.525422 kJ/mol
# Density = 2.048932 g / cm^3
# Si number density = 20.536065 Si / 1000 Ang^3
#
#
#
# Elastic Constant Matrix: (Units=GPa)
#
#
# Indices 1 2 3 4 5 6 
#
# 1 121.6234 29.1948 29.0762 0.0000 4.3493 0.0000
# 2 29.1948 77.2894 28.9644 0.0000 6.7835 0.0000
# 3 29.0762 28.9644 98.5276 0.0000 0.2818 0.0000
# 4 0.0000 0.0000 0.0000 11.9815 0.0000 2.5647
# 5 4.3493 6.7835 0.2818 0.0000 31.3276 0.0000
# 6 0.0000 0.0000 0.0000 2.5647 0.0000 24.9328
#
#
#
# Elastic Compliance Matrix: (Units=1/GPa)
#
#
# Indices 1 2 3 4 5 6 
#
# 1 0.009374 -0.002747 -0.001957 0.000000 -0.000689 0.000000
# 2 -0.002747 0.015655 -0.003783 0.000000 -0.002974 0.000000
# 3 -0.001957 -0.003783 0.011836 0.000000 0.000984 0.000000
# 4 0.000000 0.000000 0.000000 0.085341 0.000000 -0.008779
# 5 -0.000689 -0.002974 0.000984 0.000000 0.032652 0.000000
# 6 0.000000 0.000000 0.000000 -0.008779 0.000000 0.041011
#
#
# Mechanical properties :
#
#
# Convention : Reuss Voigt Hill
#
# Bulk Modulus (GPa) = 50.27306 52.43459 51.35382
# Shear Modulus (GPa) = 22.78190 27.66204 25.22197
#
# Velocity S-wave (km/s) = 3.33432 3.67413 3.50834
# Velocity P-wave (km/s) = 6.27352 6.60207 6.43989
#
# Compressibility (1/GPa) = 0.01989137
#
# Stress axis : x y z
#
# Youngs Moduli (GPa) = 106.67850 63.87839 84.48692
#
# Poissons Ratio (x) = 0.17548 0.16532
# Poissons Ratio (y) = 0.29305 0.31960
# Poissons Ratio (z) = 0.20875 0.24164
#
# Static dielectric constant tensor:
#      x y z
#    x 3.848350 0.000000 0.047630 
#    y 0.000000 3.440720 0.000000 
#    z 0.047630 0.000000 4.039270 
# 
# 
# High freq. dielectric constant tensor:
#      x y z
#    x 1.807680 0.000000 0.006630 
#    y 0.000000 1.767330 0.000000 
#    z 0.006630 0.000000 1.816880 
# 
# From -- ./inp_files/105640.got.cif
#   From: 2010.06.25/outbox.cif.g09.slc.cpg/sg15_53_cif.got.tgz:105640.got - 2010.06.28 07:06:18.
