data_PCOD8139806
_publ_section_title
;
Structure prediction by ZEFSAII (Michael W. Deem and Ramdas Pophale) SiO2 
 PCOD8139806
Probable space group: C 2/C
;
_chemical_formula_sum "Si O2"
_cell_formula_units_Z 60
_cell_length_a 14.232314
_cell_length_b 19.201726
_cell_length_c 14.101654
_cell_angle_alpha 90.000000
_cell_angle_beta 42.973514
_cell_angle_gamma 90.000000
_cell_volume 2626.961942
_symmetry_space_group_name_H-M "C 2/C"
_symmetry_group_IT_number 15
_symmetry_cell_setting 'monoclinic'
loop_
_space_group_symop_operation_xyz
x,y,z
-x,y,1/2-z
-x,-y,-z
x,-y,1/2+z
1/2+x,1/2+y,z
1/2-x,1/2+y,1/2-z
1/2-x,1/2-y,-z
1/2+x,1/2-y,1/2+z
loop_
_atom_site_type_symbol
_atom_site_label
_atom_site_fract_x
_atom_site_fract_y
_atom_site_fract_z
Si Si1 0.207622 0.128424 0.832373
Si Si2 0.000000 0.270015 0.750000
Si Si3 0.828233 0.388652 0.780372
Si Si4 0.353460 0.131982 0.047471
Si Si5 0.947557 0.476509 0.139623
Si Si6 0.604497 0.653603 0.106612
Si Si7 0.073240 0.832061 0.039016
Si Si8 0.072839 0.738755 0.863820
O O1 0.304154 0.065083 0.731094
O O2 0.290615 0.201578 0.778494
O O3 0.081732 0.136749 0.850670
O O4 0.143716 0.112615 0.982804
O O5 0.907176 0.318279 0.751416
O O6 0.909658 0.218707 0.883514
O O7 0.792264 0.393207 0.693795
O O8 0.921861 0.458161 0.729356
O O9 0.690548 0.392802 0.948962
O O10 0.238251 0.170931 0.071197
O O11 0.425190 0.073963 0.923616
O O12 0.475412 0.183418 0.987843
O O13 0.000000 0.500000 0.000000
O O14 0.500000 0.607390 0.250000
O O15 0.517155 0.724044 0.150915
O O16 0.118893 0.792444 0.909655
#
# Coordination Sequence:
#
# PCOD8139806 Si02
#       8
#     8   4   8   8   8   8   8   8
#     4  10  23  41  65  93 136 170 217 269 330 391
#     4  12  24  42  66  96 138 168 220 282 334 396
#     4  11  23  42  66  95 121 173 219 270 330 394
#     4  10  20  40  60  90 132 166 215 263 322 384
#     4   9  22  44  70  91 121 174 223 275 322 390
#     4  11  24  33  59  96 135 172 204 258 322 397
#     4  11  23  40  64  95 132 168 213 276 337 392
#     4  10  21  35  60  93 128 170 206 255 325 392
#
# _framework density 22.840071999999999
#
# number of rings (size 3 to 8) (size 9 to 14) (size 15 to 20)
#    0.000    1.600    1.333    3.200    7.467    3.200 
#    0.000    0.000    1.467    0.000    0.000    0.000 
#    0.000    0.000    0.000    0.000    0.000    0.000 
#
# Total GULP energy -371669.510979 kJ/mol
# GULP energy per Si atom -12388.983699 kJ/mol
# Density = 2.278809 g / cm^3
# Si number density = 22.840072 Si / 1000 Ang^3
#
#
#
# Elastic Constant Matrix: (Units=GPa)
#
#
# Indices 1 2 3 4 5 6 
#
# 1 75.1234 26.9622 38.9977 -0.0009 -3.5293 0.0004
# 2 26.9622 92.5497 69.2944 -0.0008 -5.4481 0.0006
# 3 38.9977 69.2944 155.9175 -0.0027 -17.1121 0.0014
# 4 -0.0009 -0.0008 -0.0027 36.4168 0.0015 5.8170
# 5 -3.5293 -5.4481 -17.1121 0.0015 32.9620 -0.0007
# 6 0.0004 0.0006 0.0014 5.8170 -0.0007 10.2112
#
#
#
# Elastic Compliance Matrix: (Units=1/GPa)
#
#
# Indices 1 2 3 4 5 6 
#
# 1 0.015659 -0.002435 -0.002857 0.000000 -0.000209 0.000000
# 2 -0.002435 0.016611 -0.006894 0.000000 -0.001094 0.000000
# 3 -0.002857 -0.006894 0.010640 0.000001 0.004078 -0.000001
# 4 0.000000 0.000000 0.000001 0.030209 -0.000001 -0.017209
# 5 -0.000209 -0.001094 0.004078 -0.000001 0.032252 0.000003
# 6 0.000000 0.000000 -0.000001 -0.017209 0.000003 0.107736
#
#
# Mechanical properties :
#
#
# Convention : Reuss Voigt Hill
#
# Bulk Modulus (GPa) = 53.94275 66.01104 59.97689
# Shear Modulus (GPa) = 20.52062 28.47374 24.49718
#
# Velocity S-wave (km/s) = 3.00066 3.53463 3.27854
# Velocity P-wave (km/s) = 5.97279 6.75443 6.37560
#
# Compressibility (1/GPa) = 0.01853817
#
# Stress axis : x y z
#
# Youngs Moduli (GPa) = 63.86201 60.19965 93.98765
#
# Poissons Ratio (x) = 0.14657 0.26856
# Poissons Ratio (y) = 0.15548 0.64792
# Poissons Ratio (z) = 0.18248 0.41500
#
# Static dielectric constant tensor:
#      x y z
#    x 3.846160 0.000000 -0.216160 
#    y 0.000000 4.301530 0.000000 
#    z -0.216160 0.000000 4.490340 
# 
# 
# High freq. dielectric constant tensor:
#      x y z
#    x 1.884150 0.000000 -0.009810 
#    y 0.000000 1.874000 0.000000 
#    z -0.009810 0.000000 1.925450 
# 
# From -- ./inp_files/156367.got.cif
#   From: 2010.06.25/outbox.cif.g09.slc.cpg/sg15_79_cif.got.tgz:156367.got - 2010.06.28 07:06:18.
