data_PCOD8139857
_publ_section_title
;
Structure prediction by ZEFSAII (Michael W. Deem and Ramdas Pophale) SiO2 
 PCOD8139857
Probable space group: C 2/C
;
_chemical_formula_sum "Si O2"
_cell_formula_units_Z 64
_cell_length_a 9.224492
_cell_length_b 17.574712
_cell_length_c 22.751445
_cell_angle_alpha 90.000000
_cell_angle_beta 123.533228
_cell_angle_gamma 90.000000
_cell_volume 3074.534992
_symmetry_space_group_name_H-M "C 2/C"
_symmetry_group_IT_number 15
_symmetry_cell_setting 'monoclinic'
loop_
_space_group_symop_operation_xyz
x,y,z
-x,y,1/2-z
-x,-y,-z
x,-y,1/2+z
1/2+x,1/2+y,z
1/2-x,1/2+y,1/2-z
1/2-x,1/2-y,-z
1/2+x,1/2-y,1/2+z
loop_
_atom_site_type_symbol
_atom_site_label
_atom_site_fract_x
_atom_site_fract_y
_atom_site_fract_z
Si Si1 0.787044 0.329343 0.663854
Si Si2 0.563056 0.423709 0.082006
Si Si3 0.812091 0.844202 0.193308
Si Si4 0.644098 0.847149 0.691908
Si Si5 0.800859 0.586355 0.948247
Si Si6 0.535519 0.408140 0.941763
Si Si7 0.332961 0.912636 0.925937
Si Si8 0.701162 0.184875 0.790236
O O1 0.838668 0.241937 0.679181
O O2 0.760336 0.363208 0.724306
O O3 0.611059 0.343241 0.589246
O O4 0.942464 0.365400 0.660487
O O5 0.372418 0.388377 0.054798
O O6 0.554578 0.512452 0.099923
O O7 0.719576 0.378090 0.148068
O O8 0.609290 0.418590 0.023652
O O9 0.708422 0.887774 0.120542
O O10 0.699886 0.852764 0.226145
O O11 0.000000 0.880593 0.250000
O O12 0.704987 0.902961 0.652433
O O13 0.681567 0.760772 0.678828
O O14 0.819453 0.496532 0.949061
O O15 0.973928 0.621111 0.017808
O O16 0.682275 0.372944 0.931028
O O17 0.500000 0.206657 0.750000
#
# Coordination Sequence:
#
# PCOD8139857 Si02
#       8
#     8   8   8   8   8   8   8   8
#     4  10  20  40  62  85 117 157 192 238 291 353
#     4  10  21  43  60  85 120 159 196 240 294 350
#     4  11  20  41  63  85 114 154 202 240 287 353
#     4  10  21  40  61  85 120 153 195 236 294 353
#     4  10  21  41  64  83 120 157 200 240 288 352
#     4  10  23  38  62  88 122 153 195 245 293 345
#     4  10  23  38  60  93 117 155 194 247 293 340
#     4  11  24  39  61  89 118 153 195 249 295 340
#
# _framework density 20.816157
#
# number of rings (size 3 to 8) (size 9 to 14) (size 15 to 20)
#    0.000    1.750    3.750    0.750    5.250    3.000 
#    2.250    3.750    0.000    0.000    0.000    0.000 
#    0.000    0.000    0.000    0.000    0.000    0.000 
#
# Total GULP energy -396545.397478 kJ/mol
# GULP energy per Si atom -12392.043671 kJ/mol
# Density = 2.076878 g / cm^3
# Si number density = 20.816157 Si / 1000 Ang^3
#
#
#
# Elastic Constant Matrix: (Units=GPa)
#
#
# Indices 1 2 3 4 5 6 
#
# 1 120.2738 13.1851 37.5992 0.0000 -6.2244 0.0000
# 2 13.1851 23.1499 16.9876 0.0000 5.7269 0.0000
# 3 37.5992 16.9876 73.5444 0.0000 -3.3557 0.0000
# 4 0.0000 0.0000 0.0000 36.2307 0.0000 -4.3169
# 5 -6.2244 5.7269 -3.3557 0.0000 41.1228 0.0000
# 6 0.0000 0.0000 0.0000 -4.3169 0.0000 27.3926
#
#
#
# Elastic Compliance Matrix: (Units=1/GPa)
#
#
# Indices 1 2 3 4 5 6 
#
# 1 0.010095 -0.002894 -0.004421 0.000000 0.001570 0.000000
# 2 -0.002894 0.055792 -0.011826 0.000000 -0.009173 0.000000
# 3 -0.004421 -0.011826 0.018703 0.000000 0.002504 0.000000
# 4 0.000000 0.000000 0.000000 0.028129 0.000000 0.004433
# 5 0.001570 -0.009173 0.002504 0.000000 0.026037 0.000000
# 6 0.000000 0.000000 0.000000 0.004433 0.000000 0.037205
#
#
# Mechanical properties :
#
#
# Convention : Reuss Voigt Hill
#
# Bulk Modulus (GPa) = 21.59429 39.16800 30.38114
# Shear Modulus (GPa) = 21.76946 30.89563 26.33255
#
# Velocity S-wave (km/s) = 3.23739 3.85673 3.56055
# Velocity P-wave (km/s) = 4.93665 6.22009 5.61516
#
# Compressibility (1/GPa) = 0.04630854
#
# Stress axis : x y z
#
# Youngs Moduli (GPa) = 99.06001 17.92359 53.46661
#
# Poissons Ratio (x) = 0.05187 0.23637
# Poissons Ratio (y) = 0.28668 0.63231
# Poissons Ratio (z) = 0.43793 0.21197
#
# Static dielectric constant tensor:
#      x y z
#    x 3.990610 0.000000 -0.267130 
#    y 0.000000 3.464110 0.000000 
#    z -0.267130 0.000000 4.339300 
# 
# 
# High freq. dielectric constant tensor:
#      x y z
#    x 1.829280 0.000000 -0.007730 
#    y 0.000000 1.781800 0.000000 
#    z -0.007730 0.000000 1.815060 
# 
# From -- ./inp_files/233868.got.cif
#   From: 2010.06.25/outbox.cif.g09.slc.cpg/sg15_117_cif.got.tgz:233868.got - 2010.06.28 07:06:18.
