data_PCOD8139185
_publ_section_title
;
Structure prediction by ZEFSAII (Michael W. Deem and Ramdas Pophale) SiO2 
 PCOD8139185
Probable space group: C 2/C
;
_chemical_formula_sum "Si O2"
_cell_formula_units_Z 64
_cell_length_a 27.724087
_cell_length_b 8.765438
_cell_length_c 12.725693
_cell_angle_alpha 90.000000
_cell_angle_beta 81.928940
_cell_angle_gamma 90.000000
_cell_volume 3061.886254
_symmetry_space_group_name_H-M "C 2/C"
_symmetry_group_IT_number 15
_symmetry_cell_setting 'monoclinic'
loop_
_space_group_symop_operation_xyz
x,y,z
-x,y,1/2-z
-x,-y,-z
x,-y,1/2+z
1/2+x,1/2+y,z
1/2-x,1/2+y,1/2-z
1/2-x,1/2-y,-z
1/2+x,1/2-y,1/2+z
loop_
_atom_site_type_symbol
_atom_site_label
_atom_site_fract_x
_atom_site_fract_y
_atom_site_fract_z
Si Si1 0.398643 0.401570 0.421233
Si Si2 0.914952 0.292568 0.206255
Si Si3 0.166118 0.188009 0.744396
Si Si4 0.915852 0.261694 0.441437
Si Si5 0.852535 0.539880 0.112369
Si Si6 0.661098 0.401879 0.859975
Si Si7 0.235221 0.315439 0.393986
Si Si8 0.513834 0.325399 0.983170
O O1 0.380278 0.341207 0.315558
O O2 0.405294 0.583427 0.424190
O O3 0.359220 0.353259 0.520308
O O4 0.447690 0.302714 0.433034
O O5 0.925966 0.337839 0.323838
O O6 0.896145 0.435295 0.142685
O O7 0.872215 0.166300 0.222819
O O8 0.961526 0.214339 0.136675
O O9 0.166489 0.361104 0.782917
O O10 0.215580 0.128541 0.675725
O O11 0.161255 0.083707 0.849614
O O12 0.872704 0.353184 0.512291
O O13 0.964232 0.274771 0.501164
O O14 0.805649 0.447828 0.083861
O O15 0.714132 0.325645 0.832495
O O16 0.250000 0.250000 0.500000
O O17 0.500000 0.500000 0.000000
#
# Coordination Sequence:
#
# PCOD8139185 Si02
#       8
#     8   8   8   8   8   8   8   8
#     4  10  20  38  66  96 123 175 220 272 330 402
#     4  10  22  39  64  94 134 178 217 271 343 391
#     4  12  22  42  66  93 132 170 225 283 337 402
#     4  11  21  42  66  94 136 173 225 281 335 398
#     4  11  27  41  65 102 133 173 227 288 341 406
#     4  10  20  40  60  89 128 166 220 265 332 405
#     4  11  24  42  64  92 127 177 220 275 349 408
#     4   9  21  39  67  99 130 172 229 267 316 409
#
# _framework density 20.902149999999999
#
# number of rings (size 3 to 8) (size 9 to 14) (size 15 to 20)
#    0.000    1.500    3.750    1.125    1.750    0.500 
#    0.000    3.125    0.000    0.000    0.000    0.000 
#    0.000    0.000    0.000    0.000    0.000    0.000 
#
# Total GULP energy -396521.220834 kJ/mol
# GULP energy per Si atom -12391.288151 kJ/mol
# Density = 2.085458 g / cm^3
# Si number density = 20.902150 Si / 1000 Ang^3
#
#
#
# Elastic Constant Matrix: (Units=GPa)
#
#
# Indices 1 2 3 4 5 6 
#
# 1 125.8517 42.9930 46.6524 0.0000 12.3033 0.0000
# 2 42.9930 94.8520 44.7415 0.0000 8.2402 0.0000
# 3 46.6524 44.7415 92.1631 0.0000 4.1142 0.0000
# 4 0.0000 0.0000 0.0000 33.4681 0.0000 -3.6062
# 5 12.3033 8.2402 4.1142 0.0000 26.6064 0.0000
# 6 0.0000 0.0000 0.0000 -3.6062 0.0000 31.2336
#
#
#
# Elastic Compliance Matrix: (Units=1/GPa)
#
#
# Indices 1 2 3 4 5 6 
#
# 1 0.010661 -0.002668 -0.003946 0.000000 -0.003494 0.000000
# 2 -0.002668 0.014623 -0.005640 0.000000 -0.002423 0.000000
# 3 -0.003946 -0.005640 0.015534 0.000000 0.001169 0.000000
# 4 0.000000 0.000000 0.000000 0.030256 0.000000 0.003493
# 5 -0.003494 -0.002423 0.001169 0.000000 0.039770 0.000000
# 6 0.000000 0.000000 0.000000 0.003493 0.000000 0.032420
#
#
# Mechanical properties :
#
#
# Convention : Reuss Voigt Hill
#
# Bulk Modulus (GPa) = 61.31045 64.62672 62.96859
# Shear Modulus (GPa) = 28.86702 30.16026 29.51364
#
# Velocity S-wave (km/s) = 3.72029 3.80271 3.76172
# Velocity P-wave (km/s) = 6.91736 7.08989 7.00416
#
# Compressibility (1/GPa) = 0.01631043
#
# Stress axis : x y z
#
# Youngs Moduli (GPa) = 93.79636 68.38565 64.37670
#
# Poissons Ratio (x) = 0.18243 0.25401
# Poissons Ratio (y) = 0.25022 0.36310
# Poissons Ratio (z) = 0.37009 0.38572
#
# Static dielectric constant tensor:
#      x y z
#    x 4.364610 0.000000 0.202630 
#    y 0.000000 3.779180 0.000000 
#    z 0.202630 0.000000 3.720230 
# 
# 
# High freq. dielectric constant tensor:
#      x y z
#    x 1.828640 0.000000 0.007890 
#    y 0.000000 1.811060 0.000000 
#    z 0.007890 0.000000 1.807670 
# 
# From -- ./inp_files/125913.got.cif
#   From: 2010.06.25/outbox.cif.g09.slc.cpg/sg15_63_cif.got.tgz:125913.got - 2010.06.28 07:06:18.
