data_PCOD8139668
_publ_section_title
;
Structure prediction by ZEFSAII (Michael W. Deem and Ramdas Pophale) SiO2 
 PCOD8139668
Probable space group: C 2/C
;
_chemical_formula_sum "Si O2"
_cell_formula_units_Z 48
_cell_length_a 14.587386
_cell_length_b 8.521842
_cell_length_c 28.777790
_cell_angle_alpha 90.000000
_cell_angle_beta 40.115544
_cell_angle_gamma 90.000000
_cell_volume 2305.034886
_symmetry_space_group_name_H-M "C 2/C"
_symmetry_group_IT_number 15
_symmetry_cell_setting 'monoclinic'
loop_
_space_group_symop_operation_xyz
x,y,z
-x,y,1/2-z
-x,-y,-z
x,-y,1/2+z
1/2+x,1/2+y,z
1/2-x,1/2+y,1/2-z
1/2-x,1/2-y,-z
1/2+x,1/2-y,1/2+z
loop_
_atom_site_type_symbol
_atom_site_label
_atom_site_fract_x
_atom_site_fract_y
_atom_site_fract_z
Si Si1 0.291313 0.745614 0.173475
Si Si2 0.342330 0.585802 0.694238
Si Si3 0.370668 0.940357 0.835931
Si Si4 0.579604 0.981398 0.921465
Si Si5 0.167607 0.757540 0.683596
Si Si6 0.095718 0.280917 0.579519
O O1 0.328599 0.600919 0.192874
O O2 0.185044 0.863922 0.241758
O O3 0.234728 0.684608 0.145939
O O4 0.421512 0.853844 0.106154
O O5 0.225862 0.682353 0.709372
O O6 0.508496 0.620178 0.620291
O O7 0.500000 0.954464 0.750000
O O8 0.410895 0.884290 0.871431
O O9 0.308048 0.117495 0.863815
O O10 0.739143 0.909550 0.866857
O O11 0.487910 0.863656 0.928145
O O12 0.500000 0.000000 0.000000
O O13 0.000000 0.806386 0.750000
O O14 0.250000 0.250000 0.500000
#
# Coordination Sequence:
#
# PCOD8139668 Si02
#       6
#     8   8   8   8   8   8
#     4  11  22  40  66  92 131 168 225 270 333 388
#     4  10  21  40  65  98 126 173 214 277 328 398
#     4  10  20  39  66  96 126 168 221 274 328 398
#     4  11  25  44  61  95 138 174 222 280 330 397
#     4   9  21  39  68  92 126 167 224 269 329 389
#     4  11  23  43  65  94 137 175 215 270 343 400
#
# _framework density 20.823978
#
# number of rings (size 3 to 8) (size 9 to 14) (size 15 to 20)
#    0.000    1.667    1.667    3.000    4.667    2.000 
#    9.000    6.667    0.000    0.000    0.000    0.000 
#    0.000    0.000    0.000    0.000    0.000    0.000 
#
# Total GULP energy -297383.680658 kJ/mol
# GULP energy per Si atom -12390.986694 kJ/mol
# Density = 2.077658 g / cm^3
# Si number density = 20.823978 Si / 1000 Ang^3
#
#
#
# Elastic Constant Matrix: (Units=GPa)
#
#
# Indices 1 2 3 4 5 6 
#
# 1 70.1410 23.4178 47.2705 -0.0009 -10.2090 -0.0036
# 2 23.4178 121.5712 65.6242 -0.0019 0.3038 -0.0041
# 3 47.2705 65.6242 146.8942 0.0000 -4.0048 -0.0005
# 4 -0.0009 -0.0019 0.0000 27.0119 -0.0001 4.0938
# 5 -10.2090 0.3038 -4.0048 -0.0001 38.2881 -0.0012
# 6 -0.0036 -0.0041 -0.0005 4.0938 -0.0012 12.2898
#
#
#
# Elastic Compliance Matrix: (Units=1/GPa)
#
#
# Indices 1 2 3 4 5 6 
#
# 1 0.018953 -0.000574 -0.005721 0.000000 0.004460 0.000006
# 2 -0.000574 0.010871 -0.004692 0.000000 -0.000730 0.000003
# 3 -0.005721 -0.004692 0.010735 0.000000 -0.000365 -0.000003
# 4 0.000000 0.000000 0.000000 0.038989 0.000000 -0.012987
# 5 0.004460 -0.000730 -0.000365 0.000000 0.027275 0.000004
# 6 0.000006 0.000003 -0.000003 -0.012987 0.000004 0.085694
#
#
# Mechanical properties :
#
#
# Convention : Reuss Voigt Hill
#
# Bulk Modulus (GPa) = 53.80565 67.91459 60.86012
# Shear Modulus (GPa) = 22.65673 29.00423 25.83048
#
# Velocity S-wave (km/s) = 3.30208 3.73611 3.52578
# Velocity P-wave (km/s) = 6.35867 7.16211 6.77232
#
# Compressibility (1/GPa) = 0.01858541
#
# Stress axis : x y z
#
# Youngs Moduli (GPa) = 52.76078 91.99208 93.15554
#
# Poissons Ratio (x) = 0.05278 0.53297
# Poissons Ratio (y) = 0.03027 0.43705
# Poissons Ratio (z) = 0.30186 0.43159
#
# Static dielectric constant tensor:
#      x y z
#    x 3.589750 0.000000 -0.224090 
#    y 0.000000 3.979970 0.000000 
#    z -0.224090 0.000000 3.087770 
# 
# 
# High freq. dielectric constant tensor:
#      x y z
#    x 1.815900 0.000000 0.005390 
#    y 0.000000 1.827300 0.000000 
#    z 0.005390 0.000000 1.800470 
# 
# From -- ./inp_files/295400.got.cif
#   From: 2010.06.25/outbox.cif.g09.slc.cpg/sg15_148_cif.got.tgz:295400.got - 2010.06.28 07:06:18.
