data_PCOD8139560
_publ_section_title
;
Structure prediction by ZEFSAII (Michael W. Deem and Ramdas Pophale) SiO2 
 PCOD8139560
Probable space group: C 2/C
;
_chemical_formula_sum "Si O2"
_cell_formula_units_Z 48
_cell_length_a 8.239406
_cell_length_b 31.906319
_cell_length_c 8.875837
_cell_angle_alpha 90.000000
_cell_angle_beta 93.250838
_cell_angle_gamma 90.000000
_cell_volume 2329.606196
_symmetry_space_group_name_H-M "C 2/C"
_symmetry_group_IT_number 15
_symmetry_cell_setting 'monoclinic'
loop_
_space_group_symop_operation_xyz
x,y,z
-x,y,1/2-z
-x,-y,-z
x,-y,1/2+z
1/2+x,1/2+y,z
1/2-x,1/2+y,1/2-z
1/2-x,1/2-y,-z
1/2+x,1/2-y,1/2+z
loop_
_atom_site_type_symbol
_atom_site_label
_atom_site_fract_x
_atom_site_fract_y
_atom_site_fract_z
Si Si1 0.791332 0.298267 0.494812
Si Si2 0.500000 0.836051 0.250000
Si Si3 0.286797 0.469860 0.385004
Si Si4 0.696670 0.114019 0.001047
Si Si5 0.167064 0.047507 0.938761
Si Si6 0.500000 0.843119 0.750000
Si Si7 0.543597 0.366877 0.427356
O O1 0.750000 0.250000 0.500000
O O2 0.881367 0.312850 0.650805
O O3 0.621100 0.322305 0.467067
O O4 0.901426 0.305814 0.354928
O O5 0.378118 0.865216 0.151526
O O6 0.188614 0.436499 0.482660
O O7 0.250535 0.517964 0.430464
O O8 0.237009 0.463460 0.209335
O O9 0.476976 0.461493 0.413884
O O10 0.883622 0.129025 0.021589
O O11 0.603770 0.126901 0.146919
O O12 0.178798 0.097162 0.977882
O O13 0.500000 0.373006 0.250000
#
# Coordination Sequence:
#
# PCOD8139560 Si02
#       7
#     8   4   8   8   8   4   8
#     4  11  25  41  65  91 124 159 205 257 311 370
#     4  10  20  40  64  87 126 172 196 249 318 382
#     4   9  16  29  52  84 117 152 192 247 295 344
#     4  10  20  39  64  88 125 165 205 252 305 371
#     4   9  16  29  53  88 117 147 198 249 299 339
#     4  10  26  42  58  95 128 160 200 255 324 362
#     4  11  19  38  66  93 114 162 216 247 299 375
#
# _framework density 20.604343
#
# number of rings (size 3 to 8) (size 9 to 14) (size 15 to 20)
#    0.000    2.000    5.000    0.000    1.167    3.333 
#    0.000    6.667    0.000   17.000    0.000    0.000 
#    0.000    0.000    0.000    0.000    0.000    0.000 
#
# Total GULP energy -297565.042752 kJ/mol
# GULP energy per Si atom -12398.543448 kJ/mol
# Density = 2.055745 g / cm^3
# Si number density = 20.604343 Si / 1000 Ang^3
#
#
#
# Elastic Constant Matrix: (Units=GPa)
#
#
# Indices 1 2 3 4 5 6 
#
# 1 65.1850 53.3797 37.9531 0.0000 -9.5626 0.0000
# 2 53.3797 185.0481 59.3212 0.0000 -5.8532 0.0000
# 3 37.9531 59.3212 103.5014 0.0000 -14.7455 0.0000
# 4 0.0000 0.0000 0.0000 23.4426 0.0000 -0.6457
# 5 -9.5626 -5.8532 -14.7455 0.0000 21.2041 0.0000
# 6 0.0000 0.0000 0.0000 -0.6457 0.0000 27.6882
#
#
#
# Elastic Compliance Matrix: (Units=1/GPa)
#
#
# Indices 1 2 3 4 5 6 
#
# 1 0.022995 -0.004912 -0.004809 0.000000 0.005670 0.000000
# 2 -0.004912 0.007685 -0.002905 0.000000 -0.002114 0.000000
# 3 -0.004809 -0.002905 0.014060 0.000000 0.006807 0.000000
# 4 0.000000 0.000000 0.000000 0.042685 0.000000 0.000995
# 5 0.005670 -0.002114 0.006807 0.000000 0.053868 0.000000
# 6 0.000000 0.000000 0.000000 0.000995 0.000000 0.036140
#
#
# Mechanical properties :
#
#
# Convention : Reuss Voigt Hill
#
# Bulk Modulus (GPa) = 51.31234 72.78251 62.04742
# Shear Modulus (GPa) = 23.90281 28.00568 25.95424
#
# Velocity S-wave (km/s) = 3.40970 3.69075 3.55300
# Velocity P-wave (km/s) = 6.36075 7.31866 6.85645
#
# Compressibility (1/GPa) = 0.01948849
#
# Stress axis : x y z
#
# Youngs Moduli (GPa) = 43.48695 130.11808 71.12601
#
# Poissons Ratio (x) = 0.63919 0.34204
# Poissons Ratio (y) = 0.21363 0.20659
# Poissons Ratio (z) = 0.20912 0.37794
#
# Static dielectric constant tensor:
#      x y z
#    x 3.615870 0.000000 -0.110220 
#    y 0.000000 3.842180 0.000000 
#    z -0.110220 0.000000 3.807830 
# 
# 
# High freq. dielectric constant tensor:
#      x y z
#    x 1.791210 0.000000 -0.011830 
#    y 0.000000 1.806490 0.000000 
#    z -0.011830 0.000000 1.800910 
# 
# From -- ./inp_files/26169.got.cif
#   From: 2010.06.25/outbox.cif.g09.slc.cpg/sg15_14_cif.got.tgz:26169.got - 2010.06.28 07:06:18.
