data_PCOD8139749
_publ_section_title
;
Structure prediction by ZEFSAII (Michael W. Deem and Ramdas Pophale) SiO2 
 PCOD8139749
Probable space group: C 2/C
;
_chemical_formula_sum "Si O2"
_cell_formula_units_Z 56
_cell_length_a 7.865636
_cell_length_b 33.589134
_cell_length_c 10.227149
_cell_angle_alpha 90.000000
_cell_angle_beta 59.389595
_cell_angle_gamma 90.000000
_cell_volume 2325.485259
_symmetry_space_group_name_H-M "C 2/C"
_symmetry_group_IT_number 15
_symmetry_cell_setting 'monoclinic'
loop_
_space_group_symop_operation_xyz
x,y,z
-x,y,1/2-z
-x,-y,-z
x,-y,1/2+z
1/2+x,1/2+y,z
1/2-x,1/2+y,1/2-z
1/2-x,1/2-y,-z
1/2+x,1/2-y,1/2+z
loop_
_atom_site_type_symbol
_atom_site_label
_atom_site_fract_x
_atom_site_fract_y
_atom_site_fract_z
Si Si1 0.302916 0.051906 0.121838
Si Si2 0.357611 0.795945 0.108599
Si Si3 0.651013 0.967965 0.304914
Si Si4 0.683078 0.342885 0.954963
Si Si5 0.154778 0.906864 0.444937
Si Si6 0.000000 0.356569 0.250000
Si Si7 0.176451 0.717629 0.281471
Si Si8 0.000000 0.396786 0.750000
O O1 0.330588 0.078305 0.241298
O O2 0.237498 0.007425 0.187670
O O3 0.521486 0.051302 0.971120
O O4 0.129987 0.069062 0.092321
O O5 0.363665 0.831461 0.207911
O O6 0.297583 0.758149 0.218922
O O7 0.190515 0.808843 0.066276
O O8 0.576860 0.787490 0.962937
O O9 0.500000 0.980816 0.250000
O O10 0.819130 0.937480 0.186836
O O11 0.682229 0.319718 0.814780
O O12 0.883661 0.368235 0.896259
O O13 0.505108 0.373907 0.029985
O O14 0.360568 0.884575 0.390544
O O15 0.000000 0.718679 0.250000
#
# Coordination Sequence:
#
# PCOD8139749 Si02
#       8
#     8   8   8   8   8   4   8   4
#     4  10  20  39  70  93 137 177 225 287 352 416
#     4  11  25  46  70 102 141 189 232 288 353 423
#     4   9  18  40  68  96 131 183 229 280 356 415
#     4  11  24  43  71  99 138 179 238 292 349 412
#     4  11  24  42  68 107 134 187 233 298 346 414
#     4  12  26  43  66 102 156 176 236 292 350 419
#     4  10  22  45  72 102 137 183 240 282 347 424
#     4  12  22  41  66 100 126 186 226 286 358 411
#
# _framework density 24.080994
#
# number of rings (size 3 to 8) (size 9 to 14) (size 15 to 20)
#    0.000    1.429    5.000    2.571    4.000    1.143 
#    0.000    0.714    6.286    0.000    0.000    0.000 
#    0.000    0.000    0.000    0.000    0.000    0.000 
#
# Total GULP energy -347079.877538 kJ/mol
# GULP energy per Si atom -12395.709912 kJ/mol
# Density = 2.402618 g / cm^3
# Si number density = 24.080994 Si / 1000 Ang^3
#
#
#
# Elastic Constant Matrix: (Units=GPa)
#
#
# Indices 1 2 3 4 5 6 
#
# 1 54.4224 35.0717 11.3651 0.0000 -3.8057 0.0000
# 2 35.0717 161.5584 45.9130 0.0000 -7.1275 0.0000
# 3 11.3651 45.9130 74.8902 0.0000 5.0413 0.0000
# 4 0.0000 0.0000 0.0000 23.2593 0.0000 -14.1118
# 5 -3.8057 -7.1275 5.0413 0.0000 25.5230 0.0000
# 6 0.0000 0.0000 0.0000 -14.1118 0.0000 38.8289
#
#
#
# Elastic Compliance Matrix: (Units=1/GPa)
#
#
# Indices 1 2 3 4 5 6 
#
# 1 0.021488 -0.004364 -0.000729 0.000000 0.002130 0.000000
# 2 -0.004364 0.008622 -0.004806 0.000000 0.002706 0.000000
# 3 -0.000729 -0.004806 0.016730 0.000000 -0.004755 0.000000
# 4 0.000000 0.000000 0.000000 0.055155 0.000000 0.020045
# 5 0.002130 0.002706 -0.004755 0.000000 0.041193 0.000000
# 6 0.000000 0.000000 0.000000 0.020045 0.000000 0.033039
#
#
# Mechanical properties :
#
#
# Convention : Reuss Voigt Hill
#
# Bulk Modulus (GPa) = 36.97833 52.84117 44.90975
# Shear Modulus (GPa) = 24.38556 30.75698 27.57127
#
# Velocity S-wave (km/s) = 3.18566 3.57771 3.38737
# Velocity P-wave (km/s) = 5.37777 6.24960 5.83000
#
# Compressibility (1/GPa) = 0.02704287
#
# Stress axis : x y z
#
# Youngs Moduli (GPa) = 46.53762 115.98010 59.77269
#
# Poissons Ratio (x) = 0.50608 0.04358
# Poissons Ratio (y) = 0.20307 0.28727
# Poissons Ratio (z) = 0.03393 0.55740
#
# Static dielectric constant tensor:
#      x y z
#    x 4.218520 0.000000 0.058220 
#    y 0.000000 4.698140 0.000000 
#    z 0.058220 0.000000 4.938540 
# 
# 
# High freq. dielectric constant tensor:
#      x y z
#    x 1.909650 0.000000 -0.001400 
#    y 0.000000 1.980830 0.000000 
#    z -0.001400 0.000000 1.956670 
# 
# From -- ./inp_files/82531.got.cif
#   From: 2010.06.25/outbox.cif.g09.slc.cpg/sg15_42_cif.got.tgz:82531.got - 2010.06.28 07:06:18.
