data_PCOD8139679
_publ_section_title
;
Structure prediction by ZEFSAII (Michael W. Deem and Ramdas Pophale) SiO2 
 PCOD8139679
Probable space group: C 2/C
;
_chemical_formula_sum "Si O2"
_cell_formula_units_Z 48
_cell_length_a 15.103946
_cell_length_b 11.808945
_cell_length_c 22.332011
_cell_angle_alpha 90.000000
_cell_angle_beta 142.423398
_cell_angle_gamma 90.000000
_cell_volume 2429.025839
_symmetry_space_group_name_H-M "C 2/C"
_symmetry_group_IT_number 15
_symmetry_cell_setting 'monoclinic'
loop_
_space_group_symop_operation_xyz
x,y,z
-x,y,1/2-z
-x,-y,-z
x,-y,1/2+z
1/2+x,1/2+y,z
1/2-x,1/2+y,1/2-z
1/2-x,1/2-y,-z
1/2+x,1/2-y,1/2+z
loop_
_atom_site_type_symbol
_atom_site_label
_atom_site_fract_x
_atom_site_fract_y
_atom_site_fract_z
Si Si1 0.000000 0.167423 0.250000
Si Si2 0.287482 0.803166 0.365836
Si Si3 0.485387 0.045409 0.130368
Si Si4 0.341467 0.176201 0.759591
Si Si5 0.434734 0.783786 0.924977
Si Si6 0.000000 0.682578 0.250000
Si Si7 0.784638 0.540680 0.424006
O O1 0.942830 0.242725 0.274216
O O2 0.877988 0.086225 0.156534
O O3 0.336900 0.778375 0.324823
O O4 0.403122 0.740199 0.472116
O O5 0.126364 0.760089 0.291211
O O6 0.291316 0.937378 0.380842
O O7 0.568723 0.137863 0.135480
O O8 0.429770 0.105245 0.160740
O O9 0.601458 0.951017 0.212321
O O10 0.344591 0.995202 0.021299
O O11 0.176980 0.180241 0.644817
O O12 0.388078 0.859952 0.956419
#
# Coordination Sequence:
#
# PCOD8139679 Si02
#       7
#     4   8   8   8   8   4   8
#     4  10  24  38  60  96 118 154 210 246 288 354
#     4  11  21  41  63  87 120 159 201 247 296 353
#     4  11  21  40  61  87 123 159 194 247 305 352
#     4  11  21  41  63  88 120 160 198 250 295 354
#     4  10  20  39  67  86 115 163 206 236 292 364
#     4  12  26  38  58  98 126 148 196 256 308 344
#     4  10  20  40  65  86 116 164 207 236 288 365
#
# _framework density 19.761008
#
# number of rings (size 3 to 8) (size 9 to 14) (size 15 to 20)
#    0.000    1.333    5.000    2.000    0.000    3.333 
#    6.000    0.833    0.000    0.000    0.000    0.000 
#    0.000    0.000    0.000    0.000    0.000    0.000 
#
# Total GULP energy -297586.167120 kJ/mol
# GULP energy per Si atom -12399.423630 kJ/mol
# Density = 1.971603 g / cm^3
# Si number density = 19.761008 Si / 1000 Ang^3
#
#
#
# Elastic Constant Matrix: (Units=GPa)
#
#
# Indices 1 2 3 4 5 6 
#
# 1 89.7276 29.5602 49.1302 0.0000 5.7408 0.0000
# 2 29.5602 51.4305 44.6503 0.0000 -0.3237 0.0000
# 3 49.1302 44.6503 110.4856 0.0000 4.6105 0.0000
# 4 0.0000 0.0000 0.0000 31.9961 0.0000 -8.5347
# 5 5.7408 -0.3237 4.6105 0.0000 32.5996 0.0000
# 6 0.0000 0.0000 0.0000 -8.5347 0.0000 18.6804
#
#
#
# Elastic Compliance Matrix: (Units=1/GPa)
#
#
# Indices 1 2 3 4 5 6 
#
# 1 0.015509 -0.004645 -0.004933 0.000000 -0.002080 0.000000
# 2 -0.004645 0.031477 -0.010766 0.000000 0.002653 0.000000
# 3 -0.004933 -0.010766 0.015656 0.000000 -0.001452 0.000000
# 4 0.000000 0.000000 0.000000 0.035591 0.000000 0.016261
# 5 -0.002080 0.002653 -0.001452 0.000000 0.031273 0.000000
# 6 0.000000 0.000000 0.000000 0.016261 0.000000 0.060962
#
#
# Mechanical properties :
#
#
# Convention : Reuss Voigt Hill
#
# Bulk Modulus (GPa) = 45.54789 55.36946 50.45867
# Shear Modulus (GPa) = 20.96682 25.20875 23.08778
#
# Velocity S-wave (km/s) = 3.26086 3.57554 3.42182
# Velocity P-wave (km/s) = 6.10549 6.71762 6.41886
#
# Compressibility (1/GPa) = 0.02195491
#
# Stress axis : x y z
#
# Youngs Moduli (GPa) = 64.47916 31.76960 63.87427
#
# Poissons Ratio (x) = 0.14756 0.31507
# Poissons Ratio (y) = 0.29949 0.68766
# Poissons Ratio (z) = 0.31805 0.34203
#
# Static dielectric constant tensor:
#      x y z
#    x 3.599260 0.000000 0.024130 
#    y 0.000000 3.472460 0.000000 
#    z 0.024130 0.000000 3.764740 
# 
# 
# High freq. dielectric constant tensor:
#      x y z
#    x 1.771470 0.000000 -0.000580 
#    y 0.000000 1.751190 0.000000 
#    z -0.000580 0.000000 1.782610 
# 
# From -- ./inp_files/96424.got.cif
#   From: 2010.06.25/outbox.cif.g09.slc.cpg/sg15_49_cif.got.tgz:96424.got - 2010.06.28 07:06:18.
