data_PCOD8139532
_publ_section_title
;
Structure prediction by ZEFSAII (Michael W. Deem and Ramdas Pophale) SiO2 
 PCOD8139532
Probable space group: C 2/C
;
_chemical_formula_sum "Si O2"
_cell_formula_units_Z 64
_cell_length_a 23.418947
_cell_length_b 18.203352
_cell_length_c 14.835818
_cell_angle_alpha 90.000000
_cell_angle_beta 28.459802
_cell_angle_gamma 90.000000
_cell_volume 3013.918332
_symmetry_space_group_name_H-M "C 2/C"
_symmetry_group_IT_number 15
_symmetry_cell_setting 'monoclinic'
loop_
_space_group_symop_operation_xyz
x,y,z
-x,y,1/2-z
-x,-y,-z
x,-y,1/2+z
1/2+x,1/2+y,z
1/2-x,1/2+y,1/2-z
1/2-x,1/2-y,-z
1/2+x,1/2-y,1/2+z
loop_
_atom_site_type_symbol
_atom_site_label
_atom_site_fract_x
_atom_site_fract_y
_atom_site_fract_z
Si Si1 0.254699 0.830985 0.249128
Si Si2 0.843042 0.487184 0.132660
Si Si3 0.291395 0.508015 0.865411
Si Si4 0.847738 0.150864 0.297065
Si Si5 0.130962 0.741821 0.565736
Si Si6 0.928008 0.855881 0.144822
Si Si7 0.604081 0.068092 0.264000
Si Si8 0.004509 0.718609 0.349330
O O1 0.292589 0.909385 0.238722
O O2 0.152700 0.796837 0.453260
O O3 0.196993 0.839622 0.231409
O O4 0.371717 0.780373 0.076620
O O5 0.762517 0.511230 0.158937
O O6 0.836436 0.547300 0.221957
O O7 0.982219 0.476663 0.913406
O O8 0.333342 0.432060 0.853066
O O9 0.411034 0.559568 0.699524
O O10 0.192101 0.547964 0.061721
O O11 0.864225 0.209919 0.351547
O O12 0.722182 0.174747 0.426682
O O13 0.956388 0.153945 0.077103
O O14 0.000000 0.705483 0.750000
O O15 0.937220 0.798510 0.214636
O O16 0.581851 0.155662 0.292165
O O17 0.000000 0.701262 0.250000
#
# Coordination Sequence:
#
# PCOD8139532 Si02
#       8
#     8   8   8   8   8   8   8   8
#     4  10  20  39  65  90 129 166 211 264 317 385
#     4   9  20  37  63  94 126 169 214 265 326 371
#     4  11  23  40  62  90 132 167 211 265 318 384
#     4  11  24  41  62  93 126 163 211 259 322 383
#     4  11  22  40  66  93 123 162 207 265 323 378
#     4  11  23  42  63  88 127 173 210 258 318 384
#     4  10  20  39  63  95 126 166 218 271 319 377
#     4  11  23  41  65  94 129 169 217 269 317 375
#
# _framework density 21.234815000000001
#
# number of rings (size 3 to 8) (size 9 to 14) (size 15 to 20)
#    0.000    1.500    2.500    3.750    0.000    4.000 
#    2.250    0.625    0.000    0.000    0.000    0.000 
#    0.000    0.000    0.000    0.000    0.000    0.000 
#
# Total GULP energy -396719.701643 kJ/mol
# GULP energy per Si atom -12397.490676 kJ/mol
# Density = 2.118648 g / cm^3
# Si number density = 21.234815 Si / 1000 Ang^3
#
#
#
# Elastic Constant Matrix: (Units=GPa)
#
#
# Indices 1 2 3 4 5 6 
#
# 1 67.0062 36.3841 39.3782 0.0001 -6.0862 0.0000
# 2 36.3841 125.4290 46.3391 0.0001 -9.2507 -0.0001
# 3 39.3782 46.3391 94.7790 0.0005 4.0921 -0.0002
# 4 0.0001 0.0001 0.0005 28.3813 -0.0002 -0.6985
# 5 -6.0862 -9.2507 4.0921 -0.0002 28.1757 0.0001
# 6 0.0000 -0.0001 -0.0002 -0.6985 0.0001 30.0278
#
#
#
# Elastic Compliance Matrix: (Units=1/GPa)
#
#
# Indices 1 2 3 4 5 6 
#
# 1 0.021512 -0.003066 -0.007644 0.000000 0.004750 0.000000
# 2 -0.003066 0.010615 -0.004063 0.000000 0.003413 0.000000
# 3 -0.007644 -0.004063 0.015942 0.000000 -0.005301 0.000000
# 4 0.000000 0.000000 0.000000 0.035255 0.000000 0.000820
# 5 0.004750 0.003413 -0.005301 0.000000 0.038408 0.000000
# 6 0.000000 0.000000 0.000000 0.000820 0.000000 0.033322
#
#
# Mechanical properties :
#
#
# Convention : Reuss Voigt Hill
#
# Bulk Modulus (GPa) = 53.98666 59.04634 56.51650
# Shear Modulus (GPa) = 26.20890 28.32447 27.26669
#
# Velocity S-wave (km/s) = 3.51699 3.65618 3.58726
# Velocity P-wave (km/s) = 6.47851 6.75946 6.62048
#
# Compressibility (1/GPa) = 0.01852309
#
# Stress axis : x y z
#
# Youngs Moduli (GPa) = 46.48466 94.20728 62.72638
#
# Poissons Ratio (x) = 0.28883 0.47948
# Poissons Ratio (y) = 0.14252 0.25488
# Poissons Ratio (z) = 0.35533 0.38280
#
# Static dielectric constant tensor:
#      x y z
#    x 3.742760 0.000000 -0.159280 
#    y 0.000000 3.932200 0.000000 
#    z -0.159280 0.000000 3.979210 
# 
# 
# High freq. dielectric constant tensor:
#      x y z
#    x 1.817210 0.000000 -0.004970 
#    y 0.000000 1.832700 0.000000 
#    z -0.004970 0.000000 1.843830 
# 
# From -- ./inp_files/174217.got.cif
#   From: 2010.06.25/outbox.cif.g09.slc.cpg/sg15_88_cif.got.tgz:174217.got - 2010.06.28 07:06:18.
