data_PCOD8139318
_publ_section_title
;
Structure prediction by ZEFSAII (Michael W. Deem and Ramdas Pophale) SiO2 
 PCOD8139318
Probable space group: C 2/C
;
_chemical_formula_sum "Si O2"
_cell_formula_units_Z 60
_cell_length_a 23.075401
_cell_length_b 8.676425
_cell_length_c 17.937613
_cell_angle_alpha 90.000000
_cell_angle_beta 122.233936
_cell_angle_gamma 90.000000
_cell_volume 3037.820751
_symmetry_space_group_name_H-M "C 2/C"
_symmetry_group_IT_number 15
_symmetry_cell_setting 'monoclinic'
loop_
_space_group_symop_operation_xyz
x,y,z
-x,y,1/2-z
-x,-y,-z
x,-y,1/2+z
1/2+x,1/2+y,z
1/2-x,1/2+y,1/2-z
1/2-x,1/2-y,-z
1/2+x,1/2-y,1/2+z
loop_
_atom_site_type_symbol
_atom_site_label
_atom_site_fract_x
_atom_site_fract_y
_atom_site_fract_z
Si Si1 0.500000 0.751705 0.750000
Si Si2 0.367007 0.954355 0.658735
Si Si3 0.462325 0.523428 0.850171
Si Si4 0.107823 0.964153 0.959702
Si Si5 0.746375 0.813380 0.810317
Si Si6 0.578835 0.714639 0.293278
Si Si7 0.685093 0.218240 0.505123
Si Si8 0.333964 0.400562 0.350872
O O1 0.434836 0.857479 0.718081
O O2 0.501556 0.639967 0.821795
O O3 0.308750 0.894070 0.674109
O O4 0.348879 0.932120 0.557713
O O5 0.377172 0.131687 0.687265
O O6 0.529341 0.454892 0.937935
O O7 0.417432 0.394194 0.776495
O O8 0.410027 0.606917 0.868774
O O9 0.112459 0.875484 0.885104
O O10 0.156873 0.878960 0.053739
O O11 0.132827 0.138974 0.965390
O O12 0.790493 0.693040 0.892171
O O13 0.711639 0.732825 0.716066
O O14 0.797768 0.936815 0.810057
O O15 0.500000 0.761611 0.250000
O O16 0.750000 0.250000 0.500000
#
# Coordination Sequence:
#
# PCOD8139318 Si02
#       8
#     4   8   8   8   8   8   8   8
#     4  12  18  34  70  90 110 158 204 250 302 342
#     4  11  20  37  61  91 119 149 201 257 299 348
#     4  11  20  38  64  88 116 158 200 251 298 361
#     4  10  20  39  59  89 118 153 203 243 311 355
#     4  10  24  39  56  82 120 165 201 239 302 365
#     4  10  21  34  60  92 120 141 191 253 298 351
#     4   9  19  36  58  82 113 153 202 244 289 363
#     4  11  24  40  59  84 122 163 200 245 301 370
#
# _framework density 19.751000000000001
#
# number of rings (size 3 to 8) (size 9 to 14) (size 15 to 20)
#    0.000    1.600    5.333    0.400    3.733    1.067 
#    0.000    6.000    0.000    2.400    0.000    0.000 
#    0.000    0.000    0.000    0.000    0.000    0.000 
#
# Total GULP energy -371737.538177 kJ/mol
# GULP energy per Si atom -12391.251273 kJ/mol
# Density = 1.970605 g / cm^3
# Si number density = 19.751000 Si / 1000 Ang^3
#
#
#
# Elastic Constant Matrix: (Units=GPa)
#
#
# Indices 1 2 3 4 5 6 
#
# 1 59.2368 4.2658 12.7306 0.0000 4.1214 0.0000
# 2 4.2658 64.5434 38.9379 0.0000 3.9928 0.0000
# 3 12.7306 38.9379 122.8994 0.0000 14.1642 0.0000
# 4 0.0000 0.0000 0.0000 -104.8791 0.0000 -8.1209
# 5 4.1214 3.9928 14.1642 0.0000 19.4714 0.0000
# 6 0.0000 0.0000 0.0000 -8.1209 0.0000 14.4507
#
#
#
# Elastic Compliance Matrix: (Units=1/GPa)
#
#
# Indices 1 2 3 4 5 6 
#
# 1 0.017385 -0.000102 -0.001470 0.000000 -0.002589 0.000000
# 2 -0.000102 0.019160 -0.006123 0.000000 0.000547 0.000000
# 3 -0.001470 -0.006123 0.010968 0.000000 -0.006412 0.000000
# 4 0.000000 0.000000 0.000000 -0.009137 0.000000 -0.005135
# 5 -0.002589 0.000547 -0.006412 0.000000 0.056457 0.000000
# 6 0.000000 0.000000 0.000000 -0.005135 0.000000 0.066315
#
#
# Mechanical properties :
#
#
# Convention : Reuss Voigt Hill
#
# Bulk Modulus (GPa) = 31.13029 39.83869 35.48449
# Shear Modulus (GPa) = 26.70286 -1.47504 12.61391
#
# Velocity S-wave (km/s) = 3.68091 -0.86513 2.52989
# Velocity P-wave (km/s) = 5.81903 4.38364 5.15157
#
# Compressibility (1/GPa) = 0.03212305
#
# Stress axis : x y z
#
# Youngs Moduli (GPa) = 57.52134 52.19148 91.17536
#
# Poissons Ratio (x) = 0.00532 0.13403
# Poissons Ratio (y) = 0.00586 0.55826
# Poissons Ratio (z) = 0.08456 0.31956
#
# Static dielectric constant tensor:
#      x y z
#    x 3.540190 0.000000 0.188460 
#    y 0.000000 3.379540 0.000000 
#    z 0.188460 0.000000 4.059680 
# 
# 
# High freq. dielectric constant tensor:
#      x y z
#    x 1.767150 0.000000 0.017730 
#    y 0.000000 1.743300 0.000000 
#    z 0.017730 0.000000 1.786550 
# 
# From -- ./inp_files/214305.got.cif
#   From: 2010.06.25/outbox.cif.g09.slc.cpg/sg15_108_cif.got.tgz:214305.got - 2010.06.28 07:06:18.
