data_PCOD8139505
_publ_section_title
;
Structure prediction by ZEFSAII (Michael W. Deem and Ramdas Pophale) SiO2 
 PCOD8139505
Probable space group: C 2/C
;
_chemical_formula_sum "Si O2"
_cell_formula_units_Z 56
_cell_length_a 9.211653
_cell_length_b 20.297617
_cell_length_c 27.912869
_cell_angle_alpha 90.000000
_cell_angle_beta 149.404659
_cell_angle_gamma 90.000000
_cell_volume 2656.320656
_symmetry_space_group_name_H-M "C 2/C"
_symmetry_group_IT_number 15
_symmetry_cell_setting 'monoclinic'
loop_
_space_group_symop_operation_xyz
x,y,z
-x,y,1/2-z
-x,-y,-z
x,-y,1/2+z
1/2+x,1/2+y,z
1/2-x,1/2+y,1/2-z
1/2-x,1/2-y,-z
1/2+x,1/2-y,1/2+z
loop_
_atom_site_type_symbol
_atom_site_label
_atom_site_fract_x
_atom_site_fract_y
_atom_site_fract_z
Si Si1 0.466902 0.261173 0.793027
Si Si2 0.870005 0.117268 0.567724
Si Si3 0.829758 0.235614 0.617900
Si Si4 0.083542 0.370376 0.459861
Si Si5 0.396411 0.538252 0.667034
Si Si6 0.283137 0.393592 0.614588
Si Si7 0.602078 0.334731 0.040420
O O1 0.500000 0.227869 0.750000
O O2 0.552974 0.337516 0.809495
O O3 0.694635 0.226801 0.891717
O O4 0.151882 0.251673 0.726857
O O5 0.852123 0.194601 0.575123
O O6 0.023071 0.078735 0.656277
O O7 0.547358 0.093946 0.465174
O O8 0.049520 0.114743 0.569495
O O9 0.643656 0.191191 0.602629
O O10 0.686055 0.305313 0.564362
O O11 0.310930 0.367406 0.567654
O O12 0.242228 0.377854 0.455169
O O13 0.933025 0.440711 0.425954
O O14 0.500000 0.559203 0.750000
O O15 0.448770 0.461580 0.671934
#
# Coordination Sequence:
#
# PCOD8139505 Si02
#       7
#     8   8   8   8   8   8   8
#     4  12  22  33  64  95 123 162 204 256 323 362
#     4  10  20  39  63  89 127 163 202 257 309 369
#     4  10  21  38  58  94 130 162 203 252 310 379
#     4  10  23  39  63  89 125 169 206 250 311 372
#     4  10  22  41  65  89 116 163 223 256 299 367
#     4  10  21  43  63  86 122 167 215 255 303 372
#     4  12  22  38  60  98 131 156 205 257 315 373
#
# _framework density 21.081792
#
# number of rings (size 3 to 8) (size 9 to 14) (size 15 to 20)
#    0.000    1.714    4.286    3.857    4.000    0.000 
#    0.000    2.857    0.000    1.714    0.000    0.000 
#    0.000    0.000    0.000    0.000    0.000    0.000 
#
# Total GULP energy -346875.004446 kJ/mol
# GULP energy per Si atom -12388.393016 kJ/mol
# Density = 2.103381 g / cm^3
# Si number density = 21.081792 Si / 1000 Ang^3
#
#
#
# Elastic Constant Matrix: (Units=GPa)
#
#
# Indices 1 2 3 4 5 6 
#
# 1 172.8781 31.6198 25.9844 0.0075 -1.8049 0.0028
# 2 31.6198 74.3775 11.6075 0.0095 -0.1485 0.0027
# 3 25.9844 11.6075 70.1625 0.0439 5.4821 -0.0007
# 4 0.0075 0.0095 0.0439 23.3590 0.0077 -6.2420
# 5 -1.8049 -0.1485 5.4821 0.0077 18.3881 0.0009
# 6 0.0028 0.0027 -0.0007 -6.2420 0.0009 12.3285
#
#
#
# Elastic Compliance Matrix: (Units=1/GPa)
#
#
# Indices 1 2 3 4 5 6 
#
# 1 0.006566 -0.002458 -0.002123 0.000002 0.001258 0.000000
# 2 -0.002458 0.014733 -0.001554 -0.000004 0.000341 -0.000005
# 3 -0.002123 -0.001554 0.015679 -0.000030 -0.004895 -0.000013
# 4 0.000002 -0.000004 -0.000030 0.049508 -0.000013 0.025066
# 5 0.001258 0.000341 -0.004895 -0.000013 0.055969 -0.000011
# 6 0.000000 -0.000005 -0.000013 0.025066 -0.000011 0.093804
#
#
# Mechanical properties :
#
#
# Convention : Reuss Voigt Hill
#
# Bulk Modulus (GPa) = 40.47282 50.64904 45.56093
# Shear Modulus (GPa) = 19.47315 27.36223 23.41769
#
# Velocity S-wave (km/s) = 3.04253 3.60656 3.33648
# Velocity P-wave (km/s) = 5.61982 6.43585 6.04163
#
# Compressibility (1/GPa) = 0.02470794
#
# Stress axis : x y z
#
# Youngs Moduli (GPa) = 152.29472 67.87535 63.78110
#
# Poissons Ratio (x) = 0.16681 0.13544
# Poissons Ratio (y) = 0.37427 0.09911
# Poissons Ratio (z) = 0.32339 0.10547
#
# Static dielectric constant tensor:
#      x y z
#    x 3.838110 -0.000030 -0.071880 
#    y -0.000030 3.506410 -0.000020 
#    z -0.071880 -0.000020 3.730730 
# 
# 
# High freq. dielectric constant tensor:
#      x y z
#    x 1.819240 0.000000 -0.016070 
#    y 0.000000 1.803770 0.000000 
#    z -0.016070 0.000000 1.813180 
# 
# From -- ./inp_files/309010.got.cif
#   From: 2010.06.25/outbox.cif.g09.slc.cpg/sg15_155_cif.got.tgz:309010.got - 2010.06.28 07:06:18.
