data_PCOD8139885
_publ_section_title
;
Structure prediction by ZEFSAII (Michael W. Deem and Ramdas Pophale) SiO2 
 PCOD8139885
Probable space group: C 2/C
;
_chemical_formula_sum "Si O2"
_cell_formula_units_Z 56
_cell_length_a 7.754944
_cell_length_b 17.547229
_cell_length_c 22.452735
_cell_angle_alpha 90.000000
_cell_angle_beta 127.158080
_cell_angle_gamma 90.000000
_cell_volume 2435.003300
_symmetry_space_group_name_H-M "C 2/C"
_symmetry_group_IT_number 15
_symmetry_cell_setting 'monoclinic'
loop_
_space_group_symop_operation_xyz
x,y,z
-x,y,1/2-z
-x,-y,-z
x,-y,1/2+z
1/2+x,1/2+y,z
1/2-x,1/2+y,1/2-z
1/2-x,1/2-y,-z
1/2+x,1/2-y,1/2+z
loop_
_atom_site_type_symbol
_atom_site_label
_atom_site_fract_x
_atom_site_fract_y
_atom_site_fract_z
Si Si1 0.118048 0.932196 0.153718
Si Si2 0.465039 0.661335 0.144697
Si Si3 0.756419 0.519794 0.454705
Si Si4 0.163576 0.201177 0.064587
Si Si5 0.593737 0.265397 0.104165
Si Si6 0.786853 0.534243 0.084361
Si Si7 0.826298 0.447965 0.763476
O O1 0.173034 0.847425 0.145557
O O2 0.199323 0.998564 0.126247
O O3 0.237818 0.963865 0.238033
O O4 0.862240 0.948804 0.103373
O O5 0.583276 0.709562 0.116392
O O6 0.314423 0.716326 0.153364
O O7 0.636323 0.615912 0.222382
O O8 0.300273 0.601972 0.081257
O O9 0.715028 0.521680 0.516942
O O10 0.000000 0.500000 0.500000
O O11 0.403991 0.237546 0.109046
O O12 0.171009 0.113657 0.047433
O O13 0.994908 0.237601 0.982225
O O14 0.047707 0.550159 0.146562
O O15 0.000000 0.422620 0.750000
#
# Coordination Sequence:
#
# PCOD8139885 Si02
#       7
#     8   8   8   8   8   8   8
#     4  10  20  40  62  92 126 161 213 265 314 375
#     4  11  22  41  64  95 128 175 213 259 320 399
#     4  11  21  35  64  97 125 159 218 266 310 374
#     4  11  21  38  63  92 133 165 206 265 326 377
#     4  11  24  37  61 104 129 160 210 272 325 373
#     4  11  19  40  68  87 122 176 211 261 319 375
#     4   9  19  39  71  87 120 174 225 254 313 386
#
# _framework density 22.997917000000001
#
# number of rings (size 3 to 8) (size 9 to 14) (size 15 to 20)
#    0.000    1.429    5.714    2.571    2.000    0.000 
#    0.000   10.714    0.000    0.000    0.000    0.000 
#    0.000    0.000    0.000    0.000    0.000    0.000 
#
# Total GULP energy -346970.075005 kJ/mol
# GULP energy per Si atom -12391.788393 kJ/mol
# Density = 2.294557 g / cm^3
# Si number density = 22.997917 Si / 1000 Ang^3
#
#
#
# Elastic Constant Matrix: (Units=GPa)
#
#
# Indices 1 2 3 4 5 6 
#
# 1 61.6041 28.0246 3.7250 0.0001 27.3564 0.0000
# 2 28.0246 121.1581 29.8076 0.0000 19.2571 0.0000
# 3 3.7250 29.8076 76.9523 0.0001 29.9890 0.0000
# 4 0.0001 0.0000 0.0001 26.7954 0.0001 7.8848
# 5 27.3564 19.2571 29.9890 0.0001 32.3458 0.0000
# 6 0.0000 0.0000 0.0000 7.8848 0.0000 29.7272
#
#
#
# Elastic Compliance Matrix: (Units=1/GPa)
#
#
# Indices 1 2 3 4 5 6 
#
# 1 0.038118 -0.006068 0.018258 0.000000 -0.045553 0.000000
# 2 -0.006068 0.010331 -0.005184 0.000000 0.003789 0.000000
# 3 0.018258 -0.005184 0.029646 0.000000 -0.039841 0.000000
# 4 0.000000 0.000000 0.000000 0.040479 0.000000 -0.010737
# 5 -0.045553 0.003789 -0.039841 0.000000 0.104125 0.000000
# 6 0.000000 0.000000 0.000000 -0.010737 0.000000 0.036487
#
#
# Mechanical properties :
#
#
# Convention : Reuss Voigt Hill
#
# Bulk Modulus (GPa) = 10.85721 42.53656 26.69688
# Shear Modulus (GPa) = 18.12403 30.98417 24.55410
#
# Velocity S-wave (km/s) = 2.81031 3.67449 3.27106
# Velocity P-wave (km/s) = 3.90662 6.04470 5.08921
#
# Compressibility (1/GPa) = 0.09210472
#
# Stress axis : x y z
#
# Youngs Moduli (GPa) = 26.23433 96.79939 33.73158
#
# Poissons Ratio (x) = 0.58743 -0.61587
# Poissons Ratio (y) = 0.15920 0.17488
# Poissons Ratio (z) = -0.47899 0.50184
#
# Static dielectric constant tensor:
#      x y z
#    x 4.031720 0.000000 0.370830 
#    y 0.000000 3.863170 0.000000 
#    z 0.370830 0.000000 4.672960 
# 
# 
# High freq. dielectric constant tensor:
#      x y z
#    x 1.898650 0.000000 0.021780 
#    y 0.000000 1.889380 0.000000 
#    z 0.021780 0.000000 1.921120 
# 
# From -- ./inp_files/308649.got.cif
#   From: 2010.06.25/outbox.cif.g09.slc.cpg/sg15_155_cif.got.tgz:308649.got - 2010.06.28 07:06:18.
