data_PCOD8139014
_publ_section_title
;
Structure prediction by ZEFSAII (Michael W. Deem and Ramdas Pophale) SiO2 
 PCOD8139014
Probable space group: C 2/C
;
_chemical_formula_sum "Si O2"
_cell_formula_units_Z 56
_cell_length_a 8.998713
_cell_length_b 29.519844
_cell_length_c 10.855024
_cell_angle_alpha 90.000000
_cell_angle_beta 75.226939
_cell_angle_gamma 90.000000
_cell_volume 2788.215223
_symmetry_space_group_name_H-M "C 2/C"
_symmetry_group_IT_number 15
_symmetry_cell_setting 'monoclinic'
loop_
_space_group_symop_operation_xyz
x,y,z
-x,y,1/2-z
-x,-y,-z
x,-y,1/2+z
1/2+x,1/2+y,z
1/2-x,1/2+y,1/2-z
1/2-x,1/2-y,-z
1/2+x,1/2-y,1/2+z
loop_
_atom_site_type_symbol
_atom_site_label
_atom_site_fract_x
_atom_site_fract_y
_atom_site_fract_z
Si Si1 0.000000 0.250669 0.250000
Si Si2 0.557637 0.900015 0.102291
Si Si3 0.436831 0.677890 0.072273
Si Si4 0.000000 0.899508 0.750000
Si Si5 0.250396 0.859507 0.092639
Si Si6 0.689385 0.457786 0.540751
Si Si7 0.755432 0.179811 0.640113
Si Si8 0.437779 0.449403 0.390806
O O1 0.910714 0.219643 0.169901
O O2 0.870072 0.280224 0.345772
O O3 0.500000 0.913315 0.250000
O O4 0.422296 0.879299 0.047346
O O5 0.691200 0.863131 0.080971
O O6 0.634218 0.944230 0.024928
O O7 0.449479 0.631337 0.145916
O O8 0.287757 0.672715 0.015697
O O9 0.584307 0.691032 0.958129
O O10 0.861457 0.932678 0.822122
O O11 0.222567 0.830487 0.220786
O O12 0.134432 0.900958 0.116437
O O13 0.574184 0.441858 0.457894
O O14 0.685788 0.512500 0.543209
O O15 0.500000 0.468742 0.250000
#
# Coordination Sequence:
#
# PCOD8139014 Si02
#       8
#     4   8   8   4   8   8   8   8
#     4  11  24  40  64  92 118 156 206 254 322 379
#     4  10  20  38  64  85 124 165 203 250 313 359
#     4  11  23  38  66  87 120 161 205 249 311 382
#     4  11  20  40  60  86 128 162 202 246 318 357
#     4  11  21  38  63  91 122 158 210 257 301 366
#     4  11  22  38  61  90 128 167 206 255 302 359
#     4  11  20  42  62  89 118 159 203 255 313 372
#     4  11  21  35  63  96 120 163 223 256 283 359
#
# _framework density 20.084533
#
# number of rings (size 3 to 8) (size 9 to 14) (size 15 to 20)
#    0.000    1.143    5.714    3.429    0.000    1.143 
#    0.000    0.714    0.000    0.000    0.000    0.000 
#    0.000    0.000    0.000    0.000    0.000    0.000 
#
# Total GULP energy -347173.628863 kJ/mol
# GULP energy per Si atom -12399.058174 kJ/mol
# Density = 2.003882 g / cm^3
# Si number density = 20.084533 Si / 1000 Ang^3
#
#
#
# Elastic Constant Matrix: (Units=GPa)
#
#
# Indices 1 2 3 4 5 6 
#
# 1 80.6995 15.5361 39.2206 0.0000 4.8112 0.0000
# 2 15.5361 71.4508 24.6378 0.0000 2.8922 0.0000
# 3 39.2206 24.6378 73.3304 0.0000 -0.1605 0.0000
# 4 0.0000 0.0000 0.0000 34.9721 0.0000 -6.0249
# 5 4.8112 2.8922 -0.1605 0.0000 36.6939 0.0000
# 6 0.0000 0.0000 0.0000 -6.0249 0.0000 35.1652
#
#
#
# Elastic Compliance Matrix: (Units=1/GPa)
#
#
# Indices 1 2 3 4 5 6 
#
# 1 0.016947 -0.000529 -0.008891 0.000000 -0.002219 0.000000
# 2 -0.000529 0.015906 -0.005064 0.000000 -0.001206 0.000000
# 3 -0.008891 -0.005064 0.020097 0.000000 0.001653 0.000000
# 4 0.000000 0.000000 0.000000 0.029464 0.000000 0.005048
# 5 -0.002219 -0.001206 0.001653 0.000000 0.027646 0.000000
# 6 0.000000 0.000000 0.000000 0.005048 0.000000 0.029302
#
#
# Mechanical properties :
#
#
# Convention : Reuss Voigt Hill
#
# Bulk Modulus (GPa) = 41.69806 42.69660 42.19733
# Shear Modulus (GPa) = 28.35697 31.10531 29.73114
#
# Velocity S-wave (km/s) = 3.76158 3.93965 3.85164
# Velocity P-wave (km/s) = 6.29860 6.48067 6.39028
#
# Compressibility (1/GPa) = 0.02398193
#
# Stress axis : x y z
#
# Youngs Moduli (GPa) = 59.00750 62.87095 49.75815
#
# Poissons Ratio (x) = 0.03327 0.44241
# Poissons Ratio (y) = 0.03123 0.25196
# Poissons Ratio (z) = 0.52464 0.31835
#
# Static dielectric constant tensor:
#      x y z
#    x 3.832300 0.000000 0.132730 
#    y 0.000000 3.659560 0.000000 
#    z 0.132730 0.000000 3.691970 
# 
# 
# High freq. dielectric constant tensor:
#      x y z
#    x 1.767660 0.000000 0.005870 
#    y 0.000000 1.789920 0.000000 
#    z 0.005870 0.000000 1.782220 
# 
# From -- ./inp_files/82176.got.cif
#   From: 2010.06.25/outbox.cif.g09.slc.cpg/sg15_42_cif.got.tgz:82176.got - 2010.06.28 07:06:18.
