data_PCOD8139637
_publ_section_title
;
Structure prediction by ZEFSAII (Michael W. Deem and Ramdas Pophale) SiO2 
 PCOD8139637
Probable space group: C 2/C
;
_chemical_formula_sum "Si O2"
_cell_formula_units_Z 64
_cell_length_a 14.719650
_cell_length_b 8.318791
_cell_length_c 23.063405
_cell_angle_alpha 90.000000
_cell_angle_beta 94.653117
_cell_angle_gamma 90.000000
_cell_volume 2814.798865
_symmetry_space_group_name_H-M "C 2/C"
_symmetry_group_IT_number 15
_symmetry_cell_setting 'monoclinic'
loop_
_space_group_symop_operation_xyz
x,y,z
-x,y,1/2-z
-x,-y,-z
x,-y,1/2+z
1/2+x,1/2+y,z
1/2-x,1/2+y,1/2-z
1/2-x,1/2-y,-z
1/2+x,1/2-y,1/2+z
loop_
_atom_site_type_symbol
_atom_site_label
_atom_site_fract_x
_atom_site_fract_y
_atom_site_fract_z
Si Si1 0.232907 0.841599 0.816224
Si Si2 0.005702 0.749331 0.086547
Si Si3 0.798091 0.090768 0.480409
Si Si4 0.170452 0.941522 0.127310
Si Si5 0.965589 0.724784 0.959329
Si Si6 0.085616 0.527032 0.648933
Si Si7 0.084494 0.161726 0.215788
Si Si8 0.116524 0.940988 0.916125
O O1 0.267170 0.658942 0.825592
O O2 0.182322 0.845795 0.752072
O O3 0.315881 0.966318 0.824787
O O4 0.156262 0.887449 0.857772
O O5 0.107127 0.822035 0.086666
O O6 0.011044 0.617789 0.139588
O O7 0.931528 0.885844 0.096153
O O8 0.986546 0.653746 0.024911
O O9 0.750000 0.250000 0.500000
O O10 0.903574 0.120273 0.469117
O O11 0.801157 0.962046 0.532850
O O12 0.760272 0.025346 0.416397
O O13 0.101152 0.058976 0.158333
O O14 0.909389 0.601491 0.915997
O O15 0.054282 0.792566 0.932219
O O16 0.054849 0.659203 0.694257
O O17 0.000000 0.094067 0.250000
#
# Coordination Sequence:
#
# PCOD8139637 Si02
#       8
#     8   8   8   8   8   8   8   8
#     4  11  26  43  67  99 131 179 231 276 342 396
#     4  10  20  39  65  96 132 176 218 267 337 398
#     4  11  21  38  66 102 136 180 218 277 346 408
#     4  11  22  45  68  95 137 175 224 284 332 410
#     4  11  19  40  65  96 142 176 217 272 333 411
#     4  11  23  41  65  98 131 171 221 285 331 401
#     4  12  25  48  71  91 129 181 232 284 342 391
#     4  11  21  41  66  98 138 180 221 270 341 410
#
# _framework density 22.736972000000002
#
# number of rings (size 3 to 8) (size 9 to 14) (size 15 to 20)
#    0.000    1.000    3.750    4.125    0.000    0.500 
#   11.250    6.250    0.000    0.000    0.000    0.000 
#    0.000    0.000    0.000    0.000    0.000    0.000 
#
# Total GULP energy -396568.192088 kJ/mol
# GULP energy per Si atom -12392.756003 kJ/mol
# Density = 2.268522 g / cm^3
# Si number density = 22.736972 Si / 1000 Ang^3
#
#
#
# Elastic Constant Matrix: (Units=GPa)
#
#
# Indices 1 2 3 4 5 6 
#
# 1 54.9420 24.2104 24.0677 0.0000 9.4308 0.0000
# 2 24.2104 88.1140 38.0638 0.0000 3.7771 0.0000
# 3 24.0677 38.0638 103.5827 0.0000 13.8469 0.0000
# 4 0.0000 0.0000 0.0000 39.5639 0.0000 8.3807
# 5 9.4308 3.7771 13.8469 0.0000 39.8323 0.0000
# 6 0.0000 0.0000 0.0000 8.3807 0.0000 35.1244
#
#
#
# Elastic Compliance Matrix: (Units=1/GPa)
#
#
# Indices 1 2 3 4 5 6 
#
# 1 0.022194 -0.004668 -0.002935 0.000000 -0.003792 0.000000
# 2 -0.004668 0.014480 -0.004405 0.000000 0.001264 0.000000
# 3 -0.002935 -0.004405 0.012382 0.000000 -0.003192 0.000000
# 4 0.000000 0.000000 0.000000 0.026621 0.000000 -0.006352
# 5 -0.003792 0.001264 -0.003192 0.000000 0.026993 0.000000
# 6 0.000000 0.000000 0.000000 -0.006352 0.000000 0.029986
#
#
# Mechanical properties :
#
#
# Convention : Reuss Voigt Hill
#
# Bulk Modulus (GPa) = 39.93569 46.59139 43.26354
# Shear Modulus (GPa) = 30.29956 33.59056 31.94506
#
# Velocity S-wave (km/s) = 3.65446 3.84781 3.75238
# Velocity P-wave (km/s) = 5.95055 6.34640 6.15166
#
# Compressibility (1/GPa) = 0.02504026
#
# Stress axis : x y z
#
# Youngs Moduli (GPa) = 45.05639 69.05877 80.76532
#
# Poissons Ratio (x) = 0.32236 0.23702
# Poissons Ratio (y) = 0.21032 0.35581
# Poissons Ratio (z) = 0.13223 0.30424
#
# Static dielectric constant tensor:
#      x y z
#    x 3.853740 0.000000 0.290450 
#    y 0.000000 4.130390 0.000000 
#    z 0.290450 0.000000 4.283120 
# 
# 
# High freq. dielectric constant tensor:
#      x y z
#    x 1.876960 0.000000 0.021820 
#    y 0.000000 1.896520 0.000000 
#    z 0.021820 0.000000 1.904360 
# 
# From -- ./inp_files/273163.got.cif
#   From: 2010.06.25/outbox.cif.g09.slc.cpg/sg15_137_cif.got.tgz:273163.got - 2010.06.28 07:06:18.
