data_PCOD8139475
_publ_section_title
;
Structure prediction by ZEFSAII (Michael W. Deem and Ramdas Pophale) SiO2 
 PCOD8139475
Probable space group: C 2/C
;
_chemical_formula_sum "Si O2"
_cell_formula_units_Z 64
_cell_length_a 22.646792
_cell_length_b 19.284207
_cell_length_c 8.757291
_cell_angle_alpha 90.000000
_cell_angle_beta 121.293319
_cell_angle_gamma 90.000000
_cell_volume 3268.136487
_symmetry_space_group_name_H-M "C 2/C"
_symmetry_group_IT_number 15
_symmetry_cell_setting 'monoclinic'
loop_
_space_group_symop_operation_xyz
x,y,z
-x,y,1/2-z
-x,-y,-z
x,-y,1/2+z
1/2+x,1/2+y,z
1/2-x,1/2+y,1/2-z
1/2-x,1/2-y,-z
1/2+x,1/2-y,1/2+z
loop_
_atom_site_type_symbol
_atom_site_label
_atom_site_fract_x
_atom_site_fract_y
_atom_site_fract_z
Si Si1 0.069850 0.679688 0.761909
Si Si2 0.428248 0.169429 0.096409
Si Si3 0.556943 0.314257 0.222084
Si Si4 0.661663 0.573393 0.231255
Si Si5 0.167797 0.928678 0.381426
Si Si6 0.042483 0.172523 0.175591
Si Si7 0.691908 0.919154 0.441714
Si Si8 0.188462 0.566057 0.575094
O O1 0.067573 0.669870 0.578728
O O2 0.079778 0.761805 0.806787
O O3 0.136801 0.639395 0.916895
O O4 0.000000 0.651511 0.750000
O O5 0.500000 0.137293 0.250000
O O6 0.415911 0.245530 0.153925
O O7 0.367348 0.119074 0.067890
O O8 0.500000 0.353568 0.250000
O O9 0.618355 0.366132 0.267465
O O10 0.515378 0.294465 0.013957
O O11 0.639117 0.500589 0.274980
O O12 0.598358 0.625768 0.166330
O O13 0.731081 0.603365 0.402603
O O14 0.676501 0.562995 0.073472
O O15 0.240094 0.909856 0.402612
O O16 0.000000 0.130456 0.250000
O O17 0.693389 0.932027 0.263602
O O18 0.669090 0.988847 0.497266
#
# Coordination Sequence:
#
# PCOD8139475 Si02
#       8
#     8   8   8   8   8   8   8   8
#     4  10  21  39  61  87 117 153 193 237 294 341
#     4  10  20  39  63  84 118 152 193 240 285 348
#     4  11  21  42  60  85 120 152 193 243 283 343
#     4  11  23  40  59  87 119 154 196 240 287 343
#     4  11  23  38  62  86 118 157 193 240 290 340
#     4  11  24  40  61  88 117 154 195 238 292 342
#     4  10  22  40  60  85 122 151 194 244 283 349
#     4  10  22  39  60  88 116 155 194 237 294 341
#
# _framework density 19.583024000000002
#
# number of rings (size 3 to 8) (size 9 to 14) (size 15 to 20)
#    0.000    1.500    3.750    3.000    3.500    4.500 
#    0.000    2.500    0.000    0.000    0.000    0.000 
#    0.000    0.000    0.000    0.000    0.000    0.000 
#
# Total GULP energy -396680.590955 kJ/mol
# GULP energy per Si atom -12396.268467 kJ/mol
# Density = 1.953845 g / cm^3
# Si number density = 19.583024 Si / 1000 Ang^3
#
#
#
# Elastic Constant Matrix: (Units=GPa)
#
#
# Indices 1 2 3 4 5 6 
#
# 1 112.2213 65.0422 40.7976 0.0000 1.2721 0.0000
# 2 65.0422 102.2698 50.4991 0.0000 21.4148 0.0000
# 3 40.7976 50.4991 90.1153 0.0000 7.5794 0.0000
# 4 0.0000 0.0000 0.0000 29.8341 0.0000 6.6036
# 5 1.2721 21.4148 7.5794 0.0000 33.9182 0.0000
# 6 0.0000 0.0000 0.0000 6.6036 0.0000 33.5232
#
#
#
# Elastic Compliance Matrix: (Units=1/GPa)
#
#
# Indices 1 2 3 4 5 6 
#
# 1 0.015426 -0.010256 -0.001765 0.000000 0.006291 0.000000
# 2 -0.010256 0.022177 -0.006766 0.000000 -0.012105 0.000000
# 3 -0.001765 -0.006766 0.015616 0.000000 0.000848 0.000000
# 4 0.000000 0.000000 0.000000 0.035047 0.000000 -0.006904
# 5 0.006291 -0.012105 0.000848 0.000000 0.036700 0.000000
# 6 0.000000 0.000000 0.000000 -0.006904 0.000000 0.031190
#
#
# Mechanical properties :
#
#
# Convention : Reuss Voigt Hill
#
# Bulk Modulus (GPa) = 63.92462 68.58714 66.25588
# Shear Modulus (GPa) = 25.13255 29.33960 27.23608
#
# Velocity S-wave (km/s) = 3.58632 3.87488 3.73339
# Velocity P-wave (km/s) = 7.06135 7.42424 7.24507
#
# Compressibility (1/GPa) = 0.01564342
#
# Stress axis : x y z
#
# Youngs Moduli (GPa) = 64.82598 45.09266 64.03567
#
# Poissons Ratio (x) = 0.46249 0.11305
# Poissons Ratio (y) = 0.66488 0.43326
# Poissons Ratio (z) = 0.11444 0.30509
#
# Static dielectric constant tensor:
#      x y z
#    x 3.788550 0.000000 -0.015400 
#    y 0.000000 3.541150 0.000000 
#    z -0.015400 0.000000 3.731720 
# 
# 
# High freq. dielectric constant tensor:
#      x y z
#    x 1.774450 0.000000 -0.009350 
#    y 0.000000 1.751860 0.000000 
#    z -0.009350 0.000000 1.772820 
# 
# From -- ./inp_files/57877.got.cif
#   From: 2010.06.25/outbox.cif.g09.slc.cpg/sg15_29_cif.got.tgz:57877.got - 2010.06.28 07:06:18.
