data_PCOD8139041
_publ_section_title
;
Structure prediction by ZEFSAII (Michael W. Deem and Ramdas Pophale) SiO2 
 PCOD8139041
Probable space group: C 2/C
;
_chemical_formula_sum "Si O2"
_cell_formula_units_Z 44
_cell_length_a 16.851222
_cell_length_b 9.101028
_cell_length_c 14.719540
_cell_angle_alpha 90.000000
_cell_angle_beta 79.127257
_cell_angle_gamma 90.000000
_cell_volume 2216.915048
_symmetry_space_group_name_H-M "C 2/C"
_symmetry_group_IT_number 15
_symmetry_cell_setting 'monoclinic'
loop_
_space_group_symop_operation_xyz
x,y,z
-x,y,1/2-z
-x,-y,-z
x,-y,1/2+z
1/2+x,1/2+y,z
1/2-x,1/2+y,1/2-z
1/2-x,1/2-y,-z
1/2+x,1/2-y,1/2+z
loop_
_atom_site_type_symbol
_atom_site_label
_atom_site_fract_x
_atom_site_fract_y
_atom_site_fract_z
Si Si1 0.273543 0.172290 0.087462
Si Si2 0.926728 0.961879 0.400236
Si Si3 0.500000 0.310512 0.750000
Si Si4 0.659949 0.686526 0.280227
Si Si5 0.759197 0.848125 0.410333
Si Si6 0.897738 0.907256 0.100024
O O1 0.199935 0.178417 0.173315
O O2 0.351538 0.252095 0.113418
O O3 0.289025 0.000735 0.063614
O O4 0.250000 0.250000 0.000000
O O5 0.947232 0.095993 0.331259
O O6 0.890826 0.020518 0.502499
O O7 0.855408 0.865761 0.370501
O O8 0.008832 0.868855 0.397379
O O9 0.427685 0.226208 0.711412
O O10 0.719651 0.770942 0.332874
O O11 0.641361 0.521862 0.320402
O O12 0.750000 0.750000 0.500000
#
# Coordination Sequence:
#
# PCOD8139041 Si02
#       6
#     8   8   4   8   8   8
#     4  12  22  39  62  94 124 166 211 257 313 376
#     4  10  20  39  64  91 119 166 215 252 304 376
#     4  10  20  38  64  90 114 172 214 248 298 380
#     4  11  22  38  67  91 125 161 214 259 312 368
#     4  12  23  40  64  96 127 164 203 266 320 372
#     4  10  21  40  66  89 122 167 215 256 305 382
#
# _framework density 19.8474
#
# number of rings (size 3 to 8) (size 9 to 14) (size 15 to 20)
#    0.000    1.091    5.455    1.091    2.545    0.000 
#    0.000    0.909    8.000    0.000    0.000    0.000 
#    0.000    0.000    0.000    0.000    0.000    0.000 
#
# Total GULP energy -272621.376636 kJ/mol
# GULP energy per Si atom -12391.880756 kJ/mol
# Density = 1.980223 g / cm^3
# Si number density = 19.847400 Si / 1000 Ang^3
#
#
#
# Elastic Constant Matrix: (Units=GPa)
#
#
# Indices 1 2 3 4 5 6 
#
# 1 191.2297 62.2243 41.6141 0.0000 1.6066 0.0000
# 2 62.2243 101.2409 31.5894 0.0000 -2.5361 0.0000
# 3 41.6141 31.5894 128.4901 0.0000 -1.5423 0.0000
# 4 0.0000 0.0000 0.0000 11.0151 0.0000 -4.8073
# 5 1.6066 -2.5361 -1.5423 0.0000 33.1403 0.0000
# 6 0.0000 0.0000 0.0000 -4.8073 0.0000 40.9401
#
#
#
# Elastic Compliance Matrix: (Units=1/GPa)
#
#
# Indices 1 2 3 4 5 6 
#
# 1 0.006734 -0.003761 -0.001264 0.000000 -0.000673 0.000000
# 2 -0.003761 0.012815 -0.001920 0.000000 0.001074 0.000000
# 3 -0.001264 -0.001920 0.008668 0.000000 0.000318 0.000000
# 4 0.000000 0.000000 0.000000 0.095688 0.000000 0.011236
# 5 -0.000673 0.001074 0.000318 0.000000 0.030304 0.000000
# 6 0.000000 0.000000 0.000000 0.011236 0.000000 0.025745
#
#
# Mechanical properties :
#
#
# Convention : Reuss Voigt Hill
#
# Bulk Modulus (GPa) = 69.79953 76.86848 73.33400
# Shear Modulus (GPa) = 25.17371 36.05464 30.61418
#
# Velocity S-wave (km/s) = 3.56527 4.26677 3.93170
# Velocity P-wave (km/s) = 7.22445 7.94277 7.59211
#
# Compressibility (1/GPa) = 0.01432674
#
# Stress axis : x y z
#
# Youngs Moduli (GPa) = 148.50137 78.03391 115.36804
#
# Poissons Ratio (x) = 0.29350 0.14586
# Poissons Ratio (y) = 0.55854 0.22145
# Poissons Ratio (z) = 0.18775 0.14979
#
# Static dielectric constant tensor:
#      x y z
#    x 4.316350 0.000000 0.277220 
#    y 0.000000 3.964680 0.000000 
#    z 0.277220 0.000000 3.888720 
# 
# 
# High freq. dielectric constant tensor:
#      x y z
#    x 1.802750 0.000000 0.011090 
#    y 0.000000 1.726010 0.000000 
#    z 0.011090 0.000000 1.795170 
# 
# From -- ./inp_files/159182.got.cif
#   From: 2010.06.25/outbox.cif.g09.slc.cpg/sg15_80_cif.got.tgz:159182.got - 2010.06.28 07:06:18.
