data_PCOD8139214
_publ_section_title
;
Structure prediction by ZEFSAII (Michael W. Deem and Ramdas Pophale) SiO2 
 PCOD8139214
Probable space group: C 2/C
;
_chemical_formula_sum "Si O2"
_cell_formula_units_Z 56
_cell_length_a 18.515326
_cell_length_b 16.411274
_cell_length_c 17.718820
_cell_angle_alpha 90.000000
_cell_angle_beta 149.944091
_cell_angle_gamma 90.000000
_cell_volume 2696.569683
_symmetry_space_group_name_H-M "C 2/C"
_symmetry_group_IT_number 15
_symmetry_cell_setting 'monoclinic'
loop_
_space_group_symop_operation_xyz
x,y,z
-x,y,1/2-z
-x,-y,-z
x,-y,1/2+z
1/2+x,1/2+y,z
1/2-x,1/2+y,1/2-z
1/2-x,1/2-y,-z
1/2+x,1/2-y,1/2+z
loop_
_atom_site_type_symbol
_atom_site_label
_atom_site_fract_x
_atom_site_fract_y
_atom_site_fract_z
Si Si1 0.643992 0.551049 0.829258
Si Si2 0.634657 0.610122 0.474142
Si Si3 0.051126 0.050021 0.973321
Si Si4 0.779614 0.237193 0.834304
Si Si5 0.189424 0.874577 0.855377
Si Si6 0.139602 0.685085 0.430307
Si Si7 0.069904 0.227791 0.020264
O O1 0.500000 0.532513 0.750000
O O2 0.583370 0.588444 0.696288
O O3 0.723736 0.469237 0.873553
O O4 0.766132 0.603086 0.981003
O O5 0.640593 0.512741 0.500244
O O6 0.721243 0.655568 0.617410
O O7 0.471248 0.642368 0.321309
O O8 0.709874 0.634958 0.463852
O O9 0.132971 0.134289 0.068512
O O10 0.000000 0.000000 0.000000
O O11 0.794856 0.315338 0.904293
O O12 0.633953 0.236720 0.655086
O O13 0.900619 0.232282 0.880240
O O14 0.250000 0.750000 0.500000
O O15 0.094299 0.713903 0.471638
O O16 0.000000 0.674546 0.250000
#
# Coordination Sequence:
#
# PCOD8139214 Si02
#       7
#     8   8   8   8   8   8   8
#     4  11  21  42  71  97 124 170 236 277 332 410
#     4  10  20  38  67  97 123 172 227 270 323 400
#     4  11  19  37  66  97 123 167 224 278 318 398
#     4  12  22  42  62 100 134 173 217 278 334 403
#     4  10  20  40  68  96 130 169 225 275 326 404
#     4  12  26  44  67  98 136 180 225 288 348 406
#     4  12  25  40  65  98 133 169 221 276 342 400
#
# _framework density 20.767126000000001
#
# number of rings (size 3 to 8) (size 9 to 14) (size 15 to 20)
#    0.000    0.857    5.714    5.143    0.000    0.000 
#    0.000    2.143    0.000    0.000    0.000    0.000 
#    0.000    0.000    0.000    0.000    0.000    0.000 
#
# Total GULP energy -346876.747678 kJ/mol
# GULP energy per Si atom -12388.455274 kJ/mol
# Density = 2.071986 g / cm^3
# Si number density = 20.767126 Si / 1000 Ang^3
#
#
#
# Elastic Constant Matrix: (Units=GPa)
#
#
# Indices 1 2 3 4 5 6 
#
# 1 75.6897 31.0415 15.1982 -0.0020 -17.8875 -0.0008
# 2 31.0415 118.6536 42.9054 -0.0016 -6.2208 -0.0008
# 3 15.1982 42.9054 110.0258 -0.0022 -23.1589 -0.0016
# 4 -0.0020 -0.0016 -0.0022 40.0346 -0.0023 -8.4082
# 5 -17.8875 -6.2208 -23.1589 -0.0023 29.1952 -0.0012
# 6 -0.0008 -0.0008 -0.0016 -8.4082 -0.0012 36.7872
#
#
#
# Elastic Compliance Matrix: (Units=1/GPa)
#
#
# Indices 1 2 3 4 5 6 
#
# 1 0.017348 -0.004578 0.001706 0.000002 0.011006 0.000001
# 2 -0.004578 0.011051 -0.004528 0.000000 -0.004042 0.000000
# 3 0.001706 -0.004528 0.012767 0.000001 0.010208 0.000001
# 4 0.000002 0.000000 0.000001 0.026238 0.000004 0.005997
# 5 0.011006 -0.004042 0.010208 0.000004 0.048232 0.000003
# 6 0.000001 0.000000 0.000001 0.005997 0.000003 0.028554
#
#
# Mechanical properties :
#
#
# Convention : Reuss Voigt Hill
#
# Bulk Modulus (GPa) = 37.92801 53.62882 45.77841
# Shear Modulus (GPa) = 29.80105 35.55168 32.67636
#
# Velocity S-wave (km/s) = 3.79226 4.14203 3.97100
# Velocity P-wave (km/s) = 6.12194 6.98249 6.56633
#
# Compressibility (1/GPa) = 0.02636574
#
# Stress axis : x y z
#
# Youngs Moduli (GPa) = 57.64343 90.48984 78.32426
#
# Poissons Ratio (x) = 0.41428 -0.13359
# Poissons Ratio (y) = 0.26390 0.35463
# Poissons Ratio (z) = -0.09832 0.40972
#
# Static dielectric constant tensor:
#      x y z
#    x 3.730580 0.000000 -0.377070 
#    y 0.000000 3.797670 0.000000 
#    z -0.377070 0.000000 3.823570 
# 
# 
# High freq. dielectric constant tensor:
#      x y z
#    x 1.809160 0.000000 -0.042220 
#    y 0.000000 1.817810 0.000000 
#    z -0.042220 0.000000 1.803330 
# 
# From -- ./inp_files/215765.got.cif
#   From: 2010.06.25/outbox.cif.g09.slc.cpg/sg15_108_cif.got.tgz:215765.got - 2010.06.28 07:06:18.
