data_PCOD8139459
_publ_section_title
;
Structure prediction by ZEFSAII (Michael W. Deem and Ramdas Pophale) SiO2 
 PCOD8139459
Probable space group: C 2/C
;
_chemical_formula_sum "Si O2"
_cell_formula_units_Z 64
_cell_length_a 26.285906
_cell_length_b 9.156614
_cell_length_c 14.018240
_cell_angle_alpha 90.000000
_cell_angle_beta 65.458216
_cell_angle_gamma 90.000000
_cell_volume 3069.232449
_symmetry_space_group_name_H-M "C 2/C"
_symmetry_group_IT_number 15
_symmetry_cell_setting 'monoclinic'
loop_
_space_group_symop_operation_xyz
x,y,z
-x,y,1/2-z
-x,-y,-z
x,-y,1/2+z
1/2+x,1/2+y,z
1/2-x,1/2+y,1/2-z
1/2-x,1/2-y,-z
1/2+x,1/2-y,1/2+z
loop_
_atom_site_type_symbol
_atom_site_label
_atom_site_fract_x
_atom_site_fract_y
_atom_site_fract_z
Si Si1 0.337387 0.584386 0.625191
Si Si2 0.409819 0.886178 0.679261
Si Si3 0.315894 0.116105 0.089432
Si Si4 0.810125 0.176449 0.035081
Si Si5 0.460335 0.357843 0.023956
Si Si6 0.717687 0.405052 0.140636
Si Si7 0.005598 0.597997 0.636513
Si Si8 0.613642 0.074533 0.084994
O O1 0.304100 0.710834 0.592805
O O2 0.313234 0.426130 0.624119
O O3 0.400723 0.580300 0.538634
O O4 0.331280 0.617437 0.743337
O O5 0.359551 0.907564 0.643242
O O6 0.447095 0.739191 0.629762
O O7 0.385547 0.882384 0.804844
O O8 0.449639 0.027079 0.637525
O O9 0.257230 0.034224 0.148894
O O10 0.343822 0.059575 0.969111
O O11 0.751852 0.256348 0.099051
O O12 0.809793 0.070605 0.941759
O O13 0.862946 0.286171 0.991338
O O14 0.500000 0.500000 0.000000
O O15 0.483009 0.247015 0.927376
O O16 0.053449 0.473302 0.591695
O O17 0.000000 0.645402 0.750000
#
# Coordination Sequence:
#
# PCOD8139459 Si02
#       8
#     8   8   8   8   8   8   8   8
#     4  11  22  40  60  88 128 157 204 260 320 368
#     4  10  21  39  68  88 122 165 211 255 302 380
#     4  10  21  38  63  88 126 158 205 263 307 378
#     4  10  22  38  64  89 124 158 208 263 303 385
#     4  11  24  40  61  93 129 164 199 262 319 370
#     4  10  22  41  62  89 117 165 213 250 315 372
#     4  10  21  41  64  91 123 165 213 254 301 381
#     4  10  20  39  62  93 118 169 210 249 312 371
#
# _framework density 20.852118000000001
#
# number of rings (size 3 to 8) (size 9 to 14) (size 15 to 20)
#    0.000    1.750    2.500    2.625    1.750    3.500 
#    4.500    2.500    0.000    0.000    0.000    0.000 
#    0.000    0.000    0.000    0.000    0.000    0.000 
#
# Total GULP energy -396524.914155 kJ/mol
# GULP energy per Si atom -12391.403567 kJ/mol
# Density = 2.080466 g / cm^3
# Si number density = 20.852118 Si / 1000 Ang^3
#
#
#
# Elastic Constant Matrix: (Units=GPa)
#
#
# Indices 1 2 3 4 5 6 
#
# 1 48.9946 35.6997 5.9231 0.0000 -3.2631 0.0000
# 2 35.6997 107.5063 52.7611 0.0000 4.7843 0.0000
# 3 5.9231 52.7611 104.1835 0.0000 -2.9663 0.0000
# 4 0.0000 0.0000 0.0000 30.0425 0.0000 -1.1372
# 5 -3.2631 4.7843 -2.9663 0.0000 24.0701 0.0000
# 6 0.0000 0.0000 0.0000 -1.1372 0.0000 21.9547
#
#
#
# Elastic Compliance Matrix: (Units=1/GPa)
#
#
# Indices 1 2 3 4 5 6 
#
# 1 0.029353 -0.012429 0.004826 0.000000 0.007045 0.000000
# 2 -0.012429 0.017899 -0.008537 0.000000 -0.006295 0.000000
# 3 0.004826 -0.008537 0.013763 0.000000 0.004047 0.000000
# 4 0.000000 0.000000 0.000000 0.033352 0.000000 0.001728
# 5 0.007045 -0.006295 0.004047 0.000000 0.044250 0.000000
# 6 0.000000 0.000000 0.000000 0.001728 0.000000 0.045638
#
#
# Mechanical properties :
#
#
# Convention : Reuss Voigt Hill
#
# Bulk Modulus (GPa) = 34.80169 49.93910 42.37040
# Shear Modulus (GPa) = 22.11289 26.30016 24.20652
#
# Velocity S-wave (km/s) = 3.26001 3.55529 3.41085
# Velocity P-wave (km/s) = 5.55843 6.39176 5.98961
#
# Compressibility (1/GPa) = 0.02873424
#
# Stress axis : x y z
#
# Youngs Moduli (GPa) = 34.06849 55.86871 72.66007
#
# Poissons Ratio (x) = 0.69441 -0.35068
# Poissons Ratio (y) = 0.42345 0.62031
# Poissons Ratio (z) = -0.16442 0.47696
#
# Static dielectric constant tensor:
#      x y z
#    x 3.664040 0.000000 -0.122420 
#    y 0.000000 3.813570 0.000000 
#    z -0.122420 0.000000 3.988500 
# 
# 
# High freq. dielectric constant tensor:
#      x y z
#    x 1.800350 0.000000 -0.014880 
#    y 0.000000 1.814610 0.000000 
#    z -0.014880 0.000000 1.828930 
# 
# From -- ./inp_files/180798.got.cif
#   From: 2010.06.25/outbox.cif.g09.slc.cpg/sg15_91_cif.got.tgz:180798.got - 2010.06.28 07:06:18.
