data_PCOD8139186
_publ_section_title
;
Structure prediction by ZEFSAII (Michael W. Deem and Ramdas Pophale) SiO2 
 PCOD8139186
Probable space group: C 2/C
;
_chemical_formula_sum "Si O2"
_cell_formula_units_Z 52
_cell_length_a 17.327719
_cell_length_b 27.661695
_cell_length_c 9.075832
_cell_angle_alpha 90.000000
_cell_angle_beta 38.228931
_cell_angle_gamma 90.000000
_cell_volume 2691.910008
_symmetry_space_group_name_H-M "C 2/C"
_symmetry_group_IT_number 15
_symmetry_cell_setting 'monoclinic'
loop_
_space_group_symop_operation_xyz
x,y,z
-x,y,1/2-z
-x,-y,-z
x,-y,1/2+z
1/2+x,1/2+y,z
1/2-x,1/2+y,1/2-z
1/2-x,1/2-y,-z
1/2+x,1/2-y,1/2+z
loop_
_atom_site_type_symbol
_atom_site_label
_atom_site_fract_x
_atom_site_fract_y
_atom_site_fract_z
Si Si1 0.750293 0.140004 0.029704
Si Si2 0.883887 0.858342 0.636348
Si Si3 0.895550 0.788923 0.139732
Si Si4 0.000000 0.993544 0.750000
Si Si5 0.588058 0.436123 0.359737
Si Si6 0.748836 0.302890 0.430181
Si Si7 0.985370 0.691407 0.105293
O O1 0.822364 0.131202 0.072193
O O2 0.599943 0.142379 0.274285
O O3 0.786180 0.192752 0.911413
O O4 0.793450 0.098865 0.847771
O O5 0.975852 0.812519 0.497338
O O6 0.958963 0.906494 0.562458
O O7 0.777256 0.845506 0.913895
O O8 0.861796 0.803498 0.023596
O O9 0.911676 0.731524 0.121632
O O10 0.097102 0.961930 0.505586
O O11 0.084202 0.025247 0.733523
O O12 0.750000 0.250000 0.500000
O O13 0.879990 0.318363 0.164184
O O14 0.000000 0.709643 0.250000
#
# Coordination Sequence:
#
# PCOD8139186 Si02
#       7
#     8   8   8   4   8   8   8
#     4  11  22  39  58  83 123 155 194 243 304 357
#     4  11  22  37  59  87 125 155 195 249 304 344
#     4  11  22  37  57  78 118 163 206 252 288 334
#     4  10  20  38  66  96 126 142 186 252 324 370
#     4  10  21  38  63  98 122 148 188 246 315 368
#     4  12  25  38  54  85 119 165 218 248 283 340
#     4  12  24  38  57  81 117 170 214 244 289 344
#
# _framework density 19.317139000000001
#
# number of rings (size 3 to 8) (size 9 to 14) (size 15 to 20)
#    0.000    0.923    4.615    4.154    4.308    1.846 
#    0.000    0.000    0.000    0.000    0.000   11.846 
#    0.000    0.000    0.000    0.000    0.000    0.000 
#
# Total GULP energy -322372.992281 kJ/mol
# GULP energy per Si atom -12398.961242 kJ/mol
# Density = 1.927317 g / cm^3
# Si number density = 19.317139 Si / 1000 Ang^3
#
#
#
# Elastic Constant Matrix: (Units=GPa)
#
#
# Indices 1 2 3 4 5 6 
#
# 1 67.5664 26.9271 33.5232 0.0000 8.3840 0.0000
# 2 26.9271 86.8000 50.9293 0.0000 3.4569 0.0000
# 3 33.5232 50.9293 137.7292 0.0000 0.2774 0.0000
# 4 0.0000 0.0000 0.0000 29.1056 0.0000 12.1511
# 5 8.3840 3.4569 0.2774 0.0000 32.7829 0.0000
# 6 0.0000 0.0000 0.0000 12.1511 0.0000 23.2161
#
#
#
# Elastic Compliance Matrix: (Units=1/GPa)
#
#
# Indices 1 2 3 4 5 6 
#
# 1 0.018339 -0.003710 -0.003083 0.000000 -0.004273 0.000000
# 2 -0.003710 0.015538 -0.004841 0.000000 -0.000649 0.000000
# 3 -0.003083 -0.004841 0.009799 0.000000 0.001216 0.000000
# 4 0.000000 0.000000 0.000000 0.043964 0.000000 -0.023010
# 5 -0.004273 -0.000649 0.001216 0.000000 0.031655 0.000000
# 6 0.000000 0.000000 0.000000 -0.023010 0.000000 0.055117
#
#
# Mechanical properties :
#
#
# Convention : Reuss Voigt Hill
#
# Bulk Modulus (GPa) = 49.00327 57.20610 53.10468
# Shear Modulus (GPa) = 24.45200 29.06864 26.76032
#
# Velocity S-wave (km/s) = 3.56169 3.88340 3.72602
# Velocity P-wave (km/s) = 6.50669 7.05593 6.78687
#
# Compressibility (1/GPa) = 0.02040680
#
# Stress axis : x y z
#
# Youngs Moduli (GPa) = 54.52974 64.35807 102.05272
#
# Poissons Ratio (x) = 0.23876 0.31465
# Poissons Ratio (y) = 0.20229 0.49407
# Poissons Ratio (z) = 0.16813 0.31158
#
# Static dielectric constant tensor:
#      x y z
#    x 3.537080 0.000000 0.158260 
#    y 0.000000 3.603250 0.000000 
#    z 0.158260 0.000000 3.754470 
# 
# 
# High freq. dielectric constant tensor:
#      x y z
#    x 1.751270 0.000000 0.020390 
#    y 0.000000 1.725540 0.000000 
#    z 0.020390 0.000000 1.754430 
# 
# From -- ./inp_files/44771.got.cif
#   From: 2010.06.25/outbox.cif.g09.slc.cpg/sg15_23_cif.got.tgz:44771.got - 2010.06.28 07:06:18.
