data_PCOD8139190
_publ_section_title
;
Structure prediction by ZEFSAII (Michael W. Deem and Ramdas Pophale) SiO2 
 PCOD8139190
Probable space group: C 2/C
;
_chemical_formula_sum "Si O2"
_cell_formula_units_Z 32
_cell_length_a 25.021791
_cell_length_b 12.487816
_cell_length_c 9.669165
_cell_angle_alpha 90.000000
_cell_angle_beta 29.218531
_cell_angle_gamma 90.000000
_cell_volume 1474.823318
_symmetry_space_group_name_H-M "C 2/C"
_symmetry_group_IT_number 15
_symmetry_cell_setting 'monoclinic'
loop_
_space_group_symop_operation_xyz
x,y,z
-x,y,1/2-z
-x,-y,-z
x,-y,1/2+z
1/2+x,1/2+y,z
1/2-x,1/2+y,1/2-z
1/2-x,1/2-y,-z
1/2+x,1/2-y,1/2+z
loop_
_atom_site_type_symbol
_atom_site_label
_atom_site_fract_x
_atom_site_fract_y
_atom_site_fract_z
Si Si1 0.113615 0.043122 0.188102
Si Si2 0.065956 0.718251 0.736421
Si Si3 0.247378 0.541466 0.355846
Si Si4 0.952030 0.407962 0.705461
O O1 0.098965 0.158833 0.152805
O O2 0.204438 0.048805 0.100751
O O3 0.000000 0.000000 0.500000
O O4 0.155235 0.962071 0.975658
O O5 0.174920 0.646745 0.495740
O O6 0.000000 0.682799 0.750000
O O7 0.987575 0.701898 0.048911
O O8 0.177899 0.430629 0.495241
O O9 0.000000 0.410481 0.750000
O O10 0.000000 0.500000 0.500000
#
# Coordination Sequence:
#
# PCOD8139190 Si02
#       4
#     8   8   8   8
#     4  12  26  42  60  91 130 165 204 255 309 368
#     4  11  23  42  65  93 123 160 207 260 312 366
#     4  11  22  42  65  89 121 166 207 250 307 372
#     4  10  20  38  66  97 122 155 208 263 304 360
#
# _framework density 21.697514000000002
#
# number of rings (size 3 to 8) (size 9 to 14) (size 15 to 20)
#    0.000    1.000    0.000   10.500    0.000    4.000 
#    0.000    5.000    0.000    0.000    0.000    0.000 
#    0.000    0.000    0.000    0.000    0.000    0.000 
#
# Total GULP energy -198426.093922 kJ/mol
# GULP energy per Si atom -12401.630870 kJ/mol
# Density = 2.164813 g / cm^3
# Si number density = 21.697514 Si / 1000 Ang^3
#
#
#
# Elastic Constant Matrix: (Units=GPa)
#
#
# Indices 1 2 3 4 5 6 
#
# 1 141.5313 13.2683 8.7984 0.0000 14.6961 0.0000
# 2 13.2683 86.7832 32.6375 0.0000 -1.4164 0.0000
# 3 8.7984 32.6375 119.1874 0.0000 9.9726 0.0000
# 4 0.0000 0.0000 0.0000 33.0930 0.0000 1.5880
# 5 14.6961 -1.4164 9.9726 0.0000 42.2462 0.0000
# 6 0.0000 0.0000 0.0000 1.5880 0.0000 8.7287
#
#
#
# Elastic Compliance Matrix: (Units=1/GPa)
#
#
# Indices 1 2 3 4 5 6 
#
# 1 0.007450 -0.001179 -0.000007 0.000000 -0.002629 0.000000
# 2 -0.001179 0.013101 -0.003644 0.000000 0.001710 0.000000
# 3 -0.000007 -0.003644 0.009588 0.000000 -0.002383 0.000000
# 4 0.000000 0.000000 0.000000 0.030484 0.000000 -0.005546
# 5 -0.002629 0.001710 -0.002383 0.000000 0.025205 0.000000
# 6 0.000000 0.000000 0.000000 -0.005546 0.000000 0.115574
#
#
# Mechanical properties :
#
#
# Convention : Reuss Voigt Hill
#
# Bulk Modulus (GPa) = 48.83022 50.76779 49.79901
# Shear Modulus (GPa) = 22.94758 36.33344 29.64051
#
# Velocity S-wave (km/s) = 3.25562 4.09656 3.70006
# Velocity P-wave (km/s) = 6.05689 6.76938 6.42302
#
# Compressibility (1/GPa) = 0.02047912
#
# Stress axis : x y z
#
# Youngs Moduli (GPa) = 134.23562 76.32746 104.29928
#
# Poissons Ratio (x) = 0.09001 0.00073
# Poissons Ratio (y) = 0.15830 0.38002
# Poissons Ratio (z) = 0.00094 0.27811
#
# Static dielectric constant tensor:
#      x y z
#    x 4.093300 0.000000 0.021220 
#    y 0.000000 3.948950 0.000000 
#    z 0.021220 0.000000 4.534250 
# 
# 
# High freq. dielectric constant tensor:
#      x y z
#    x 1.872530 0.000000 0.003430 
#    y 0.000000 1.835960 0.000000 
#    z 0.003430 0.000000 1.865380 
# 
# From -- ./inp_files/61346.got.cif
#   From: 2010.06.25/outbox.cif.g09.slc.cpg/sg15_31_cif.got.tgz:61346.got - 2010.06.28 07:06:18.
