data_PCOD8139767
_publ_section_title
;
Structure prediction by ZEFSAII (Michael W. Deem and Ramdas Pophale) SiO2 
 PCOD8139767
Probable space group: C 2/C
;
_chemical_formula_sum "Si O2"
_cell_formula_units_Z 64
_cell_length_a 13.938323
_cell_length_b 8.977478
_cell_length_c 22.974272
_cell_angle_alpha 90.000000
_cell_angle_beta 56.432676
_cell_angle_gamma 90.000000
_cell_volume 2395.383348
_symmetry_space_group_name_H-M "C 2/C"
_symmetry_group_IT_number 15
_symmetry_cell_setting 'monoclinic'
loop_
_space_group_symop_operation_xyz
x,y,z
-x,y,1/2-z
-x,-y,-z
x,-y,1/2+z
1/2+x,1/2+y,z
1/2-x,1/2+y,1/2-z
1/2-x,1/2-y,-z
1/2+x,1/2-y,1/2+z
loop_
_atom_site_type_symbol
_atom_site_label
_atom_site_fract_x
_atom_site_fract_y
_atom_site_fract_z
Si Si1 0.471466 0.005865 0.421476
Si Si2 0.509486 0.547554 0.810822
Si Si3 0.443099 0.683389 0.112723
Si Si4 0.683337 0.823191 0.881830
Si Si5 0.346578 0.502570 0.553221
Si Si6 0.890193 0.346035 0.842231
Si Si7 0.765430 0.087564 0.468050
Si Si8 0.693473 0.220515 0.248275
O O1 0.486372 0.830209 0.420230
O O2 0.341841 0.025668 0.487598
O O3 0.559563 0.096367 0.433123
O O4 0.483645 0.061509 0.349766
O O5 0.500000 0.479479 0.750000
O O6 0.489498 0.410580 0.860845
O O7 0.409666 0.672330 0.853706
O O8 0.637091 0.617745 0.780105
O O9 0.447973 0.593035 0.049395
O O10 0.314579 0.729487 0.175071
O O11 0.672406 0.650680 0.901786
O O12 0.716791 0.855456 0.803269
O O13 0.779961 0.898157 0.892650
O O14 0.233822 0.401304 0.597238
O O15 0.368274 0.525807 0.476056
O O16 0.897966 0.357773 0.767647
O O17 0.750000 0.250000 0.500000
#
# Coordination Sequence:
#
# PCOD8139767 Si02
#       8
#     8   8   8   8   8   8   8   8
#     4  11  22  38  64  96 120 159 213 265 308 369
#     4  10  20  40  55  83 127 167 195 243 311 381
#     4  11  23  38  59  96 128 153 202 259 318 372
#     4  11  20  38  64  87 120 166 209 256 303 376
#     4   9  19  40  64  84 118 163 201 252 306 367
#     4   9  19  38  60  85 118 163 206 239 302 382
#     4   9  21  42  63  87 116 164 220 258 306 370
#     4  10  21  36  62  84 121 165 203 234 320 375
#
# _framework density 26.718062
#
# number of rings (size 3 to 8) (size 9 to 14) (size 15 to 20)
#    0.000    2.000    2.500    0.375    1.750    0.000 
#    9.000    3.125    0.000    0.000    0.000    0.000 
#    0.000    0.000    0.000    0.000    0.000    0.000 
#
# Total GULP energy -396425.881478 kJ/mol
# GULP energy per Si atom -12388.308796 kJ/mol
# Density = 2.665725 g / cm^3
# Si number density = 26.718062 Si / 1000 Ang^3
#
#
#
# Elastic Constant Matrix: (Units=GPa)
#
#
# Indices 1 2 3 4 5 6 
#
# 1 147.2034 33.5039 48.7039 0.0000 48.2861 0.0000
# 2 33.5039 102.1696 19.2269 0.0000 15.7099 0.0000
# 3 48.7039 19.2269 119.0521 0.0000 47.6250 0.0000
# 4 0.0000 0.0000 0.0000 26.4260 0.0000 5.5937
# 5 48.2861 15.7099 47.6250 0.0000 54.0679 0.0000
# 6 0.0000 0.0000 0.0000 5.5937 0.0000 35.8349
#
#
#
# Elastic Compliance Matrix: (Units=1/GPa)
#
#
# Indices 1 2 3 4 5 6 
#
# 1 0.010014 -0.001961 -0.000665 0.000000 -0.007788 0.000000
# 2 -0.001961 0.010669 -0.000589 0.000000 -0.000830 0.000000
# 3 -0.000665 -0.000589 0.013064 0.000000 -0.010743 0.000000
# 4 0.000000 0.000000 0.000000 0.039135 0.000000 -0.006109
# 5 -0.007788 -0.000830 -0.010743 0.000000 0.035154 0.000000
# 6 0.000000 0.000000 0.000000 -0.006109 0.000000 0.028859
#
#
# Mechanical properties :
#
#
# Convention : Reuss Voigt Hill
#
# Bulk Modulus (GPa) = 36.60526 63.47718 50.04122
# Shear Modulus (GPa) = 32.80164 41.06512 36.93338
#
# Velocity S-wave (km/s) = 3.50765 3.92469 3.72201
# Velocity P-wave (km/s) = 5.48955 6.65938 6.10256
#
# Compressibility (1/GPa) = 0.02731848
#
# Stress axis : x y z
#
# Youngs Moduli (GPa) = 99.85721 93.72770 76.54547
#
# Poissons Ratio (x) = 0.18383 0.05087
# Poissons Ratio (y) = 0.19585 0.04506
# Poissons Ratio (z) = 0.06636 0.05518
#
# Static dielectric constant tensor:
#      x y z
#    x 5.626990 0.000000 0.525980 
#    y 0.000000 4.501130 0.000000 
#    z 0.525980 0.000000 5.129360 
# 
# 
# High freq. dielectric constant tensor:
#      x y z
#    x 2.112900 0.000000 0.019150 
#    y 0.000000 2.046820 0.000000 
#    z 0.019150 0.000000 2.082470 
# 
# From -- ./inp_files/295140.got.cif
#   From: 2010.06.25/outbox.cif.g09.slc.cpg/sg15_148_cif.got.tgz:295140.got - 2010.06.28 07:06:18.
