data_PCOD8139433
_publ_section_title
;
Structure prediction by ZEFSAII (Michael W. Deem and Ramdas Pophale) SiO2 
 PCOD8139433
Probable space group: C 2/C
;
_chemical_formula_sum "Si O2"
_cell_formula_units_Z 44
_cell_length_a 27.655566
_cell_length_b 14.719446
_cell_length_c 14.487968
_cell_angle_alpha 90.000000
_cell_angle_beta 158.078003
_cell_angle_gamma 90.000000
_cell_volume 2201.864732
_symmetry_space_group_name_H-M "C 2/C"
_symmetry_group_IT_number 15
_symmetry_cell_setting 'monoclinic'
loop_
_space_group_symop_operation_xyz
x,y,z
-x,y,1/2-z
-x,-y,-z
x,-y,1/2+z
1/2+x,1/2+y,z
1/2-x,1/2+y,1/2-z
1/2-x,1/2-y,-z
1/2+x,1/2-y,1/2+z
loop_
_atom_site_type_symbol
_atom_site_label
_atom_site_fract_x
_atom_site_fract_y
_atom_site_fract_z
Si Si1 0.865214 0.215253 0.824046
Si Si2 0.368028 0.946187 0.263157
Si Si3 0.702315 0.618049 0.973832
Si Si4 0.500000 0.317275 0.250000
Si Si5 0.699022 0.199421 0.699466
Si Si6 0.362888 0.217029 0.634955
O O1 0.819470 0.313604 0.705730
O O2 0.870912 0.146041 0.749199
O O3 0.763570 0.170531 0.716547
O O4 0.007339 0.225009 0.118969
O O5 0.341330 0.884267 0.306516
O O6 0.380954 0.888687 0.191366
O O7 0.500000 0.000000 0.500000
O O8 0.250254 0.015766 0.046476
O O9 0.602015 0.617926 0.880595
O O10 0.567415 0.254130 0.446785
O O11 0.810108 0.266135 0.938573
O O12 0.250000 0.250000 0.500000
#
# Coordination Sequence:
#
# PCOD8139433 Si02
#       6
#     8   8   8   4   8   8
#     4  10  20  40  65  87 126 169 206 240 325 374
#     4  11  22  40  64  96 126 152 215 266 304 359
#     4  10  21  39  64  93 121 162 204 263 301 377
#     4  10  22  44  66  82 124 174 212 240 322 388
#     4  10  23  40  63  91 124 169 206 255 309 383
#     4  10  20  39  62  87 123 165 203 249 309 373
#
# _framework density 19.983062
#
# number of rings (size 3 to 8) (size 9 to 14) (size 15 to 20)
#    0.000    1.818    1.818    2.727    5.091    0.000 
#   13.091    4.545    0.000    0.000    0.000    0.000 
#    0.000    0.000    0.000    0.000    0.000    0.000 
#
# Total GULP energy -272742.588273 kJ/mol
# GULP energy per Si atom -12397.390376 kJ/mol
# Density = 1.993758 g / cm^3
# Si number density = 19.983062 Si / 1000 Ang^3
#
#
#
# Elastic Constant Matrix: (Units=GPa)
#
#
# Indices 1 2 3 4 5 6 
#
# 1 83.8207 39.3796 20.0050 0.0000 0.1974 0.0000
# 2 39.3796 113.1047 45.9229 0.0000 -2.1614 0.0000
# 3 20.0050 45.9229 131.9836 0.0000 -5.0870 0.0000
# 4 0.0000 0.0000 0.0000 30.4894 0.0000 4.5474
# 5 0.1974 -2.1614 -5.0870 0.0000 37.0126 0.0000
# 6 0.0000 0.0000 0.0000 4.5474 0.0000 28.9374
#
#
#
# Elastic Compliance Matrix: (Units=1/GPa)
#
#
# Indices 1 2 3 4 5 6 
#
# 1 0.014299 -0.004774 -0.000523 0.000000 -0.000427 0.000000
# 2 -0.004774 0.011891 -0.003404 0.000000 0.000252 0.000000
# 3 -0.000523 -0.003404 0.008880 0.000000 0.001024 0.000000
# 4 0.000000 0.000000 0.000000 0.033585 0.000000 -0.005278
# 5 -0.000427 0.000252 0.001024 0.000000 0.027176 0.000000
# 6 0.000000 0.000000 0.000000 -0.005278 0.000000 0.035387
#
#
# Mechanical properties :
#
#
# Convention : Reuss Voigt Hill
#
# Bulk Modulus (GPa) = 56.60085 59.94709 58.27397
# Shear Modulus (GPa) = 32.36080 34.19467 33.27774
#
# Velocity S-wave (km/s) = 4.02856 4.14113 4.08523
# Velocity P-wave (km/s) = 7.07283 7.27526 7.17476
#
# Compressibility (1/GPa) = 0.01766758
#
# Stress axis : x y z
#
# Youngs Moduli (GPa) = 69.93479 84.10039 112.61601
#
# Poissons Ratio (x) = 0.40154 0.05884
# Poissons Ratio (y) = 0.33390 0.38333
# Poissons Ratio (z) = 0.03654 0.28627
#
# Static dielectric constant tensor:
#      x y z
#    x 11.371110 0.000000 -3.155560 
#    y 0.000000 4.764200 0.000000 
#    z -3.155560 0.000000 5.276590 
# 
# 
# High freq. dielectric constant tensor:
#      x y z
#    x 1.790620 0.000000 0.005930 
#    y 0.000000 1.754440 0.000000 
#    z 0.005930 0.000000 1.794010 
# 
# From -- ./inp_files/182242.got.cif
#   From: 2010.06.25/outbox.cif.g09.slc.cpg/sg15_92_cif.got.tgz:182242.got - 2010.06.28 07:06:18.
