data_PCOD8139429
_publ_section_title
;
Structure prediction by ZEFSAII (Michael W. Deem and Ramdas Pophale) SiO2 
 PCOD8139429
Probable space group: C 2/C
;
_chemical_formula_sum "Si O2"
_cell_formula_units_Z 40
_cell_length_a 7.744835
_cell_length_b 16.522157
_cell_length_c 14.521397
_cell_angle_alpha 90.000000
_cell_angle_beta 88.192332
_cell_angle_gamma 90.000000
_cell_volume 1857.253270
_symmetry_space_group_name_H-M "C 2/C"
_symmetry_group_IT_number 15
_symmetry_cell_setting 'monoclinic'
loop_
_space_group_symop_operation_xyz
x,y,z
-x,y,1/2-z
-x,-y,-z
x,-y,1/2+z
1/2+x,1/2+y,z
1/2-x,1/2+y,1/2-z
1/2-x,1/2-y,-z
1/2+x,1/2-y,1/2+z
loop_
_atom_site_type_symbol
_atom_site_label
_atom_site_fract_x
_atom_site_fract_y
_atom_site_fract_z
Si Si1 0.461446 0.202131 0.853399
Si Si2 0.373556 0.059794 0.554639
Si Si3 0.578990 0.340728 0.347670
Si Si4 0.103390 0.155778 0.467697
Si Si5 0.963892 0.985634 0.852281
O O1 0.500000 0.224578 0.750000
O O2 0.515927 0.111352 0.875516
O O3 0.254877 0.206842 0.868595
O O4 0.578581 0.265394 0.907261
O O5 0.295957 0.119718 0.476728
O O6 0.500000 0.000000 0.500000
O O7 0.229485 0.016440 0.621255
O O8 0.500000 0.315055 0.250000
O O9 0.449458 0.314780 0.429713
O O10 0.597684 0.438665 0.353755
O O11 0.992873 0.081544 0.429290
O O12 0.000000 0.947285 0.750000
#
# Coordination Sequence:
#
# PCOD8139429 Si02
#       5
#     8   8   8   8   8
#     4  12  23  38  61  92 125 161 203 261 320 373
#     4  11  23  39  63  92 123 166 215 261 311 375
#     4  10  21  39  62  84 116 165 213 254 309 376
#     4  11  22  39  61  89 125 162 203 258 318 376
#     4  10  20  39  62  87 121 166 209 256 310 376
#
# _framework density 21.537181
#
# number of rings (size 3 to 8) (size 9 to 14) (size 15 to 20)
#    0.000    1.200    0.000   10.200    0.000    0.000 
#    0.000    0.000    0.000    1.200    0.000    0.000 
#    0.000    0.000    0.000    0.000    0.000    0.000 
#
# Total GULP energy -247799.153812 kJ/mol
# GULP energy per Si atom -12389.957691 kJ/mol
# Density = 2.148816 g / cm^3
# Si number density = 21.537181 Si / 1000 Ang^3
#
#
#
# Elastic Constant Matrix: (Units=GPa)
#
#
# Indices 1 2 3 4 5 6 
#
# 1 119.7190 41.9507 43.7835 0.0000 -3.8488 0.0000
# 2 41.9507 81.5331 48.6761 0.0000 -1.2727 0.0000
# 3 43.7835 48.6761 158.6648 0.0000 -3.1376 0.0000
# 4 0.0000 0.0000 0.0000 -31.1982 0.0000 33.0760
# 5 -3.8488 -1.2727 -3.1376 0.0000 26.4082 0.0000
# 6 0.0000 0.0000 0.0000 33.0760 0.0000 18.2049
#
#
#
# Elastic Compliance Matrix: (Units=1/GPa)
#
#
# Indices 1 2 3 4 5 6 
#
# 1 0.010513 -0.004497 -0.001499 0.000000 0.001137 0.000000
# 2 -0.004497 0.016939 -0.003962 0.000000 -0.000310 0.000000
# 3 -0.001499 -0.003962 0.007942 0.000000 0.000534 0.000000
# 4 0.000000 0.000000 0.000000 -0.010954 0.000000 0.019902
# 5 0.001137 -0.000310 0.000534 0.000000 0.038081 0.000000
# 6 0.000000 0.000000 0.000000 0.019902 0.000000 0.018772
#
#
# Mechanical properties :
#
#
# Convention : Reuss Voigt Hill
#
# Bulk Modulus (GPa) = 64.60238 69.85972 67.23105
# Shear Modulus (GPa) = 47.00603 17.71675 32.36139
#
# Velocity S-wave (km/s) = 4.67685 2.87123 3.88052
# Velocity P-wave (km/s) = 7.69576 6.59539 7.16673
#
# Compressibility (1/GPa) = 0.01547931
#
# Stress axis : x y z
#
# Youngs Moduli (GPa) = 95.11680 59.03514 125.90774
#
# Poissons Ratio (x) = 0.26546 0.18876
# Poissons Ratio (y) = 0.42770 0.49884
# Poissons Ratio (z) = 0.14260 0.23389
#
# Static dielectric constant tensor:
#      x y z
#    x 1.998790 0.000000 -0.968480 
#    y 0.000000 3.821500 0.000000 
#    z -0.968480 0.000000 3.548830 
# 
# 
# High freq. dielectric constant tensor:
#      x y z
#    x 1.839800 0.000000 0.005550 
#    y 0.000000 1.837010 0.000000 
#    z 0.005550 0.000000 1.860720 
# 
# From -- ./inp_files/133911.got.cif
#   From: 2010.06.25/outbox.cif.g09.slc.cpg/sg15_67_cif.got.tgz:133911.got - 2010.06.28 07:06:18.
