data_PCOD8139032
_publ_section_title
;
Structure prediction by ZEFSAII (Michael W. Deem and Ramdas Pophale) SiO2 
 PCOD8139032
Probable space group: C 2/C
;
_chemical_formula_sum "Si O2"
_cell_formula_units_Z 64
_cell_length_a 31.998677
_cell_length_b 9.040210
_cell_length_c 15.382145
_cell_angle_alpha 90.000000
_cell_angle_beta 43.485689
_cell_angle_gamma 90.000000
_cell_volume 3062.141873
_symmetry_space_group_name_H-M "C 2/C"
_symmetry_group_IT_number 15
_symmetry_cell_setting 'monoclinic'
loop_
_space_group_symop_operation_xyz
x,y,z
-x,y,1/2-z
-x,-y,-z
x,-y,1/2+z
1/2+x,1/2+y,z
1/2-x,1/2+y,1/2-z
1/2-x,1/2-y,-z
1/2+x,1/2-y,1/2+z
loop_
_atom_site_type_symbol
_atom_site_label
_atom_site_fract_x
_atom_site_fract_y
_atom_site_fract_z
Si Si1 0.892342 0.831950 0.848914
Si Si2 0.918962 0.609419 0.669348
Si Si3 0.766186 0.953567 0.793545
Si Si4 0.611500 0.388370 0.449730
Si Si5 0.267127 0.419155 0.983669
Si Si6 0.994183 0.942563 0.164569
Si Si7 0.454901 0.787612 0.588145
Si Si8 0.699446 0.113773 0.751083
O O1 0.890879 0.674799 0.800918
O O2 0.838917 0.936420 0.892947
O O3 0.956535 0.907068 0.733567
O O4 0.882240 0.807580 0.966619
O O5 0.933573 0.438884 0.664625
O O6 0.872182 0.629861 0.659722
O O7 0.979454 0.698257 0.554563
O O8 0.752866 0.001254 0.913927
O O9 0.771199 0.775875 0.778718
O O10 0.826724 0.031120 0.667910
O O11 0.710268 0.013023 0.819843
O O12 0.559574 0.514529 0.527162
O O13 0.595251 0.260019 0.406350
O O14 0.250000 0.250000 0.000000
O O15 0.229147 0.476312 0.124223
O O16 0.957611 0.834803 0.157959
O O17 0.000000 0.864446 0.250000
#
# Coordination Sequence:
#
# PCOD8139032 Si02
#       8
#     8   8   8   8   8   8   8   8
#     4  11  20  40  65  93 122 169 214 257 321 395
#     4  11  24  42  62  94 130 166 214 264 323 388
#     4  11  23  40  67  95 126 171 215 274 318 386
#     4  11  22  38  72  92 122 170 224 258 323 393
#     4  10  20  38  64  88 124 169 210 255 319 384
#     4  10  22  39  62  93 124 165 214 265 318 382
#     4  11  24  41  63  97 129 164 210 272 325 376
#     4  11  24  43  64  95 130 170 222 263 327 391
#
# _framework density 20.900404000000002
#
# number of rings (size 3 to 8) (size 9 to 14) (size 15 to 20)
#    0.000    1.250    5.000    1.875    1.750    0.000 
#    4.500    3.125    0.000    0.000    0.000    0.000 
#    0.000    0.000    0.000    0.000    0.000    0.000 
#
# Total GULP energy -396814.332284 kJ/mol
# GULP energy per Si atom -12400.447884 kJ/mol
# Density = 2.085283 g / cm^3
# Si number density = 20.900404 Si / 1000 Ang^3
#
#
#
# Elastic Constant Matrix: (Units=GPa)
#
#
# Indices 1 2 3 4 5 6 
#
# 1 136.3278 34.5607 38.1702 0.0000 28.5083 0.0000
# 2 34.5607 59.4622 32.4264 0.0002 19.1932 0.0001
# 3 38.1702 32.4264 82.1893 0.0000 20.9203 0.0000
# 4 0.0000 0.0002 0.0000 22.3941 0.0000 5.4148
# 5 28.5083 19.1932 20.9203 0.0000 42.8559 0.0000
# 6 0.0000 0.0001 0.0000 5.4148 0.0000 32.6564
#
#
#
# Elastic Compliance Matrix: (Units=1/GPa)
#
#
# Indices 1 2 3 4 5 6 
#
# 1 0.009554 -0.003081 -0.002232 0.000000 -0.003886 0.000000
# 2 -0.003081 0.023993 -0.006648 0.000000 -0.005450 0.000000
# 3 -0.002232 -0.006648 0.016775 0.000000 -0.003727 0.000000
# 4 0.000000 0.000000 0.000000 0.046520 0.000000 -0.007713
# 5 -0.003886 -0.005450 -0.003727 0.000000 0.030179 0.000000
# 6 0.000000 0.000000 0.000000 -0.007713 0.000000 0.031901
#
#
# Mechanical properties :
#
#
# Convention : Reuss Voigt Hill
#
# Bulk Modulus (GPa) = 37.87975 54.25488 46.06732
# Shear Modulus (GPa) = 26.09009 31.10274 28.59641
#
# Velocity S-wave (km/s) = 3.53697 3.86183 3.70296
# Velocity P-wave (km/s) = 5.90284 6.77496 6.35388
#
# Compressibility (1/GPa) = 0.02639933
#
# Stress axis : x y z
#
# Youngs Moduli (GPa) = 104.66794 41.67922 59.61245
#
# Poissons Ratio (x) = 0.12843 0.13307
# Poissons Ratio (y) = 0.32253 0.39628
# Poissons Ratio (z) = 0.23365 0.27706
#
# Static dielectric constant tensor:
#      x y z
#    x 4.157640 0.000000 0.139460 
#    y 0.000000 3.468970 0.000000 
#    z 0.139460 0.000000 4.126120 
# 
# 
# High freq. dielectric constant tensor:
#      x y z
#    x 1.840380 0.000000 -0.001140 
#    y 0.000000 1.786250 0.000000 
#    z -0.001140 0.000000 1.819240 
# 
# From -- ./inp_files/181144.got.cif
#   From: 2010.06.25/outbox.cif.g09.slc.cpg/sg15_91_cif.got.tgz:181144.got - 2010.06.28 07:06:18.
