data_PCOD8139928
_publ_section_title
;
Structure prediction by ZEFSAII (Michael W. Deem and Ramdas Pophale) SiO2 
 PCOD8139928
Probable space group: C 2/C
;
_chemical_formula_sum "Si O2"
_cell_formula_units_Z 40
_cell_length_a 13.345252
_cell_length_b 7.295545
_cell_length_c 18.564332
_cell_angle_alpha 90.000000
_cell_angle_beta 97.973729
_cell_angle_gamma 90.000000
_cell_volume 1789.965091
_symmetry_space_group_name_H-M "C 2/C"
_symmetry_group_IT_number 15
_symmetry_cell_setting 'monoclinic'
loop_
_space_group_symop_operation_xyz
x,y,z
-x,y,1/2-z
-x,-y,-z
x,-y,1/2+z
1/2+x,1/2+y,z
1/2-x,1/2+y,1/2-z
1/2-x,1/2-y,-z
1/2+x,1/2-y,1/2+z
loop_
_atom_site_type_symbol
_atom_site_label
_atom_site_fract_x
_atom_site_fract_y
_atom_site_fract_z
Si Si1 0.742823 0.306560 0.142560
Si Si2 0.452898 0.254846 0.312999
Si Si3 0.188492 0.408662 0.085203
Si Si4 0.640027 0.871695 0.922303
Si Si5 0.103070 0.635017 0.725382
O O1 0.629793 0.380096 0.153884
O O2 0.803212 0.444975 0.098022
O O3 0.804813 0.275089 0.222036
O O4 0.723348 0.116734 0.100227
O O5 0.500000 0.369130 0.250000
O O6 0.530805 0.160213 0.376198
O O7 0.394627 0.086662 0.266666
O O8 0.293416 0.302872 0.089698
O O9 0.119015 0.323376 0.141992
O O10 0.123005 0.390033 0.006093
O O11 0.000000 0.715399 0.750000
#
# Coordination Sequence:
#
# PCOD8139928 Si02
#       5
#     8   8   8   8   8
#     4  11  22  41  68  93 127 179 220 265 339 400
#     4  10  20  40  67  95 132 177 217 276 337 385
#     4  10  25  41  66  99 128 174 219 276 333 398
#     4  11  22  47  64  93 141 165 219 284 330 395
#     4  10  20  40  63  95 129 167 221 269 323 395
#
# _framework density 22.346806000000001
#
# number of rings (size 3 to 8) (size 9 to 14) (size 15 to 20)
#    0.000    1.600    4.000    1.800    2.800    3.200 
#    7.200    2.000    0.000    0.000    0.000    0.000 
#    0.000    0.000    0.000    0.000    0.000    0.000 
#
# Total GULP energy -247867.525167 kJ/mol
# GULP energy per Si atom -12393.376258 kJ/mol
# Density = 2.229594 g / cm^3
# Si number density = 22.346806 Si / 1000 Ang^3
#
#
#
# Elastic Constant Matrix: (Units=GPa)
#
#
# Indices 1 2 3 4 5 6 
#
# 1 148.9531 26.6213 77.2850 0.0000 -8.3063 0.0000
# 2 26.6213 36.2782 18.7413 0.0000 0.2148 0.0000
# 3 77.2850 18.7413 157.2183 0.0000 -23.8092 0.0000
# 4 0.0000 0.0000 0.0000 281.7944 0.0000 -127.2668
# 5 -8.3063 0.2148 -23.8092 0.0000 40.8441 0.0000
# 6 0.0000 0.0000 0.0000 -127.2668 0.0000 78.2222
#
#
#
# Elastic Compliance Matrix: (Units=1/GPa)
#
#
# Indices 1 2 3 4 5 6 
#
# 1 0.009807 -0.004971 -0.004302 0.000000 -0.000487 0.000000
# 2 -0.004971 0.032111 -0.001714 0.000000 -0.002179 0.000000
# 3 -0.004302 -0.001714 0.009376 0.000000 0.004600 0.000000
# 4 0.000000 0.000000 0.000000 0.013381 0.000000 0.021771
# 5 -0.000487 -0.002179 0.004600 0.000000 0.027077 0.000000
# 6 0.000000 0.000000 0.000000 0.021771 0.000000 0.048205
#
#
# Mechanical properties :
#
#
# Convention : Reuss Voigt Hill
#
# Bulk Modulus (GPa) = 34.10682 65.30498 49.70590
# Shear Modulus (GPa) = 29.11966 94.82562 61.97264
#
# Velocity S-wave (km/s) = 3.61374 6.52118 5.27185
# Velocity P-wave (km/s) = 5.71907 9.27296 7.70375
#
# Compressibility (1/GPa) = 0.02931965
#
# Stress axis : x y z
#
# Youngs Moduli (GPa) = 101.96841 31.14198 106.65153
#
# Poissons Ratio (x) = 0.15481 0.45882
# Poissons Ratio (y) = 0.50689 0.18282
# Poissons Ratio (z) = 0.43868 0.05338
#
# Static dielectric constant tensor:
#      x y z
#    x 4.368240 0.000000 -0.221350 
#    y 0.000000 3.647740 0.000000 
#    z -0.221350 0.000000 4.376730 
# 
# 
# High freq. dielectric constant tensor:
#      x y z
#    x 1.890850 0.000000 -0.011800 
#    y 0.000000 1.852110 0.000000 
#    z -0.011800 0.000000 1.891950 
# 
# From -- ./inp_files/195225.got.cif
#   From: 2010.06.25/outbox.cif.g09.slc.cpg/sg15_98_cif.got.tgz:195225.got - 2010.06.28 07:06:18.
