data_PCOD8139406
_publ_section_title
;
Structure prediction by ZEFSAII (Michael W. Deem and Ramdas Pophale) SiO2 
 PCOD8139406
Probable space group: C 2/C
;
_chemical_formula_sum "Si O2"
_cell_formula_units_Z 56
_cell_length_a 16.914154
_cell_length_b 9.264506
_cell_length_c 19.749068
_cell_angle_alpha 90.000000
_cell_angle_beta 62.172462
_cell_angle_gamma 90.000000
_cell_volume 2736.822489
_symmetry_space_group_name_H-M "C 2/C"
_symmetry_group_IT_number 15
_symmetry_cell_setting 'monoclinic'
loop_
_space_group_symop_operation_xyz
x,y,z
-x,y,1/2-z
-x,-y,-z
x,-y,1/2+z
1/2+x,1/2+y,z
1/2-x,1/2+y,1/2-z
1/2-x,1/2-y,-z
1/2+x,1/2-y,1/2+z
loop_
_atom_site_type_symbol
_atom_site_label
_atom_site_fract_x
_atom_site_fract_y
_atom_site_fract_z
Si Si1 0.809786 0.038138 0.263171
Si Si2 0.529855 0.958721 0.813203
Si Si3 0.350487 0.255990 0.172236
Si Si4 0.000920 0.167755 0.514258
Si Si5 0.106654 0.271687 0.351350
Si Si6 0.372071 0.165004 0.445095
Si Si7 0.761811 0.842744 0.390101
O O1 0.720437 0.129846 0.308596
O O2 0.889482 0.140848 0.204930
O O3 0.803508 0.905183 0.212393
O O4 0.824311 0.967939 0.332126
O O5 0.500000 0.994185 0.750000
O O6 0.580117 0.803484 0.798147
O O7 0.442373 0.957282 0.896123
O O8 0.595118 0.081774 0.814717
O O9 0.404864 0.279013 0.080300
O O10 0.023425 0.250109 0.435280
O O11 0.079081 0.200662 0.537411
O O12 0.000000 0.000000 0.500000
O O13 0.200798 0.275265 0.354316
O O14 0.300302 0.093710 0.524981
O O15 0.324482 0.218804 0.395561
#
# Coordination Sequence:
#
# PCOD8139406 Si02
#       7
#     8   8   8   8   8   8   8
#     4  12  21  37  62  93 123 166 207 259 312 380
#     4  11  23  41  61  93 126 169 210 264 315 380
#     4  11  22  37  64  93 122 166 211 254 319 373
#     4  10  21  40  63  90 125 165 209 259 316 381
#     4  11  23  39  64  91 129 166 209 262 320 374
#     4   9  22  38  64  90 118 168 208 260 308 382
#     4  10  20  39  61  91 123 157 215 254 311 381
#
# _framework density 20.461684000000002
#
# number of rings (size 3 to 8) (size 9 to 14) (size 15 to 20)
#    0.000    1.429    4.286    0.857    2.000    1.714 
#    2.571    0.714    0.000    1.714    0.000    0.000 
#    0.000    0.000    0.000    0.000    0.000    0.000 
#
# Total GULP energy -347025.262411 kJ/mol
# GULP energy per Si atom -12393.759372 kJ/mol
# Density = 2.041511 g / cm^3
# Si number density = 20.461684 Si / 1000 Ang^3
#
#
#
# Elastic Constant Matrix: (Units=GPa)
#
#
# Indices 1 2 3 4 5 6 
#
# 1 59.3673 32.9574 36.0778 0.0000 5.4333 0.0000
# 2 32.9574 114.0009 61.7415 0.0000 2.7447 0.0000
# 3 36.0778 61.7415 147.6662 0.0000 -4.3441 0.0000
# 4 0.0000 0.0000 0.0000 40.9985 0.0000 -8.8103
# 5 5.4333 2.7447 -4.3441 0.0000 29.8615 0.0000
# 6 0.0000 0.0000 0.0000 -8.8103 0.0000 21.0370
#
#
#
# Elastic Compliance Matrix: (Units=1/GPa)
#
#
# Indices 1 2 3 4 5 6 
#
# 1 0.021797 -0.004205 -0.003688 0.000000 -0.004116 0.000000
# 2 -0.004205 0.012241 -0.004119 0.000000 -0.000959 0.000000
# 3 -0.003688 -0.004119 0.009467 0.000000 0.002427 0.000000
# 4 0.000000 0.000000 0.000000 0.026803 0.000000 0.011225
# 5 -0.004116 -0.000959 0.002427 0.000000 0.034678 0.000000
# 6 0.000000 0.000000 0.000000 0.011225 0.000000 0.052237
#
#
# Mechanical properties :
#
#
# Convention : Reuss Voigt Hill
#
# Bulk Modulus (GPa) = 51.33388 64.73199 58.03293
# Shear Modulus (GPa) = 26.63242 31.06325 28.84784
#
# Velocity S-wave (km/s) = 3.61165 3.90053 3.75887
# Velocity P-wave (km/s) = 6.52183 7.21040 6.87474
#
# Compressibility (1/GPa) = 0.01948031
#
# Stress axis : x y z
#
# Youngs Moduli (GPa) = 45.87868 81.68954 105.63103
#
# Poissons Ratio (x) = 0.34348 0.38961
# Poissons Ratio (y) = 0.19290 0.43513
# Poissons Ratio (z) = 0.16922 0.33650
#
# Static dielectric constant tensor:
#      x y z
#    x 3.466930 0.000000 -0.153840 
#    y 0.000000 3.636330 0.000000 
#    z -0.153840 0.000000 4.243500 
# 
# 
# High freq. dielectric constant tensor:
#      x y z
#    x 1.766000 0.000000 -0.016240 
#    y 0.000000 1.786710 0.000000 
#    z -0.016240 0.000000 1.831120 
# 
# From -- ./inp_files/276239.got.cif
#   From: 2010.06.25/outbox.cif.g09.slc.cpg/sg15_139_cif.got.tgz:276239.got - 2010.06.28 07:06:18.
