data_PCOD8139824
_publ_section_title
;
Structure prediction by ZEFSAII (Michael W. Deem and Ramdas Pophale) SiO2 
 PCOD8139824
Probable space group: C 2/C
;
_chemical_formula_sum "Si O2"
_cell_formula_units_Z 56
_cell_length_a 17.111549
_cell_length_b 21.688573
_cell_length_c 14.426859
_cell_angle_alpha 90.000000
_cell_angle_beta 149.054486
_cell_angle_gamma 90.000000
_cell_volume 2753.235395
_symmetry_space_group_name_H-M "C 2/C"
_symmetry_group_IT_number 15
_symmetry_cell_setting 'monoclinic'
loop_
_space_group_symop_operation_xyz
x,y,z
-x,y,1/2-z
-x,-y,-z
x,-y,1/2+z
1/2+x,1/2+y,z
1/2-x,1/2+y,1/2-z
1/2-x,1/2-y,-z
1/2+x,1/2-y,1/2+z
loop_
_atom_site_type_symbol
_atom_site_label
_atom_site_fract_x
_atom_site_fract_y
_atom_site_fract_z
Si Si1 0.203634 0.574256 0.603347
Si Si2 0.238907 0.814095 0.102677
Si Si3 0.715285 0.952011 0.316728
Si Si4 0.500000 0.006095 0.250000
Si Si5 0.500000 0.759506 0.250000
Si Si6 0.429654 0.689046 0.579965
Si Si7 0.962538 0.949858 0.109428
Si Si8 0.233379 0.209667 0.801959
O O1 0.135979 0.552002 0.633961
O O2 0.379808 0.553378 0.785881
O O3 0.189881 0.647982 0.577957
O O4 0.117374 0.547289 0.427200
O O5 0.207135 0.886606 0.082034
O O6 0.381604 0.803825 0.180843
O O7 0.277374 0.782308 0.239619
O O8 0.085408 0.784547 0.908415
O O9 0.590263 0.964722 0.268141
O O10 0.845411 0.003578 0.443396
O O11 0.500000 0.706918 0.750000
O O12 0.381620 0.617255 0.530205
O O13 0.283487 0.730691 0.411181
O O14 0.551925 0.703925 0.624701
O O15 0.000000 0.973782 0.250000
#
# Coordination Sequence:
#
# PCOD8139824 Si02
#       8
#     8   8   8   4   4   8   8   8
#     4  10  23  39  59  87 118 158 200 245 293 356
#     4  10  22  39  61  88 117 151 195 241 291 349
#     4  11  23  40  62  88 120 155 201 244 295 353
#     4  12  23  38  60  84 125 156 192 248 302 348
#     4  10  21  40  62  86 117 152 194 242 294 342
#     4  10  21  35  59  86 117 151 194 239 289 349
#     4  10  20  40  61  86 119 154 201 245 286 354
#     4  10  21  38  57  86 118 151 195 244 291 346
#
# _framework density 20.339707000000001
#
# number of rings (size 3 to 8) (size 9 to 14) (size 15 to 20)
#    0.000    1.714    1.429    2.571    2.000    1.143 
#    0.000    4.286    0.000    0.000    0.000    0.000 
#    0.000    0.000    0.000    0.000    0.000    0.000 
#
# Total GULP energy -347239.738236 kJ/mol
# GULP energy per Si atom -12401.419223 kJ/mol
# Density = 2.029341 g / cm^3
# Si number density = 20.339707 Si / 1000 Ang^3
#
#
#
# Elastic Constant Matrix: (Units=GPa)
#
#
# Indices 1 2 3 4 5 6 
#
# 1 83.5869 23.3617 14.7048 0.0000 -10.7121 0.0000
# 2 23.3617 105.4629 53.4726 0.0000 -9.9673 0.0000
# 3 14.7048 53.4726 74.1148 0.0000 -3.5074 0.0000
# 4 0.0000 0.0000 0.0000 31.6242 0.0000 -3.5623
# 5 -10.7121 -9.9673 -3.5074 0.0000 26.5171 0.0000
# 6 0.0000 0.0000 0.0000 -3.5623 0.0000 18.2119
#
#
#
# Elastic Compliance Matrix: (Units=1/GPa)
#
#
# Indices 1 2 3 4 5 6 
#
# 1 0.013273 -0.002034 -0.000955 0.000000 0.004471 0.000000
# 2 -0.002034 0.015747 -0.010784 0.000000 0.003671 0.000000
# 3 -0.000955 -0.010784 0.021386 0.000000 -0.001610 0.000000
# 4 0.000000 0.000000 0.000000 0.032334 0.000000 0.006324
# 5 0.004471 0.003671 -0.001610 0.000000 0.040685 0.000000
# 6 0.000000 0.000000 0.000000 0.006324 0.000000 0.056146
#
#
# Mechanical properties :
#
#
# Convention : Reuss Voigt Hill
#
# Bulk Modulus (GPa) = 43.74111 49.58254 46.66182
# Shear Modulus (GPa) = 23.28433 26.71235 24.99834
#
# Velocity S-wave (km/s) = 3.38712 3.62789 3.50957
# Velocity P-wave (km/s) = 6.07032 6.47912 6.27804
#
# Compressibility (1/GPa) = 0.02286179
#
# Stress axis : x y z
#
# Youngs Moduli (GPa) = 75.34148 63.50282 46.75867
#
# Poissons Ratio (x) = 0.12914 0.04464
# Poissons Ratio (y) = 0.15321 0.50426
# Poissons Ratio (z) = 0.07193 0.68483
#
# Static dielectric constant tensor:
#      x y z
#    x 3.927120 0.000000 -0.042260 
#    y 0.000000 3.625440 0.000000 
#    z -0.042260 0.000000 3.391510 
# 
# 
# High freq. dielectric constant tensor:
#      x y z
#    x 1.814510 0.000000 -0.006600 
#    y 0.000000 1.795950 0.000000 
#    z -0.006600 0.000000 1.776030 
# 
# From -- ./inp_files/163869.got.cif
#   From: 2010.06.25/outbox.cif.g09.slc.cpg/sg15_82_cif.got.tgz:163869.got - 2010.06.28 07:06:18.
