data_PCOD8139432
_publ_section_title
;
Structure prediction by ZEFSAII (Michael W. Deem and Ramdas Pophale) SiO2 
 PCOD8139432
Probable space group: C 2/C
;
_chemical_formula_sum "Si O2"
_cell_formula_units_Z 56
_cell_length_a 14.543227
_cell_length_b 12.981371
_cell_length_c 17.185915
_cell_angle_alpha 90.000000
_cell_angle_beta 117.554453
_cell_angle_gamma 90.000000
_cell_volume 2876.522774
_symmetry_space_group_name_H-M "C 2/C"
_symmetry_group_IT_number 15
_symmetry_cell_setting 'monoclinic'
loop_
_space_group_symop_operation_xyz
x,y,z
-x,y,1/2-z
-x,-y,-z
x,-y,1/2+z
1/2+x,1/2+y,z
1/2-x,1/2+y,1/2-z
1/2-x,1/2-y,-z
1/2+x,1/2-y,1/2+z
loop_
_atom_site_type_symbol
_atom_site_label
_atom_site_fract_x
_atom_site_fract_y
_atom_site_fract_z
Si Si1 0.643366 0.274209 0.043549
Si Si2 0.117301 0.137458 0.690307
Si Si3 0.854735 0.177052 0.124646
Si Si4 0.029080 0.382882 0.003614
Si Si5 0.500000 0.164881 0.750000
Si Si6 0.000000 0.010412 0.250000
Si Si7 0.846478 0.563960 0.809496
Si Si8 0.548082 0.138931 0.186843
O O1 0.602130 0.354229 0.091699
O O2 0.745679 0.215815 0.117537
O O3 0.665496 0.341458 0.975197
O O4 0.558489 0.188017 0.992220
O O5 0.030376 0.060804 0.689149
O O6 0.227983 0.088284 0.749691
O O7 0.103907 0.251306 0.722332
O O8 0.939378 0.265945 0.164515
O O9 0.898734 0.075774 0.184761
O O10 0.129754 0.376664 0.099180
O O11 0.000000 0.500000 0.000000
O O12 0.041918 0.353055 0.916448
O O13 0.418717 0.099259 0.766885
O O14 0.866843 0.440343 0.815902
O O15 0.500000 0.101765 0.250000
#
# Coordination Sequence:
#
# PCOD8139432 Si02
#       8
#     8   8   8   8   4   4   8   8
#     4  10  20  39  62  87 123 157 199 255 308 352
#     4  11  24  40  61  87 124 165 195 251 304 371
#     4  10  22  37  62  91 119 156 205 256 299 364
#     4   9  20  34  59  87 117 151 198 247 298 350
#     4  11  18  35  60  94 114 145 208 259 286 354
#     4  11  26  41  60  86 126 165 204 245 314 364
#     4  11  21  37  63  89 117 159 204 246 304 353
#     4  10  21  40  61  84 120 160 200 245 301 359
#
# _framework density 19.467949999999998
#
# number of rings (size 3 to 8) (size 9 to 14) (size 15 to 20)
#    0.000    1.714    4.286    0.000    6.000    0.571 
#    0.000    0.714    0.000    0.000    0.000    0.000 
#    0.000    0.000    0.000    0.000    0.000    0.000 
#
# Total GULP energy -346919.491065 kJ/mol
# GULP energy per Si atom -12389.981824 kJ/mol
# Density = 1.942364 g / cm^3
# Si number density = 19.467950 Si / 1000 Ang^3
#
#
#
# Elastic Constant Matrix: (Units=GPa)
#
#
# Indices 1 2 3 4 5 6 
#
# 1 45.1969 18.5858 20.1113 0.0000 -23.3026 0.0000
# 2 18.5858 89.1046 28.2410 0.0000 -1.7391 0.0000
# 3 20.1113 28.2410 80.6467 0.0000 -17.4429 0.0000
# 4 0.0000 0.0000 0.0000 -0.3716 0.0000 -3.6619
# 5 -23.3026 -1.7391 -17.4429 0.0000 32.2057 0.0000
# 6 0.0000 0.0000 0.0000 -3.6619 0.0000 24.3836
#
#
#
# Elastic Compliance Matrix: (Units=1/GPa)
#
#
# Indices 1 2 3 4 5 6 
#
# 1 0.040181 -0.007395 -0.001392 0.000000 0.027920 0.000000
# 2 -0.007395 0.014093 -0.004625 0.000000 -0.007095 0.000000
# 3 -0.001392 -0.004625 0.015965 0.000000 0.007390 0.000000
# 4 0.000000 0.000000 0.000000 -1.085120 0.000000 -0.162963
# 5 0.027920 -0.007095 0.007390 0.000000 0.054871 0.000000
# 6 0.000000 0.000000 0.000000 -0.162963 0.000000 0.016538
#
#
# Mechanical properties :
#
#
# Convention : Reuss Voigt Hill
#
# Bulk Modulus (GPa) = 23.03410 38.75828 30.89619
# Shear Modulus (GPa) = -5.54215 21.11085 7.78435
#
# Velocity S-wave (km/s) = -1.68908 3.29658 2.00181
# Velocity P-wave (km/s) = 2.83787 5.86872 4.60952
#
# Compressibility (1/GPa) = 0.04341389
#
# Stress axis : x y z
#
# Youngs Moduli (GPa) = 24.88766 70.95835 62.63727
#
# Poissons Ratio (x) = 0.52474 0.08718
# Poissons Ratio (y) = 0.18404 0.28972
# Poissons Ratio (z) = 0.03464 0.32821
#
# Static dielectric constant tensor:
#      x y z
#    x 3.483890 0.000000 -0.187210 
#    y 0.000000 3.510900 0.000000 
#    z -0.187210 0.000000 4.024800 
# 
# 
# High freq. dielectric constant tensor:
#      x y z
#    x 1.744100 0.000000 -0.014960 
#    y 0.000000 1.754060 0.000000 
#    z -0.014960 0.000000 1.762620 
# 
# From -- ./inp_files/205526.got.cif
#   From: 2010.06.25/outbox.cif.g09.slc.cpg/sg15_103_cif.got.tgz:205526.got - 2010.06.28 07:06:18.
