data_PCOD8139574
_publ_section_title
;
Structure prediction by ZEFSAII (Michael W. Deem and Ramdas Pophale) SiO2 
 PCOD8139574
Probable space group: C 2/C
;
_chemical_formula_sum "Si O2"
_cell_formula_units_Z 52
_cell_length_a 16.796318
_cell_length_b 8.260548
_cell_length_c 27.544902
_cell_angle_alpha 90.000000
_cell_angle_beta 139.615023
_cell_angle_gamma 90.000000
_cell_volume 2476.199896
_symmetry_space_group_name_H-M "C 2/C"
_symmetry_group_IT_number 15
_symmetry_cell_setting 'monoclinic'
loop_
_space_group_symop_operation_xyz
x,y,z
-x,y,1/2-z
-x,-y,-z
x,-y,1/2+z
1/2+x,1/2+y,z
1/2-x,1/2+y,1/2-z
1/2-x,1/2-y,-z
1/2+x,1/2-y,1/2+z
loop_
_atom_site_type_symbol
_atom_site_label
_atom_site_fract_x
_atom_site_fract_y
_atom_site_fract_z
Si Si1 0.094961 0.393696 0.452860
Si Si2 0.705548 0.333717 0.292485
Si Si3 0.000000 0.009597 0.250000
Si Si4 0.976524 0.102156 0.912766
Si Si5 0.127929 0.081432 0.404546
Si Si6 0.132263 0.600066 0.180864
Si Si7 0.074224 0.785267 0.554962
O O1 0.109326 0.254074 0.420159
O O2 0.227958 0.468689 0.527533
O O3 0.004949 0.525241 0.386169
O O4 0.037745 0.323868 0.476389
O O5 0.579289 0.395059 0.253669
O O6 0.764175 0.471488 0.285281
O O7 0.675508 0.161816 0.253506
O O8 0.798778 0.308862 0.380041
O O9 0.917896 0.108006 0.172622
O O10 0.870833 0.233569 0.852040
O O11 0.913964 0.948123 0.908203
O O12 0.051696 0.054766 0.898982
O O13 0.065843 0.182903 0.994077
#
# Coordination Sequence:
#
# PCOD8139574 Si02
#       7
#     8   8   4   8   8   8   8
#     4   9  22  41  67  90 125 167 220 257 317 385
#     4  11  25  41  63  92 132 163 221 266 318 382
#     4  12  26  40  64  94 130 168 206 270 322 376
#     4  10  20  39  64  92 124 166 212 258 322 370
#     4  10  22  44  61  93 131 166 205 268 319 384
#     4  11  23  40  67  89 124 179 212 264 319 381
#     4   9  21  40  63  93 122 165 218 257 309 392
#
# _framework density 20.999918999999998
#
# number of rings (size 3 to 8) (size 9 to 14) (size 15 to 20)
#    0.000    1.846    1.538    0.923    8.615    3.077 
#    0.000    0.769    0.000    0.000    0.000    0.000 
#    0.000    0.000    0.000    0.000    0.000    0.000 
#
# Total GULP energy -322229.621294 kJ/mol
# GULP energy per Si atom -12393.446973 kJ/mol
# Density = 2.095212 g / cm^3
# Si number density = 20.999919 Si / 1000 Ang^3
#
#
#
# Elastic Constant Matrix: (Units=GPa)
#
#
# Indices 1 2 3 4 5 6 
#
# 1 62.5867 18.7605 61.6297 0.0000 6.1870 0.0000
# 2 18.7605 66.4423 29.8400 0.0000 3.8277 0.0001
# 3 61.6297 29.8400 116.9977 0.0000 -8.6278 0.0000
# 4 0.0000 0.0000 0.0000 45.5762 0.0000 6.0534
# 5 6.1870 3.8277 -8.6278 0.0000 37.1835 0.0000
# 6 0.0000 0.0001 0.0000 6.0534 0.0000 -3.0152
#
#
#
# Elastic Compliance Matrix: (Units=1/GPa)
#
#
# Indices 1 2 3 4 5 6 
#
# 1 0.037115 -0.000816 -0.020136 0.000000 -0.010764 0.000000
# 2 -0.000816 0.017308 -0.004177 0.000000 -0.002615 0.000000
# 3 -0.020136 -0.004177 0.020855 0.000000 0.008620 0.000000
# 4 0.000000 0.000000 0.000000 0.017322 0.000000 0.034777
# 5 -0.010764 -0.002615 0.008620 0.000000 0.030954 0.000000
# 6 0.000000 0.000000 0.000000 0.034777 0.000000 -0.261835
#
#
# Mechanical properties :
#
#
# Convention : Reuss Voigt Hill
#
# Bulk Modulus (GPa) = 39.97030 51.83188 45.90109
# Shear Modulus (GPa) = -62.74850 25.00202 -18.87324
#
# Velocity S-wave (km/s) = -5.47222 3.45422 -3.00113
# Velocity P-wave (km/s) = 4.56641 6.37529 3.14581
#
# Compressibility (1/GPa) = 0.02501858
#
# Stress axis : x y z
#
# Youngs Moduli (GPa) = 26.94348 57.77743 47.94992
#
# Poissons Ratio (x) = 0.04716 0.96553
# Poissons Ratio (y) = 0.02199 0.20030
# Poissons Ratio (z) = 0.54254 0.24135
#
# Static dielectric constant tensor:
#      x y z
#    x 3.751300 0.000000 -0.076630 
#    y 0.000000 3.867630 0.000000 
#    z -0.076630 0.000000 4.092500 
# 
# 
# High freq. dielectric constant tensor:
#      x y z
#    x 1.800890 0.000000 0.000810 
#    y 0.000000 1.824160 0.000000 
#    z 0.000810 0.000000 1.844420 
# 
# From -- ./inp_files/295293.got.cif
#   From: 2010.06.25/outbox.cif.g09.slc.cpg/sg15_148_cif.got.tgz:295293.got - 2010.06.28 07:06:18.
