data_PCOD8139204
_publ_section_title
;
Structure prediction by ZEFSAII (Michael W. Deem and Ramdas Pophale) SiO2 
 PCOD8139204
Probable space group: C 2/C
;
_chemical_formula_sum "Si O2"
_cell_formula_units_Z 56
_cell_length_a 8.958121
_cell_length_b 26.902300
_cell_length_c 18.228803
_cell_angle_alpha 90.000000
_cell_angle_beta 37.791774
_cell_angle_gamma 90.000000
_cell_volume 2692.022659
_symmetry_space_group_name_H-M "C 2/C"
_symmetry_group_IT_number 15
_symmetry_cell_setting 'monoclinic'
loop_
_space_group_symop_operation_xyz
x,y,z
-x,y,1/2-z
-x,-y,-z
x,-y,1/2+z
1/2+x,1/2+y,z
1/2-x,1/2+y,1/2-z
1/2-x,1/2-y,-z
1/2+x,1/2-y,1/2+z
loop_
_atom_site_type_symbol
_atom_site_label
_atom_site_fract_x
_atom_site_fract_y
_atom_site_fract_z
Si Si1 0.479046 0.875479 0.129355
Si Si2 0.792539 0.351861 0.044329
Si Si3 0.276626 0.691043 0.286383
Si Si4 0.018383 0.152060 0.440132
Si Si5 0.358590 0.972108 0.370067
Si Si6 0.377895 0.570168 0.000425
Si Si7 0.856624 0.804004 0.153376
O O1 0.330597 0.863840 0.113961
O O2 0.472004 0.934817 0.148590
O O3 0.355660 0.843570 0.242825
O O4 0.759761 0.862248 0.005188
O O5 0.671981 0.400803 0.055056
O O6 0.590641 0.308282 0.116542
O O7 0.037458 0.337052 0.907012
O O8 0.500000 0.672918 0.250000
O O9 0.321636 0.678656 0.183792
O O10 0.255523 0.749924 0.299052
O O11 0.182299 0.105319 0.405598
O O12 0.958179 0.187771 0.531958
O O13 0.500000 0.999594 0.250000
O O14 0.162769 0.938880 0.402628
O O15 0.254891 0.017323 0.457844
#
# Coordination Sequence:
#
# PCOD8139204 Si02
#       7
#     8   8   8   8   8   8   8
#     4  11  21  41  66  92 130 162 206 271 315 377
#     4  11  24  42  61  94 134 161 211 267 325 366
#     4  12  25  41  65  93 128 174 215 262 320 378
#     4  10  22  42  65  89 128 167 214 255 314 381
#     4  10  20  38  67  91 120 168 216 252 321 382
#     4   9  22  40  62  94 124 164 213 264 308 382
#     4  11  25  41  65  92 126 173 219 261 313 375
#
# _framework density 20.802202000000001
#
# number of rings (size 3 to 8) (size 9 to 14) (size 15 to 20)
#    0.000    1.429    1.429    4.714    4.000    3.429 
#    5.143    0.000    0.000    0.000    0.000    0.000 
#    0.000    0.000    0.000    0.000    0.000    0.000 
#
# Total GULP energy -347026.145349 kJ/mol
# GULP energy per Si atom -12393.790905 kJ/mol
# Density = 2.075486 g / cm^3
# Si number density = 20.802202 Si / 1000 Ang^3
#
#
#
# Elastic Constant Matrix: (Units=GPa)
#
#
# Indices 1 2 3 4 5 6 
#
# 1 87.9643 15.5905 8.6531 -0.0001 13.1562 0.0001
# 2 15.5905 85.3460 21.8297 0.0000 12.1367 0.0000
# 3 8.6531 21.8297 85.6439 -0.0004 14.3842 0.0004
# 4 -0.0001 0.0000 -0.0004 15.6276 0.0002 -3.1207
# 5 13.1562 12.1367 14.3842 0.0002 33.2282 -0.0002
# 6 0.0001 0.0000 0.0004 -3.1207 -0.0002 25.0328
#
#
#
# Elastic Compliance Matrix: (Units=1/GPa)
#
#
# Indices 1 2 3 4 5 6 
#
# 1 0.012299 -0.001615 -0.000121 0.000000 -0.004227 0.000000
# 2 -0.001615 0.013123 -0.002679 0.000000 -0.002994 0.000000
# 3 -0.000121 -0.002679 0.013155 0.000000 -0.004668 0.000000
# 4 0.000000 0.000000 0.000000 0.065623 -0.000001 0.008181
# 5 -0.004227 -0.002994 -0.004668 -0.000001 0.034883 0.000000
# 6 0.000000 0.000000 0.000000 0.008181 0.000000 0.040968
#
#
# Mechanical properties :
#
#
# Convention : Reuss Voigt Hill
#
# Bulk Modulus (GPa) = 33.61574 39.01121 36.31348
# Shear Modulus (GPa) = 25.15148 28.96977 27.06063
#
# Velocity S-wave (km/s) = 3.48095 3.73584 3.61065
# Velocity P-wave (km/s) = 5.68778 6.11579 5.90566
#
# Compressibility (1/GPa) = 0.02974797
#
# Stress axis : x y z
#
# Youngs Moduli (GPa) = 81.31034 76.20236 76.01448
#
# Poissons Ratio (x) = 0.12303 0.00920
# Poissons Ratio (y) = 0.13128 0.20363
# Poissons Ratio (z) = 0.00985 0.20414
#
# Static dielectric constant tensor:
#      x y z
#    x 3.849600 0.000000 -0.174950 
#    y 0.000000 3.690110 0.000000 
#    z -0.174950 0.000000 3.701830 
# 
# 
# High freq. dielectric constant tensor:
#      x y z
#    x 1.818200 0.000000 -0.010050 
#    y 0.000000 1.808640 0.000000 
#    z -0.010050 0.000000 1.816970 
# 
# From -- ./inp_files/193841.got.cif
#   From: 2010.06.25/outbox.cif.g09.slc.cpg/sg15_97_cif.got.tgz:193841.got - 2010.06.28 07:06:18.
