data_PCOD8139231
_publ_section_title
;
Structure prediction by ZEFSAII (Michael W. Deem and Ramdas Pophale) SiO2 
 PCOD8139231
Probable space group: C 2/C
;
_chemical_formula_sum "Si O2"
_cell_formula_units_Z 60
_cell_length_a 6.409880
_cell_length_b 15.818396
_cell_length_c 31.485827
_cell_angle_alpha 90.000000
_cell_angle_beta 67.922987
_cell_angle_gamma 90.000000
_cell_volume 2958.400736
_symmetry_space_group_name_H-M "C 2/C"
_symmetry_group_IT_number 15
_symmetry_cell_setting 'monoclinic'
loop_
_space_group_symop_operation_xyz
x,y,z
-x,y,1/2-z
-x,-y,-z
x,-y,1/2+z
1/2+x,1/2+y,z
1/2-x,1/2+y,1/2-z
1/2-x,1/2-y,-z
1/2+x,1/2-y,1/2+z
loop_
_atom_site_type_symbol
_atom_site_label
_atom_site_fract_x
_atom_site_fract_y
_atom_site_fract_z
Si Si1 0.429327 0.886795 0.168901
Si Si2 0.000000 0.144625 0.750000
Si Si3 0.205619 0.697470 0.908606
Si Si4 0.090144 0.571351 0.523322
Si Si5 0.191842 0.522731 0.098469
Si Si6 0.200692 0.262014 0.206871
Si Si7 0.597861 0.186431 0.383564
Si Si8 0.422170 0.356778 0.932277
O O1 0.203938 0.910599 0.213560
O O2 0.351260 0.830110 0.135003
O O3 0.602959 0.836023 0.184563
O O4 0.564709 0.971336 0.145234
O O5 0.900985 0.203848 0.720769
O O6 0.468126 0.722156 0.894961
O O7 0.130686 0.624046 0.946321
O O8 0.090617 0.783691 0.932562
O O9 0.216345 0.534839 0.554850
O O10 0.267198 0.628408 0.484877
O O11 0.000000 0.500000 0.500000
O O12 0.441393 0.557396 0.092071
O O13 0.047640 0.603971 0.097475
O O14 0.291733 0.184424 0.171647
O O15 0.000000 0.223079 0.250000
O O16 0.788851 0.184024 0.403855
#
# Coordination Sequence:
#
# PCOD8139231 Si02
#       8
#     8   4   8   8   8   8   8   8
#     4  10  20  39  61  91 116 157 198 244 310 362
#     4  10  20  38  68  88 122 148 202 254 298 374
#     4  10  22  38  62  86 121 159 204 251 296 363
#     4  11  22  41  58  89 121 163 207 252 304 353
#     4  10  24  39  60  85 125 159 199 252 306 361
#     4  10  21  36  64  90 114 154 200 242 301 369
#     4  11  21  40  61  91 118 160 201 250 307 363
#     4  11  22  40  59  86 124 161 203 250 300 362
#
# _framework density 20.281229
#
# number of rings (size 3 to 8) (size 9 to 14) (size 15 to 20)
#    0.000    1.600    4.000    0.800    0.000    2.667 
#    3.600    0.000    4.400    0.000    0.000    0.000 
#    0.000    0.000    0.000    0.000    0.000    0.000 
#
# Total GULP energy -371847.861393 kJ/mol
# GULP energy per Si atom -12394.928713 kJ/mol
# Density = 2.023507 g / cm^3
# Si number density = 20.281229 Si / 1000 Ang^3
#
#
#
# Elastic Constant Matrix: (Units=GPa)
#
#
# Indices 1 2 3 4 5 6 
#
# 1 102.0960 29.6568 48.9272 0.0000 3.4133 -0.0001
# 2 29.6568 74.6966 44.6767 0.0000 -2.6472 0.0000
# 3 48.9272 44.6767 133.7844 0.0000 -11.2725 0.0000
# 4 0.0000 0.0000 0.0000 41.7717 0.0000 -3.3766
# 5 3.4133 -2.6472 -11.2725 0.0000 32.7981 0.0000
# 6 -0.0001 0.0000 0.0000 -3.3766 0.0000 24.4654
#
#
#
# Elastic Compliance Matrix: (Units=1/GPa)
#
#
# Indices 1 2 3 4 5 6 
#
# 1 0.012568 -0.002746 -0.003922 0.000000 -0.002877 0.000000
# 2 -0.002746 0.017340 -0.004783 0.000000 0.000042 0.000000
# 3 -0.003922 -0.004783 0.010821 0.000000 0.003741 0.000000
# 4 0.000000 0.000000 0.000000 0.024210 0.000000 0.003341
# 5 -0.002877 0.000042 0.003741 0.000000 0.032078 0.000000
# 6 0.000000 0.000000 0.000000 0.003341 0.000000 0.041335
#
#
# Mechanical properties :
#
#
# Convention : Reuss Voigt Hill
#
# Bulk Modulus (GPa) = 56.09177 61.89982 58.99580
# Shear Modulus (GPa) = 29.90493 32.29478 31.09985
#
# Velocity S-wave (km/s) = 3.84410 3.99475 3.92015
# Velocity P-wave (km/s) = 6.88621 7.20169 7.04572
#
# Compressibility (1/GPa) = 0.01782793
#
# Stress axis : x y z
#
# Youngs Moduli (GPa) = 79.56709 57.67040 92.40988
#
# Poissons Ratio (x) = 0.15838 0.36240
# Poissons Ratio (y) = 0.21851 0.44197
# Poissons Ratio (z) = 0.31204 0.27582
#
# Static dielectric constant tensor:
#      x y z
#    x 4.100510 0.000000 -0.503890 
#    y 0.000000 3.565910 0.000000 
#    z -0.503890 0.000000 4.212650 
# 
# 
# High freq. dielectric constant tensor:
#      x y z
#    x 1.802430 0.000000 -0.013180 
#    y 0.000000 1.774160 0.000000 
#    z -0.013180 0.000000 1.803080 
# 
# From -- ./inp_files/305639.got.cif
#   From: 2010.06.25/outbox.cif.g09.slc.cpg/sg15_153_cif.got.tgz:305639.got - 2010.06.28 07:06:18.
