data_PCOD8139068
_publ_section_title
;
Structure prediction by ZEFSAII (Michael W. Deem and Ramdas Pophale) SiO2 
 PCOD8139068
Probable space group: C 2/C
;
_chemical_formula_sum "Si O2"
_cell_formula_units_Z 64
_cell_length_a 14.601131
_cell_length_b 14.159704
_cell_length_c 28.852671
_cell_angle_alpha 90.000000
_cell_angle_beta 33.335864
_cell_angle_gamma 90.000000
_cell_volume 3278.163813
_symmetry_space_group_name_H-M "C 2/C"
_symmetry_group_IT_number 15
_symmetry_cell_setting 'monoclinic'
loop_
_space_group_symop_operation_xyz
x,y,z
-x,y,1/2-z
-x,-y,-z
x,-y,1/2+z
1/2+x,1/2+y,z
1/2-x,1/2+y,1/2-z
1/2-x,1/2-y,-z
1/2+x,1/2-y,1/2+z
loop_
_atom_site_type_symbol
_atom_site_label
_atom_site_fract_x
_atom_site_fract_y
_atom_site_fract_z
Si Si1 0.943696 0.586146 0.055680
Si Si2 0.271542 0.299568 0.441463
Si Si3 0.126112 0.348370 0.085264
Si Si4 0.860746 0.992130 0.021195
Si Si5 0.791060 0.845177 0.920395
Si Si6 0.636198 0.011685 0.310009
Si Si7 0.929519 0.374840 0.830678
Si Si8 0.015685 0.026686 0.630207
O O1 0.799778 0.646365 0.090895
O O2 0.872785 0.541394 0.132751
O O3 0.000000 0.500000 0.000000
O O4 0.095595 0.656202 0.001511
O O5 0.250000 0.250000 0.500000
O O6 0.334370 0.222894 0.378546
O O7 0.413649 0.378800 0.376918
O O8 0.299369 0.386721 0.034547
O O9 0.091903 0.248581 0.125687
O O10 0.974861 0.420473 0.155456
O O11 0.151327 0.335405 0.019483
O O12 0.702066 0.042809 0.108966
O O13 0.931478 0.039611 0.945237
O O14 0.000000 0.000000 0.000000
O O15 0.904288 0.936449 0.879182
O O16 0.577720 0.102536 0.304617
O O17 0.819363 0.980141 0.218523
O O18 0.000000 0.374057 0.750000
#
# Coordination Sequence:
#
# PCOD8139068 Si02
#       8
#     8   8   8   8   8   8   8   8
#     4  12  22  42  70  94 132 177 218 274 337 392
#     4  12  23  44  68  96 134 176 223 271 337 401
#     4   9  20  39  63  91 127 165 216 275 318 395
#     4  10  20  38  64  93 125 171 216 264 335 393
#     4  10  21  40  63  94 125 167 221 267 329 391
#     4  11  23  42  65  97 136 170 218 278 333 391
#     4  11  24  43  66  97 133 171 223 279 328 400
#     4  11  23  40  66  92 132 175 214 270 329 396
#
# _framework density 19.523123999999999
#
# number of rings (size 3 to 8) (size 9 to 14) (size 15 to 20)
#    0.000    1.250    5.000    1.500    1.750    2.500 
#    2.250    0.000    8.250    0.000    0.000    0.000 
#    0.000    0.000    0.000    0.000    0.000    0.000 
#
# Total GULP energy -396736.563192 kJ/mol
# GULP energy per Si atom -12398.017600 kJ/mol
# Density = 1.947869 g / cm^3
# Si number density = 19.523124 Si / 1000 Ang^3
#
#
#
# Elastic Constant Matrix: (Units=GPa)
#
#
# Indices 1 2 3 4 5 6 
#
# 1 110.6634 30.6495 28.8253 -0.0011 0.3883 -0.0004
# 2 30.6495 110.0952 25.6383 -0.0004 0.1337 -0.0002
# 3 28.8253 25.6383 100.6559 0.0017 4.9231 0.0000
# 4 -0.0011 -0.0004 0.0017 22.7542 0.0001 -4.9447
# 5 0.3883 0.1337 4.9231 0.0001 39.1432 -0.0001
# 6 -0.0004 -0.0002 0.0000 -4.9447 -0.0001 31.2648
#
#
#
# Elastic Compliance Matrix: (Units=1/GPa)
#
#
# Indices 1 2 3 4 5 6 
#
# 1 0.010294 -0.002314 -0.002368 0.000001 0.000204 0.000000
# 2 -0.002314 0.010179 -0.001941 0.000000 0.000232 0.000000
# 3 -0.002368 -0.001941 0.011175 -0.000001 -0.001375 0.000000
# 4 0.000001 0.000000 -0.000001 0.045512 0.000000 0.007198
# 5 0.000204 0.000232 -0.001375 0.000000 0.025717 0.000000
# 6 0.000000 0.000000 0.000000 0.007198 0.000000 0.033123
#
#
# Mechanical properties :
#
#
# Convention : Reuss Voigt Hill
#
# Bulk Modulus (GPa) = 54.34918 54.62674 54.48796
# Shear Modulus (GPa) = 32.17887 34.38586 33.28237
#
# Velocity S-wave (km/s) = 4.06426 4.20132 4.13336
# Velocity P-wave (km/s) = 7.06563 7.18165 7.12388
#
# Compressibility (1/GPa) = 0.01839954
#
# Stress axis : x y z
#
# Youngs Moduli (GPa) = 97.14803 98.23997 89.48698
#
# Poissons Ratio (x) = 0.22736 0.21193
# Poissons Ratio (y) = 0.22484 0.17372
# Poissons Ratio (z) = 0.23007 0.19072
#
# Static dielectric constant tensor:
#      x y z
#    x 3.841570 -0.000010 0.012640 
#    y -0.000010 3.755850 0.000010 
#    z 0.012640 0.000010 3.408230 
# 
# 
# High freq. dielectric constant tensor:
#      x y z
#    x 1.767630 0.000000 -0.000930 
#    y 0.000000 1.772270 0.000000 
#    z -0.000930 0.000000 1.749540 
# 
# From -- ./inp_files/293054.got.cif
#   From: 2010.06.25/outbox.cif.g09.slc.cpg/sg15_147_cif.got.tgz:293054.got - 2010.06.28 07:06:18.
