data_PCOD8139769
_publ_section_title
;
Structure prediction by ZEFSAII (Michael W. Deem and Ramdas Pophale) SiO2 
 PCOD8139769
Probable space group: C 2/C
;
_chemical_formula_sum "Si O2"
_cell_formula_units_Z 60
_cell_length_a 29.154922
_cell_length_b 5.107934
_cell_length_c 17.553729
_cell_angle_alpha 90.000000
_cell_angle_beta 81.804989
_cell_angle_gamma 90.000000
_cell_volume 2587.432436
_symmetry_space_group_name_H-M "C 2/C"
_symmetry_group_IT_number 15
_symmetry_cell_setting 'monoclinic'
loop_
_space_group_symop_operation_xyz
x,y,z
-x,y,1/2-z
-x,-y,-z
x,-y,1/2+z
1/2+x,1/2+y,z
1/2-x,1/2+y,1/2-z
1/2-x,1/2-y,-z
1/2+x,1/2-y,1/2+z
loop_
_atom_site_type_symbol
_atom_site_label
_atom_site_fract_x
_atom_site_fract_y
_atom_site_fract_z
Si Si1 0.878818 0.313817 0.340847
Si Si2 0.600673 0.464547 0.517870
Si Si3 0.041027 0.335647 0.618429
Si Si4 0.500000 0.541834 0.250000
Si Si5 0.706409 0.945772 0.572652
Si Si6 0.916300 0.855628 0.682401
Si Si7 0.060954 0.621403 0.408260
Si Si8 0.802284 0.947480 0.022587
O O1 0.874851 0.094013 0.406688
O O2 0.928665 0.444965 0.347163
O O3 0.834232 0.506385 0.355487
O O4 0.877747 0.184703 0.256966
O O5 0.568469 0.716117 0.538563
O O6 0.569849 0.222584 0.492512
O O7 0.646419 0.509166 0.452791
O O8 0.993074 0.433557 0.593152
O O9 0.032637 0.124568 0.686271
O O10 0.533912 0.721060 0.291928
O O11 0.704692 0.646446 0.546683
O O12 0.759127 0.004245 0.591332
O O13 0.698531 0.144646 0.503634
O O14 0.910623 0.647054 0.614703
O O15 0.918491 0.151901 0.652075
#
# Coordination Sequence:
#
# PCOD8139769 Si02
#       8
#     8   8   8   4   8   8   8   8
#     4  11  21  36  65  86 113 148 207 242 286 342
#     4  11  23  38  58  87 114 154 194 240 287 348
#     4  11  21  37  57  85 115 152 196 239 283 342
#     4  10  20  40  56  82 112 156 202 244 290 332
#     4   9  18  32  56  87 111 140 181 247 288 335
#     4  11  23  41  56  82 114 159 193 240 286 344
#     4  11  27  38  56  80 126 156 190 234 295 343
#     4   9  18  34  54  83 118 140 180 236 303 333
#
# _framework density 23.189012999999999
#
# number of rings (size 3 to 8) (size 9 to 14) (size 15 to 20)
#    0.000    1.600    2.667    2.800    3.733    1.067 
#    0.000    0.000    0.000    1.600    0.000    0.000 
#    0.000    0.000    0.000    0.000    0.000    0.000 
#
# Total GULP energy -371684.761507 kJ/mol
# GULP energy per Si atom -12389.492050 kJ/mol
# Density = 2.313623 g / cm^3
# Si number density = 23.189013 Si / 1000 Ang^3
#
#
#
# Elastic Constant Matrix: (Units=GPa)
#
#
# Indices 1 2 3 4 5 6 
#
# 1 115.3290 3.7791 8.6246 0.0000 -31.9256 0.0000
# 2 3.7791 52.4147 -16.7916 0.0000 -6.6583 0.0000
# 3 8.6246 -16.7916 53.7981 0.0000 -12.5064 0.0000
# 4 0.0000 0.0000 0.0000 27.5970 0.0000 -4.4056
# 5 -31.9256 -6.6583 -12.5064 0.0000 23.0236 0.0000
# 6 0.0000 0.0000 0.0000 -4.4056 0.0000 28.7845
#
#
#
# Elastic Compliance Matrix: (Units=1/GPa)
#
#
# Indices 1 2 3 4 5 6 
#
# 1 0.014838 0.003293 0.004182 0.000000 0.023800 0.000000
# 2 0.003293 0.024753 0.011358 0.000000 0.017894 0.000000
# 3 0.004182 0.011358 0.026981 0.000000 0.023739 0.000000
# 4 0.000000 0.000000 0.000000 0.037143 0.000000 0.005685
# 5 0.023800 0.017894 0.023739 0.000000 0.094506 0.000000
# 6 0.000000 0.000000 0.000000 0.005685 0.000000 0.035611
#
#
# Mechanical properties :
#
#
# Convention : Reuss Voigt Hill
#
# Bulk Modulus (GPa) = 9.59342 23.64066 16.61704
# Shear Modulus (GPa) = 21.65312 30.94300 26.29806
#
# Velocity S-wave (km/s) = 3.05907 3.65688 3.37126
# Velocity P-wave (km/s) = 4.07717 5.29597 4.72602
#
# Compressibility (1/GPa) = 0.10423816
#
# Stress axis : x y z
#
# Youngs Moduli (GPa) = 67.39234 40.39919 37.06264
#
# Poissons Ratio (x) = -0.13304 -0.15498
# Poissons Ratio (y) = -0.22193 -0.42095
# Poissons Ratio (z) = -0.28181 -0.45885
#
# Static dielectric constant tensor:
#      x y z
#    x 4.725200 0.000000 -0.372390 
#    y 0.000000 4.017160 0.000000 
#    z -0.372390 0.000000 4.181650 
# 
# 
# High freq. dielectric constant tensor:
#      x y z
#    x 1.911250 0.000000 -0.031860 
#    y 0.000000 1.925970 0.000000 
#    z -0.031860 0.000000 1.881130 
# 
# From -- ./inp_files/258297.got.cif
#   From: 2010.06.25/outbox.cif.g09.slc.cpg/sg15_130_cif.got.tgz:258297.got - 2010.06.28 07:06:18.
