data_PCOD8139292
_publ_section_title
;
Structure prediction by ZEFSAII (Michael W. Deem and Ramdas Pophale) SiO2 
 PCOD8139292
Probable space group: C 2/C
;
_chemical_formula_sum "Si O2"
_cell_formula_units_Z 64
_cell_length_a 35.259787
_cell_length_b 14.287642
_cell_length_c 9.448151
_cell_angle_alpha 90.000000
_cell_angle_beta 132.956666
_cell_angle_gamma 90.000000
_cell_volume 3483.538390
_symmetry_space_group_name_H-M "C 2/C"
_symmetry_group_IT_number 15
_symmetry_cell_setting 'monoclinic'
loop_
_space_group_symop_operation_xyz
x,y,z
-x,y,1/2-z
-x,-y,-z
x,-y,1/2+z
1/2+x,1/2+y,z
1/2-x,1/2+y,1/2-z
1/2-x,1/2-y,-z
1/2+x,1/2-y,1/2+z
loop_
_atom_site_type_symbol
_atom_site_label
_atom_site_fract_x
_atom_site_fract_y
_atom_site_fract_z
Si Si1 0.220245 0.594140 0.345568
Si Si2 0.041574 0.591599 0.975175
Si Si3 0.339753 0.404783 0.144946
Si Si4 0.868078 0.269259 0.882400
Si Si5 0.215998 0.418048 0.512155
Si Si6 0.468591 0.117063 0.028625
Si Si7 0.835712 0.909463 0.800722
Si Si8 0.369303 0.234195 0.715627
O O1 0.279926 0.618075 0.525267
O O2 0.188118 0.687704 0.294101
O O3 0.198736 0.511949 0.389610
O O4 0.210715 0.558387 0.163087
O O5 0.057189 0.485934 0.061695
O O6 0.000000 0.576622 0.750000
O O7 0.089750 0.651880 0.045084
O O8 0.012294 0.644230 0.026002
O O9 0.374541 0.320878 0.297921
O O10 0.355062 0.497912 0.269090
O O11 0.350136 0.416050 0.003774
O O12 0.871771 0.239285 0.055916
O O13 0.274753 0.392098 0.621555
O O14 0.179191 0.332919 0.373761
O O15 0.500000 0.128879 0.250000
O O16 0.422268 0.189190 0.901160
O O17 0.865156 0.825191 0.801368
#
# Coordination Sequence:
#
# PCOD8139292 Si02
#       8
#     8   8   8   8   8   8   8   8
#     4   9  19  34  52  81 115 147 181 220 268 322
#     4  10  20  39  57  82 114 147 177 219 275 324
#     4  10  21  37  56  79 109 147 184 226 272 321
#     4  11  21  34  57  81 112 146 184 224 269 325
#     4   9  19  34  53  80 115 147 180 222 268 322
#     4  10  22  37  59  82 114 145 180 222 270 326
#     4  10  21  37  56  79 110 145 185 227 272 320
#     4  11  21  35  55  83 111 145 184 225 271 323
#
# _framework density 18.372123999999999
#
# number of rings (size 3 to 8) (size 9 to 14) (size 15 to 20)
#    0.000    2.000    1.250    2.250    1.750    2.000 
#    0.000    0.000    0.000    1.500    0.000    0.000 
#    0.000    0.000    0.000    0.000    0.000    0.000 
#
# Total GULP energy -396782.748023 kJ/mol
# GULP energy per Si atom -12399.460876 kJ/mol
# Density = 1.833031 g / cm^3
# Si number density = 18.372124 Si / 1000 Ang^3
#
#
#
# Elastic Constant Matrix: (Units=GPa)
#
#
# Indices 1 2 3 4 5 6 
#
# 1 79.2891 42.9490 34.1162 0.0000 -21.8230 0.0000
# 2 42.9490 108.1221 56.2448 0.0000 -13.7654 0.0000
# 3 34.1162 56.2448 72.0476 0.0000 -6.7287 0.0000
# 4 0.0000 0.0000 0.0000 11.5600 0.0000 -10.5202
# 5 -21.8230 -13.7654 -6.7287 0.0000 22.8483 0.0000
# 6 0.0000 0.0000 0.0000 -10.5202 0.0000 34.6486
#
#
#
# Elastic Compliance Matrix: (Units=1/GPa)
#
#
# Indices 1 2 3 4 5 6 
#
# 1 0.021682 -0.003264 -0.006137 0.000000 0.016935 0.000000
# 2 -0.003264 0.016898 -0.011297 0.000000 0.003736 0.000000
# 3 -0.006137 -0.011297 0.025112 0.000000 -0.005272 0.000000
# 4 0.000000 0.000000 0.000000 0.119535 0.000000 0.036294
# 5 0.016935 0.003736 -0.005272 0.000000 0.060640 0.000000
# 6 0.000000 0.000000 0.000000 0.036294 0.000000 0.039881
#
#
# Mechanical properties :
#
#
# Convention : Reuss Voigt Hill
#
# Bulk Modulus (GPa) = 44.85133 58.45319 51.65226
# Shear Modulus (GPa) = 15.03416 22.22129 18.62772
#
# Velocity S-wave (km/s) = 2.86372 3.48158 3.18765
# Velocity P-wave (km/s) = 5.94981 6.93160 6.45939
#
# Compressibility (1/GPa) = 0.02229588
#
# Stress axis : x y z
#
# Youngs Moduli (GPa) = 46.12143 59.18027 39.82110
#
# Poissons Ratio (x) = 0.19317 0.24439
# Poissons Ratio (y) = 0.15054 0.44985
# Poissons Ratio (z) = 0.28305 0.66854
#
# Static dielectric constant tensor:
#      x y z
#    x 3.376880 0.000000 -0.143380 
#    y 0.000000 3.297190 0.000000 
#    z -0.143380 0.000000 3.331540 
# 
# 
# High freq. dielectric constant tensor:
#      x y z
#    x 1.711310 0.000000 -0.016640 
#    y 0.000000 1.706130 0.000000 
#    z -0.016640 0.000000 1.710150 
# 
# From -- ./inp_files/70147.got.cif
#   From: 2010.06.25/outbox.cif.g09.slc.cpg/sg15_36_cif.got.tgz:70147.got - 2010.06.28 07:06:18.
