data_PCOD8139339
_publ_section_title
;
Structure prediction by ZEFSAII (Michael W. Deem and Ramdas Pophale) SiO2 
 PCOD8139339
Probable space group: C 2/C
;
_chemical_formula_sum "Si O2"
_cell_formula_units_Z 60
_cell_length_a 23.247715
_cell_length_b 14.465501
_cell_length_c 18.147178
_cell_angle_alpha 90.000000
_cell_angle_beta 150.382969
_cell_angle_gamma 90.000000
_cell_volume 3015.961935
_symmetry_space_group_name_H-M "C 2/C"
_symmetry_group_IT_number 15
_symmetry_cell_setting 'monoclinic'
loop_
_space_group_symop_operation_xyz
x,y,z
-x,y,1/2-z
-x,-y,-z
x,-y,1/2+z
1/2+x,1/2+y,z
1/2-x,1/2+y,1/2-z
1/2-x,1/2-y,-z
1/2+x,1/2-y,1/2+z
loop_
_atom_site_type_symbol
_atom_site_label
_atom_site_fract_x
_atom_site_fract_y
_atom_site_fract_z
Si Si1 0.000000 0.573052 0.750000
Si Si2 0.000456 0.033358 0.837370
Si Si3 0.430241 0.859187 0.414784
Si Si4 0.563305 0.013435 0.965107
Si Si5 0.310168 0.780330 0.993894
Si Si6 0.816307 0.930079 0.718271
Si Si7 0.990191 0.150831 0.514628
Si Si8 0.836883 0.118139 0.920943
O O1 0.012564 0.505180 0.694253
O O2 0.892264 0.636561 0.609287
O O3 0.000000 0.059871 0.750000
O O4 0.991769 0.125769 0.879075
O O5 0.884968 0.973848 0.725679
O O6 0.115743 0.975812 0.988882
O O7 0.523788 0.887828 0.456496
O O8 0.442193 0.754281 0.453829
O O9 0.302037 0.884847 0.242311
O O10 0.468837 0.923181 0.525563
O O11 0.702338 0.010971 0.109370
O O12 0.250000 0.750000 0.000000
O O13 0.211438 0.823485 0.831446
O O14 0.373548 0.698449 0.020154
O O15 0.898601 0.925120 0.881584
O O16 0.107997 0.139346 0.597928
#
# Coordination Sequence:
#
# PCOD8139339 Si02
#       8
#     4   8   8   8   8   8   8   8
#     4  10  22  34  52  84 120 148 180 234 306 352
#     4  11  24  40  61  89 125 160 201 253 307 358
#     4  11  22  39  64  87 115 158 207 244 292 356
#     4  10  22  40  59  89 120 155 195 250 303 358
#     4  11  21  31  57  90 123 149 184 246 303 366
#     4  10  20  39  60  87 120 153 200 247 304 358
#     4  11  22  39  62  89 116 164 207 251 293 365
#     4  11  22  39  62  91 121 156 204 250 307 359
#
# _framework density 19.89415
#
# number of rings (size 3 to 8) (size 9 to 14) (size 15 to 20)
#    0.000    1.333    1.333    6.400    4.667    1.067 
#    1.200    0.000    0.000    1.600    0.000    0.000 
#    0.000    0.000    0.000    0.000    0.000    0.000 
#
# Total GULP energy -371842.016612 kJ/mol
# GULP energy per Si atom -12394.733887 kJ/mol
# Density = 1.984887 g / cm^3
# Si number density = 19.894150 Si / 1000 Ang^3
#
#
#
# Elastic Constant Matrix: (Units=GPa)
#
#
# Indices 1 2 3 4 5 6 
#
# 1 125.3954 32.6504 49.0848 0.0000 -17.5194 0.0000
# 2 32.6504 63.6917 29.6390 0.0000 -9.1463 0.0000
# 3 49.0848 29.6390 87.0321 0.0000 -5.0225 0.0000
# 4 0.0000 0.0000 0.0000 25.8816 0.0000 -4.3078
# 5 -17.5194 -9.1463 -5.0225 0.0000 39.4276 0.0000
# 6 0.0000 0.0000 0.0000 -4.3078 0.0000 28.8472
#
#
#
# Elastic Compliance Matrix: (Units=1/GPa)
#
#
# Indices 1 2 3 4 5 6 
#
# 1 0.011250 -0.002834 -0.005167 0.000000 0.003683 0.000000
# 2 -0.002834 0.019876 -0.005014 0.000000 0.002713 0.000000
# 3 -0.005167 -0.005014 0.016030 0.000000 -0.001417 0.000000
# 4 0.000000 0.000000 0.000000 0.039622 0.000000 0.005917
# 5 0.003683 0.002713 -0.001417 0.000000 0.027448 0.000000
# 6 0.000000 0.000000 0.000000 0.005917 0.000000 0.035549
#
#
# Mechanical properties :
#
#
# Convention : Reuss Voigt Hill
#
# Bulk Modulus (GPa) = 47.33485 55.42973 51.38229
# Shear Modulus (GPa) = 27.34516 29.81428 28.57972
#
# Velocity S-wave (km/s) = 3.71149 3.87543 3.79435
# Velocity P-wave (km/s) = 6.49707 6.92446 6.71417
#
# Compressibility (1/GPa) = 0.02112608
#
# Stress axis : x y z
#
# Youngs Moduli (GPa) = 88.89032 50.31152 62.38276
#
# Poissons Ratio (x) = 0.14256 0.32234
# Poissons Ratio (y) = 0.25187 0.31280
# Poissons Ratio (z) = 0.45931 0.25227
#
# Static dielectric constant tensor:
#      x y z
#    x 3.755400 0.000000 -0.151760 
#    y 0.000000 3.635160 0.000000 
#    z -0.151760 0.000000 3.913400 
# 
# 
# High freq. dielectric constant tensor:
#      x y z
#    x 1.784270 0.000000 0.000900 
#    y 0.000000 1.762120 0.000000 
#    z 0.000900 0.000000 1.775870 
# 
# From -- ./inp_files/219602.got.cif
#   From: 2010.06.25/outbox.cif.g09.slc.cpg/sg15_110_cif.got.tgz:219602.got - 2010.06.28 07:06:18.
