data_PCOD8139746
_publ_section_title
;
Structure prediction by ZEFSAII (Michael W. Deem and Ramdas Pophale) SiO2 
 PCOD8139746
Probable space group: C 2/C
;
_chemical_formula_sum "Si O2"
_cell_formula_units_Z 40
_cell_length_a 17.962054
_cell_length_b 17.054509
_cell_length_c 11.352248
_cell_angle_alpha 90.000000
_cell_angle_beta 29.562680
_cell_angle_gamma 90.000000
_cell_volume 1715.752297
_symmetry_space_group_name_H-M "C 2/C"
_symmetry_group_IT_number 15
_symmetry_cell_setting 'monoclinic'
loop_
_space_group_symop_operation_xyz
x,y,z
-x,y,1/2-z
-x,-y,-z
x,-y,1/2+z
1/2+x,1/2+y,z
1/2-x,1/2+y,1/2-z
1/2-x,1/2-y,-z
1/2+x,1/2-y,1/2+z
loop_
_atom_site_type_symbol
_atom_site_label
_atom_site_fract_x
_atom_site_fract_y
_atom_site_fract_z
Si Si1 0.959118 0.591274 0.555134
Si Si2 0.773956 0.961643 0.963858
Si Si3 0.500000 0.058360 0.250000
Si Si4 0.104493 0.276187 0.992910
Si Si5 0.920048 0.162659 0.100009
Si Si6 0.000000 0.916318 0.250000
O O1 0.795381 0.599198 0.843650
O O2 0.963682 0.615550 0.410956
O O3 0.000000 0.500000 0.500000
O O4 0.080961 0.641086 0.459302
O O5 0.641755 0.000802 0.070391
O O6 0.883913 0.914570 0.726071
O O7 0.857875 0.029693 0.918008
O O8 0.000000 0.269248 0.250000
O O9 0.063477 0.205437 0.961451
O O10 0.280248 0.275512 0.789083
O O11 0.964544 0.139316 0.907953
#
# Coordination Sequence:
#
# PCOD8139746 Si02
#       6
#     8   8   4   8   8   4
#     4  10  21  38  71  99 133 174 229 283 333 404
#     4  11  22  43  69 102 140 179 234 280 342 410
#     4  10  20  39  70 105 132 178 228 288 342 397
#     4  12  26  47  71 101 138 184 233 283 343 422
#     4  12  27  46  71 102 142 186 231 283 350 409
#     4  12  28  45  68 105 144 180 228 296 346 403
#
# _framework density 23.313389000000001
#
# number of rings (size 3 to 8) (size 9 to 14) (size 15 to 20)
#    0.000    0.800    2.000    7.200    2.800    3.200 
#    0.000    0.000    0.000    0.000    0.000    0.000 
#    0.000    0.000    0.000    0.000    0.000    0.000 
#
# Total GULP energy -248043.117005 kJ/mol
# GULP energy per Si atom -12402.155850 kJ/mol
# Density = 2.326033 g / cm^3
# Si number density = 23.313389 Si / 1000 Ang^3
#
#
#
# Elastic Constant Matrix: (Units=GPa)
#
#
# Indices 1 2 3 4 5 6 
#
# 1 109.7558 26.6735 20.8024 0.0001 18.5430 0.0005
# 2 26.6735 65.0595 0.9176 0.0006 2.9935 0.0002
# 3 20.8024 0.9176 57.9264 0.0017 26.7646 0.0004
# 4 0.0001 0.0006 0.0017 24.4967 -0.0002 5.7703
# 5 18.5430 2.9935 26.7646 -0.0002 62.7015 -0.0002
# 6 0.0005 0.0002 0.0004 5.7703 -0.0002 60.6481
#
#
#
# Elastic Compliance Matrix: (Units=1/GPa)
#
#
# Indices 1 2 3 4 5 6 
#
# 1 0.011065 -0.004413 -0.003101 0.000000 -0.001738 0.000000
# 2 -0.004413 0.017165 0.001356 0.000000 -0.000093 0.000000
# 3 -0.003101 0.001356 0.022374 -0.000002 -0.008698 0.000000
# 4 0.000000 0.000000 -0.000002 0.041758 0.000001 -0.003973
# 5 -0.001738 -0.000093 -0.008698 0.000001 0.020180 0.000000
# 6 0.000000 0.000000 0.000000 -0.003973 0.000000 0.016867
#
#
# Mechanical properties :
#
#
# Convention : Reuss Voigt Hill
#
# Bulk Modulus (GPa) = 26.11705 36.61430 31.36568
# Shear Modulus (GPa) = 32.36528 41.85913 37.11221
#
# Velocity S-wave (km/s) = 3.72999 4.24193 3.99417
# Velocity P-wave (km/s) = 5.45686 6.30328 5.89528
#
# Compressibility (1/GPa) = 0.03828916
#
# Stress axis : x y z
#
# Youngs Moduli (GPa) = 90.37616 58.25848 44.69396
#
# Poissons Ratio (x) = 0.25708 0.13858
# Poissons Ratio (y) = 0.39881 -0.06060
# Poissons Ratio (z) = 0.28022 -0.07899
#
# Static dielectric constant tensor:
#      x y z
#    x 4.791850 0.000000 0.431380 
#    y 0.000000 3.941060 0.000000 
#    z 0.431380 0.000000 4.377810 
# 
# 
# High freq. dielectric constant tensor:
#      x y z
#    x 1.940630 0.000000 0.012400 
#    y 0.000000 1.908460 0.000000 
#    z 0.012400 0.000000 1.922680 
# 
# From -- ./inp_files/106867.got.cif
#   From: 2010.06.25/outbox.cif.g09.slc.cpg/sg15_54_cif.got.tgz:106867.got - 2010.06.28 07:06:18.
