data_PCOD8139617
_publ_section_title
;
Structure prediction by ZEFSAII (Michael W. Deem and Ramdas Pophale) SiO2 
 PCOD8139617
Probable space group: C 2/C
;
_chemical_formula_sum "Si O2"
_cell_formula_units_Z 56
_cell_length_a 11.126841
_cell_length_b 18.043026
_cell_length_c 14.879775
_cell_angle_alpha 90.000000
_cell_angle_beta 118.790028
_cell_angle_gamma 90.000000
_cell_volume 2618.034040
_symmetry_space_group_name_H-M "C 2/C"
_symmetry_group_IT_number 15
_symmetry_cell_setting 'monoclinic'
loop_
_space_group_symop_operation_xyz
x,y,z
-x,y,1/2-z
-x,-y,-z
x,-y,1/2+z
1/2+x,1/2+y,z
1/2-x,1/2+y,1/2-z
1/2-x,1/2-y,-z
1/2+x,1/2-y,1/2+z
loop_
_atom_site_type_symbol
_atom_site_label
_atom_site_fract_x
_atom_site_fract_y
_atom_site_fract_z
Si Si1 0.562399 0.097595 0.046115
Si Si2 0.691124 0.544076 0.120205
Si Si3 0.871833 0.591350 0.638178
Si Si4 0.519072 0.435977 0.388680
Si Si5 0.135613 0.678462 0.239345
Si Si6 0.788893 0.165062 0.780475
Si Si7 0.792893 0.450877 0.385938
O O1 0.592882 0.167772 0.119550
O O2 0.653608 0.031822 0.123600
O O3 0.594570 0.111958 0.952829
O O4 0.401084 0.077651 0.000464
O O5 0.794982 0.487833 0.108610
O O6 0.601661 0.498382 0.161667
O O7 0.767511 0.613573 0.190356
O O8 0.580969 0.574007 0.009523
O O9 0.773842 0.657480 0.641233
O O10 0.000000 0.583346 0.750000
O O11 0.449676 0.357572 0.338394
O O12 0.636690 0.455654 0.361049
O O13 0.223122 0.754404 0.269274
O O14 0.000000 0.685091 0.250000
O O15 0.696551 0.106517 0.691906
#
# Coordination Sequence:
#
# PCOD8139617 Si02
#       7
#     8   8   8   8   8   8   8
#     4  11  24  39  72 101 120 170 229 269 322 381
#     4  10  22  39  67  94 127 165 220 270 327 374
#     4  11  21  44  70  94 126 169 224 276 319 385
#     4  10  20  39  65  92 124 171 209 270 323 381
#     4  12  26  43  62  99 134 175 215 271 323 400
#     4  11  25  41  64  92 138 174 210 262 337 387
#     4  11  21  40  66  99 124 164 219 276 320 377
#
# _framework density 21.390097000000001
#
# number of rings (size 3 to 8) (size 9 to 14) (size 15 to 20)
#    0.000    1.143    2.857    4.286    4.000    1.714 
#    0.000    4.286    0.000    0.000    0.000    0.000 
#    0.000    0.000    0.000    0.000    0.000    0.000 
#
# Total GULP energy -347088.342713 kJ/mol
# GULP energy per Si atom -12396.012240 kJ/mol
# Density = 2.134141 g / cm^3
# Si number density = 21.390097 Si / 1000 Ang^3
#
#
#
# Elastic Constant Matrix: (Units=GPa)
#
#
# Indices 1 2 3 4 5 6 
#
# 1 120.0099 46.5745 39.9810 0.0000 1.3470 0.0000
# 2 46.5745 90.2082 44.7477 0.0000 -10.3357 0.0000
# 3 39.9810 44.7477 79.1494 0.0000 -14.2419 0.0000
# 4 0.0000 0.0000 0.0000 20.7687 0.0000 -2.7075
# 5 1.3470 -10.3357 -14.2419 0.0000 36.5252 0.0000
# 6 0.0000 0.0000 0.0000 -2.7075 0.0000 20.9397
#
#
#
# Elastic Compliance Matrix: (Units=1/GPa)
#
#
# Indices 1 2 3 4 5 6 
#
# 1 0.011317 -0.004290 -0.003855 0.000000 -0.003135 0.000000
# 2 -0.004290 0.017068 -0.007082 0.000000 0.002227 0.000000
# 3 -0.003855 -0.007082 0.019628 0.000000 0.005791 0.000000
# 4 0.000000 0.000000 0.000000 0.048975 0.000000 0.006333
# 5 -0.003135 0.002227 0.005791 0.000000 0.030382 0.000000
# 6 0.000000 0.000000 0.000000 0.006333 0.000000 0.048575
#
#
# Mechanical properties :
#
#
# Convention : Reuss Voigt Hill
#
# Bulk Modulus (GPa) = 56.95181 61.33045 59.14113
# Shear Modulus (GPa) = 23.55678 26.18436 24.87057
#
# Velocity S-wave (km/s) = 3.32218 3.50256 3.41356
# Velocity P-wave (km/s) = 6.43420 6.71505 6.57612
#
# Compressibility (1/GPa) = 0.01755870
#
# Stress axis : x y z
#
# Youngs Moduli (GPa) = 88.36251 58.58752 50.94771
#
# Poissons Ratio (x) = 0.25132 0.19643
# Poissons Ratio (y) = 0.37904 0.36083
# Poissons Ratio (z) = 0.34068 0.41493
#
# Static dielectric constant tensor:
#      x y z
#    x 4.004660 0.000000 0.068560 
#    y 0.000000 3.604390 0.000000 
#    z 0.068560 0.000000 4.033390 
# 
# 
# High freq. dielectric constant tensor:
#      x y z
#    x 1.853730 0.000000 0.005270 
#    y 0.000000 1.807230 0.000000 
#    z 0.005270 0.000000 1.855020 
# 
# From -- ./inp_files/146140.got.cif
#   From: 2010.06.25/outbox.cif.g09.slc.cpg/sg15_74_cif.got.tgz:146140.got - 2010.06.28 07:06:18.
