data_PCOD8139960
_publ_section_title
;
Structure prediction by ZEFSAII (Michael W. Deem and Ramdas Pophale) SiO2 
 PCOD8139960
Probable space group: C 2/C
;
_chemical_formula_sum "Si O2"
_cell_formula_units_Z 64
_cell_length_a 18.788119
_cell_length_b 8.111697
_cell_length_c 32.682929
_cell_angle_alpha 90.000000
_cell_angle_beta 142.725031
_cell_angle_gamma 90.000000
_cell_volume 3016.693117
_symmetry_space_group_name_H-M "C 2/C"
_symmetry_group_IT_number 15
_symmetry_cell_setting 'monoclinic'
loop_
_space_group_symop_operation_xyz
x,y,z
-x,y,1/2-z
-x,-y,-z
x,-y,1/2+z
1/2+x,1/2+y,z
1/2-x,1/2+y,1/2-z
1/2-x,1/2-y,-z
1/2+x,1/2-y,1/2+z
loop_
_atom_site_type_symbol
_atom_site_label
_atom_site_fract_x
_atom_site_fract_y
_atom_site_fract_z
Si Si1 0.232255 0.180392 0.932005
Si Si2 0.633585 0.555151 0.809621
Si Si3 0.059218 0.259265 0.921446
Si Si4 0.793455 0.286639 0.318961
Si Si5 0.804190 0.995826 0.422990
Si Si6 0.521125 0.549945 0.069580
Si Si7 0.620376 0.816218 0.284597
Si Si8 0.373750 0.031919 0.294268
O O1 0.186343 0.040235 0.879621
O O2 0.149059 0.162878 0.933285
O O3 0.225390 0.359244 0.906622
O O4 0.366813 0.150880 0.008340
O O5 0.500000 0.627956 0.750000
O O6 0.723729 0.681761 0.829272
O O7 0.628959 0.380934 0.783985
O O8 0.999168 0.397256 0.865699
O O9 0.971403 0.124882 0.902285
O O10 0.920783 0.196722 0.377862
O O11 0.705432 0.185728 0.251313
O O12 0.815243 0.458980 0.307747
O O13 0.723142 0.866917 0.362490
O O14 0.884440 0.912844 0.495721
O O15 0.898244 0.060509 0.433615
O O16 0.500000 0.871759 0.250000
O O17 0.624242 0.901853 0.242049
#
# Coordination Sequence:
#
# PCOD8139960 Si02
#       8
#     8   8   8   8   8   8   8   8
#     4  10  20  42  64  93 123 162 211 250 317 380
#     4  11  24  41  63  90 122 163 215 263 310 373
#     4  10  23  38  66  93 125 164 201 261 313 381
#     4  12  24  40  61  89 123 168 201 262 314 375
#     4  10  20  40  64  89 123 160 205 255 308 376
#     4  10  21  39  62  91 123 159 204 254 313 368
#     4  11  24  41  63  91 122 165 209 260 311 371
#     4  12  24  39  59  90 126 158 208 251 315 375
#
# _framework density 21.215285000000002
#
# number of rings (size 3 to 8) (size 9 to 14) (size 15 to 20)
#    0.000    1.250    2.500    3.000    1.750    4.000 
#    0.000    1.250    0.000    8.250    0.000    0.000 
#    0.000    0.000    0.000    0.000    0.000    0.000 
#
# Total GULP energy -396579.861546 kJ/mol
# GULP energy per Si atom -12393.120673 kJ/mol
# Density = 2.116700 g / cm^3
# Si number density = 21.215285 Si / 1000 Ang^3
#
#
#
# Elastic Constant Matrix: (Units=GPa)
#
#
# Indices 1 2 3 4 5 6 
#
# 1 64.9035 17.5903 34.4402 -0.0003 4.0436 0.0003
# 2 17.5903 56.4473 48.6018 -0.0005 1.7602 0.0005
# 3 34.4402 48.6018 153.4327 -0.0001 -3.5035 0.0001
# 4 -0.0003 -0.0005 -0.0001 20.3260 0.0001 1.2567
# 5 4.0436 1.7602 -3.5035 0.0001 25.8436 0.0000
# 6 0.0003 0.0005 0.0001 1.2567 0.0000 27.1272
#
#
#
# Elastic Compliance Matrix: (Units=1/GPa)
#
#
# Indices 1 2 3 4 5 6 
#
# 1 0.018070 -0.002725 -0.003263 0.000000 -0.003084 0.000000
# 2 -0.002725 0.024961 -0.007347 0.000001 -0.002270 0.000000
# 3 -0.003263 -0.007347 0.009630 0.000000 0.002316 0.000000
# 4 0.000000 0.000001 0.000000 0.049339 0.000000 -0.002286
# 5 -0.003084 -0.002270 0.002316 0.000000 0.039645 0.000000
# 6 0.000000 0.000000 0.000000 -0.002286 0.000000 0.036969
#
#
# Mechanical properties :
#
#
# Convention : Reuss Voigt Hill
#
# Bulk Modulus (GPa) = 38.47531 52.89426 45.68478
# Shear Modulus (GPa) = 23.36997 26.26944 24.81971
#
# Velocity S-wave (km/s) = 3.32258 3.52267 3.42409
# Velocity P-wave (km/s) = 5.73537 6.44452 6.10026
#
# Compressibility (1/GPa) = 0.02599069
#
# Stress axis : x y z
#
# Youngs Moduli (GPa) = 55.34093 40.06173 103.84050
#
# Poissons Ratio (x) = 0.10917 0.33886
# Poissons Ratio (y) = 0.15081 0.76292
# Poissons Ratio (z) = 0.18059 0.29433
#
# Static dielectric constant tensor:
#      x y z
#    x 3.854000 0.000000 0.072490 
#    y 0.000000 3.558810 0.000000 
#    z 0.072490 0.000000 4.407760 
# 
# 
# High freq. dielectric constant tensor:
#      x y z
#    x 1.833340 0.000000 -0.003370 
#    y 0.000000 1.805200 0.000000 
#    z -0.003370 0.000000 1.854310 
# 
# From -- ./inp_files/315729.got.cif
#   From: 2010.06.25/outbox.cif.g09.slc.cpg/sg15_158_cif.got.tgz:315729.got - 2010.06.28 07:06:18.
