data_PCOD8139795
_publ_section_title
;
Structure prediction by ZEFSAII (Michael W. Deem and Ramdas Pophale) SiO2 
 PCOD8139795
Probable space group: C 2/C
;
_chemical_formula_sum "Si O2"
_cell_formula_units_Z 52
_cell_length_a 13.118848
_cell_length_b 25.475951
_cell_length_c 10.266871
_cell_angle_alpha 90.000000
_cell_angle_beta 48.395830
_cell_angle_gamma 90.000000
_cell_volume 2565.786391
_symmetry_space_group_name_H-M "C 2/C"
_symmetry_group_IT_number 15
_symmetry_cell_setting 'monoclinic'
loop_
_space_group_symop_operation_xyz
x,y,z
-x,y,1/2-z
-x,-y,-z
x,-y,1/2+z
1/2+x,1/2+y,z
1/2-x,1/2+y,1/2-z
1/2-x,1/2-y,-z
1/2+x,1/2-y,1/2+z
loop_
_atom_site_type_symbol
_atom_site_label
_atom_site_fract_x
_atom_site_fract_y
_atom_site_fract_z
Si Si1 0.145176 0.055210 0.791903
Si Si2 0.635493 0.867135 0.389590
Si Si3 0.749869 0.690165 0.458613
Si Si4 0.084852 0.941973 0.800501
Si Si5 0.000000 0.137629 0.750000
Si Si6 0.654881 0.202830 0.625586
Si Si7 0.674549 0.862954 0.861165
O O1 0.291476 0.077633 0.713980
O O2 0.108436 0.101736 0.727418
O O3 0.153884 0.998894 0.711740
O O4 0.031329 0.050809 0.996042
O O5 0.668863 0.844520 0.504462
O O6 0.678399 0.821468 0.249518
O O7 0.478168 0.885048 0.521222
O O8 0.750000 0.750000 0.500000
O O9 0.590650 0.674273 0.579981
O O10 0.811472 0.681658 0.262196
O O11 0.206150 0.906120 0.753865
O O12 0.000000 0.919254 0.750000
O O13 0.500000 0.223265 0.750000
O O14 0.750000 0.250000 0.500000
O O15 0.688391 0.157781 0.494745
#
# Coordination Sequence:
#
# PCOD8139795 Si02
#       7
#     8   8   8   8   4   8   8
#     4  10  21  39  60  88 121 156 203 253 313 360
#     4  10  23  40  61  87 129 160 200 257 310 370
#     4  11  23  39  62  90 124 164 206 253 312 369
#     4  11  22  38  65  89 121 159 211 257 311 367
#     4  10  20  40  60  86 122 158 200 254 306 364
#     4  10  22  41  59  85 122 162 203 254 304 363
#     4  11  23  40  61  92 122 160 208 256 304 373
#
# _framework density 20.266691000000002
#
# number of rings (size 3 to 8) (size 9 to 14) (size 15 to 20)
#    0.000    1.538    2.308    2.308    2.154    2.462 
#    2.769    0.000    0.000    3.692    0.000    0.000 
#    0.000    0.000    0.000    0.000    0.000    0.000 
#
# Total GULP energy -322116.506988 kJ/mol
# GULP energy per Si atom -12389.096423 kJ/mol
# Density = 2.022056 g / cm^3
# Si number density = 20.266691 Si / 1000 Ang^3
#
#
#
# Elastic Constant Matrix: (Units=GPa)
#
#
# Indices 1 2 3 4 5 6 
#
# 1 85.5913 35.0827 35.4031 0.0000 -9.7836 0.0000
# 2 35.0827 94.8376 28.0143 0.0000 -16.8141 0.0000
# 3 35.4031 28.0143 95.1462 0.0000 -5.9980 0.0000
# 4 0.0000 0.0000 0.0000 22.5515 0.0000 -3.9379
# 5 -9.7836 -16.8141 -5.9980 0.0000 35.3027 0.0000
# 6 0.0000 0.0000 0.0000 -3.9379 0.0000 25.1271
#
#
#
# Elastic Compliance Matrix: (Units=1/GPa)
#
#
# Indices 1 2 3 4 5 6 
#
# 1 0.015369 -0.004107 -0.004412 0.000000 0.001554 0.000000
# 2 -0.004107 0.013581 -0.002158 0.000000 0.004964 0.000000
# 3 -0.004412 -0.002158 0.012782 0.000000 -0.000079 0.000000
# 4 0.000000 0.000000 0.000000 0.045591 0.000000 0.007145
# 5 0.001554 0.004964 -0.000079 0.000000 0.031108 0.000000
# 6 0.000000 0.000000 0.000000 0.007145 0.000000 0.040917
#
#
# Mechanical properties :
#
#
# Convention : Reuss Voigt Hill
#
# Bulk Modulus (GPa) = 49.06788 52.50837 50.78813
# Shear Modulus (GPa) = 26.66762 28.40126 27.53444
#
# Velocity S-wave (km/s) = 3.63138 3.74756 3.68993
# Velocity P-wave (km/s) = 6.46886 6.68510 6.57787
#
# Compressibility (1/GPa) = 0.02037993
#
# Stress axis : x y z
#
# Youngs Moduli (GPa) = 65.06551 73.63265 78.23506
#
# Poissons Ratio (x) = 0.30239 0.34514
# Poissons Ratio (y) = 0.26721 0.16881
# Poissons Ratio (z) = 0.28704 0.15888
#
# Static dielectric constant tensor:
#      x y z
#    x 5.014550 0.000000 -0.777850 
#    y 0.000000 3.953300 0.000000 
#    z -0.777850 0.000000 4.242820 
# 
# 
# High freq. dielectric constant tensor:
#      x y z
#    x 1.794250 0.000000 -0.005090 
#    y 0.000000 1.781200 0.000000 
#    z -0.005090 0.000000 1.805600 
# 
# From -- ./inp_files/100627.got.cif
#   From: 2010.06.25/outbox.cif.g09.slc.cpg/sg15_51_cif.got.tgz:100627.got - 2010.06.28 07:06:18.
