data_PCOD8139362
_publ_section_title
;
Structure prediction by ZEFSAII (Michael W. Deem and Ramdas Pophale) SiO2 
 PCOD8139362
Probable space group: C 2/C
;
_chemical_formula_sum "Si O2"
_cell_formula_units_Z 60
_cell_length_a 18.933303
_cell_length_b 12.281426
_cell_length_c 13.755070
_cell_angle_alpha 90.000000
_cell_angle_beta 69.789342
_cell_angle_gamma 90.000000
_cell_volume 3001.506595
_symmetry_space_group_name_H-M "C 2/C"
_symmetry_group_IT_number 15
_symmetry_cell_setting 'monoclinic'
loop_
_space_group_symop_operation_xyz
x,y,z
-x,y,1/2-z
-x,-y,-z
x,-y,1/2+z
1/2+x,1/2+y,z
1/2-x,1/2+y,1/2-z
1/2-x,1/2-y,-z
1/2+x,1/2-y,1/2+z
loop_
_atom_site_type_symbol
_atom_site_label
_atom_site_fract_x
_atom_site_fract_y
_atom_site_fract_z
Si Si1 0.846599 0.369555 0.251470
Si Si2 0.621012 0.282245 0.200781
Si Si3 0.487992 0.633308 0.894533
Si Si4 0.742045 0.935043 0.381445
Si Si5 0.500000 0.788834 0.250000
Si Si6 0.987066 0.887857 0.617755
Si Si7 0.209309 0.575737 0.123613
Si Si8 0.314812 0.370664 0.743714
O O1 0.833029 0.414644 0.148034
O O2 0.935542 0.362710 0.232387
O O3 0.811055 0.450967 0.346464
O O4 0.805053 0.253758 0.282475
O O5 0.586388 0.310791 0.112242
O O6 0.561973 0.312489 0.312823
O O7 0.696694 0.348597 0.184262
O O8 0.640482 0.153947 0.189486
O O9 0.477150 0.505020 0.878440
O O10 0.492065 0.652602 0.005932
O O11 0.725274 0.914278 0.501871
O O12 0.773209 0.055904 0.344544
O O13 0.466823 0.705839 0.347309
O O14 0.902318 0.897654 0.696007
O O15 0.282427 0.609064 0.150901
#
# Coordination Sequence:
#
# PCOD8139362 Si02
#       8
#     8   8   8   8   4   8   8   8
#     4  10  24  43  61  90 122 166 206 254 308 373
#     4  11  21  38  60  94 125 156 204 259 303 374
#     4  10  22  35  62  95 125 158 206 255 316 355
#     4  11  22  40  66  90 121 165 207 258 314 360
#     4  10  22  40  62  82 128 162 204 242 308 372
#     4  10  20  39  60  93 124 160 201 261 315 362
#     4  11  24  40  63  92 124 167 209 251 309 371
#     4  10  21  41  66  90 125 159 208 262 304 369
#
# _framework density 19.989961000000001
#
# number of rings (size 3 to 8) (size 9 to 14) (size 15 to 20)
#    0.000    1.600    2.667    2.000    5.600    1.600 
#    4.800    0.667    0.000    0.000    0.000    0.000 
#    0.000    0.000    0.000    0.000    0.000    0.000 
#
# Total GULP energy -371929.335256 kJ/mol
# GULP energy per Si atom -12397.644509 kJ/mol
# Density = 1.994446 g / cm^3
# Si number density = 19.989961 Si / 1000 Ang^3
#
#
#
# Elastic Constant Matrix: (Units=GPa)
#
#
# Indices 1 2 3 4 5 6 
#
# 1 95.4586 31.8031 30.9462 0.0000 13.9242 0.0000
# 2 31.8031 113.9435 21.4213 0.0000 3.3672 0.0000
# 3 30.9462 21.4213 68.3918 0.0000 15.2650 0.0000
# 4 0.0000 0.0000 0.0000 8.7949 0.0000 -2.2332
# 5 13.9242 3.3672 15.2650 0.0000 22.0268 0.0000
# 6 0.0000 0.0000 0.0000 -2.2332 0.0000 17.1566
#
#
#
# Elastic Compliance Matrix: (Units=1/GPa)
#
#
# Indices 1 2 3 4 5 6 
#
# 1 0.013509 -0.002855 -0.004034 0.000000 -0.005308 0.000000
# 2 -0.002855 0.009938 -0.002229 0.000000 0.001831 0.000000
# 3 -0.004034 -0.002229 0.019519 0.000000 -0.010637 0.000000
# 4 0.000000 0.000000 0.000000 0.117588 0.000000 0.015306
# 5 -0.005308 0.001831 -0.010637 0.000000 0.055846 0.000000
# 6 0.000000 0.000000 0.000000 0.015306 0.000000 0.060279
#
#
# Mechanical properties :
#
#
# Convention : Reuss Voigt Hill
#
# Bulk Modulus (GPa) = 40.43734 49.57055 45.00395
# Shear Modulus (GPa) = 16.49300 22.50390 19.49845
#
# Velocity S-wave (km/s) = 2.87551 3.35887 3.12655
# Velocity P-wave (km/s) = 5.59442 6.31619 5.96623
#
# Compressibility (1/GPa) = 0.02472962
#
# Stress axis : x y z
#
# Youngs Moduli (GPa) = 74.02542 100.62112 51.23193
#
# Poissons Ratio (x) = 0.28731 0.20664
# Poissons Ratio (y) = 0.21137 0.11422
# Poissons Ratio (z) = 0.29858 0.22433
#
# Static dielectric constant tensor:
#      x y z
#    x 3.756900 0.000000 0.256450 
#    y 0.000000 3.829050 0.000000 
#    z 0.256450 0.000000 3.494420 
# 
# 
# High freq. dielectric constant tensor:
#      x y z
#    x 1.786730 0.000000 0.023530 
#    y 0.000000 1.786130 0.000000 
#    z 0.023530 0.000000 1.764670 
# 
# From -- ./inp_files/161308.got.cif
#   From: 2010.06.25/outbox.cif.g09.slc.cpg/sg15_81_cif.got.tgz:161308.got - 2010.06.28 07:06:18.
