data_PCOD8139237
_publ_section_title
;
Structure prediction by ZEFSAII (Michael W. Deem and Ramdas Pophale) SiO2 
 PCOD8139237
Probable space group: C 2/C
;
_chemical_formula_sum "Si O2"
_cell_formula_units_Z 52
_cell_length_a 15.512866
_cell_length_b 9.814862
_cell_length_c 16.025207
_cell_angle_alpha 90.000000
_cell_angle_beta 80.505461
_cell_angle_gamma 90.000000
_cell_volume 2406.520163
_symmetry_space_group_name_H-M "C 2/C"
_symmetry_group_IT_number 15
_symmetry_cell_setting 'monoclinic'
loop_
_space_group_symop_operation_xyz
x,y,z
-x,y,1/2-z
-x,-y,-z
x,-y,1/2+z
1/2+x,1/2+y,z
1/2-x,1/2+y,1/2-z
1/2-x,1/2-y,-z
1/2+x,1/2-y,1/2+z
loop_
_atom_site_type_symbol
_atom_site_label
_atom_site_fract_x
_atom_site_fract_y
_atom_site_fract_z
Si Si1 0.596151 0.336463 0.193450
Si Si2 0.500000 0.813812 0.250000
Si Si3 0.443984 0.167116 0.460168
Si Si4 0.926140 0.882184 0.018941
Si Si5 0.580242 0.974100 0.378490
Si Si6 0.363574 0.362861 0.855036
Si Si7 0.182990 0.258773 0.833756
O O1 0.500000 0.321199 0.250000
O O2 0.599999 0.269342 0.100169
O O3 0.629159 0.491062 0.190111
O O4 0.666469 0.256644 0.237938
O O5 0.572273 0.898905 0.290739
O O6 0.548089 0.719038 0.175652
O O7 0.524013 0.240459 0.493218
O O8 0.385405 0.121035 0.549301
O O9 0.481965 0.032660 0.409219
O O10 0.857529 0.891513 0.954690
O O11 0.866193 0.870149 0.112610
O O12 0.000000 0.000000 0.000000
O O13 0.649747 0.093525 0.365281
O O14 0.285428 0.266099 0.836365
#
# Coordination Sequence:
#
# PCOD8139237 Si02
#       7
#     8   4   8   8   8   8   8
#     4  12  21  44  67  93 129 179 224 268 329 408
#     4  12  24  38  68  92 128 174 220 268 332 398
#     4  10  20  38  68  91 124 168 228 257 322 405
#     4  11  20  43  71  95 126 175 220 269 331 398
#     4  10  21  39  63  94 123 172 217 264 329 395
#     4  12  26  41  64 101 133 166 225 279 332 393
#     4  11  26  43  65  97 136 173 220 279 331 389
#
# _framework density 21.607962000000001
#
# number of rings (size 3 to 8) (size 9 to 14) (size 15 to 20)
#    0.000    0.923    6.923    1.385    2.154    0.000 
#    0.000    0.769    0.000    0.000    0.000    0.000 
#    0.000    0.000    0.000    0.000    0.000    0.000 
#
# Total GULP energy -322148.114755 kJ/mol
# GULP energy per Si atom -12390.312106 kJ/mol
# Density = 2.155878 g / cm^3
# Si number density = 21.607962 Si / 1000 Ang^3
#
#
#
# Elastic Constant Matrix: (Units=GPa)
#
#
# Indices 1 2 3 4 5 6 
#
# 1 74.1229 24.5830 33.0962 0.0000 20.4570 0.0000
# 2 24.5830 86.8416 33.5825 0.0000 -0.2347 0.0000
# 3 33.0962 33.5825 119.4456 0.0000 18.2781 0.0000
# 4 0.0000 0.0000 0.0000 41.3028 0.0000 -0.6442
# 5 20.4570 -0.2347 18.2781 0.0000 28.9400 0.0000
# 6 0.0000 0.0000 0.0000 -0.6442 0.0000 27.4388
#
#
#
# Elastic Compliance Matrix: (Units=1/GPa)
#
#
# Indices 1 2 3 4 5 6 
#
# 1 0.019443 -0.004700 -0.002166 0.000000 -0.012414 0.000000
# 2 -0.004700 0.014243 -0.003574 0.000000 0.005695 0.000000
# 3 -0.002166 -0.003574 0.010790 0.000000 -0.005312 0.000000
# 4 0.000000 0.000000 0.000000 0.024220 0.000000 0.000569
# 5 -0.012414 0.005695 -0.005312 0.000000 0.046731 0.000000
# 6 0.000000 0.000000 0.000000 0.000569 0.000000 0.036458
#
#
# Mechanical properties :
#
#
# Convention : Reuss Voigt Hill
#
# Bulk Modulus (GPa) = 42.37917 51.43704 46.90811
# Shear Modulus (GPa) = 27.68086 32.14621 29.91354
#
# Velocity S-wave (km/s) = 3.58306 3.86126 3.72476
# Velocity P-wave (km/s) = 6.06408 6.61328 6.34462
#
# Compressibility (1/GPa) = 0.02359650
#
# Stress axis : x y z
#
# Youngs Moduli (GPa) = 51.43206 70.21003 92.67877
#
# Poissons Ratio (x) = 0.32997 0.20078
# Poissons Ratio (y) = 0.24172 0.33120
# Poissons Ratio (z) = 0.11142 0.25091
#
# Static dielectric constant tensor:
#      x y z
#    x 3.509950 0.000000 -0.057600 
#    y 0.000000 3.989900 0.000000 
#    z -0.057600 0.000000 4.154490 
# 
# 
# High freq. dielectric constant tensor:
#      x y z
#    x 1.806030 0.000000 0.009930 
#    y 0.000000 1.855000 0.000000 
#    z 0.009930 0.000000 1.863740 
# 
# From -- ./inp_files/209176.got.cif
#   From: 2010.06.25/outbox.cif.g09.slc.cpg/sg15_105_cif.got.tgz:209176.got - 2010.06.28 07:06:18.
