data_PCOD8139535
_publ_section_title
;
Structure prediction by ZEFSAII (Michael W. Deem and Ramdas Pophale) SiO2 
 PCOD8139535
Probable space group: C 2/C
;
_chemical_formula_sum "Si O2"
_cell_formula_units_Z 52
_cell_length_a 9.580373
_cell_length_b 16.978400
_cell_length_c 24.213832
_cell_angle_alpha 90.000000
_cell_angle_beta 143.278149
_cell_angle_gamma 90.000000
_cell_volume 2355.015044
_symmetry_space_group_name_H-M "C 2/C"
_symmetry_group_IT_number 15
_symmetry_cell_setting 'monoclinic'
loop_
_space_group_symop_operation_xyz
x,y,z
-x,y,1/2-z
-x,-y,-z
x,-y,1/2+z
1/2+x,1/2+y,z
1/2-x,1/2+y,1/2-z
1/2-x,1/2-y,-z
1/2+x,1/2-y,1/2+z
loop_
_atom_site_type_symbol
_atom_site_label
_atom_site_fract_x
_atom_site_fract_y
_atom_site_fract_z
Si Si1 0.613897 0.478667 0.203335
Si Si2 0.500000 0.083096 0.750000
Si Si3 0.500000 0.610521 0.250000
Si Si4 0.000000 0.155402 0.750000
Si Si5 0.282120 0.249547 0.923668
Si Si6 0.282066 0.514933 0.501539
Si Si7 0.010667 0.653813 0.089253
Si Si8 0.143756 0.879865 0.050521
O O1 0.618203 0.557810 0.240161
O O2 0.616342 0.398945 0.240139
O O3 0.375399 0.486530 0.093296
O O4 0.837848 0.475785 0.234264
O O5 0.655484 0.138159 0.839979
O O6 0.714820 0.666317 0.337064
O O7 0.799951 0.210783 0.659785
O O8 0.065560 0.300072 0.879402
O O9 0.345957 0.181809 0.987205
O O10 0.516634 0.301212 0.988658
O O11 0.033578 0.559441 0.420286
O O12 0.247243 0.426495 0.467161
O O13 0.453848 0.564907 0.518026
#
# Coordination Sequence:
#
# PCOD8139535 Si02
#       8
#     8   4   4   4   8   8   8   8
#     4  10  22  40  66  97 131 173 222 271 334 396
#     4  10  20  39  63  95 135 176 212 268 338 398
#     4  11  24  39  64 104 128 162 226 280 319 392
#     4  11  22  44  65  97 127 178 220 278 335 410
#     4  10  22  41  65  89 133 179 219 263 349 399
#     4   9  17  37  62  90 127 166 220 264 325 389
#     4  10  21  40  63  91 130 182 209 269 337 411
#     4   9  19  34  63  96 121 171 220 269 316 399
#
# _framework density 22.080538000000001
#
# number of rings (size 3 to 8) (size 9 to 14) (size 15 to 20)
#    0.000    2.154    1.538    0.923    2.154    3.692 
#    2.769    6.154    0.000    0.000    0.000    0.000 
#    0.000    0.000    0.000    0.000    0.000    0.000 
#
# Total GULP energy -322320.161870 kJ/mol
# GULP energy per Si atom -12396.929303 kJ/mol
# Density = 2.203028 g / cm^3
# Si number density = 22.080538 Si / 1000 Ang^3
#
#
#
# Elastic Constant Matrix: (Units=GPa)
#
#
# Indices 1 2 3 4 5 6 
#
# 1 85.4051 32.6108 48.9068 -0.0007 2.8527 -0.0005
# 2 32.6108 82.6031 38.1618 -0.0004 -3.7895 -0.0003
# 3 48.9068 38.1618 140.0166 -0.0004 1.5140 -0.0002
# 4 -0.0007 -0.0004 -0.0004 25.6268 -0.0005 1.9147
# 5 2.8527 -3.7895 1.5140 -0.0005 41.7895 -0.0003
# 6 -0.0005 -0.0003 -0.0002 1.9147 -0.0003 18.8128
#
#
#
# Elastic Compliance Matrix: (Units=1/GPa)
#
#
# Indices 1 2 3 4 5 6 
#
# 1 0.015901 -0.004323 -0.004362 0.000000 -0.001319 0.000000
# 2 -0.004323 0.015107 -0.002626 0.000000 0.001760 0.000000
# 3 -0.004362 -0.002626 0.009384 0.000000 -0.000280 0.000000
# 4 0.000000 0.000000 0.000000 0.039321 0.000000 -0.004002
# 5 -0.001319 0.001760 -0.000280 0.000000 0.024189 0.000000
# 6 0.000000 0.000000 0.000000 -0.004002 0.000000 0.053562
#
#
# Mechanical properties :
#
#
# Convention : Reuss Voigt Hill
#
# Bulk Modulus (GPa) = 56.27402 60.82041 58.54721
# Shear Modulus (GPa) = 26.88011 29.80219 28.34115
#
# Velocity S-wave (km/s) = 3.49286 3.67782 3.58653
# Velocity P-wave (km/s) = 6.46590 6.75572 6.61240
#
# Compressibility (1/GPa) = 0.01777019
#
# Stress axis : x y z
#
# Youngs Moduli (GPa) = 62.88741 66.19465 106.55994
#
# Poissons Ratio (x) = 0.28617 0.46478
# Poissons Ratio (y) = 0.27187 0.27987
# Poissons Ratio (z) = 0.27430 0.17385
#
# Static dielectric constant tensor:
#      x y z
#    x 3.871670 0.000000 -0.045220 
#    y 0.000000 3.873070 0.000000 
#    z -0.045220 0.000000 4.096960 
# 
# 
# High freq. dielectric constant tensor:
#      x y z
#    x 1.847250 0.000000 0.000720 
#    y 0.000000 1.851640 0.000000 
#    z 0.000720 0.000000 1.881770 
# 
# From -- ./inp_files/190866.got.cif
#   From: 2010.06.25/outbox.cif.g09.slc.cpg/sg15_96_cif.got.tgz:190866.got - 2010.06.28 07:06:18.
