data_PCOD8139702
_publ_section_title
;
Structure prediction by ZEFSAII (Michael W. Deem and Ramdas Pophale) SiO2 
 PCOD8139702
Probable space group: C 2/C
;
_chemical_formula_sum "Si O2"
_cell_formula_units_Z 44
_cell_length_a 9.225069
_cell_length_b 12.331816
_cell_length_c 19.255437
_cell_angle_alpha 90.000000
_cell_angle_beta 115.488209
_cell_angle_gamma 90.000000
_cell_volume 1977.337966
_symmetry_space_group_name_H-M "C 2/C"
_symmetry_group_IT_number 15
_symmetry_cell_setting 'monoclinic'
loop_
_space_group_symop_operation_xyz
x,y,z
-x,y,1/2-z
-x,-y,-z
x,-y,1/2+z
1/2+x,1/2+y,z
1/2-x,1/2+y,1/2-z
1/2-x,1/2-y,-z
1/2+x,1/2-y,1/2+z
loop_
_atom_site_type_symbol
_atom_site_label
_atom_site_fract_x
_atom_site_fract_y
_atom_site_fract_z
Si Si1 0.190463 0.774421 0.867659
Si Si2 0.633011 0.776351 0.123792
Si Si3 0.156805 0.857429 0.214554
Si Si4 0.004766 0.617037 0.470649
Si Si5 0.073520 0.349048 0.830997
Si Si6 0.000000 0.949935 0.750000
O O1 0.241929 0.666100 0.834978
O O2 0.337920 0.818483 0.943346
O O3 0.142091 0.871094 0.805056
O O4 0.047511 0.745431 0.889590
O O5 0.720356 0.857511 0.195136
O O6 0.736830 0.665963 0.143938
O O7 0.634325 0.819963 0.044837
O O8 0.017859 0.766888 0.188351
O O9 0.069070 0.974700 0.201197
O O10 0.000000 0.500000 0.500000
O O11 0.054534 0.596450 0.401372
O O12 0.000000 0.417459 0.750000
#
# Coordination Sequence:
#
# PCOD8139702 Si02
#       6
#     8   8   8   8   8   4
#     4  11  24  41  65 100 134 179 227 289 328 406
#     4  11  19  42  62  91 136 170 216 291 340 386
#     4  10  20  39  67  97 128 177 230 273 339 393
#     4  11  24  40  62  95 136 178 223 274 352 408
#     4   9  20  40  67  91 126 176 226 277 337 401
#     4  12  20  40  74  92 134 182 236 272 342 400
#
# _framework density 22.252137999999999
#
# number of rings (size 3 to 8) (size 9 to 14) (size 15 to 20)
#    0.000    1.455    4.545    2.182    0.000    0.000 
#    3.273    0.909    4.000    0.000    0.000    0.000 
#    0.000    0.000    0.000    0.000    0.000    0.000 
#
# Total GULP energy -272606.574733 kJ/mol
# GULP energy per Si atom -12391.207942 kJ/mol
# Density = 2.220149 g / cm^3
# Si number density = 22.252138 Si / 1000 Ang^3
#
#
#
# Elastic Constant Matrix: (Units=GPa)
#
#
# Indices 1 2 3 4 5 6 
#
# 1 116.0481 8.1030 39.4907 0.0000 -17.9270 0.0000
# 2 8.1030 62.0440 29.5737 0.0000 -10.4131 0.0000
# 3 39.4907 29.5737 159.9789 0.0000 -10.0548 0.0000
# 4 0.0000 0.0000 0.0000 31.7991 0.0000 -7.8306
# 5 -17.9270 -10.4131 -10.0548 0.0000 43.6310 0.0000
# 6 0.0000 0.0000 0.0000 -7.8306 0.0000 19.8043
#
#
#
# Elastic Compliance Matrix: (Units=1/GPa)
#
#
# Indices 1 2 3 4 5 6 
#
# 1 0.009935 0.000411 -0.002299 0.000000 0.003650 0.000000
# 2 0.000411 0.018240 -0.003236 0.000000 0.003776 0.000000
# 3 -0.002299 -0.003236 0.007416 0.000000 -0.000008 0.000000
# 4 0.000000 0.000000 0.000000 0.034840 0.000000 0.013776
# 5 0.003650 0.003776 -0.000008 0.000000 0.025319 0.000000
# 6 0.000000 0.000000 0.000000 0.013776 0.000000 0.055941
#
#
# Mechanical properties :
#
#
# Convention : Reuss Voigt Hill
#
# Bulk Modulus (GPa) = 39.45869 54.71176 47.08522
# Shear Modulus (GPa) = 29.34519 36.44045 32.89282
#
# Velocity S-wave (km/s) = 3.63541 4.05114 3.84889
# Velocity P-wave (km/s) = 5.94917 6.82077 6.39982
#
# Compressibility (1/GPa) = 0.02534296
#
# Stress axis : x y z
#
# Youngs Moduli (GPa) = 100.65816 54.82402 134.84329
#
# Poissons Ratio (x) = -0.02253 0.30999
# Poissons Ratio (y) = -0.04137 0.43635
# Poissons Ratio (z) = 0.23140 0.17741
#
# Static dielectric constant tensor:
#      x y z
#    x 4.387150 0.000000 -0.666160 
#    y 0.000000 3.558490 0.000000 
#    z -0.666160 0.000000 5.194800 
# 
# 
# High freq. dielectric constant tensor:
#      x y z
#    x 1.887590 0.000000 0.004820 
#    y 0.000000 1.839600 0.000000 
#    z 0.004820 0.000000 1.884660 
# 
# From -- ./inp_files/189003.got.cif
#   From: 2010.06.25/outbox.cif.g09.slc.cpg/sg15_95_cif.got.tgz:189003.got - 2010.06.28 07:06:18.
