data_PCOD8139601
_publ_section_title
;
Structure prediction by ZEFSAII (Michael W. Deem and Ramdas Pophale) SiO2 
 PCOD8139601
Probable space group: C 2/C
;
_chemical_formula_sum "Si O2"
_cell_formula_units_Z 36
_cell_length_a 14.349092
_cell_length_b 14.128412
_cell_length_c 9.293397
_cell_angle_alpha 90.000000
_cell_angle_beta 113.565620
_cell_angle_gamma 90.000000
_cell_volume 1726.924841
_symmetry_space_group_name_H-M "C 2/C"
_symmetry_group_IT_number 15
_symmetry_cell_setting 'monoclinic'
loop_
_space_group_symop_operation_xyz
x,y,z
-x,y,1/2-z
-x,-y,-z
x,-y,1/2+z
1/2+x,1/2+y,z
1/2-x,1/2+y,1/2-z
1/2-x,1/2-y,-z
1/2+x,1/2-y,1/2+z
loop_
_atom_site_type_symbol
_atom_site_label
_atom_site_fract_x
_atom_site_fract_y
_atom_site_fract_z
Si Si1 0.479188 0.823129 0.442671
Si Si2 0.361953 0.918830 0.152868
Si Si3 0.500000 0.089080 0.250000
Si Si4 0.930416 0.889631 0.906719
Si Si5 0.863467 0.959089 0.558446
O O1 0.390646 0.896290 0.337018
O O2 0.579123 0.838373 0.404419
O O3 0.518295 0.842495 0.626936
O O4 0.422508 0.722724 0.393915
O O5 0.402803 0.024656 0.148956
O O6 0.243371 0.913347 0.050334
O O7 0.881062 0.942765 0.738209
O O8 0.051197 0.908215 0.985880
O O9 0.873398 0.930211 0.014653
#
# Coordination Sequence:
#
# PCOD8139601 Si02
#       5
#     8   8   4   8   8
#     4  10  22  39  63  91 125 152 215 251 302 359
#     4  10  20  39  65  88 122 168 195 250 311 376
#     4  10  22  38  62  94 120 156 200 264 302 360
#     4  10  23  41  59  92 121 168 200 258 294 372
#     4  10  22  39  64  84 128 161 207 239 320 362
#
# _framework density 20.846302999999999
#
# number of rings (size 3 to 8) (size 9 to 14) (size 15 to 20)
#    0.000    2.222    0.000    5.333    6.222    7.111 
#    0.000    1.111    0.000    0.000    0.000    0.000 
#    0.000    0.000    0.000    0.000    0.000    0.000 
#
# Total GULP energy -223043.047537 kJ/mol
# GULP energy per Si atom -12391.280419 kJ/mol
# Density = 2.079886 g / cm^3
# Si number density = 20.846303 Si / 1000 Ang^3
#
#
#
# Elastic Constant Matrix: (Units=GPa)
#
#
# Indices 1 2 3 4 5 6 
#
# 1 98.1535 32.6092 55.8420 0.0000 34.5730 0.0000
# 2 32.6092 97.9453 47.2715 0.0000 -10.0232 0.0000
# 3 55.8420 47.2715 126.8935 0.0000 -0.8439 0.0000
# 4 0.0000 0.0000 0.0000 28.2593 0.0000 -7.4940
# 5 34.5730 -10.0232 -0.8439 0.0000 39.9006 0.0000
# 6 0.0000 0.0000 0.0000 -7.4940 0.0000 17.9418
#
#
#
# Elastic Compliance Matrix: (Units=1/GPa)
#
#
# Indices 1 2 3 4 5 6 
#
# 1 0.026539 -0.006913 -0.009269 0.000000 -0.024928 0.000000
# 2 -0.006913 0.014626 -0.002342 0.000000 0.009614 0.000000
# 3 -0.009269 -0.002342 0.012884 0.000000 0.007716 0.000000
# 4 0.000000 0.000000 0.000000 0.039794 0.000000 0.016621
# 5 -0.024928 0.009614 0.007716 0.000000 0.049240 0.000000
# 6 0.000000 0.000000 0.000000 0.016621 0.000000 0.062678
#
#
# Mechanical properties :
#
#
# Convention : Reuss Voigt Hill
#
# Bulk Modulus (GPa) = 58.82775 66.04863 62.43819
# Shear Modulus (GPa) = 20.12258 29.70499 24.91378
#
# Velocity S-wave (km/s) = 3.11027 3.77895 3.46080
# Velocity P-wave (km/s) = 6.41712 7.12692 6.78131
#
# Compressibility (1/GPa) = 0.01699878
#
# Stress axis : x y z
#
# Youngs Moduli (GPa) = 37.68056 68.37278 77.61705
#
# Poissons Ratio (x) = 0.47265 0.71947
# Poissons Ratio (y) = 0.26048 0.18181
# Poissons Ratio (z) = 0.34928 0.16016
#
# Static dielectric constant tensor:
#      x y z
#    x 3.613070 0.000000 -0.011640 
#    y 0.000000 3.701820 0.000000 
#    z -0.011640 0.000000 3.821480 
# 
# 
# High freq. dielectric constant tensor:
#      x y z
#    x 1.791240 0.000000 0.005590 
#    y 0.000000 1.805770 0.000000 
#    z 0.005590 0.000000 1.824860 
# 
# From -- ./inp_files/37647.got.cif
#   From: 2010.06.25/outbox.cif.g09.slc.cpg/sg15_19_cif.got.tgz:37647.got - 2010.06.28 07:06:18.
