data_PCOD8139105
_publ_section_title
;
Structure prediction by ZEFSAII (Michael W. Deem and Ramdas Pophale) SiO2 
 PCOD8139105
Probable space group: C 2/C
;
_chemical_formula_sum "Si O2"
_cell_formula_units_Z 56
_cell_length_a 15.942622
_cell_length_b 34.811019
_cell_length_c 5.166980
_cell_angle_alpha 90.000000
_cell_angle_beta 113.678515
_cell_angle_gamma 90.000000
_cell_volume 2626.154000
_symmetry_space_group_name_H-M "C 2/C"
_symmetry_group_IT_number 15
_symmetry_cell_setting 'monoclinic'
loop_
_space_group_symop_operation_xyz
x,y,z
-x,y,1/2-z
-x,-y,-z
x,-y,1/2+z
1/2+x,1/2+y,z
1/2-x,1/2+y,1/2-z
1/2-x,1/2-y,-z
1/2+x,1/2-y,1/2+z
loop_
_atom_site_type_symbol
_atom_site_label
_atom_site_fract_x
_atom_site_fract_y
_atom_site_fract_z
Si Si1 0.602383 0.982914 0.609042
Si Si2 0.937287 0.331045 0.922644
Si Si3 0.939115 0.248170 0.924271
Si Si4 0.436701 0.335264 0.421485
Si Si5 0.892082 0.979709 0.591535
Si Si6 0.817462 0.403459 0.828564
Si Si7 0.299787 0.403809 0.310534
O O1 0.605040 0.936935 0.577973
O O2 0.500000 0.000000 0.500000
O O3 0.654418 0.003219 0.432946
O O4 0.885138 0.289054 0.873843
O O5 0.860105 0.362986 0.803961
O O6 0.000000 0.334109 0.750000
O O7 0.000000 0.338214 0.250000
O O8 0.886845 0.207137 0.842341
O O9 0.000000 0.251991 0.750000
O O10 0.000000 0.245119 0.250000
O O11 0.500000 0.343284 0.250000
O O12 0.353986 0.364544 0.338049
O O13 0.500000 0.339110 0.750000
O O14 0.869768 0.936187 0.491050
O O15 0.000000 0.984122 0.750000
O O16 0.850781 0.007935 0.318261
O O17 0.742844 0.414588 0.520017
O O18 0.777184 0.399267 0.065595
#
# Coordination Sequence:
#
# PCOD8139105 Si02
#       7
#     8   8   8   8   8   8   8
#     4  10  23  40  61  82 109 149 207 247 294 351
#     4  10  21  38  64  84 117 156 206 250 298 350
#     4   8  16  33  58  90 111 150 202 249 283 344
#     4  10  20  38  65  89 121 159 203 239 289 365
#     4  10  22  40  63  85 112 155 201 238 287 360
#     4  12  26  39  59  89 125 156 198 253 307 358
#     4  12  25  40  58  92 128 155 192 250 312 349
#
# _framework density 21.32396
#
# number of rings (size 3 to 8) (size 9 to 14) (size 15 to 20)
#    0.000    1.714    0.000    3.857    4.000    5.143 
#    0.000    1.429    0.000    0.000    0.000    0.000 
#    0.000    0.000    0.000    0.000    0.000    0.000 
#
# Total GULP energy -346926.259795 kJ/mol
# GULP energy per Si atom -12390.223564 kJ/mol
# Density = 2.127543 g / cm^3
# Si number density = 21.323960 Si / 1000 Ang^3
#
#
#
# Elastic Constant Matrix: (Units=GPa)
#
#
# Indices 1 2 3 4 5 6 
#
# 1 54.3392 46.2558 40.7396 0.0000 -19.0280 0.0000
# 2 46.2558 190.0451 31.6570 0.0000 -2.0087 0.0000
# 3 40.7396 31.6570 113.7478 0.0000 -32.2411 0.0000
# 4 0.0000 0.0000 0.0000 29.4037 0.0000 -5.8355
# 5 -19.0280 -2.0087 -32.2411 0.0000 34.7145 0.0000
# 6 0.0000 0.0000 0.0000 -5.8355 0.0000 20.9820
#
#
#
# Elastic Compliance Matrix: (Units=1/GPa)
#
#
# Indices 1 2 3 4 5 6 
#
# 1 0.033394 -0.006881 -0.006746 0.000000 0.011641 0.000000
# 2 -0.006881 0.006994 -0.000592 0.000000 -0.003917 0.000000
# 3 -0.006746 -0.000592 0.014000 0.000000 0.009271 0.000000
# 4 0.000000 0.000000 0.000000 0.035996 0.000000 0.010011
# 5 0.011641 -0.003917 0.009271 0.000000 0.043571 0.000000
# 6 0.000000 0.000000 0.000000 0.010011 0.000000 0.050444
#
#
# Mechanical properties :
#
#
# Convention : Reuss Voigt Hill
#
# Bulk Modulus (GPa) = 38.53573 66.15966 52.34770
# Shear Modulus (GPa) = 22.57461 32.98535 27.77998
#
# Velocity S-wave (km/s) = 3.25722 3.93729 3.61329
# Velocity P-wave (km/s) = 5.67950 7.19465 6.48150
#
# Compressibility (1/GPa) = 0.02594994
#
# Stress axis : x y z
#
# Youngs Moduli (GPa) = 29.94512 142.97942 71.42894
#
# Poissons Ratio (x) = 0.98388 0.48184
# Poissons Ratio (y) = 0.20606 0.04230
# Poissons Ratio (z) = 0.20200 0.08467
#
# Static dielectric constant tensor:
#      x y z
#    x 3.782380 0.000000 -0.225250 
#    y 0.000000 4.441960 0.000000 
#    z -0.225250 0.000000 1.120270 
# 
# 
# High freq. dielectric constant tensor:
#      x y z
#    x 1.804260 0.000000 -0.034640 
#    y 0.000000 1.861230 0.000000 
#    z -0.034640 0.000000 1.857040 
# 
# From -- ./inp_files/12219.got.cif
#   From: 2010.06.25/outbox.cif.g09.slc.cpg/sg15_7_cif.got.tgz:12219.got - 2010.06.28 07:06:18.
