data_PCOD8139114
_publ_section_title
;
Structure prediction by ZEFSAII (Michael W. Deem and Ramdas Pophale) SiO2 
 PCOD8139114
Probable space group: C 2/C
;
_chemical_formula_sum "Si O2"
_cell_formula_units_Z 64
_cell_length_a 13.288810
_cell_length_b 12.301081
_cell_length_c 23.834314
_cell_angle_alpha 90.000000
_cell_angle_beta 50.333530
_cell_angle_gamma 90.000000
_cell_volume 2999.126843
_symmetry_space_group_name_H-M "C 2/C"
_symmetry_group_IT_number 15
_symmetry_cell_setting 'monoclinic'
loop_
_space_group_symop_operation_xyz
x,y,z
-x,y,1/2-z
-x,-y,-z
x,-y,1/2+z
1/2+x,1/2+y,z
1/2-x,1/2+y,1/2-z
1/2-x,1/2-y,-z
1/2+x,1/2-y,1/2+z
loop_
_atom_site_type_symbol
_atom_site_label
_atom_site_fract_x
_atom_site_fract_y
_atom_site_fract_z
Si Si1 0.789088 0.857460 0.951450
Si Si2 0.985046 0.162090 0.980389
Si Si3 0.202853 0.016614 0.949667
Si Si4 0.933125 0.397360 0.552833
Si Si5 0.657399 0.127724 0.291341
Si Si6 0.362450 0.941928 0.286108
Si Si7 0.610682 0.636127 0.819558
Si Si8 0.954663 0.911596 0.703680
O O1 0.706148 0.867924 0.924367
O O2 0.941312 0.862888 0.878097
O O3 0.750000 0.750000 0.000000
O O4 0.747821 0.961539 0.004572
O O5 0.845353 0.107049 0.042355
O O6 0.089548 0.108738 0.985259
O O7 0.974256 0.292042 0.989975
O O8 0.020627 0.124307 0.905531
O O9 0.314296 0.033736 0.865401
O O10 0.905095 0.417694 0.628412
O O11 0.000000 0.500000 0.500000
O O12 0.597358 0.245347 0.297162
O O13 0.814161 0.139509 0.239533
O O14 0.611041 0.052591 0.257140
O O15 0.500000 0.880753 0.250000
O O16 0.262295 0.871188 0.285586
O O17 0.564485 0.542544 0.793759
O O18 0.000000 0.882724 0.750000
#
# Coordination Sequence:
#
# PCOD8139114 Si02
#       8
#     8   8   8   8   8   8   8   8
#     4  12  24  41  67 100 125 167 221 274 327 394
#     4   9  18  39  63  87 119 162 207 259 310 377
#     4  10  20  38  65  91 121 160 217 256 317 383
#     4  11  24  42  62  93 135 171 210 268 329 386
#     4  10  23  43  61  93 130 170 215 265 325 385
#     4  10  23  39  60  91 124 160 206 267 317 375
#     4   9  20  40  64  86 123 167 207 260 318 383
#     4  11  22  42  65  93 130 167 216 269 327 395
#
# _framework density 21.339545000000001
#
# number of rings (size 3 to 8) (size 9 to 14) (size 15 to 20)
#    0.000    1.750    3.750    0.000    3.500    2.000 
#    6.750    1.875    0.000    0.000    0.000    0.000 
#    0.000    0.000    0.000    0.000    0.000    0.000 
#
# Total GULP energy -396642.663493 kJ/mol
# GULP energy per Si atom -12395.083234 kJ/mol
# Density = 2.129098 g / cm^3
# Si number density = 21.339545 Si / 1000 Ang^3
#
#
#
# Elastic Constant Matrix: (Units=GPa)
#
#
# Indices 1 2 3 4 5 6 
#
# 1 47.3171 1.0344 18.1475 0.0000 3.0663 0.0000
# 2 1.0344 97.3671 43.0256 0.0000 0.7155 0.0000
# 3 18.1475 43.0256 109.1094 0.0000 0.1973 0.0000
# 4 0.0000 0.0000 0.0000 32.6457 0.0000 4.5928
# 5 3.0663 0.7155 0.1973 0.0000 32.3064 0.0000
# 6 0.0000 0.0000 0.0000 4.5928 0.0000 20.2153
#
#
#
# Elastic Compliance Matrix: (Units=1/GPa)
#
#
# Indices 1 2 3 4 5 6 
#
# 1 0.022968 0.001766 -0.004513 0.000000 -0.002192 0.000000
# 2 0.001766 0.012575 -0.005252 0.000000 -0.000414 0.000000
# 3 -0.004513 -0.005252 0.011986 0.000000 0.000471 0.000000
# 4 0.000000 0.000000 0.000000 0.031643 0.000000 -0.007189
# 5 -0.002192 -0.000414 0.000471 0.000000 0.031168 0.000000
# 6 0.000000 0.000000 0.000000 -0.007189 0.000000 0.051101
#
#
# Mechanical properties :
#
#
# Convention : Reuss Voigt Hill
#
# Bulk Modulus (GPa) = 31.71317 42.02317 36.86817
# Shear Modulus (GPa) = 26.60293 29.80589 28.20441
#
# Velocity S-wave (km/s) = 3.53462 3.74136 3.63946
# Velocity P-wave (km/s) = 5.61708 6.19670 5.91399
#
# Compressibility (1/GPa) = 0.03153265
#
# Stress axis : x y z
#
# Youngs Moduli (GPa) = 43.53856 79.51987 83.43180
#
# Poissons Ratio (x) = -0.14045 0.37650
# Poissons Ratio (y) = -0.07690 0.43818
# Poissons Ratio (z) = 0.19647 0.41763
#
# Static dielectric constant tensor:
#      x y z
#    x 3.784520 0.000000 0.076280 
#    y 0.000000 3.806840 0.000000 
#    z 0.076280 0.000000 3.886660 
# 
# 
# High freq. dielectric constant tensor:
#      x y z
#    x 1.825590 0.000000 0.008370 
#    y 0.000000 1.831350 0.000000 
#    z 0.008370 0.000000 1.840760 
# 
# From -- ./inp_files/296119.got.cif
#   From: 2010.06.25/outbox.cif.g09.slc.cpg/sg15_149_cif.got.tgz:296119.got - 2010.06.28 07:06:18.
