data_PCOD8139249
_publ_section_title
;
Structure prediction by ZEFSAII (Michael W. Deem and Ramdas Pophale) SiO2 
 PCOD8139249
Probable space group: C 2/C
;
_chemical_formula_sum "Si O2"
_cell_formula_units_Z 36
_cell_length_a 8.240806
_cell_length_b 16.496330
_cell_length_c 22.093478
_cell_angle_alpha 90.000000
_cell_angle_beta 145.460400
_cell_angle_gamma 90.000000
_cell_volume 1702.885935
_symmetry_space_group_name_H-M "C 2/C"
_symmetry_group_IT_number 15
_symmetry_cell_setting 'monoclinic'
loop_
_space_group_symop_operation_xyz
x,y,z
-x,y,1/2-z
-x,-y,-z
x,-y,1/2+z
1/2+x,1/2+y,z
1/2-x,1/2+y,1/2-z
1/2-x,1/2-y,-z
1/2+x,1/2-y,1/2+z
loop_
_atom_site_type_symbol
_atom_site_label
_atom_site_fract_x
_atom_site_fract_y
_atom_site_fract_z
Si Si1 0.042188 0.205106 0.090205
Si Si2 0.856882 0.917117 0.977487
Si Si3 0.250722 0.656725 0.216711
Si Si4 0.000000 0.826756 0.250000
Si Si5 0.304494 0.655206 0.815436
O O1 0.996388 0.144257 0.022436
O O2 0.122463 0.159309 0.176721
O O3 0.283323 0.269743 0.146344
O O4 0.750000 0.250000 0.000000
O O5 0.511292 0.907911 0.866380
O O6 0.948012 0.893013 0.073358
O O7 0.000000 0.000000 0.000000
O O8 0.500000 0.622629 0.250000
O O9 0.160087 0.747375 0.167942
O O10 0.165350 0.874185 0.246416
O O11 0.000000 0.628292 0.750000
#
# Coordination Sequence:
#
# PCOD8139249 Si02
#       5
#     8   8   8   4   8
#     4  11  21  39  67  96 129 171 229 277 334 395
#     4  12  24  40  66  97 138 179 212 277 358 409
#     4  10  21  40  67  98 127 173 231 285 330 401
#     4  10  20  38  68  98 126 168 232 288 312 388
#     4  10  21  39  66 101 126 173 233 279 330 396
#
# _framework density 21.140582999999999
#
# number of rings (size 3 to 8) (size 9 to 14) (size 15 to 20)
#    0.000    1.333    4.444    4.667    3.111    1.778 
#    0.000    1.111   12.222    0.000    0.000    0.000 
#    0.000    0.000    0.000    0.000    0.000    0.000 
#
# Total GULP energy -223028.833652 kJ/mol
# GULP energy per Si atom -12390.490758 kJ/mol
# Density = 2.109247 g / cm^3
# Si number density = 21.140583 Si / 1000 Ang^3
#
#
#
# Elastic Constant Matrix: (Units=GPa)
#
#
# Indices 1 2 3 4 5 6 
#
# 1 182.1410 37.5280 56.5910 -0.0008 3.2584 -0.0009
# 2 37.5280 53.2756 35.9629 0.0022 3.3691 0.0005
# 3 56.5910 35.9629 119.1765 -0.0023 7.8075 -0.0025
# 4 -0.0008 0.0022 -0.0023 7.7275 -0.0026 5.1437
# 5 3.2584 3.3691 7.8075 -0.0026 52.2436 -0.0014
# 6 -0.0009 0.0005 -0.0025 5.1437 -0.0014 21.8602
#
#
#
# Elastic Compliance Matrix: (Units=1/GPa)
#
#
# Indices 1 2 3 4 5 6 
#
# 1 0.006878 -0.003319 -0.002273 0.000001 0.000125 0.000000
# 2 -0.003319 0.025184 -0.005990 -0.000010 -0.000522 0.000001
# 3 -0.002273 -0.005990 0.011354 0.000004 -0.001169 0.000000
# 4 0.000001 -0.000010 0.000004 0.153441 0.000007 -0.036104
# 5 0.000125 -0.000522 -0.001169 0.000007 0.019342 0.000000
# 6 0.000000 0.000001 0.000000 -0.036104 0.000000 0.054240
#
#
# Mechanical properties :
#
#
# Convention : Reuss Voigt Hill
#
# Bulk Modulus (GPa) = 49.37199 68.30630 58.83915
# Shear Modulus (GPa) = 16.64710 31.33368 23.99039
#
# Velocity S-wave (km/s) = 2.80919 3.85406 3.37234
# Velocity P-wave (km/s) = 5.82468 7.22396 6.56173
#
# Compressibility (1/GPa) = 0.02025440
#
# Stress axis : x y z
#
# Youngs Moduli (GPa) = 145.39298 39.70743 88.07375
#
# Poissons Ratio (x) = 0.13177 0.20017
# Poissons Ratio (y) = 0.48250 0.52753
# Poissons Ratio (z) = 0.33044 0.23783
#
# Static dielectric constant tensor:
#      x y z
#    x 4.210300 0.000000 -0.081280 
#    y 0.000000 3.434230 0.000000 
#    z -0.081280 0.000000 3.816520 
# 
# 
# High freq. dielectric constant tensor:
#      x y z
#    x 1.855390 0.000000 0.001840 
#    y 0.000000 1.774960 0.000000 
#    z 0.001840 0.000000 1.836770 
# 
# From -- ./inp_files/76366.got.cif
#   From: 2010.06.25/outbox.cif.g09.slc.cpg/sg15_39_cif.got.tgz:76366.got - 2010.06.28 07:06:18.
