data_PCOD8139551
_publ_section_title
;
Structure prediction by ZEFSAII (Michael W. Deem and Ramdas Pophale) SiO2 
 PCOD8139551
Probable space group: C 2/C
;
_chemical_formula_sum "Si O2"
_cell_formula_units_Z 48
_cell_length_a 16.009739
_cell_length_b 12.432007
_cell_length_c 10.900476
_cell_angle_alpha 90.000000
_cell_angle_beta 73.282765
_cell_angle_gamma 90.000000
_cell_volume 2077.862371
_symmetry_space_group_name_H-M "C 2/C"
_symmetry_group_IT_number 15
_symmetry_cell_setting 'monoclinic'
loop_
_space_group_symop_operation_xyz
x,y,z
-x,y,1/2-z
-x,-y,-z
x,-y,1/2+z
1/2+x,1/2+y,z
1/2-x,1/2+y,1/2-z
1/2-x,1/2-y,-z
1/2+x,1/2-y,1/2+z
loop_
_atom_site_type_symbol
_atom_site_label
_atom_site_fract_x
_atom_site_fract_y
_atom_site_fract_z
Si Si1 0.033595 0.821197 0.113282
Si Si2 0.344261 0.377601 0.628297
Si Si3 0.708541 0.283770 0.146634
Si Si4 0.206890 0.524305 0.796445
Si Si5 0.103062 0.704633 0.701038
Si Si6 0.629748 0.803921 0.909827
O O1 0.115483 0.753602 0.129303
O O2 0.000000 0.885683 0.250000
O O3 0.967538 0.733593 0.087536
O O4 0.069915 0.902682 0.992225
O O5 0.281164 0.302062 0.568149
O O6 0.290413 0.483011 0.682935
O O7 0.373200 0.313119 0.736271
O O8 0.746236 0.404857 0.116986
O O9 0.700713 0.261498 0.299041
O O10 0.144822 0.598210 0.741066
O O11 0.146672 0.430722 0.878543
O O12 0.140177 0.721119 0.548565
O O13 0.000000 0.686782 0.750000
#
# Coordination Sequence:
#
# PCOD8139551 Si02
#       6
#     8   8   8   8   8   8
#     4  10  20  39  64  86 124 168 207 254 313 374
#     4  10  21  41  63  91 127 170 209 257 321 375
#     4   9  21  40  63  93 127 167 210 257 315 379
#     4  10  24  39  64 101 122 165 214 262 314 370
#     4  11  23  43  67  95 130 165 210 262 317 378
#     4  10  22  43  65  91 130 169 206 262 320 371
#
# _framework density 23.100663000000001
#
# number of rings (size 3 to 8) (size 9 to 14) (size 15 to 20)
#    0.000    2.000    1.667    0.500    2.333   10.000 
#    6.000    5.833    0.000    0.000    0.000    0.000 
#    0.000    0.000    0.000    0.000    0.000    0.000 
#
# Total GULP energy -297357.794331 kJ/mol
# GULP energy per Si atom -12389.908097 kJ/mol
# Density = 2.304809 g / cm^3
# Si number density = 23.100663 Si / 1000 Ang^3
#
#
#
# Elastic Constant Matrix: (Units=GPa)
#
#
# Indices 1 2 3 4 5 6 
#
# 1 112.3313 28.9830 18.1856 0.0000 -6.4555 0.0000
# 2 28.9830 69.0355 -7.2087 0.0000 -4.9271 0.0000
# 3 18.1856 -7.2087 132.5851 0.0000 -16.1058 0.0000
# 4 0.0000 0.0000 0.0000 19.2460 0.0000 -2.9394
# 5 -6.4555 -4.9271 -16.1058 0.0000 41.4541 0.0000
# 6 0.0000 0.0000 0.0000 -2.9394 0.0000 32.8621
#
#
#
# Elastic Compliance Matrix: (Units=1/GPa)
#
#
# Indices 1 2 3 4 5 6 
#
# 1 0.010344 -0.004478 -0.001607 0.000000 0.000454 0.000000
# 2 -0.004478 0.016690 0.001761 0.000000 0.001971 0.000000
# 3 -0.001607 0.001761 0.008243 0.000000 0.003161 0.000000
# 4 0.000000 0.000000 0.000000 0.052679 0.000000 0.004712
# 5 0.000454 0.001971 0.003161 0.000000 0.025656 0.000000
# 6 0.000000 0.000000 0.000000 0.004712 0.000000 0.030852
#
#
# Mechanical properties :
#
#
# Convention : Reuss Voigt Hill
#
# Bulk Modulus (GPa) = 37.55440 43.76354 40.65897
# Shear Modulus (GPa) = 30.86666 36.97858 33.92262
#
# Velocity S-wave (km/s) = 3.65935 4.00529 3.83622
# Velocity P-wave (km/s) = 5.84351 6.35418 6.10419
#
# Compressibility (1/GPa) = 0.02662804
#
# Stress axis : x y z
#
# Youngs Moduli (GPa) = 96.67520 59.91667 121.32181
#
# Poissons Ratio (x) = 0.26831 0.19498
# Poissons Ratio (y) = 0.43292 -0.21365
# Poissons Ratio (z) = 0.15537 -0.10551
#
# Static dielectric constant tensor:
#      x y z
#    x 4.410060 0.000000 -0.164590 
#    y 0.000000 3.711480 0.000000 
#    z -0.164590 0.000000 4.871160 
# 
# 
# High freq. dielectric constant tensor:
#      x y z
#    x 1.934300 0.000000 -0.006950 
#    y 0.000000 1.874810 0.000000 
#    z -0.006950 0.000000 1.948610 
# 
# From -- ./inp_files/104176.got.cif
#   From: 2010.06.25/outbox.cif.g09.slc.cpg/sg15_53_cif.got.tgz:104176.got - 2010.06.28 07:06:18.
