data_PCOD8139242
_publ_section_title
;
Structure prediction by ZEFSAII (Michael W. Deem and Ramdas Pophale) SiO2 
 PCOD8139242
Probable space group: C 2/C
;
_chemical_formula_sum "Si O2"
_cell_formula_units_Z 44
_cell_length_a 10.443014
_cell_length_b 25.826738
_cell_length_c 9.307493
_cell_angle_alpha 90.000000
_cell_angle_beta 63.035394
_cell_angle_gamma 90.000000
_cell_volume 2237.410189
_symmetry_space_group_name_H-M "C 2/C"
_symmetry_group_IT_number 15
_symmetry_cell_setting 'monoclinic'
loop_
_space_group_symop_operation_xyz
x,y,z
-x,y,1/2-z
-x,-y,-z
x,-y,1/2+z
1/2+x,1/2+y,z
1/2-x,1/2+y,1/2-z
1/2-x,1/2-y,-z
1/2+x,1/2-y,1/2+z
loop_
_atom_site_type_symbol
_atom_site_label
_atom_site_fract_x
_atom_site_fract_y
_atom_site_fract_z
Si Si1 0.054499 0.429826 0.480467
Si Si2 0.214861 0.664625 0.010123
Si Si3 0.485090 0.762806 0.511500
Si Si4 0.000000 0.802478 0.250000
Si Si5 0.196479 0.356393 0.853739
Si Si6 0.500000 0.995007 0.250000
Si Si7 0.500000 0.682409 0.250000
O O1 0.157216 0.381287 0.439762
O O2 0.091743 0.458102 0.310490
O O3 0.886010 0.410315 0.568860
O O4 0.090227 0.468534 0.595245
O O5 0.385588 0.664214 0.898828
O O6 0.139448 0.717004 0.991647
O O7 0.176765 0.654130 0.194734
O O8 0.411388 0.732308 0.681272
O O9 0.381049 0.809710 0.518571
O O10 0.511928 0.721119 0.375904
O O11 0.362086 0.356061 0.820839
#
# Coordination Sequence:
#
# PCOD8139242 Si02
#       7
#     8   8   8   4   8   4   4
#     4  10  21  39  66  89 108 140 181 242 282 339
#     4  11  21  37  58  82 115 151 194 232 276 327
#     4  11  21  36  56  80 110 160 203 230 253 319
#     4  12  20  33  58  77 114 157 194 217 268 334
#     4  11  21  38  55  83 119 150 188 235 281 322
#     4  10  20  38  68  94 102 132 190 234 292 342
#     4  12  24  33  52  85 124 153 186 231 280 316
#
# _framework density 19.665593999999999
#
# number of rings (size 3 to 8) (size 9 to 14) (size 15 to 20)
#    0.000    1.091    5.455    3.273    0.000    4.364 
#    0.000    0.000    0.000    6.545    0.000    0.000 
#    0.000    0.000    0.000    0.000    0.000    0.000 
#
# Total GULP energy -272610.253216 kJ/mol
# GULP energy per Si atom -12391.375146 kJ/mol
# Density = 1.962083 g / cm^3
# Si number density = 19.665594 Si / 1000 Ang^3
#
#
#
# Elastic Constant Matrix: (Units=GPa)
#
#
# Indices 1 2 3 4 5 6 
#
# 1 96.3196 32.0081 23.3438 0.0000 -9.9532 0.0000
# 2 32.0081 78.8861 30.1341 0.0000 4.0421 0.0000
# 3 23.3438 30.1341 75.6292 0.0000 10.9960 0.0000
# 4 0.0000 0.0000 0.0000 27.5813 0.0000 10.5152
# 5 -9.9532 4.0421 10.9960 0.0000 40.3319 0.0000
# 6 0.0000 0.0000 0.0000 10.5152 0.0000 15.9748
#
#
#
# Elastic Compliance Matrix: (Units=1/GPa)
#
#
# Indices 1 2 3 4 5 6 
#
# 1 0.013007 -0.004393 -0.002910 0.000000 0.004444 0.000000
# 2 -0.004393 0.016437 -0.004994 0.000000 -0.001370 0.000000
# 3 -0.002910 -0.004994 0.016808 0.000000 -0.004800 0.000000
# 4 0.000000 0.000000 0.000000 0.048403 0.000000 -0.031861
# 5 0.004444 -0.001370 -0.004800 0.000000 0.027337 0.000000
# 6 0.000000 0.000000 0.000000 -0.031861 0.000000 0.083571
#
#
# Mechanical properties :
#
#
# Convention : Reuss Voigt Hill
#
# Bulk Modulus (GPa) = 46.17472 46.86744 46.52108
# Shear Modulus (GPa) = 21.06355 27.80085 24.43220
#
# Velocity S-wave (km/s) = 3.27630 3.76397 3.52857
# Velocity P-wave (km/s) = 6.15167 6.54018 6.34890
#
# Compressibility (1/GPa) = 0.02165687
#
# Stress axis : x y z
#
# Youngs Moduli (GPa) = 76.88426 60.83831 59.49401
#
# Poissons Ratio (x) = 0.26729 0.17314
# Poissons Ratio (y) = 0.33779 0.29711
# Poissons Ratio (z) = 0.22374 0.30382
#
# Static dielectric constant tensor:
#      x y z
#    x 3.111140 0.000000 -0.589310 
#    y 0.000000 3.628890 0.000000 
#    z -0.589310 0.000000 2.248860 
# 
# 
# High freq. dielectric constant tensor:
#      x y z
#    x 1.747180 0.000000 0.018390 
#    y 0.000000 1.756880 0.000000 
#    z 0.018390 0.000000 1.765960 
# 
# From -- ./inp_files/32786.got.cif
#   From: 2010.06.25/outbox.cif.g09.slc.cpg/sg15_17_cif.got.tgz:32786.got - 2010.06.28 07:06:18.
