data_PCOD8139089
_publ_section_title
;
Structure prediction by ZEFSAII (Michael W. Deem and Ramdas Pophale) SiO2 
 PCOD8139089
Probable space group: C 2/C
;
_chemical_formula_sum "Si O2"
_cell_formula_units_Z 56
_cell_length_a 28.035971
_cell_length_b 11.352787
_cell_length_c 8.535130
_cell_angle_alpha 90.000000
_cell_angle_beta 117.706600
_cell_angle_gamma 90.000000
_cell_volume 2405.128888
_symmetry_space_group_name_H-M "C 2/C"
_symmetry_group_IT_number 15
_symmetry_cell_setting 'monoclinic'
loop_
_space_group_symop_operation_xyz
x,y,z
-x,y,1/2-z
-x,-y,-z
x,-y,1/2+z
1/2+x,1/2+y,z
1/2-x,1/2+y,1/2-z
1/2-x,1/2-y,-z
1/2+x,1/2-y,1/2+z
loop_
_atom_site_type_symbol
_atom_site_label
_atom_site_fract_x
_atom_site_fract_y
_atom_site_fract_z
Si Si1 0.166877 0.728320 0.621237
Si Si2 0.285463 0.659676 0.835803
Si Si3 0.362334 0.822579 0.775251
Si Si4 0.920715 0.430096 0.380911
Si Si5 0.330298 0.460323 0.715016
Si Si6 0.500000 0.989742 0.250000
Si Si7 0.000000 0.007537 0.750000
Si Si8 0.066592 0.107941 0.592930
O O1 0.223647 0.685225 0.778073
O O2 0.161710 0.688117 0.435176
O O3 0.118742 0.679431 0.656081
O O4 0.164638 0.869296 0.631958
O O5 0.316381 0.779649 0.828305
O O6 0.288506 0.562590 0.701756
O O7 0.312723 0.608689 0.033206
O O8 0.414993 0.742584 0.877366
O O9 0.382426 0.954741 0.834325
O O10 0.967280 0.427106 0.582467
O O11 0.953526 0.414443 0.268148
O O12 0.387197 0.521382 0.775095
O O13 0.952380 0.924236 0.611463
O O14 0.017631 0.094410 0.638267
#
# Coordination Sequence:
#
# PCOD8139089 Si02
#       8
#     8   8   8   8   8   4   4   8
#     4  12  26  43  71 100 135 183 229 287 336 423
#     4  11  26  42  73  99 139 177 228 281 346 416
#     4  11  24  44  67  99 136 180 220 290 341 408
#     4  11  25  45  71  98 141 179 242 278 355 401
#     4  11  24  45  65  98 138 176 219 281 346 404
#     4  10  24  50  64  98 136 188 232 296 332 414
#     4  10  20  38  64  98 122 168 222 264 332 406
#     4  10  21  41  62  94 131 165 216 273 333 391
#
# _framework density 23.283577000000001
#
# number of rings (size 3 to 8) (size 9 to 14) (size 15 to 20)
#    0.000    1.143    1.429    5.143    6.000    1.143 
#   10.286    0.000    0.000    0.000    0.000    0.000 
#    0.000    0.000    0.000    0.000    0.000    0.000 
#
# Total GULP energy -347218.586279 kJ/mol
# GULP energy per Si atom -12400.663796 kJ/mol
# Density = 2.323058 g / cm^3
# Si number density = 23.283577 Si / 1000 Ang^3
#
#
#
# Elastic Constant Matrix: (Units=GPa)
#
#
# Indices 1 2 3 4 5 6 
#
# 1 123.1644 20.5374 8.1128 0.0000 2.5991 0.0000
# 2 20.5374 69.6861 -5.9633 0.0000 5.8947 0.0000
# 3 8.1128 -5.9633 73.1312 0.0000 -1.3917 0.0000
# 4 0.0000 0.0000 0.0000 22.8582 0.0000 -4.8976
# 5 2.5991 5.8947 -1.3917 0.0000 33.3495 0.0000
# 6 0.0000 0.0000 0.0000 -4.8976 0.0000 15.6462
#
#
#
# Elastic Compliance Matrix: (Units=1/GPa)
#
#
# Indices 1 2 3 4 5 6 
#
# 1 0.008640 -0.002625 -0.001177 0.000000 -0.000258 0.000000
# 2 -0.002625 0.015461 0.001505 0.000000 -0.002465 0.000000
# 3 -0.001177 0.001505 0.013935 0.000000 0.000407 0.000000
# 4 0.000000 0.000000 0.000000 0.046893 0.000000 0.014679
# 5 -0.000258 -0.002465 0.000407 0.000000 0.030458 0.000000
# 6 0.000000 0.000000 0.000000 0.014679 0.000000 0.068508
#
#
# Mechanical properties :
#
#
# Convention : Reuss Voigt Hill
#
# Bulk Modulus (GPa) = 29.90342 34.59505 32.24923
# Shear Modulus (GPa) = 25.04536 30.59045 27.81790
#
# Velocity S-wave (km/s) = 3.28329 3.62860 3.46026
# Velocity P-wave (km/s) = 5.21961 5.69614 5.46308
#
# Compressibility (1/GPa) = 0.03344099
#
# Stress axis : x y z
#
# Youngs Moduli (GPa) = 115.74086 64.67844 71.76099
#
# Poissons Ratio (x) = 0.16979 0.08450
# Poissons Ratio (y) = 0.30384 -0.10800
# Poissons Ratio (z) = 0.13628 -0.09734
#
# Static dielectric constant tensor:
#      x y z
#    x 4.356000 0.000000 -0.058350 
#    y 0.000000 4.112030 0.000000 
#    z -0.058350 0.000000 4.274560 
# 
# 
# High freq. dielectric constant tensor:
#      x y z
#    x 1.929880 0.000000 -0.000220 
#    y 0.000000 1.906290 0.000000 
#    z -0.000220 0.000000 1.932270 
# 
# From -- ./inp_files/69475.got.cif
#   From: 2010.06.25/outbox.cif.g09.slc.cpg/sg15_35_cif.got.tgz:69475.got - 2010.06.28 07:06:18.
