data_PCOD8139543
_publ_section_title
;
Structure prediction by ZEFSAII (Michael W. Deem and Ramdas Pophale) SiO2 
 PCOD8139543
Probable space group: C 2/C
;
_chemical_formula_sum "Si O2"
_cell_formula_units_Z 64
_cell_length_a 15.464969
_cell_length_b 11.725383
_cell_length_c 16.899697
_cell_angle_alpha 90.000000
_cell_angle_beta 74.907459
_cell_angle_gamma 90.000000
_cell_volume 2958.763330
_symmetry_space_group_name_H-M "C 2/C"
_symmetry_group_IT_number 15
_symmetry_cell_setting 'monoclinic'
loop_
_space_group_symop_operation_xyz
x,y,z
-x,y,1/2-z
-x,-y,-z
x,-y,1/2+z
1/2+x,1/2+y,z
1/2-x,1/2+y,1/2-z
1/2-x,1/2-y,-z
1/2+x,1/2-y,1/2+z
loop_
_atom_site_type_symbol
_atom_site_label
_atom_site_fract_x
_atom_site_fract_y
_atom_site_fract_z
Si Si1 0.933161 0.407865 0.106979
Si Si2 0.467722 0.707981 0.846899
Si Si3 0.277309 0.041659 0.208721
Si Si4 0.412410 0.237913 0.902198
Si Si5 0.905196 0.419153 0.936698
Si Si6 0.411814 0.529564 0.322992
Si Si7 0.213998 0.435857 0.129916
Si Si8 0.139961 0.247354 0.907414
O O1 0.839973 0.434850 0.170959
O O2 0.982595 0.295825 0.129739
O O3 0.001558 0.513601 0.100529
O O4 0.904276 0.377889 0.025726
O O5 0.500000 0.719324 0.750000
O O6 0.399529 0.810437 0.880194
O O7 0.419406 0.587026 0.870634
O O8 0.546357 0.717429 0.891382
O O9 0.285341 0.032241 0.301750
O O10 0.174558 0.019234 0.212169
O O11 0.310531 0.158604 0.159594
O O12 0.400112 0.371075 0.889883
O O13 0.358951 0.167402 0.847261
O O14 0.374807 0.206151 0.999543
O O15 0.817048 0.495355 0.941120
O O16 0.500000 0.552159 0.250000
O O17 0.308547 0.372975 0.100105
#
# Coordination Sequence:
#
# PCOD8139543 Si02
#       8
#     8   8   8   8   8   8   8   8
#     4  10  21  39  66 101 130 168 229 290 327 392
#     4  11  22  43  67  94 136 183 227 279 347 412
#     4  12  24  43  69 103 135 177 233 292 331 409
#     4  11  24  43  73 101 141 184 227 285 346 407
#     4  10  20  39  64 100 133 167 222 290 337 394
#     4  11  27  46  66  98 146 183 221 284 352 418
#     4  11  24  36  69 104 132 174 230 282 342 400
#     4  12  23  45  72 103 133 185 240 272 339 427
#
# _framework density 21.630659000000001
#
# number of rings (size 3 to 8) (size 9 to 14) (size 15 to 20)
#    0.000    1.000    3.750    4.125    3.500    1.500 
#    0.000    1.875    0.000    0.000    0.000    0.000 
#    0.000    0.000    0.000    0.000    0.000    0.000 
#
# Total GULP energy -396580.790534 kJ/mol
# GULP energy per Si atom -12393.149704 kJ/mol
# Density = 2.158143 g / cm^3
# Si number density = 21.630659 Si / 1000 Ang^3
#
#
#
# Elastic Constant Matrix: (Units=GPa)
#
#
# Indices 1 2 3 4 5 6 
#
# 1 99.6867 26.7830 32.3129 0.0000 13.9895 0.0000
# 2 26.7830 119.7238 27.7291 0.0000 21.6789 0.0000
# 3 32.3129 27.7291 61.5522 0.0000 20.0047 0.0000
# 4 0.0000 0.0000 0.0000 22.8844 0.0000 20.3390
# 5 13.9895 21.6789 20.0047 0.0000 27.3129 0.0000
# 6 0.0000 0.0000 0.0000 20.3390 0.0000 5.1284
#
#
#
# Elastic Compliance Matrix: (Units=1/GPa)
#
#
# Indices 1 2 3 4 5 6 
#
# 1 0.012328 -0.001252 -0.005484 0.000000 -0.001304 0.000000
# 2 -0.001252 0.010175 -0.001982 0.000000 -0.005983 0.000000
# 3 -0.005484 -0.001982 0.024403 0.000000 -0.013491 0.000000
# 4 0.000000 0.000000 0.000000 -0.017307 0.000000 0.068640
# 5 -0.001304 -0.005983 -0.013491 0.000000 0.051911 0.000000
# 6 0.000000 0.000000 0.000000 0.068640 0.000000 -0.077230
#
#
# Mechanical properties :
#
#
# Convention : Reuss Voigt Hill
#
# Bulk Modulus (GPa) = 33.93232 50.51253 42.22242
# Shear Modulus (GPa) = 158.53039 24.00765 91.26902
#
# Velocity S-wave (km/s) = 8.57023 3.33512 6.50276
# Velocity P-wave (km/s) = 10.66081 6.18334 8.71454
#
# Compressibility (1/GPa) = 0.02947043
#
# Stress axis : x y z
#
# Youngs Moduli (GPa) = 81.11339 98.27943 40.97849
#
# Poissons Ratio (x) = 0.12300 0.22474
# Poissons Ratio (y) = 0.10152 0.08123
# Poissons Ratio (z) = 0.44485 0.19481
#
# Static dielectric constant tensor:
#      x y z
#    x 4.057420 0.000000 0.196490 
#    y 0.000000 4.120900 0.000000 
#    z 0.196490 0.000000 3.845900 
# 
# 
# High freq. dielectric constant tensor:
#      x y z
#    x 1.851220 0.000000 0.023850 
#    y 0.000000 1.851430 0.000000 
#    z 0.023850 0.000000 1.838630 
# 
# From -- ./inp_files/204470.got.cif
#   From: 2010.06.25/outbox.cif.g09.slc.cpg/sg15_103_cif.got.tgz:204470.got - 2010.06.28 07:06:18.
