data_PCOD8139529
_publ_section_title
;
Structure prediction by ZEFSAII (Michael W. Deem and Ramdas Pophale) SiO2 
 PCOD8139529
Probable space group: C 2/C
;
_chemical_formula_sum "Si O2"
_cell_formula_units_Z 48
_cell_length_a 12.663972
_cell_length_b 7.413690
_cell_length_c 26.820565
_cell_angle_alpha 90.000000
_cell_angle_beta 62.159295
_cell_angle_gamma 90.000000
_cell_volume 2226.624929
_symmetry_space_group_name_H-M "C 2/C"
_symmetry_group_IT_number 15
_symmetry_cell_setting 'monoclinic'
loop_
_space_group_symop_operation_xyz
x,y,z
-x,y,1/2-z
-x,-y,-z
x,-y,1/2+z
1/2+x,1/2+y,z
1/2-x,1/2+y,1/2-z
1/2-x,1/2-y,-z
1/2+x,1/2-y,1/2+z
loop_
_atom_site_type_symbol
_atom_site_label
_atom_site_fract_x
_atom_site_fract_y
_atom_site_fract_z
Si Si1 0.989425 0.816245 0.061659
Si Si2 0.702413 0.801109 0.299471
Si Si3 0.484976 0.032966 0.888090
Si Si4 0.891270 0.927961 0.182569
Si Si5 0.617914 0.674157 0.022527
Si Si6 0.579088 0.169980 0.187880
O O1 0.891314 0.882638 0.123657
O O2 0.040166 0.621764 0.065725
O O3 0.926602 0.785496 0.022954
O O4 0.099817 0.959608 0.035466
O O5 0.623236 0.967277 0.338255
O O6 0.769469 0.853703 0.234063
O O7 0.608612 0.641879 0.307841
O O8 0.792373 0.735609 0.322638
O O9 0.459467 0.225000 0.918431
O O10 0.403355 0.984684 0.857930
O O11 0.009354 0.843585 0.181216
O O12 0.750000 0.750000 0.000000
O O13 0.500000 0.086553 0.250000
#
# Coordination Sequence:
#
# PCOD8139529 Si02
#       6
#     8   8   8   8   8   8
#     4  10  23  43  62  92 133 161 223 278 309 392
#     4  11  21  40  66  93 136 171 205 274 334 387
#     4  11  23  42  66  94 128 172 217 267 335 389
#     4  10  20  39  63  94 130 167 213 263 326 396
#     4  11  25  42  65  94 125 174 225 264 329 384
#     4   9  21  38  60  95 130 165 214 263 323 402
#
# _framework density 21.557292
#
# number of rings (size 3 to 8) (size 9 to 14) (size 15 to 20)
#    0.000    1.667    1.667    3.500    2.333    3.333 
#    0.000    9.167    0.000    0.000    0.000    0.000 
#    0.000    0.000    0.000    0.000    0.000    0.000 
#
# Total GULP energy -297518.707176 kJ/mol
# GULP energy per Si atom -12396.612799 kJ/mol
# Density = 2.150823 g / cm^3
# Si number density = 21.557292 Si / 1000 Ang^3
#
#
#
# Elastic Constant Matrix: (Units=GPa)
#
#
# Indices 1 2 3 4 5 6 
#
# 1 88.9731 26.1664 43.7627 0.0000 3.6964 0.0000
# 2 26.1664 80.9323 20.7029 0.0000 5.9773 0.0000
# 3 43.7627 20.7029 114.6548 0.0000 12.8821 0.0000
# 4 0.0000 0.0000 0.0000 37.5398 0.0000 -8.8736
# 5 3.6964 5.9773 12.8821 0.0000 36.1910 0.0000
# 6 0.0000 0.0000 0.0000 -8.8736 0.0000 25.9243
#
#
#
# Elastic Compliance Matrix: (Units=1/GPa)
#
#
# Indices 1 2 3 4 5 6 
#
# 1 0.014744 -0.003531 -0.005090 0.000000 0.000889 0.000000
# 2 -0.003531 0.013864 -0.000978 0.000000 -0.001581 0.000000
# 3 -0.005090 -0.000978 0.011213 0.000000 -0.003310 0.000000
# 4 0.000000 0.000000 0.000000 0.028983 0.000000 0.009921
# 5 0.000889 -0.001581 -0.003310 0.000000 0.028980 0.000000
# 6 0.000000 0.000000 0.000000 0.009921 0.000000 0.041970
#
#
# Mechanical properties :
#
#
# Convention : Reuss Voigt Hill
#
# Bulk Modulus (GPa) = 48.48699 51.75825 50.12262
# Shear Modulus (GPa) = 30.15181 32.85958 31.50569
#
# Velocity S-wave (km/s) = 3.74395 3.90845 3.82709
# Velocity P-wave (km/s) = 6.42110 6.66556 6.54448
#
# Compressibility (1/GPa) = 0.02062409
#
# Stress axis : x y z
#
# Youngs Moduli (GPa) = 67.82219 72.12666 89.18039
#
# Poissons Ratio (x) = 0.25465 0.45395
# Poissons Ratio (y) = 0.23945 0.08724
# Poissons Ratio (z) = 0.34523 0.07056
#
# Static dielectric constant tensor:
#      x y z
#    x 3.617180 0.000000 0.173710 
#    y 0.000000 4.051800 0.000000 
#    z 0.173710 0.000000 4.225640 
# 
# 
# High freq. dielectric constant tensor:
#      x y z
#    x 1.820160 0.000000 0.010160 
#    y 0.000000 1.852050 0.000000 
#    z 0.010160 0.000000 1.865040 
# 
# From -- ./inp_files/291060.got.cif
#   From: 2010.06.25/outbox.cif.g09.slc.cpg/sg15_146_cif.got.tgz:291060.got - 2010.06.28 07:06:18.
