data_PCOD8139450
_publ_section_title
;
Structure prediction by ZEFSAII (Michael W. Deem and Ramdas Pophale) SiO2 
 PCOD8139450
Probable space group: C 2/C
;
_chemical_formula_sum "Si O2"
_cell_formula_units_Z 48
_cell_length_a 17.802677
_cell_length_b 15.359823
_cell_length_c 8.253647
_cell_angle_alpha 90.000000
_cell_angle_beta 95.519248
_cell_angle_gamma 90.000000
_cell_volume 2246.463252
_symmetry_space_group_name_H-M "C 2/C"
_symmetry_group_IT_number 15
_symmetry_cell_setting 'monoclinic'
loop_
_space_group_symop_operation_xyz
x,y,z
-x,y,1/2-z
-x,-y,-z
x,-y,1/2+z
1/2+x,1/2+y,z
1/2-x,1/2+y,1/2-z
1/2-x,1/2-y,-z
1/2+x,1/2-y,1/2+z
loop_
_atom_site_type_symbol
_atom_site_label
_atom_site_fract_x
_atom_site_fract_y
_atom_site_fract_z
Si Si1 0.739536 0.938409 0.350496
Si Si2 0.284453 0.616539 0.211707
Si Si3 0.077748 0.383934 0.323265
Si Si4 0.398332 0.278676 0.898341
Si Si5 0.959074 0.262585 0.900741
Si Si6 0.687193 0.718388 0.792645
O O1 0.777216 0.906414 0.523350
O O2 0.648653 0.948671 0.345095
O O3 0.761673 0.867733 0.218118
O O4 0.768830 0.033493 0.318365
O O5 0.370684 0.646391 0.268556
O O6 0.229050 0.695831 0.240074
O O7 0.096437 0.310935 0.195600
O O8 0.067808 0.344153 0.499348
O O9 0.000000 0.431809 0.250000
O O10 0.481337 0.298843 0.988814
O O11 0.334021 0.270657 0.023425
O O12 0.887743 0.204973 0.832514
O O13 0.000000 0.301709 0.750000
#
# Coordination Sequence:
#
# PCOD8139450 Si02
#       6
#     8   8   8   8   8   8
#     4  12  25  40  63  96 131 171 218 265 323 384
#     4  12  24  39  62  94 130 167 217 264 317 383
#     4  10  20  39  62  91 126 168 214 259 320 379
#     4  10  21  37  66  93 126 167 214 261 321 382
#     4   9  19  37  64  94 120 170 216 262 320 380
#     4  11  21  41  66  93 128 168 216 268 325 376
#
# _framework density 21.36692
#
# number of rings (size 3 to 8) (size 9 to 14) (size 15 to 20)
#    0.000    1.333    3.333    3.000    2.333    0.000 
#    0.000    4.167    0.000    7.000    0.000    0.000 
#    0.000    0.000    0.000    0.000    0.000    0.000 
#
# Total GULP energy -297549.857043 kJ/mol
# GULP energy per Si atom -12397.910710 kJ/mol
# Density = 2.131829 g / cm^3
# Si number density = 21.366920 Si / 1000 Ang^3
#
#
#
# Elastic Constant Matrix: (Units=GPa)
#
#
# Indices 1 2 3 4 5 6 
#
# 1 66.9586 20.1965 24.9429 0.0000 -0.7346 0.0000
# 2 20.1965 80.5287 5.8803 0.0000 4.7704 0.0000
# 3 24.9429 5.8803 90.0858 0.0000 13.0299 0.0000
# 4 0.0000 0.0000 0.0000 21.9943 0.0000 -1.9136
# 5 -0.7346 4.7704 13.0299 0.0000 26.5033 0.0000
# 6 0.0000 0.0000 0.0000 -1.9136 0.0000 12.8369
#
#
#
# Elastic Compliance Matrix: (Units=1/GPa)
#
#
# Indices 1 2 3 4 5 6 
#
# 1 0.018308 -0.004434 -0.005349 0.000000 0.003935 0.000000
# 2 -0.004434 0.013649 0.000764 0.000000 -0.002955 0.000000
# 3 -0.005349 0.000764 0.013535 0.000000 -0.006940 0.000000
# 4 0.000000 0.000000 0.000000 0.046064 0.000000 0.006867
# 5 0.003935 -0.002955 -0.006940 0.000000 0.041784 0.000000
# 6 0.000000 0.000000 0.000000 0.006867 0.000000 0.078924
#
#
# Mechanical properties :
#
#
# Convention : Reuss Voigt Hill
#
# Bulk Modulus (GPa) = 36.42306 37.73473 37.07889
# Shear Modulus (GPa) = 20.88089 24.70378 22.79234
#
# Velocity S-wave (km/s) = 3.12950 3.40394 3.26960
# Velocity P-wave (km/s) = 5.49016 5.75741 5.62537
#
# Compressibility (1/GPa) = 0.02745513
#
# Stress axis : x y z
#
# Youngs Moduli (GPa) = 54.62180 73.26394 73.88016
#
# Poissons Ratio (x) = 0.32486 0.39517
# Poissons Ratio (y) = 0.24220 -0.05646
# Poissons Ratio (z) = 0.29216 -0.05599
#
# Static dielectric constant tensor:
#      x y z
#    x 4.458960 0.000000 0.204440 
#    y 0.000000 3.456430 0.000000 
#    z 0.204440 0.000000 4.196060 
# 
# 
# High freq. dielectric constant tensor:
#      x y z
#    x 1.858400 0.000000 0.008970 
#    y 0.000000 1.787980 0.000000 
#    z 0.008970 0.000000 1.864540 
# 
# From -- ./inp_files/47481.got.cif
#   From: 2010.06.25/outbox.cif.g09.slc.cpg/sg15_24_cif.got.tgz:47481.got - 2010.06.28 07:06:18.
