data_PCOD8139988
_publ_section_title
;
Structure prediction by ZEFSAII (Michael W. Deem and Ramdas Pophale) SiO2 
 PCOD8139988
Probable space group: C 2/C
;
_chemical_formula_sum "Si O2"
_cell_formula_units_Z 64
_cell_length_a 17.423344
_cell_length_b 15.014166
_cell_length_c 13.870501
_cell_angle_alpha 90.000000
_cell_angle_beta 53.535148
_cell_angle_gamma 90.000000
_cell_volume 2918.102933
_symmetry_space_group_name_H-M "C 2/C"
_symmetry_group_IT_number 15
_symmetry_cell_setting 'monoclinic'
loop_
_space_group_symop_operation_xyz
x,y,z
-x,y,1/2-z
-x,-y,-z
x,-y,1/2+z
1/2+x,1/2+y,z
1/2-x,1/2+y,1/2-z
1/2-x,1/2-y,-z
1/2+x,1/2-y,1/2+z
loop_
_atom_site_type_symbol
_atom_site_label
_atom_site_fract_x
_atom_site_fract_y
_atom_site_fract_z
Si Si1 0.658032 0.306220 0.263163
Si Si2 0.674403 0.570567 0.320328
Si Si3 0.845157 0.033986 0.843942
Si Si4 0.891338 0.326922 0.849784
Si Si5 0.889684 0.685770 0.854355
Si Si6 0.063222 0.843564 0.070259
Si Si7 0.271221 0.791711 0.622086
Si Si8 0.709691 0.990854 0.097849
O O1 0.713127 0.382996 0.161575
O O2 0.661268 0.212467 0.204860
O O3 0.548876 0.337086 0.353205
O O4 0.701564 0.295723 0.336312
O O5 0.614168 0.520059 0.280084
O O6 0.603269 0.631600 0.435295
O O7 0.754877 0.627202 0.206345
O O8 0.730875 0.503196 0.348372
O O9 0.919587 0.079230 0.862741
O O10 0.779732 0.966293 0.955763
O O11 0.887924 0.250885 0.935990
O O12 0.837071 0.418746 0.909418
O O13 0.000000 0.352845 0.750000
O O14 0.826438 0.766199 0.859218
O O15 0.864818 0.588660 0.828868
O O16 0.000000 0.706736 0.750000
O O17 0.862661 0.684360 0.987557
#
# Coordination Sequence:
#
# PCOD8139988 Si02
#       8
#     8   8   8   8   8   8   8   8
#     4  10  20  40  64  94 125 166 220 275 322 385
#     4  11  22  39  63  95 131 173 220 270 330 386
#     4  10  21  37  60  91 135 165 212 270 326 380
#     4   9  18  35  59  91 129 161 207 275 325 376
#     4  11  26  47  67  92 135 179 215 264 331 397
#     4   9  22  37  64  96 129 170 224 271 332 389
#     4  11  24  44  67  93 132 172 221 269 319 402
#     4  11  21  39  63  95 129 171 216 270 327 389
#
# _framework density 21.932058000000001
#
# number of rings (size 3 to 8) (size 9 to 14) (size 15 to 20)
#    0.000    1.750    2.500    2.250    3.500    2.000 
#    0.000    3.125    0.000    0.000    0.000    0.000 
#    0.000    0.000    0.000    0.000    0.000    0.000 
#
# Total GULP energy -396466.518508 kJ/mol
# GULP energy per Si atom -12389.578703 kJ/mol
# Density = 2.188214 g / cm^3
# Si number density = 21.932058 Si / 1000 Ang^3
#
#
#
# Elastic Constant Matrix: (Units=GPa)
#
#
# Indices 1 2 3 4 5 6 
#
# 1 64.0787 12.2144 36.4943 0.0000 10.8764 0.0000
# 2 12.2144 67.5679 29.9770 0.0000 4.5822 0.0000
# 3 36.4943 29.9770 122.6855 0.0000 18.5663 0.0000
# 4 0.0000 0.0000 0.0000 35.8559 0.0000 2.3528
# 5 10.8764 4.5822 18.5663 0.0000 33.0184 0.0000
# 6 0.0000 0.0000 0.0000 2.3528 0.0000 26.1959
#
#
#
# Elastic Compliance Matrix: (Units=1/GPa)
#
#
# Indices 1 2 3 4 5 6 
#
# 1 0.019196 -0.001048 -0.004939 0.000000 -0.003400 0.000000
# 2 -0.001048 0.016657 -0.003782 0.000000 0.000161 0.000000
# 3 -0.004939 -0.003782 0.011169 0.000000 -0.004128 0.000000
# 4 0.000000 0.000000 0.000000 0.028055 0.000000 -0.002520
# 5 -0.003400 0.000161 -0.004128 0.000000 0.033705 0.000000
# 6 0.000000 0.000000 0.000000 -0.002520 0.000000 0.038400
#
#
# Mechanical properties :
#
#
# Convention : Reuss Voigt Hill
#
# Bulk Modulus (GPa) = 36.38759 45.74482 41.06621
# Shear Modulus (GPa) = 28.42813 30.72383 29.57598
#
# Velocity S-wave (km/s) = 3.60417 3.74687 3.67621
# Velocity P-wave (km/s) = 5.82642 6.29456 6.06501
#
# Compressibility (1/GPa) = 0.02748190
#
# Stress axis : x y z
#
# Youngs Moduli (GPa) = 52.09468 60.03626 89.53232
#
# Poissons Ratio (x) = 0.06292 0.44223
# Poissons Ratio (y) = 0.05460 0.33865
# Poissons Ratio (z) = 0.25731 0.22708
#
# Static dielectric constant tensor:
#      x y z
#    x 3.845600 0.000000 0.305000 
#    y 0.000000 3.998930 0.000000 
#    z 0.305000 0.000000 4.076880 
# 
# 
# High freq. dielectric constant tensor:
#      x y z
#    x 1.846980 0.000000 0.018020 
#    y 0.000000 1.868130 0.000000 
#    z 0.018020 0.000000 1.861700 
# 
# From -- ./inp_files/162541.got.cif
#   From: 2010.06.25/outbox.cif.g09.slc.cpg/sg15_82_cif.got.tgz:162541.got - 2010.06.28 07:06:18.
