data_PCOD8139665
_publ_section_title
;
Structure prediction by ZEFSAII (Michael W. Deem and Ramdas Pophale) SiO2 
 PCOD8139665
Probable space group: C 2/C
;
_chemical_formula_sum "Si O2"
_cell_formula_units_Z 48
_cell_length_a 20.621884
_cell_length_b 7.098952
_cell_length_c 20.366563
_cell_angle_alpha 90.000000
_cell_angle_beta 51.937498
_cell_angle_gamma 90.000000
_cell_volume 2347.480063
_symmetry_space_group_name_H-M "C 2/C"
_symmetry_group_IT_number 15
_symmetry_cell_setting 'monoclinic'
loop_
_space_group_symop_operation_xyz
x,y,z
-x,y,1/2-z
-x,-y,-z
x,-y,1/2+z
1/2+x,1/2+y,z
1/2-x,1/2+y,1/2-z
1/2-x,1/2-y,-z
1/2+x,1/2-y,1/2+z
loop_
_atom_site_type_symbol
_atom_site_label
_atom_site_fract_x
_atom_site_fract_y
_atom_site_fract_z
Si Si1 0.837524 0.775203 0.478725
Si Si2 0.148639 0.943228 0.295714
Si Si3 0.092853 0.388327 0.904532
Si Si4 0.022270 0.054448 0.160243
Si Si5 0.205825 0.258395 0.351644
Si Si6 0.952744 0.438273 0.424463
O O1 0.750000 0.750000 0.500000
O O2 0.818584 0.842186 0.565029
O O3 0.875034 0.565152 0.453261
O O4 0.897519 0.928414 0.407272
O O5 0.146237 0.793930 0.356159
O O6 0.201930 0.847856 0.203710
O O7 0.056995 0.993706 0.331433
O O8 0.197674 0.119305 0.294975
O O9 0.144118 0.575054 0.877448
O O10 0.030202 0.419018 0.881965
O O11 0.050672 0.344611 0.000901
O O12 0.000000 0.031926 0.250000
O O13 0.039983 0.273900 0.133929
#
# Coordination Sequence:
#
# PCOD8139665 Si02
#       6
#     8   8   8   8   8   8
#     4  11  25  46  64  93 132 177 212 257 323 388
#     4  12  22  40  65  97 130 165 212 268 317 376
#     4  10  20  39  66  94 124 159 212 263 317 377
#     4  12  26  43  65  95 129 171 218 265 319 379
#     4  11  23  39  66  99 131 165 211 264 320 377
#     4  10  22  41  66  94 124 162 213 267 317 374
#
# _framework density 20.447458000000001
#
# number of rings (size 3 to 8) (size 9 to 14) (size 15 to 20)
#    0.000    1.000    5.000    2.000    0.000    2.667 
#    6.000    0.000    0.000    0.000    0.000    0.000 
#    0.000    0.000    0.000    0.000    0.000    0.000 
#
# Total GULP energy -297493.124620 kJ/mol
# GULP energy per Si atom -12395.546859 kJ/mol
# Density = 2.040092 g / cm^3
# Si number density = 20.447458 Si / 1000 Ang^3
#
#
#
# Elastic Constant Matrix: (Units=GPa)
#
#
# Indices 1 2 3 4 5 6 
#
# 1 118.0259 34.5776 30.8560 0.0019 -15.5432 -0.0036
# 2 34.5776 80.4262 44.2133 0.0066 1.9904 -0.0031
# 3 30.8560 44.2133 88.9118 0.0050 -7.3899 0.0010
# 4 0.0019 0.0066 0.0050 41.2657 -0.0027 -4.2215
# 5 -15.5432 1.9904 -7.3899 -0.0027 33.7079 0.0015
# 6 -0.0036 -0.0031 0.0010 -4.2215 0.0015 24.8738
#
#
#
# Elastic Compliance Matrix: (Units=1/GPa)
#
#
# Indices 1 2 3 4 5 6 
#
# 1 0.010614 -0.003962 -0.001311 0.000001 0.004841 0.000001
# 2 -0.003962 0.018880 -0.008411 -0.000002 -0.004786 0.000002
# 3 -0.001311 -0.008411 0.016170 -0.000001 0.003437 -0.000002
# 4 0.000001 -0.000002 -0.000001 0.024661 0.000002 0.004185
# 5 0.004841 -0.004786 0.003437 0.000002 0.032935 -0.000002
# 6 0.000001 0.000002 -0.000002 0.004185 -0.000002 0.040913
#
#
# Mechanical properties :
#
#
# Convention : Reuss Voigt Hill
#
# Bulk Modulus (GPa) = 54.65845 56.29529 55.47687
# Shear Modulus (GPa) = 28.14687 31.81728 29.98208
#
# Velocity S-wave (km/s) = 3.71421 3.94896 3.83338
# Velocity P-wave (km/s) = 6.72183 6.95585 6.83984
#
# Compressibility (1/GPa) = 0.01829543
#
# Stress axis : x y z
#
# Youngs Moduli (GPa) = 94.21766 52.96726 61.84227
#
# Poissons Ratio (x) = 0.20988 0.08105
# Poissons Ratio (y) = 0.37333 0.52015
# Poissons Ratio (z) = 0.12349 0.44550
#
# Static dielectric constant tensor:
#      x y z
#    x 3.730330 -0.000010 -0.028170 
#    y -0.000010 3.697650 0.000000 
#    z -0.028170 0.000000 4.190520 
# 
# 
# High freq. dielectric constant tensor:
#      x y z
#    x 1.793450 0.000000 -0.016850 
#    y 0.000000 1.805140 0.000000 
#    z -0.016850 0.000000 1.805180 
# 
# From -- ./inp_files/254243.got.cif
#   From: 2010.06.25/outbox.cif.g09.slc.cpg/sg15_128_cif.got.tgz:254243.got - 2010.06.28 07:06:18.
