data_PCOD8139386
_publ_section_title
;
Structure prediction by ZEFSAII (Michael W. Deem and Ramdas Pophale) SiO2 
 PCOD8139386
Probable space group: C 2/C
;
_chemical_formula_sum "Si O2"
_cell_formula_units_Z 40
_cell_length_a 18.762616
_cell_length_b 10.406115
_cell_length_c 30.297440
_cell_angle_alpha 90.000000
_cell_angle_beta 159.573634
_cell_angle_gamma 90.000000
_cell_volume 2064.512455
_symmetry_space_group_name_H-M "C 2/C"
_symmetry_group_IT_number 15
_symmetry_cell_setting 'monoclinic'
loop_
_space_group_symop_operation_xyz
x,y,z
-x,y,1/2-z
-x,-y,-z
x,-y,1/2+z
1/2+x,1/2+y,z
1/2-x,1/2+y,1/2-z
1/2-x,1/2-y,-z
1/2+x,1/2-y,1/2+z
loop_
_atom_site_type_symbol
_atom_site_label
_atom_site_fract_x
_atom_site_fract_y
_atom_site_fract_z
Si Si1 0.065528 0.591782 0.903907
Si Si2 0.062029 0.835663 0.567085
Si Si3 0.616414 0.953338 0.110510
Si Si4 0.010780 0.108316 0.135381
Si Si5 0.319237 0.039650 0.679434
O O1 0.032751 0.536771 0.933919
O O2 0.014451 0.741788 0.869072
O O3 0.904606 0.528331 0.778063
O O4 0.291192 0.548354 0.019986
O O5 0.165879 0.696761 0.631712
O O6 0.067157 0.911057 0.616911
O O7 0.821980 0.834564 0.412731
O O8 0.179238 0.911941 0.596143
O O9 0.820246 0.037246 0.236357
O O10 0.500000 0.000000 0.000000
O O11 0.500000 0.035959 0.750000
#
# Coordination Sequence:
#
# PCOD8139386 Si02
#       5
#     8   8   8   8   8
#     4  10  21  37  63  88 111 155 200 241 294 347
#     4  10  22  38  62  89 117 158 197 241 301 353
#     4  11  23  41  59  85 123 158 193 247 298 348
#     4  10  20  39  61  87 117 150 201 246 287 350
#     4  11  20  38  62  88 119 153 198 243 292 358
#
# _framework density 19.375033999999999
#
# number of rings (size 3 to 8) (size 9 to 14) (size 15 to 20)
#    0.000    1.600    4.000    1.200    0.000    0.800 
#    3.600    1.000    0.000    0.000    0.000    0.000 
#    0.000    0.000    0.000    0.000    0.000    0.000 
#
# Total GULP energy -247851.675626 kJ/mol
# GULP energy per Si atom -12392.583781 kJ/mol
# Density = 1.933094 g / cm^3
# Si number density = 19.375034 Si / 1000 Ang^3
#
#
#
# Elastic Constant Matrix: (Units=GPa)
#
#
# Indices 1 2 3 4 5 6 
#
# 1 67.6175 40.5761 54.7917 0.0301 -12.0634 -0.0071
# 2 40.5761 63.7954 51.0391 0.0212 7.1544 -0.0092
# 3 54.7917 51.0391 150.7494 0.0881 -5.4848 -0.0382
# 4 0.0301 0.0212 0.0881 33.5662 -0.0337 -3.2438
# 5 -12.0634 7.1544 -5.4848 -0.0337 41.7921 0.0137
# 6 -0.0071 -0.0092 -0.0382 -3.2438 0.0137 27.5348
#
#
#
# Elastic Compliance Matrix: (Units=1/GPa)
#
#
# Indices 1 2 3 4 5 6 
#
# 1 0.031138 -0.016914 -0.005183 0.000007 0.011203 -0.000010
# 2 -0.016914 0.031628 -0.004959 -0.000002 -0.010948 0.000004
# 3 -0.005183 -0.004959 0.010222 -0.000018 0.000694 0.000009
# 4 0.000007 -0.000002 -0.000018 0.030135 0.000023 0.003550
# 5 0.011203 -0.010948 0.000694 0.000023 0.029127 -0.000012
# 6 -0.000010 0.000004 0.000009 0.003550 -0.000012 0.036736
#
#
# Mechanical properties :
#
#
# Convention : Reuss Voigt Hill
#
# Bulk Modulus (GPa) = 52.98059 63.88624 58.43341
# Shear Modulus (GPa) = 21.79688 29.62898 25.71293
#
# Velocity S-wave (km/s) = 3.35774 3.91479 3.64691
# Velocity P-wave (km/s) = 6.51434 7.31294 6.92516
#
# Compressibility (1/GPa) = 0.01887484
#
# Stress axis : x y z
#
# Youngs Moduli (GPa) = 32.11522 31.61713 97.83194
#
# Poissons Ratio (x) = 0.53479 0.50707
# Poissons Ratio (y) = 0.54321 0.48514
# Poissons Ratio (z) = 0.16646 0.15679
#
# Static dielectric constant tensor:
#      x y z
#    x 3.656390 0.000010 -0.070580 
#    y 0.000010 3.323900 -0.000050 
#    z -0.070580 -0.000050 3.720890 
# 
# 
# High freq. dielectric constant tensor:
#      x y z
#    x 1.762890 0.000000 -0.003220 
#    y 0.000000 1.730560 0.000000 
#    z -0.003220 0.000000 1.765030 
# 
# From -- ./inp_files/110467.got.cif
#   From: 2010.06.25/outbox.cif.g09.slc.cpg/sg15_56_cif.got.tgz:110467.got - 2010.06.28 07:06:18.
