data_PCOD8139081
_publ_section_title
;
Structure prediction by ZEFSAII (Michael W. Deem and Ramdas Pophale) SiO2 
 PCOD8139081
Probable space group: C 2/C
;
_chemical_formula_sum "Si O2"
_cell_formula_units_Z 40
_cell_length_a 14.897124
_cell_length_b 10.993669
_cell_length_c 15.885298
_cell_angle_alpha 90.000000
_cell_angle_beta 129.706269
_cell_angle_gamma 90.000000
_cell_volume 2001.487731
_symmetry_space_group_name_H-M "C 2/C"
_symmetry_group_IT_number 15
_symmetry_cell_setting 'monoclinic'
loop_
_space_group_symop_operation_xyz
x,y,z
-x,y,1/2-z
-x,-y,-z
x,-y,1/2+z
1/2+x,1/2+y,z
1/2-x,1/2+y,1/2-z
1/2-x,1/2-y,-z
1/2+x,1/2-y,1/2+z
loop_
_atom_site_type_symbol
_atom_site_label
_atom_site_fract_x
_atom_site_fract_y
_atom_site_fract_z
Si Si1 0.478449 0.450368 0.334164
Si Si2 0.472914 0.139052 0.480872
Si Si3 0.957018 0.235577 0.317580
Si Si4 0.329326 0.702648 0.473388
Si Si5 0.212706 0.753740 0.236399
O O1 0.500000 0.419716 0.250000
O O2 0.453167 0.591751 0.333959
O O3 0.596507 0.417464 0.456853
O O4 0.366541 0.373210 0.297147
O O5 0.457927 0.200091 0.564111
O O6 0.578363 0.193330 0.490946
O O7 0.352569 0.155532 0.359670
O O8 0.500000 0.000000 0.500000
O O9 0.828963 0.292737 0.255488
O O10 0.000000 0.266206 0.250000
O O11 0.250000 0.750000 0.500000
O O12 0.247054 0.683187 0.343014
#
# Coordination Sequence:
#
# PCOD8139081 Si02
#       5
#     8   8   8   8   8
#     4  10  20  39  66  92 125 160 210 260 303 379
#     4  10  24  42  58  92 129 159 204 260 311 375
#     4  10  24  43  63  92 123 167 210 252 318 378
#     4  10  20  38  64  96 120 163 208 253 315 365
#     4  10  22  37  65  88 127 162 209 256 313 357
#
# _framework density 19.985133000000001
#
# number of rings (size 3 to 8) (size 9 to 14) (size 15 to 20)
#    0.000    2.000    2.000    0.000    5.600    8.000 
#    3.600    0.000    0.000    0.000    0.000    0.000 
#    0.000    0.000    0.000    0.000    0.000    0.000 
#
# Total GULP energy -247974.253697 kJ/mol
# GULP energy per Si atom -12398.712685 kJ/mol
# Density = 1.993965 g / cm^3
# Si number density = 19.985133 Si / 1000 Ang^3
#
#
#
# Elastic Constant Matrix: (Units=GPa)
#
#
# Indices 1 2 3 4 5 6 
#
# 1 124.3371 29.0074 59.0351 0.0000 -19.7975 0.0000
# 2 29.0074 90.0086 46.1927 0.0000 -8.6525 0.0000
# 3 59.0351 46.1927 186.7621 0.0000 -5.0336 0.0000
# 4 0.0000 0.0000 0.0000 22.2225 0.0000 -4.3898
# 5 -19.7975 -8.6525 -5.0336 0.0000 32.6013 0.0000
# 6 0.0000 0.0000 0.0000 -4.3898 0.0000 20.7290
#
#
#
# Elastic Compliance Matrix: (Units=1/GPa)
#
#
# Indices 1 2 3 4 5 6 
#
# 1 0.010627 -0.001417 -0.002857 0.000000 0.005636 0.000000
# 2 -0.001417 0.013194 -0.002756 0.000000 0.002216 0.000000
# 3 -0.002857 -0.002756 0.006901 0.000000 -0.001401 0.000000
# 4 0.000000 0.000000 0.000000 0.046964 0.000000 0.009945
# 5 0.005636 0.002216 -0.001401 0.000000 0.034468 0.000000
# 6 0.000000 0.000000 0.000000 0.009945 0.000000 0.050348
#
#
# Mechanical properties :
#
#
# Convention : Reuss Voigt Hill
#
# Bulk Modulus (GPa) = 60.01177 74.39759 67.20468
# Shear Modulus (GPa) = 27.45510 32.90206 30.17858
#
# Velocity S-wave (km/s) = 3.71047 4.06190 3.89015
# Velocity P-wave (km/s) = 6.96062 7.70104 7.34017
#
# Compressibility (1/GPa) = 0.01666340
#
# Stress axis : x y z
#
# Youngs Moduli (GPa) = 94.09936 75.79252 144.90058
#
# Poissons Ratio (x) = 0.10739 0.41396
# Poissons Ratio (y) = 0.13333 0.39931
# Poissons Ratio (z) = 0.26883 0.20886
#
# Static dielectric constant tensor:
#      x y z
#    x 3.569850 0.000000 0.058280 
#    y 0.000000 3.507510 0.000000 
#    z 0.058280 0.000000 4.116270 
# 
# 
# High freq. dielectric constant tensor:
#      x y z
#    x 1.786040 0.000000 -0.001820 
#    y 0.000000 1.764350 0.000000 
#    z -0.001820 0.000000 1.798050 
# 
# From -- ./inp_files/95149.got.cif
#   From: 2010.06.25/outbox.cif.g09.slc.cpg/sg15_48_cif.got.tgz:95149.got - 2010.06.28 07:06:18.
