data_PCOD8139235
_publ_section_title
;
Structure prediction by ZEFSAII (Michael W. Deem and Ramdas Pophale) SiO2 
 PCOD8139235
Probable space group: C 2/C
;
_chemical_formula_sum "Si O2"
_cell_formula_units_Z 44
_cell_length_a 5.222353
_cell_length_b 32.123801
_cell_length_c 12.309982
_cell_angle_alpha 90.000000
_cell_angle_beta 82.030141
_cell_angle_gamma 90.000000
_cell_volume 2045.198153
_symmetry_space_group_name_H-M "C 2/C"
_symmetry_group_IT_number 15
_symmetry_cell_setting 'monoclinic'
loop_
_space_group_symop_operation_xyz
x,y,z
-x,y,1/2-z
-x,-y,-z
x,-y,1/2+z
1/2+x,1/2+y,z
1/2-x,1/2+y,1/2-z
1/2-x,1/2-y,-z
1/2+x,1/2-y,1/2+z
loop_
_atom_site_type_symbol
_atom_site_label
_atom_site_fract_x
_atom_site_fract_y
_atom_site_fract_z
Si Si1 0.630416 0.437782 0.629225
Si Si2 0.175694 0.684655 0.956445
Si Si3 0.000000 0.718231 0.750000
Si Si4 0.732136 0.971563 0.319035
Si Si5 0.161583 0.589641 0.010739
Si Si6 0.413823 0.249671 0.098554
O O1 0.500000 0.424497 0.750000
O O2 0.701979 0.486362 0.619980
O O3 0.415260 0.428943 0.551905
O O4 0.896441 0.412210 0.595983
O O5 0.437072 0.706831 0.905957
O O6 0.997706 0.689915 0.858762
O O7 0.222291 0.636949 0.978567
O O8 0.081738 0.707590 0.073573
O O9 0.756568 0.750080 0.780287
O O10 0.500000 0.981856 0.250000
O O11 0.617908 0.936475 0.404118
O O12 0.000000 0.955294 0.250000
O O13 0.250000 0.250000 0.000000
#
# Coordination Sequence:
#
# PCOD8139235 Si02
#       6
#     8   8   4   8   8   8
#     4  11  24  46  65  93 136 187 228 275 334 404
#     4  10  23  39  64  95 134 165 219 274 331 394
#     4  10  20  38  68  90 128 172 216 268 334 396
#     4  11  23  42  70 102 137 178 226 271 337 416
#     4  12  25  41  71 101 139 173 226 289 338 389
#     4   9  20  41  62  88 125 173 210 261 327 401
#
# _framework density 21.513807
#
# number of rings (size 3 to 8) (size 9 to 14) (size 15 to 20)
#    0.000    1.455    0.000    5.455    6.364    1.455 
#    1.636    5.455    0.000    0.000    0.000    0.000 
#    0.000    0.000    0.000    0.000    0.000    0.000 
#
# Total GULP energy -272649.808573 kJ/mol
# GULP energy per Si atom -12393.173117 kJ/mol
# Density = 2.146484 g / cm^3
# Si number density = 21.513807 Si / 1000 Ang^3
#
#
#
# Elastic Constant Matrix: (Units=GPa)
#
#
# Indices 1 2 3 4 5 6 
#
# 1 135.7582 54.6958 36.4705 0.0000 -12.5476 0.0000
# 2 54.6958 153.0773 72.8701 0.0000 -1.7726 0.0000
# 3 36.4705 72.8701 91.3181 0.0000 -20.8523 0.0000
# 4 0.0000 0.0000 0.0000 8.3831 0.0000 -2.5601
# 5 -12.5476 -1.7726 -20.8523 0.0000 41.4317 0.0000
# 6 0.0000 0.0000 0.0000 -2.5601 0.0000 11.2142
#
#
#
# Elastic Compliance Matrix: (Units=1/GPa)
#
#
# Indices 1 2 3 4 5 6 
#
# 1 0.008903 -0.002734 -0.000887 0.000000 0.002133 0.000000
# 2 -0.002734 0.012088 -0.009745 0.000000 -0.005216 0.000000
# 3 -0.000887 -0.009745 0.021382 0.000000 0.010076 0.000000
# 4 0.000000 0.000000 0.000000 0.128228 0.000000 0.029273
# 5 0.002133 -0.005216 0.010076 0.000000 0.029630 0.000000
# 6 0.000000 0.000000 0.000000 0.029273 0.000000 0.095855
#
#
# Mechanical properties :
#
#
# Convention : Reuss Voigt Hill
#
# Bulk Modulus (GPa) = 63.93389 78.69183 71.31286
# Shear Modulus (GPa) = 15.24237 26.61360 20.92799
#
# Velocity S-wave (km/s) = 2.66464 3.52098 3.12231
# Velocity P-wave (km/s) = 6.26492 7.29291 6.79837
#
# Compressibility (1/GPa) = 0.01564116
#
# Stress axis : x y z
#
# Youngs Moduli (GPa) = 112.32136 82.72459 46.76799
#
# Poissons Ratio (x) = 0.22620 0.04147
# Poissons Ratio (y) = 0.30713 0.45576
# Poissons Ratio (z) = 0.09959 0.80617
#
# Static dielectric constant tensor:
#      x y z
#    x 4.174400 0.000000 -0.407270 
#    y 0.000000 3.429450 0.000000 
#    z -0.407270 0.000000 4.204040 
# 
# 
# High freq. dielectric constant tensor:
#      x y z
#    x 1.869500 0.000000 -0.006340 
#    y 0.000000 1.821100 0.000000 
#    z -0.006340 0.000000 1.850040 
# 
# From -- ./inp_files/73843.got.cif
#   From: 2010.06.25/outbox.cif.g09.slc.cpg/sg15_37_cif.got.tgz:73843.got - 2010.06.28 07:06:18.
