data_PCOD8139708
_publ_section_title
;
Structure prediction by ZEFSAII (Michael W. Deem and Ramdas Pophale) SiO2 
 PCOD8139708
Probable space group: C 2/C
;
_chemical_formula_sum "Si O2"
_cell_formula_units_Z 52
_cell_length_a 17.701843
_cell_length_b 8.126199
_cell_length_c 23.141954
_cell_angle_alpha 90.000000
_cell_angle_beta 135.445750
_cell_angle_gamma 90.000000
_cell_volume 2335.531970
_symmetry_space_group_name_H-M "C 2/C"
_symmetry_group_IT_number 15
_symmetry_cell_setting 'monoclinic'
loop_
_space_group_symop_operation_xyz
x,y,z
-x,y,1/2-z
-x,-y,-z
x,-y,1/2+z
1/2+x,1/2+y,z
1/2-x,1/2+y,1/2-z
1/2-x,1/2-y,-z
1/2+x,1/2-y,1/2+z
loop_
_atom_site_type_symbol
_atom_site_label
_atom_site_fract_x
_atom_site_fract_y
_atom_site_fract_z
Si Si1 0.376176 0.274128 0.581067
Si Si2 0.169594 0.030860 0.757142
Si Si3 0.485161 0.968620 0.067956
Si Si4 0.603687 0.542021 0.520342
Si Si5 0.500000 0.581087 0.250000
Si Si6 0.357405 0.805804 0.424704
Si Si7 0.666760 0.760398 0.652642
O O1 0.250000 0.250000 0.500000
O O2 0.444247 0.106662 0.605909
O O3 0.414921 0.414576 0.556943
O O4 0.408587 0.317047 0.664613
O O5 0.251698 0.155524 0.831328
O O6 0.147094 0.100706 0.681337
O O7 0.217209 0.846382 0.775729
O O8 0.061572 0.028546 0.736306
O O9 0.533950 0.815000 0.056646
O O10 0.576162 0.107973 0.122151
O O11 0.377470 0.046249 0.981090
O O12 0.500000 0.500000 0.500000
O O13 0.666806 0.367456 0.557446
O O14 0.663832 0.694493 0.585072
#
# Coordination Sequence:
#
# PCOD8139708 Si02
#       7
#     8   8   8   8   4   8   8
#     4  12  26  47  68  98 142 192 229 280 366 426
#     4  11  25  44  66 101 142 178 231 289 349 413
#     4  10  20  39  68  97 132 171 229 286 338 411
#     4  12  20  39  73 101 128 177 232 287 346 410
#     4  12  28  46  68  98 150 184 226 294 358 420
#     4  10  20  39  68 103 129 170 229 292 340 404
#     4  11  23  40  71 101 133 176 235 289 344 413
#
# _framework density 22.264735999999999
#
# number of rings (size 3 to 8) (size 9 to 14) (size 15 to 20)
#    0.000    0.923    3.077    5.538    4.308    0.000 
#    5.538    1.538    0.000    0.000    0.000    0.000 
#    0.000    0.000    0.000    0.000    0.000    0.000 
#
# Total GULP energy -322215.198349 kJ/mol
# GULP energy per Si atom -12392.892244 kJ/mol
# Density = 2.221406 g / cm^3
# Si number density = 22.264736 Si / 1000 Ang^3
#
#
#
# Elastic Constant Matrix: (Units=GPa)
#
#
# Indices 1 2 3 4 5 6 
#
# 1 76.6861 25.5330 22.7442 0.0000 -4.5277 0.0000
# 2 25.5330 99.0714 19.8997 0.0000 -4.5431 0.0000
# 3 22.7442 19.8997 101.8562 0.0000 -8.8371 0.0000
# 4 0.0000 0.0000 0.0000 36.2578 0.0000 -3.8595
# 5 -4.5277 -4.5431 -8.8371 0.0000 30.8478 0.0000
# 6 0.0000 0.0000 0.0000 -3.8595 0.0000 28.3902
#
#
#
# Elastic Compliance Matrix: (Units=1/GPa)
#
#
# Indices 1 2 3 4 5 6 
#
# 1 0.014968 -0.003288 -0.002616 0.000000 0.000963 0.000000
# 2 -0.003288 0.011257 -0.001398 0.000000 0.000775 0.000000
# 3 -0.002616 -0.001398 0.010895 0.000000 0.002531 0.000000
# 4 0.000000 0.000000 0.000000 0.027985 0.000000 0.003804
# 5 0.000963 0.000775 0.002531 0.000000 0.033398 0.000000
# 6 0.000000 0.000000 0.000000 0.003804 0.000000 0.035741
#
#
# Mechanical properties :
#
#
# Convention : Reuss Voigt Hill
#
# Bulk Modulus (GPa) = 44.41376 45.99640 45.20508
# Shear Modulus (GPa) = 31.97893 33.06162 32.52027
#
# Velocity S-wave (km/s) = 3.79397 3.85766 3.82595
# Velocity P-wave (km/s) = 6.25968 6.36756 6.31385
#
# Compressibility (1/GPa) = 0.02251554
#
# Stress axis : x y z
#
# Youngs Moduli (GPa) = 66.81041 88.83033 91.78769
#
# Poissons Ratio (x) = 0.29206 0.24015
# Poissons Ratio (y) = 0.21966 0.12832
# Poissons Ratio (z) = 0.17480 0.12418
#
# Static dielectric constant tensor:
#      x y z
#    x 3.850750 0.000000 -0.085370 
#    y 0.000000 4.975910 0.000000 
#    z -0.085370 0.000000 4.224750 
# 
# 
# High freq. dielectric constant tensor:
#      x y z
#    x 1.852800 0.000000 0.005390 
#    y 0.000000 1.882130 0.000000 
#    z 0.005390 0.000000 1.882320 
# 
# From -- ./inp_files/247885.got.cif
#   From: 2010.06.25/outbox.cif.g09.slc.cpg/sg15_124_cif.got.tgz:247885.got - 2010.06.28 07:06:18.
