data_PCOD8139262
_publ_section_title
;
Structure prediction by ZEFSAII (Michael W. Deem and Ramdas Pophale) SiO2 
 PCOD8139262
Probable space group: C 2/C
;
_chemical_formula_sum "Si O2"
_cell_formula_units_Z 48
_cell_length_a 11.959308
_cell_length_b 13.451179
_cell_length_c 15.289730
_cell_angle_alpha 90.000000
_cell_angle_beta 90.497444
_cell_angle_gamma 90.000000
_cell_volume 2459.517126
_symmetry_space_group_name_H-M "C 2/C"
_symmetry_group_IT_number 15
_symmetry_cell_setting 'monoclinic'
loop_
_space_group_symop_operation_xyz
x,y,z
-x,y,1/2-z
-x,-y,-z
x,-y,1/2+z
1/2+x,1/2+y,z
1/2-x,1/2+y,1/2-z
1/2-x,1/2-y,-z
1/2+x,1/2-y,1/2+z
loop_
_atom_site_type_symbol
_atom_site_label
_atom_site_fract_x
_atom_site_fract_y
_atom_site_fract_z
Si Si1 0.503920 0.310578 0.348288
Si Si2 0.575691 0.486821 0.914360
Si Si3 0.469232 0.155442 0.013436
Si Si4 0.178667 0.526552 0.011845
Si Si5 0.244955 0.808529 0.091317
Si Si6 0.452960 0.724487 0.155696
O O1 0.500000 0.269927 0.250000
O O2 0.564563 0.417061 0.352622
O O3 0.566932 0.233618 0.412304
O O4 0.379343 0.320851 0.380212
O O5 0.707942 0.470864 0.930831
O O6 0.527337 0.391499 0.863296
O O7 0.500000 0.500000 0.000000
O O8 0.575947 0.092453 0.051013
O O9 0.493192 0.209880 0.921641
O O10 0.361281 0.085865 0.000840
O O11 0.207623 0.579191 0.919734
O O12 0.320675 0.749135 0.160939
O O13 0.250000 0.750000 0.000000
O O14 0.500000 0.754573 0.250000
#
# Coordination Sequence:
#
# PCOD8139262 Si02
#       6
#     8   8   8   8   8   8
#     4  12  24  39  61  95 126 163 207 260 315 370
#     4  12  20  39  62  88 124 165 211 254 311 376
#     4  10  21  42  62  91 124 160 210 261 312 362
#     4  10  20  38  70  85 116 172 210 248 313 371
#     4  11  18  43  68  82 121 179 204 241 315 386
#     4  11  22  39  66  90 120 167 216 251 304 379
#
# _framework density 19.516026
#
# number of rings (size 3 to 8) (size 9 to 14) (size 15 to 20)
#    0.000    1.000    8.333    0.500    0.000    2.000 
#    3.000    9.167    0.000    0.000    0.000    0.000 
#    0.000    0.000    0.000    0.000    0.000    0.000 
#
# Total GULP energy -297473.521179 kJ/mol
# GULP energy per Si atom -12394.730049 kJ/mol
# Density = 1.947161 g / cm^3
# Si number density = 19.516026 Si / 1000 Ang^3
#
#
#
# Elastic Constant Matrix: (Units=GPa)
#
#
# Indices 1 2 3 4 5 6 
#
# 1 77.9871 29.6479 26.4368 0.0000 12.1809 0.0000
# 2 29.6479 137.8034 49.6640 0.0000 4.7995 0.0000
# 3 26.4368 49.6640 119.5348 0.0000 15.8166 0.0000
# 4 0.0000 0.0000 0.0000 13.7204 0.0000 6.6498
# 5 12.1809 4.7995 15.8166 0.0000 27.9279 0.0000
# 6 0.0000 0.0000 0.0000 6.6498 0.0000 33.2159
#
#
#
# Elastic Compliance Matrix: (Units=1/GPa)
#
#
# Indices 1 2 3 4 5 6 
#
# 1 0.015139 -0.002491 -0.001617 0.000000 -0.005259 0.000000
# 2 -0.002491 0.008953 -0.003361 0.000000 0.001451 0.000000
# 3 -0.001617 -0.003361 0.010756 0.000000 -0.004809 0.000000
# 4 0.000000 0.000000 0.000000 0.080716 0.000000 -0.016159
# 5 -0.005259 0.001451 -0.004809 0.000000 0.040574 0.000000
# 6 0.000000 0.000000 0.000000 -0.016159 0.000000 0.033341
#
#
# Mechanical properties :
#
#
# Convention : Reuss Voigt Hill
#
# Bulk Modulus (GPa) = 50.22646 60.75806 55.49226
# Shear Modulus (GPa) = 23.69039 30.27794 26.98417
#
# Velocity S-wave (km/s) = 3.48788 3.94311 3.72246
# Velocity P-wave (km/s) = 6.48169 7.20630 6.85358
#
# Compressibility (1/GPa) = 0.01990982
#
# Stress axis : x y z
#
# Youngs Moduli (GPa) = 66.05306 111.68903 92.96989
#
# Poissons Ratio (x) = 0.27823 0.15037
# Poissons Ratio (y) = 0.16454 0.31248
# Poissons Ratio (z) = 0.10684 0.37539
#
# Static dielectric constant tensor:
#      x y z
#    x 3.682330 0.000000 0.232180 
#    y 0.000000 3.938920 0.000000 
#    z 0.232180 0.000000 3.155080 
# 
# 
# High freq. dielectric constant tensor:
#      x y z
#    x 1.762910 0.000000 0.011650 
#    y 0.000000 1.779120 0.000000 
#    z 0.011650 0.000000 1.727370 
# 
# From -- ./inp_files/143736.got.cif
#   From: 2010.06.25/outbox.cif.g09.slc.cpg/sg15_72_cif.got.tgz:143736.got - 2010.06.28 07:06:18.
