data_PCOD8139387
_publ_section_title
;
Structure prediction by ZEFSAII (Michael W. Deem and Ramdas Pophale) SiO2 
 PCOD8139387
Probable space group: C 2/C
;
_chemical_formula_sum "Si O2"
_cell_formula_units_Z 64
_cell_length_a 28.389327
_cell_length_b 18.759284
_cell_length_c 13.262899
_cell_angle_alpha 90.000000
_cell_angle_beta 152.076840
_cell_angle_gamma 90.000000
_cell_volume 3307.668132
_symmetry_space_group_name_H-M "C 2/C"
_symmetry_group_IT_number 15
_symmetry_cell_setting 'monoclinic'
loop_
_space_group_symop_operation_xyz
x,y,z
-x,y,1/2-z
-x,-y,-z
x,-y,1/2+z
1/2+x,1/2+y,z
1/2-x,1/2+y,1/2-z
1/2-x,1/2-y,-z
1/2+x,1/2-y,1/2+z
loop_
_atom_site_type_symbol
_atom_site_label
_atom_site_fract_x
_atom_site_fract_y
_atom_site_fract_z
Si Si1 0.829219 0.312851 0.868237
Si Si2 0.989484 0.056750 0.346796
Si Si3 0.142370 0.449700 0.279022
Si Si4 0.314812 0.312075 0.073577
Si Si5 0.049947 0.543213 0.947072
Si Si6 0.669621 0.800831 0.393695
Si Si7 0.973953 0.214676 0.022045
Si Si8 0.333309 0.529616 0.675669
O O1 0.717770 0.313378 0.605626
O O2 0.891786 0.383019 0.957731
O O3 0.809007 0.313402 0.948173
O O4 0.891784 0.243321 0.948409
O O5 0.000000 0.043763 0.250000
O O6 0.977904 0.140405 0.350265
O O7 0.092675 0.027031 0.589232
O O8 0.891974 0.011576 0.196840
O O9 0.181974 0.369641 0.346475
O O10 0.228515 0.491439 0.503747
O O11 0.038803 0.445205 0.142561
O O12 0.125905 0.484118 0.136933
O O13 0.429031 0.293952 0.322959
O O14 0.296460 0.390887 0.081456
O O15 0.250000 0.250000 0.000000
O O16 0.000000 0.514535 0.750000
O O17 0.750000 0.750000 0.500000
O O18 0.558124 0.772984 0.169748
#
# Coordination Sequence:
#
# PCOD8139387 Si02
#       8
#     8   8   8   8   8   8   8   8
#     4  11  19  40  65  86 116 166 215 239 315 388
#     4  10  21  36  59  83 117 163 199 249 312 369
#     4  11  23  37  62  91 127 156 207 267 303 368
#     4   9  20  36  64  87 112 158 208 255 301 377
#     4  11  21  38  62  92 118 168 209 250 316 380
#     4  12  24  38  61  93 128 166 206 263 313 368
#     4  10  20  39  61  87 118 161 208 253 303 376
#     4  10  21  38  54  87 122 150 202 257 308 361
#
# _framework density 19.348977999999999
#
# number of rings (size 3 to 8) (size 9 to 14) (size 15 to 20)
#    0.000    1.500    3.750    1.875    0.000    2.000 
#    0.000    4.375    0.000    0.000    0.000    0.875 
#    0.000    0.000    0.000    0.000    0.000    0.000 
#
# Total GULP energy -396526.754664 kJ/mol
# GULP energy per Si atom -12391.461083 kJ/mol
# Density = 1.930494 g / cm^3
# Si number density = 19.348978 Si / 1000 Ang^3
#
#
#
# Elastic Constant Matrix: (Units=GPa)
#
#
# Indices 1 2 3 4 5 6 
#
# 1 73.4730 46.4293 49.2418 0.0000 -13.4769 0.0000
# 2 46.4293 136.3452 47.4019 0.0000 -14.8599 0.0000
# 3 49.2418 47.4019 107.5175 0.0000 -27.8446 0.0000
# 4 0.0000 0.0000 0.0000 33.6184 0.0000 2.4436
# 5 -13.4769 -14.8599 -27.8446 0.0000 16.1173 0.0000
# 6 0.0000 0.0000 0.0000 2.4436 0.0000 24.8054
#
#
#
# Elastic Compliance Matrix: (Units=1/GPa)
#
#
# Indices 1 2 3 4 5 6 
#
# 1 0.021918 -0.004684 -0.007864 0.000000 0.000424 0.000000
# 2 -0.004684 0.009719 -0.001508 0.000000 0.002439 0.000000
# 3 -0.007864 -0.001508 0.020819 0.000000 0.028001 0.000000
# 4 0.000000 0.000000 0.000000 0.029960 0.000000 -0.002951
# 5 0.000424 0.002439 0.028001 0.000000 0.113023 0.000000
# 6 0.000000 0.000000 0.000000 -0.002951 0.000000 0.040605
#
#
# Mechanical properties :
#
#
# Convention : Reuss Voigt Hill
#
# Bulk Modulus (GPa) = 41.07583 67.05351 54.06467
# Shear Modulus (GPa) = 18.36407 26.52574 22.44490
#
# Velocity S-wave (km/s) = 3.08408 3.70660 3.40958
# Velocity P-wave (km/s) = 5.82727 7.28344 6.59567
#
# Compressibility (1/GPa) = 0.02434522
#
# Stress axis : x y z
#
# Youngs Moduli (GPa) = 45.62451 102.88641 48.03330
#
# Poissons Ratio (x) = 0.48188 0.37771
# Poissons Ratio (y) = 0.21369 0.07245
# Poissons Ratio (z) = 0.35877 0.15519
#
# Static dielectric constant tensor:
#      x y z
#    x 6.115070 0.000000 -1.143620 
#    y 0.000000 3.916500 0.000000 
#    z -1.143620 0.000000 4.469550 
# 
# 
# High freq. dielectric constant tensor:
#      x y z
#    x 1.713390 0.000000 -0.004850 
#    y 0.000000 1.770320 0.000000 
#    z -0.004850 0.000000 1.778460 
# 
# From -- ./inp_files/124288.got.cif
#   From: 2010.06.25/outbox.cif.g09.slc.cpg/sg15_63_cif.got.tgz:124288.got - 2010.06.28 07:06:18.
