data_PCOD8139288
_publ_section_title
;
Structure prediction by ZEFSAII (Michael W. Deem and Ramdas Pophale) SiO2 
 PCOD8139288
Probable space group: C 2/C
;
_chemical_formula_sum "Si O2"
_cell_formula_units_Z 64
_cell_length_a 22.843786
_cell_length_b 18.158963
_cell_length_c 12.332398
_cell_angle_alpha 90.000000
_cell_angle_beta 137.754373
_cell_angle_gamma 90.000000
_cell_volume 3439.350448
_symmetry_space_group_name_H-M "C 2/C"
_symmetry_group_IT_number 15
_symmetry_cell_setting 'monoclinic'
loop_
_space_group_symop_operation_xyz
x,y,z
-x,y,1/2-z
-x,-y,-z
x,-y,1/2+z
1/2+x,1/2+y,z
1/2-x,1/2+y,1/2-z
1/2-x,1/2-y,-z
1/2+x,1/2-y,1/2+z
loop_
_atom_site_type_symbol
_atom_site_label
_atom_site_fract_x
_atom_site_fract_y
_atom_site_fract_z
Si Si1 0.564082 0.394731 0.070821
Si Si2 0.584190 0.129328 0.919697
Si Si3 0.007249 0.593663 0.131053
Si Si4 0.630873 0.011340 0.153546
Si Si5 0.502920 0.768830 0.479259
Si Si6 0.319203 0.195512 0.641948
Si Si7 0.435178 0.486258 0.757587
Si Si8 0.206174 0.924539 0.086761
O O1 0.587850 0.437023 0.214561
O O2 0.646107 0.404032 0.105217
O O3 0.542983 0.309706 0.066845
O O4 0.477985 0.429487 0.900078
O O5 0.500000 0.090483 0.750000
O O6 0.553059 0.202697 0.940621
O O7 0.651374 0.146206 0.918048
O O8 0.629370 0.073060 0.060749
O O9 0.000000 0.595684 0.250000
O O10 0.089151 0.542687 0.207954
O O11 0.921014 0.561345 0.955629
O O12 0.018900 0.676414 0.102050
O O13 0.732518 0.994639 0.306900
O O14 0.399991 0.763119 0.310383
O O15 0.250000 0.250000 0.500000
O O16 0.269409 0.144416 0.658264
O O17 0.500000 0.507123 0.750000
O O18 0.350039 0.445192 0.595887
#
# Coordination Sequence:
#
# PCOD8139288 Si02
#       8
#     8   8   8   8   8   8   8   8
#     4  10  21  39  63  78 118 155 193 244 286 350
#     4   9  20  35  58  80 115 156 188 236 295 349
#     4  10  21  36  60  84 120 159 191 234 293 364
#     4  10  21  36  56  89 119 147 199 239 290 360
#     4  10  20  39  55  84 114 158 196 230 296 362
#     4  11  21  34  56  89 115 145 195 249 301 347
#     4   9  21  40  59  86 107 152 203 238 291 340
#     4  11  22  35  58  90 115 144 193 252 294 338
#
# _framework density 18.608165
#
# number of rings (size 3 to 8) (size 9 to 14) (size 15 to 20)
#    0.000    2.000    1.250    1.875    5.250    4.000 
#    2.250    0.000    0.000    2.250    0.000    0.000 
#    0.000    0.000    0.000    0.000    0.000    0.000 
#
# Total GULP energy -396809.135570 kJ/mol
# GULP energy per Si atom -12400.285487 kJ/mol
# Density = 1.856581 g / cm^3
# Si number density = 18.608165 Si / 1000 Ang^3
#
#
#
# Elastic Constant Matrix: (Units=GPa)
#
#
# Indices 1 2 3 4 5 6 
#
# 1 94.6892 43.6325 44.0670 0.0000 0.1981 0.0000
# 2 43.6325 104.7121 33.0792 0.0000 2.7481 0.0000
# 3 44.0670 33.0792 68.3754 0.0000 5.3082 0.0000
# 4 0.0000 0.0000 0.0000 26.9535 0.0000 -1.7042
# 5 0.1981 2.7481 5.3082 0.0000 37.0078 0.0000
# 6 0.0000 0.0000 0.0000 -1.7042 0.0000 -11.0801
#
#
#
# Elastic Compliance Matrix: (Units=1/GPa)
#
#
# Indices 1 2 3 4 5 6 
#
# 1 0.016561 -0.004169 -0.008771 0.000000 0.001479 0.000000
# 2 -0.004169 0.012322 -0.003242 0.000000 -0.000428 0.000000
# 3 -0.008771 -0.003242 0.022070 0.000000 -0.002878 0.000000
# 4 0.000000 0.000000 0.000000 0.036744 0.000000 -0.005651
# 5 0.001479 -0.000428 -0.002878 0.000000 0.027458 0.000000
# 6 0.000000 0.000000 0.000000 -0.005651 0.000000 -0.089383
#
#
# Mechanical properties :
#
#
# Convention : Reuss Voigt Hill
#
# Bulk Modulus (GPa) = 53.79267 56.59269 55.19268
# Shear Modulus (GPa) = 77.72365 20.37611 49.04988
#
# Velocity S-wave (km/s) = 6.46987 3.31268 5.13970
# Velocity P-wave (km/s) = 9.20778 6.71645 8.05897
#
# Compressibility (1/GPa) = 0.01858989
#
# Stress axis : x y z
#
# Youngs Moduli (GPa) = 60.38411 81.15396 45.31097
#
# Poissons Ratio (x) = 0.33830 0.39743
# Poissons Ratio (y) = 0.25172 0.14688
# Poissons Ratio (z) = 0.52964 0.26307
#
# Static dielectric constant tensor:
#      x y z
#    x 3.499560 0.000000 0.076710 
#    y 0.000000 3.374400 0.000000 
#    z 0.076710 0.000000 3.413560 
# 
# 
# High freq. dielectric constant tensor:
#      x y z
#    x 1.729900 0.000000 0.001830 
#    y 0.000000 1.719500 0.000000 
#    z 0.001830 0.000000 1.713090 
# 
# From -- ./inp_files/113683.got.cif
#   From: 2010.06.25/outbox.cif.g09.slc.cpg/sg15_57_cif.got.tgz:113683.got - 2010.06.28 07:06:18.
