data_PCOD8139195
_publ_section_title
;
Structure prediction by ZEFSAII (Michael W. Deem and Ramdas Pophale) SiO2 
 PCOD8139195
Probable space group: C 2/C
;
_chemical_formula_sum "Si O2"
_cell_formula_units_Z 48
_cell_length_a 28.607610
_cell_length_b 8.692651
_cell_length_c 14.786909
_cell_angle_alpha 90.000000
_cell_angle_beta 37.743889
_cell_angle_gamma 90.000000
_cell_volume 2250.904002
_symmetry_space_group_name_H-M "C 2/C"
_symmetry_group_IT_number 15
_symmetry_cell_setting 'monoclinic'
loop_
_space_group_symop_operation_xyz
x,y,z
-x,y,1/2-z
-x,-y,-z
x,-y,1/2+z
1/2+x,1/2+y,z
1/2-x,1/2+y,1/2-z
1/2-x,1/2-y,-z
1/2+x,1/2-y,1/2+z
loop_
_atom_site_type_symbol
_atom_site_label
_atom_site_fract_x
_atom_site_fract_y
_atom_site_fract_z
Si Si1 0.297809 0.900954 0.949303
Si Si2 0.734378 0.408676 0.386424
Si Si3 0.058115 0.135113 0.420226
Si Si4 0.960149 0.743932 0.219424
Si Si5 0.569603 0.600719 0.206068
Si Si6 0.220704 0.926240 0.727506
O O1 0.387852 0.864329 0.809277
O O2 0.278740 0.032349 0.906212
O O3 0.250000 0.750000 0.000000
O O4 0.273613 0.968316 0.083254
O O5 0.647292 0.362174 0.536446
O O6 0.773955 0.254781 0.293885
O O7 0.741739 0.537657 0.298360
O O8 0.070836 0.197780 0.298382
O O9 0.131474 0.045394 0.347019
O O10 0.022802 0.264287 0.541898
O O11 0.000000 0.000000 0.500000
O O12 0.000000 0.683988 0.250000
O O13 0.932025 0.918321 0.274485
O O14 0.500000 0.656923 0.250000
#
# Coordination Sequence:
#
# PCOD8139195 Si02
#       6
#     8   8   8   8   8   8
#     4  12  23  43  69 103 138 178 225 284 344 407
#     4  12  25  43  68 102 134 177 228 283 339 412
#     4  10  20  39  66  96 129 179 228 271 329 419
#     4  10  21  38  69  97 136 178 226 274 343 410
#     4  10  20  38  66  97 132 177 230 271 329 414
#     4  12  26  42  72  98 138 178 232 279 344 407
#
# _framework density 21.324763999999998
#
# number of rings (size 3 to 8) (size 9 to 14) (size 15 to 20)
#    0.000    1.000    3.333    5.500    2.333    1.333 
#    0.000    1.667    3.667    0.000    0.000    0.000 
#    0.000    0.000    0.000    0.000    0.000    0.000 
#
# Total GULP energy -297597.584111 kJ/mol
# GULP energy per Si atom -12399.899338 kJ/mol
# Density = 2.127623 g / cm^3
# Si number density = 21.324764 Si / 1000 Ang^3
#
#
#
# Elastic Constant Matrix: (Units=GPa)
#
#
# Indices 1 2 3 4 5 6 
#
# 1 118.8600 14.6698 52.0201 0.0001 4.5385 -0.0001
# 2 14.6698 53.7337 24.6363 -0.0004 -5.2255 0.0003
# 3 52.0201 24.6363 125.0016 0.0001 13.2250 0.0000
# 4 0.0001 -0.0004 0.0001 37.0169 -0.0001 3.0041
# 5 4.5385 -5.2255 13.2250 -0.0001 38.8772 0.0000
# 6 -0.0001 0.0003 0.0000 3.0041 0.0000 17.6526
#
#
#
# Elastic Compliance Matrix: (Units=1/GPa)
#
#
# Indices 1 2 3 4 5 6 
#
# 1 0.010329 -0.000922 -0.004125 0.000000 0.000073 0.000000
# 2 -0.000922 0.021250 -0.004272 0.000000 0.004417 0.000000
# 3 -0.004125 -0.004272 0.010963 0.000000 -0.003822 0.000000
# 4 0.000000 0.000000 0.000000 0.027393 0.000000 -0.004662
# 5 0.000073 0.004417 -0.003822 0.000000 0.027607 0.000000
# 6 0.000000 0.000000 0.000000 -0.004662 0.000000 0.057442
#
#
# Mechanical properties :
#
#
# Convention : Reuss Voigt Hill
#
# Bulk Modulus (GPa) = 41.83131 53.36085 47.59608
# Shear Modulus (GPa) = 27.53453 32.46059 29.99756
#
# Velocity S-wave (km/s) = 3.59722 3.90577 3.75467
# Velocity P-wave (km/s) = 6.07555 6.73924 6.41598
#
# Compressibility (1/GPa) = 0.02390554
#
# Stress axis : x y z
#
# Youngs Moduli (GPa) = 96.81055 47.05859 91.21820
#
# Poissons Ratio (x) = 0.04338 0.37625
# Poissons Ratio (y) = 0.08923 0.38967
# Poissons Ratio (z) = 0.39932 0.20103
#
# Static dielectric constant tensor:
#      x y z
#    x -1.695250 0.000010 -7.159780 
#    y 0.000010 3.460100 0.000010 
#    z -7.159780 0.000010 -4.409750 
# 
# 
# High freq. dielectric constant tensor:
#      x y z
#    x 1.853400 0.000000 0.003300 
#    y 0.000000 1.799300 0.000000 
#    z 0.003300 0.000000 1.855380 
# 
# From -- ./inp_files/180712.got.cif
#   From: 2010.06.25/outbox.cif.g09.slc.cpg/sg15_91_cif.got.tgz:180712.got - 2010.06.28 07:06:18.
