data_PCOD8139470
_publ_section_title
;
Structure prediction by ZEFSAII (Michael W. Deem and Ramdas Pophale) SiO2 
 PCOD8139470
Probable space group: C 2/C
;
_chemical_formula_sum "Si O2"
_cell_formula_units_Z 64
_cell_length_a 22.126707
_cell_length_b 7.548715
_cell_length_c 17.643635
_cell_angle_alpha 90.000000
_cell_angle_beta 91.196491
_cell_angle_gamma 90.000000
_cell_volume 2946.342136
_symmetry_space_group_name_H-M "C 2/C"
_symmetry_group_IT_number 15
_symmetry_cell_setting 'monoclinic'
loop_
_space_group_symop_operation_xyz
x,y,z
-x,y,1/2-z
-x,-y,-z
x,-y,1/2+z
1/2+x,1/2+y,z
1/2-x,1/2+y,1/2-z
1/2-x,1/2-y,-z
1/2+x,1/2-y,1/2+z
loop_
_atom_site_type_symbol
_atom_site_label
_atom_site_fract_x
_atom_site_fract_y
_atom_site_fract_z
Si Si1 0.422963 0.733515 0.439685
Si Si2 0.100849 0.031594 0.300998
Si Si3 0.019767 0.640977 0.832365
Si Si4 0.206144 0.638496 0.551169
Si Si5 0.553157 0.214699 0.386007
Si Si6 0.790633 0.118388 0.106680
Si Si7 0.927761 0.115864 0.863667
Si Si8 0.822899 0.743336 0.455506
O O1 0.461267 0.858855 0.385038
O O2 0.350880 0.748759 0.420431
O O3 0.441283 0.781502 0.524478
O O4 0.442185 0.531629 0.426642
O O5 0.164597 0.131549 0.320374
O O6 0.048666 0.163329 0.328738
O O7 0.100631 0.849987 0.349465
O O8 0.093229 0.986415 0.212932
O O9 0.000000 0.577045 0.750000
O O10 0.066080 0.488916 0.862374
O O11 0.250000 0.750000 0.500000
O O12 0.252111 0.564572 0.617120
O O13 0.177416 0.459780 0.511869
O O14 0.486871 0.266285 0.352359
O O15 0.740716 0.275944 0.093134
O O16 0.828717 0.121608 0.027165
O O17 0.875795 0.240250 0.895678
#
# Coordination Sequence:
#
# PCOD8139470 Si02
#       8
#     8   8   8   8   8   8   8   8
#     4  12  25  41  70 104 133 179 229 291 338 416
#     4  12  24  46  67  97 139 181 223 284 348 409
#     4  12  25  45  64 104 138 176 222 282 356 413
#     4  10  20  39  63 100 136 168 226 287 335 398
#     4  12  26  41  72  99 133 179 227 278 348 417
#     4   9  22  42  68  93 132 178 224 282 343 400
#     4  12  23  44  66  94 142 181 220 286 350 407
#     4   9  21  40  67  93 132 176 225 275 341 402
#
# _framework density 21.721848000000001
#
# number of rings (size 3 to 8) (size 9 to 14) (size 15 to 20)
#    0.750    0.250    2.500    4.875    3.500    0.000 
#    2.250    0.000    0.000    0.000    0.000    0.000 
#    0.000    0.000    0.000    0.000    0.000    0.000 
#
# Total GULP energy -396425.684467 kJ/mol
# GULP energy per Si atom -12388.302640 kJ/mol
# Density = 2.167241 g / cm^3
# Si number density = 21.721848 Si / 1000 Ang^3
#
#
#
# Elastic Constant Matrix: (Units=GPa)
#
#
# Indices 1 2 3 4 5 6 
#
# 1 78.1221 11.0697 23.3787 0.0000 10.2643 0.0000
# 2 11.0697 96.5429 28.3146 0.0000 -13.5914 0.0000
# 3 23.3787 28.3146 102.0127 0.0000 11.5239 0.0000
# 4 0.0000 0.0000 0.0000 21.2011 0.0000 -0.4271
# 5 10.2643 -13.5914 11.5239 0.0000 27.5478 0.0000
# 6 0.0000 0.0000 0.0000 -0.4271 0.0000 29.6023
#
#
#
# Elastic Compliance Matrix: (Units=1/GPa)
#
#
# Indices 1 2 3 4 5 6 
#
# 1 0.014409 -0.001748 -0.002218 0.000000 -0.005304 0.000000
# 2 -0.001748 0.013042 -0.004219 0.000000 0.008851 0.000000
# 3 -0.002218 -0.004219 0.012200 0.000000 -0.006359 0.000000
# 4 0.000000 0.000000 0.000000 0.047181 0.000000 0.000681
# 5 -0.005304 0.008851 -0.006359 0.000000 0.045304 0.000000
# 6 0.000000 0.000000 0.000000 0.000681 0.000000 0.033791
#
#
# Mechanical properties :
#
#
# Convention : Reuss Voigt Hill
#
# Bulk Modulus (GPa) = 42.95399 44.68930 43.82164
# Shear Modulus (GPa) = 26.30784 29.93122 28.11953
#
# Velocity S-wave (km/s) = 3.48390 3.71608 3.60186
# Velocity P-wave (km/s) = 6.00007 6.24743 6.12500
#
# Compressibility (1/GPa) = 0.02328073
#
# Stress axis : x y z
#
# Youngs Moduli (GPa) = 69.40247 76.67529 81.96485
#
# Poissons Ratio (x) = 0.13405 0.18178
# Poissons Ratio (y) = 0.12134 0.34582
# Poissons Ratio (z) = 0.15392 0.32350
#
# Static dielectric constant tensor:
#      x y z
#    x 4.051170 0.000000 -0.046270 
#    y 0.000000 3.980540 0.000000 
#    z -0.046270 0.000000 3.614570 
# 
# 
# High freq. dielectric constant tensor:
#      x y z
#    x 1.855170 0.000000 -0.002160 
#    y 0.000000 1.857670 0.000000 
#    z -0.002160 0.000000 1.826680 
# 
# From -- ./inp_files/172405.got.cif
#   From: 2010.06.25/outbox.cif.g09.slc.cpg/sg15_87_cif.got.tgz:172405.got - 2010.06.28 07:06:18.
