data_PCOD8139245
_publ_section_title
;
Structure prediction by ZEFSAII (Michael W. Deem and Ramdas Pophale) SiO2 
 PCOD8139245
Probable space group: C 2/C
;
_chemical_formula_sum "Si O2"
_cell_formula_units_Z 56
_cell_length_a 28.072146
_cell_length_b 6.377437
_cell_length_c 16.413189
_cell_angle_alpha 90.000000
_cell_angle_beta 110.825169
_cell_angle_gamma 90.000000
_cell_volume 2746.457458
_symmetry_space_group_name_H-M "C 2/C"
_symmetry_group_IT_number 15
_symmetry_cell_setting 'monoclinic'
loop_
_space_group_symop_operation_xyz
x,y,z
-x,y,1/2-z
-x,-y,-z
x,-y,1/2+z
1/2+x,1/2+y,z
1/2-x,1/2+y,1/2-z
1/2-x,1/2-y,-z
1/2+x,1/2-y,1/2+z
loop_
_atom_site_type_symbol
_atom_site_label
_atom_site_fract_x
_atom_site_fract_y
_atom_site_fract_z
Si Si1 0.351009 0.490365 0.234144
Si Si2 0.715194 0.872765 0.329402
Si Si3 0.307660 0.791801 0.563090
Si Si4 0.532118 0.186457 0.983866
Si Si5 0.617747 0.113323 0.534205
Si Si6 0.058151 0.937551 0.611936
Si Si7 0.806906 0.665190 0.323340
O O1 0.329440 0.722111 0.225878
O O2 0.331649 0.375125 0.141062
O O3 0.411972 0.525863 0.284151
O O4 0.335232 0.366502 0.305479
O O5 0.767766 0.740992 0.370217
O O6 0.696283 0.976540 0.401430
O O7 0.725240 0.052761 0.268030
O O8 0.250000 0.750000 0.500000
O O9 0.347306 0.784731 0.513750
O O10 0.496242 0.323322 0.900825
O O11 0.549434 0.334896 0.068139
O O12 0.500000 0.000000 0.000000
O O13 0.580829 0.068275 0.972789
O O14 0.588109 0.296868 0.563232
O O15 0.653713 0.000969 0.620219
#
# Coordination Sequence:
#
# PCOD8139245 Si02
#       7
#     8   8   8   8   8   8   8
#     4  11  22  39  62  88 120 167 212 263 314 375
#     4  11  23  39  58  88 125 163 214 262 302 377
#     4  11  28  40  55  93 137 173 210 257 327 396
#     4   9  20  37  65  96 119 148 209 270 320 372
#     4  11  22  39  61  91 127 162 205 263 320 382
#     4  10  20  38  68  95 114 158 217 264 313 379
#     4  11  21  34  62  90 115 165 216 251 305 372
#
# _framework density 20.389901999999999
#
# number of rings (size 3 to 8) (size 9 to 14) (size 15 to 20)
#    0.000    1.429    4.286    0.857    4.000    3.429 
#    0.000    0.000    0.000   20.571    0.000    0.000 
#    0.000    0.000    0.000    0.000    0.000    0.000 
#
# Total GULP energy -346928.958029 kJ/mol
# GULP energy per Si atom -12390.319930 kJ/mol
# Density = 2.034349 g / cm^3
# Si number density = 20.389902 Si / 1000 Ang^3
#
#
#
# Elastic Constant Matrix: (Units=GPa)
#
#
# Indices 1 2 3 4 5 6 
#
# 1 81.8601 22.9996 39.0335 0.0000 15.5010 0.0000
# 2 22.9996 100.9261 33.5367 0.0000 9.6311 0.0000
# 3 39.0335 33.5367 102.0751 0.0000 24.1850 0.0000
# 4 0.0000 0.0000 0.0000 37.6855 0.0000 9.5407
# 5 15.5010 9.6311 24.1850 0.0000 37.5262 0.0000
# 6 0.0000 0.0000 0.0000 9.5407 0.0000 39.7636
#
#
#
# Elastic Compliance Matrix: (Units=1/GPa)
#
#
# Indices 1 2 3 4 5 6 
#
# 1 0.015474 -0.001696 -0.004660 0.000000 -0.002953 0.000000
# 2 -0.001696 0.011319 -0.003007 0.000000 -0.000266 0.000000
# 3 -0.004660 -0.003007 0.014078 0.000000 -0.006376 0.000000
# 4 0.000000 0.000000 0.000000 0.028252 0.000000 -0.006779
# 5 -0.002953 -0.000266 -0.006376 0.000000 0.032045 0.000000
# 6 0.000000 0.000000 0.000000 -0.006779 0.000000 0.026775
#
#
# Mechanical properties :
#
#
# Convention : Reuss Voigt Hill
#
# Bulk Modulus (GPa) = 45.15966 52.88899 49.02433
# Shear Modulus (GPa) = 32.45674 35.61447 34.03561
#
# Velocity S-wave (km/s) = 3.99407 4.18385 4.09006
# Velocity P-wave (km/s) = 6.59290 7.02386 6.81179
#
# Compressibility (1/GPa) = 0.02214365
#
# Stress axis : x y z
#
# Youngs Moduli (GPa) = 64.62528 88.34347 71.03513
#
# Poissons Ratio (x) = 0.14982 0.33105
# Poissons Ratio (y) = 0.10960 0.21363
# Poissons Ratio (z) = 0.30118 0.26568
#
# Static dielectric constant tensor:
#      x y z
#    x 3.886960 0.000000 0.417390 
#    y 0.000000 4.034800 0.000000 
#    z 0.417390 0.000000 3.743250 
# 
# 
# High freq. dielectric constant tensor:
#      x y z
#    x 1.782140 0.000000 0.037380 
#    y 0.000000 1.823830 0.000000 
#    z 0.037380 0.000000 1.777360 
# 
# From -- ./inp_files/223956.got.cif
#   From: 2010.06.25/outbox.cif.g09.slc.cpg/sg15_112_cif.got.tgz:223956.got - 2010.06.28 07:06:18.
