data_PCOD8139458
_publ_section_title
;
Structure prediction by ZEFSAII (Michael W. Deem and Ramdas Pophale) SiO2 
 PCOD8139458
Probable space group: C 2/C
;
_chemical_formula_sum "Si O2"
_cell_formula_units_Z 44
_cell_length_a 20.849999
_cell_length_b 8.813667
_cell_length_c 16.050360
_cell_angle_alpha 90.000000
_cell_angle_beta 133.384219
_cell_angle_gamma 90.000000
_cell_volume 2143.585417
_symmetry_space_group_name_H-M "C 2/C"
_symmetry_group_IT_number 15
_symmetry_cell_setting 'monoclinic'
loop_
_space_group_symop_operation_xyz
x,y,z
-x,y,1/2-z
-x,-y,-z
x,-y,1/2+z
1/2+x,1/2+y,z
1/2-x,1/2+y,1/2-z
1/2-x,1/2-y,-z
1/2+x,1/2-y,1/2+z
loop_
_atom_site_type_symbol
_atom_site_label
_atom_site_fract_x
_atom_site_fract_y
_atom_site_fract_z
Si Si1 0.456573 0.295273 0.075022
Si Si2 0.643618 0.345136 0.158007
Si Si3 0.899137 0.285666 0.223599
Si Si4 0.500000 0.938693 0.750000
Si Si5 0.182094 0.193005 0.188624
Si Si6 0.418349 0.631338 0.078466
O O1 0.555820 0.314265 0.131429
O O2 0.422369 0.449363 0.087243
O O3 0.451596 0.162938 0.138035
O O4 0.392360 0.250629 0.942037
O O5 0.720678 0.233396 0.259265
O O6 0.674342 0.516209 0.200464
O O7 0.628231 0.313757 0.046951
O O8 0.827132 0.284924 0.232350
O O9 0.864749 0.197584 0.110023
O O10 0.924095 0.458448 0.223954
O O11 0.983552 0.196986 0.334200
#
# Coordination Sequence:
#
# PCOD8139458 Si02
#       6
#     8   8   8   4   8   8
#     4  11  21  43  64  89 122 164 200 254 302 366
#     4  11  23  39  64  94 118 166 199 252 304 360
#     4  10  20  39  62  93 118 162 203 248 302 362
#     4  10  24  34  66  92 120 158 204 256 308 340
#     4  11  24  41  65  90 125 158 210 245 304 365
#     4   9  18  39  65  85 117 162 205 234 311 362
#
# _framework density 20.526357000000001
#
# number of rings (size 3 to 8) (size 9 to 14) (size 15 to 20)
#    0.000    1.818    3.636    2.182    2.545    4.364 
#    0.000    0.909    0.000    0.000    0.000    0.000 
#    0.000    0.000    0.000    0.000    0.000    0.000 
#
# Total GULP energy -272825.292663 kJ/mol
# GULP energy per Si atom -12401.149666 kJ/mol
# Density = 2.047964 g / cm^3
# Si number density = 20.526357 Si / 1000 Ang^3
#
#
#
# Elastic Constant Matrix: (Units=GPa)
#
#
# Indices 1 2 3 4 5 6 
#
# 1 40.2696 13.9668 30.2690 0.0000 -6.4093 0.0000
# 2 13.9668 81.8947 30.5687 0.0000 -16.3394 0.0000
# 3 30.2690 30.5687 57.9713 0.0000 -6.8463 0.0000
# 4 0.0000 0.0000 0.0000 28.5908 0.0000 -3.2980
# 5 -6.4093 -16.3394 -6.8463 0.0000 31.6727 0.0000
# 6 0.0000 0.0000 0.0000 -3.2980 0.0000 23.6304
#
#
#
# Elastic Compliance Matrix: (Units=1/GPa)
#
#
# Indices 1 2 3 4 5 6 
#
# 1 0.041598 0.002174 -0.022309 0.000000 0.004717 0.000000
# 2 0.002174 0.016636 -0.009073 0.000000 0.007061 0.000000
# 3 -0.022309 -0.009073 0.033451 0.000000 -0.001965 0.000000
# 4 0.000000 0.000000 0.000000 0.035549 0.000000 0.004961
# 5 0.004717 0.007061 -0.001965 0.000000 0.035745 0.000000
# 6 0.000000 0.000000 0.000000 0.004961 0.000000 0.043011
#
#
# Mechanical properties :
#
#
# Convention : Reuss Voigt Hill
#
# Bulk Modulus (GPa) = 30.05941 36.63832 33.34886
# Shear Modulus (GPa) = 18.14907 23.80087 20.97497
#
# Velocity S-wave (km/s) = 2.97675 3.40888 3.20012
# Velocity P-wave (km/s) = 5.14692 5.77772 5.47142
#
# Compressibility (1/GPa) = 0.03326746
#
# Stress axis : x y z
#
# Youngs Moduli (GPa) = 24.03936 60.11219 29.89447
#
# Poissons Ratio (x) = -0.13069 0.66693
# Poissons Ratio (y) = -0.05226 0.27124
# Poissons Ratio (z) = 0.53631 0.54542
#
# Static dielectric constant tensor:
#      x y z
#    x 3.720590 0.000000 -0.234970 
#    y 0.000000 3.686280 0.000000 
#    z -0.234970 0.000000 3.761470 
# 
# 
# High freq. dielectric constant tensor:
#      x y z
#    x 1.793670 0.000000 -0.013290 
#    y 0.000000 1.803000 0.000000 
#    z -0.013290 0.000000 1.802990 
# 
# From -- ./inp_files/172090.got.cif
#   From: 2010.06.25/outbox.cif.g09.slc.cpg/sg15_87_cif.got.tgz:172090.got - 2010.06.28 07:06:18.
