data_PCOD8139219
_publ_section_title
;
Structure prediction by ZEFSAII (Michael W. Deem and Ramdas Pophale) SiO2 
 PCOD8139219
Probable space group: C 2/C
;
_chemical_formula_sum "Si O2"
_cell_formula_units_Z 36
_cell_length_a 22.557190
_cell_length_b 15.283758
_cell_length_c 13.896704
_cell_angle_alpha 90.000000
_cell_angle_beta 20.744549
_cell_angle_gamma 90.000000
_cell_volume 1696.985188
_symmetry_space_group_name_H-M "C 2/C"
_symmetry_group_IT_number 15
_symmetry_cell_setting 'monoclinic'
loop_
_space_group_symop_operation_xyz
x,y,z
-x,y,1/2-z
-x,-y,-z
x,-y,1/2+z
1/2+x,1/2+y,z
1/2-x,1/2+y,1/2-z
1/2-x,1/2-y,-z
1/2+x,1/2-y,1/2+z
loop_
_atom_site_type_symbol
_atom_site_label
_atom_site_fract_x
_atom_site_fract_y
_atom_site_fract_z
Si Si1 0.056840 0.233063 0.772489
Si Si2 0.000000 0.090432 0.250000
Si Si3 0.904839 0.040218 0.733306
Si Si4 0.048758 0.481588 0.279666
Si Si5 0.358414 0.123281 0.680775
O O1 0.250000 0.250000 0.500000
O O2 0.014636 0.132500 0.859929
O O3 0.000000 0.255591 0.750000
O O4 0.953398 0.290016 0.005100
O O5 0.840036 0.146548 0.528619
O O6 0.079093 0.029161 0.208407
O O7 0.000000 0.000000 0.500000
O O8 0.704497 0.047730 0.023508
O O9 0.087802 0.400565 0.291476
O O10 0.000000 0.441304 0.250000
O O11 0.899229 0.540284 0.550507
#
# Coordination Sequence:
#
# PCOD8139219 Si02
#       5
#     8   4   8   8   8
#     4  12  26  44  72 105 133 176 231 287 334 400
#     4  10  22  42  64  96 130 182 214 278 334 408
#     4  11  23  40  68  96 132 173 223 270 338 402
#     4  10  20  38  67  99 132 180 222 274 336 404
#     4  10  22  40  70  96 137 173 231 278 339 395
#
# _framework density 21.214092999999998
#
# number of rings (size 3 to 8) (size 9 to 14) (size 15 to 20)
#    0.000    1.333    3.333    2.000    3.111    1.778 
#    0.000    4.444    9.778    0.000    0.000    0.000 
#    0.000    0.000    0.000    0.000    0.000    0.000 
#
# Total GULP energy -223164.991425 kJ/mol
# GULP energy per Si atom -12398.055079 kJ/mol
# Density = 2.116581 g / cm^3
# Si number density = 21.214093 Si / 1000 Ang^3
#
#
#
# Elastic Constant Matrix: (Units=GPa)
#
#
# Indices 1 2 3 4 5 6 
#
# 1 142.1263 28.2646 46.7640 0.0001 3.6133 -0.0002
# 2 28.2646 82.2392 44.2003 -0.0001 4.7813 0.0000
# 3 46.7640 44.2003 178.7622 0.0002 -7.9117 0.0002
# 4 0.0001 -0.0001 0.0002 38.2584 0.0003 8.3260
# 5 3.6133 4.7813 -7.9117 0.0003 33.2460 0.0000
# 6 -0.0002 0.0000 0.0002 8.3260 0.0000 21.3446
#
#
#
# Elastic Compliance Matrix: (Units=1/GPa)
#
#
# Indices 1 2 3 4 5 6 
#
# 1 0.007971 -0.001771 -0.001692 0.000000 -0.001014 0.000000
# 2 -0.001771 0.014693 -0.003289 0.000000 -0.002703 0.000000
# 3 -0.001692 -0.003289 0.006952 0.000000 0.002311 0.000000
# 4 0.000000 0.000000 0.000000 0.028563 0.000000 -0.011142
# 5 -0.001014 -0.002703 0.002311 0.000000 0.031128 0.000000
# 6 0.000000 0.000000 0.000000 -0.011142 0.000000 0.051196
#
#
# Mechanical properties :
#
#
# Convention : Reuss Voigt Hill
#
# Bulk Modulus (GPa) = 62.06803 71.28727 66.67765
# Shear Modulus (GPa) = 31.37176 37.49640 34.43408
#
# Velocity S-wave (km/s) = 3.84971 4.20875 4.03323
# Velocity P-wave (km/s) = 7.00584 7.56933 7.29303
#
# Compressibility (1/GPa) = 0.01611135
#
# Stress axis : x y z
#
# Youngs Moduli (GPa) = 125.45873 68.05767 143.83700
#
# Poissons Ratio (x) = 0.12053 0.24339
# Poissons Ratio (y) = 0.22219 0.47314
# Poissons Ratio (z) = 0.21229 0.22387
#
# Static dielectric constant tensor:
#      x y z
#    x 3.940360 -0.000010 -0.091960 
#    y -0.000010 3.494200 0.000010 
#    z -0.091960 0.000010 4.237290 
# 
# 
# High freq. dielectric constant tensor:
#      x y z
#    x 1.840980 0.000000 0.001410 
#    y 0.000000 1.803980 0.000000 
#    z 0.001410 0.000000 1.849920 
# 
# From -- ./inp_files/76344.got.cif
#   From: 2010.06.25/outbox.cif.g09.slc.cpg/sg15_39_cif.got.tgz:76344.got - 2010.06.28 07:06:18.
