data_PCOD8139472
_publ_section_title
;
Structure prediction by ZEFSAII (Michael W. Deem and Ramdas Pophale) SiO2 
 PCOD8139472
Probable space group: C 2/C
;
_chemical_formula_sum "Si O2"
_cell_formula_units_Z 56
_cell_length_a 10.838496
_cell_length_b 28.429999
_cell_length_c 10.065002
_cell_angle_alpha 90.000000
_cell_angle_beta 121.825431
_cell_angle_gamma 90.000000
_cell_volume 2635.143373
_symmetry_space_group_name_H-M "C 2/C"
_symmetry_group_IT_number 15
_symmetry_cell_setting 'monoclinic'
loop_
_space_group_symop_operation_xyz
x,y,z
-x,y,1/2-z
-x,-y,-z
x,-y,1/2+z
1/2+x,1/2+y,z
1/2-x,1/2+y,1/2-z
1/2-x,1/2-y,-z
1/2+x,1/2-y,1/2+z
loop_
_atom_site_type_symbol
_atom_site_label
_atom_site_fract_x
_atom_site_fract_y
_atom_site_fract_z
Si Si1 0.283940 0.340884 0.813923
Si Si2 0.815277 0.682704 0.531955
Si Si3 0.500000 0.891460 0.250000
Si Si4 0.123107 0.966707 0.210127
Si Si5 0.043989 0.931473 0.625589
Si Si6 0.500000 0.118789 0.250000
Si Si7 0.438810 0.947696 0.468709
Si Si8 0.527091 0.273403 0.912915
O O1 0.239218 0.338529 0.635898
O O2 0.369496 0.388803 0.889369
O O3 0.137846 0.345464 0.819243
O O4 0.390134 0.296271 0.916932
O O5 0.687716 0.708143 0.544502
O O6 0.955013 0.716724 0.575651
O O7 0.859803 0.641800 0.657814
O O8 0.504007 0.923853 0.378154
O O9 0.265652 0.947103 0.360715
O O10 0.000000 0.959294 0.250000
O O11 0.143457 0.021889 0.187343
O O12 0.091207 0.940676 0.051620
O O13 0.000000 0.917490 0.750000
O O14 0.509563 0.083552 0.379083
O O15 0.500000 0.000000 0.500000
O O16 0.500000 0.292118 0.750000
#
# Coordination Sequence:
#
# PCOD8139472 Si02
#       8
#     8   8   4   8   8   4   8   8
#     4  11  22  39  63  93 128 178 210 271 331 402
#     4  10  20  39  63 101 127 163 216 278 325 387
#     4  12  25  40  68  96 128 166 226 274 319 396
#     4  10  23  40  59  89 126 168 212 266 317 391
#     4  10  21  37  63  92 122 159 220 269 322 375
#     4  12  25  44  62  92 140 176 222 262 341 406
#     4  12  27  44  65  93 136 179 219 276 331 393
#     4   9  19  36  66  95 130 163 216 273 333 386
#
# _framework density 21.251215999999999
#
# number of rings (size 3 to 8) (size 9 to 14) (size 15 to 20)
#    0.000    1.429    2.143    3.429    4.000    4.571 
#    0.000    0.714    0.000    0.000    0.000    0.000 
#    0.000    0.000    0.000    0.000    0.000    0.000 
#
# Total GULP energy -346936.654769 kJ/mol
# GULP energy per Si atom -12390.594813 kJ/mol
# Density = 2.120285 g / cm^3
# Si number density = 21.251216 Si / 1000 Ang^3
#
#
#
# Elastic Constant Matrix: (Units=GPa)
#
#
# Indices 1 2 3 4 5 6 
#
# 1 99.5330 47.3646 31.5742 0.0000 15.3920 0.0000
# 2 47.3646 110.3212 37.3943 0.0000 10.6412 0.0000
# 3 31.5742 37.3943 90.7791 0.0000 -1.7602 0.0000
# 4 0.0000 0.0000 0.0000 18.0267 0.0000 8.1674
# 5 15.3920 10.6412 -1.7602 0.0000 33.3376 0.0000
# 6 0.0000 0.0000 0.0000 8.1674 0.0000 33.9745
#
#
#
# Elastic Compliance Matrix: (Units=1/GPa)
#
#
# Indices 1 2 3 4 5 6 
#
# 1 0.013949 -0.004428 -0.003129 0.000000 -0.005192 0.000000
# 2 -0.004428 0.012390 -0.003604 0.000000 -0.002101 0.000000
# 3 -0.003129 -0.003604 0.013653 0.000000 0.003316 0.000000
# 4 0.000000 0.000000 0.000000 0.062254 0.000000 -0.014966
# 5 -0.005192 -0.002101 0.003316 0.000000 0.033239 0.000000
# 6 0.000000 0.000000 0.000000 -0.014966 0.000000 0.033032
#
#
# Mechanical properties :
#
#
# Convention : Reuss Voigt Hill
#
# Bulk Modulus (GPa) = 56.59057 59.25551 57.92304
# Shear Modulus (GPa) = 25.41582 29.35445 27.38514
#
# Velocity S-wave (km/s) = 3.46203 3.72063 3.59366
# Velocity P-wave (km/s) = 6.53208 6.81185 6.67343
#
# Compressibility (1/GPa) = 0.01767079
#
# Stress axis : x y z
#
# Youngs Moduli (GPa) = 71.68820 80.71184 73.24420
#
# Poissons Ratio (x) = 0.35736 0.22915
# Poissons Ratio (y) = 0.31741 0.26400
# Poissons Ratio (z) = 0.22428 0.29092
#
# Static dielectric constant tensor:
#      x y z
#    x 3.850960 0.000000 0.350710 
#    y 0.000000 3.992280 0.000000 
#    z 0.350710 0.000000 3.926110 
# 
# 
# High freq. dielectric constant tensor:
#      x y z
#    x 1.810600 0.000000 0.025840 
#    y 0.000000 1.840600 0.000000 
#    z 0.025840 0.000000 1.833380 
# 
# From -- ./inp_files/91873.got.cif
#   From: 2010.06.25/outbox.cif.g09.slc.cpg/sg15_46_cif.got.tgz:91873.got - 2010.06.28 07:06:18.
