data_PCOD8139761
_publ_section_title
;
Structure prediction by ZEFSAII (Michael W. Deem and Ramdas Pophale) SiO2 
 PCOD8139761
Probable space group: C 2/C
;
_chemical_formula_sum "Si O2"
_cell_formula_units_Z 56
_cell_length_a 8.780488
_cell_length_b 31.040315
_cell_length_c 12.479676
_cell_angle_alpha 90.000000
_cell_angle_beta 51.067312
_cell_angle_gamma 90.000000
_cell_volume 2645.838595
_symmetry_space_group_name_H-M "C 2/C"
_symmetry_group_IT_number 15
_symmetry_cell_setting 'monoclinic'
loop_
_space_group_symop_operation_xyz
x,y,z
-x,y,1/2-z
-x,-y,-z
x,-y,1/2+z
1/2+x,1/2+y,z
1/2-x,1/2+y,1/2-z
1/2-x,1/2-y,-z
1/2+x,1/2-y,1/2+z
loop_
_atom_site_type_symbol
_atom_site_label
_atom_site_fract_x
_atom_site_fract_y
_atom_site_fract_z
Si Si1 0.491386 0.286807 0.880471
Si Si2 0.669379 0.551782 0.585560
Si Si3 0.298768 0.145802 0.275742
Si Si4 0.402080 0.439991 0.623328
Si Si5 0.788465 0.537015 0.082260
Si Si6 0.029652 0.385260 0.480935
Si Si7 0.932754 0.692998 0.897689
O O1 0.500000 0.285366 0.750000
O O2 0.689216 0.308715 0.837358
O O3 0.478451 0.238618 0.937950
O O4 0.300705 0.315085 0.996660
O O5 0.500000 0.547818 0.750000
O O6 0.590685 0.540650 0.500904
O O7 0.829120 0.513562 0.539137
O O8 0.770235 0.599338 0.547579
O O9 0.500000 0.146015 0.250000
O O10 0.142536 0.110032 0.380168
O O11 0.360254 0.136038 0.127275
O O12 0.232171 0.457975 0.778436
O O13 0.598908 0.448584 0.599471
O O14 0.952401 0.569795 0.964654
O O15 0.064653 0.347407 0.379961
O O16 0.000000 0.700836 0.750000
#
# Coordination Sequence:
#
# PCOD8139761 Si02
#       7
#     8   8   8   8   8   8   8
#     4  10  20  39  73  92 125 170 213 266 309 388
#     4  12  24  40  59  90 133 167 203 271 337 380
#     4  11  21  39  65  94 122 165 214 260 312 380
#     4  10  21  39  62  91 118 163 217 259 309 386
#     4  10  22  39  66  86 116 170 221 265 311 382
#     4  11  23  41  61  92 125 162 213 265 317 385
#     4  10  22  41  65 102 129 159 215 268 326 377
#
# _framework density 21.165312
#
# number of rings (size 3 to 8) (size 9 to 14) (size 15 to 20)
#    0.000    1.429    4.286    1.714    2.000    2.286 
#    0.000    1.429    0.000    0.000    0.000    0.000 
#    0.000    0.000    0.000    0.000    0.000    0.000 
#
# Total GULP energy -346865.324257 kJ/mol
# GULP energy per Si atom -12388.047295 kJ/mol
# Density = 2.111714 g / cm^3
# Si number density = 21.165312 Si / 1000 Ang^3
#
#
#
# Elastic Constant Matrix: (Units=GPa)
#
#
# Indices 1 2 3 4 5 6 
#
# 1 44.2268 51.0754 13.0849 0.0000 12.5048 0.0000
# 2 51.0754 131.3495 22.1575 0.0000 -0.4706 0.0000
# 3 13.0849 22.1575 78.1596 0.0000 12.3506 0.0000
# 4 0.0000 0.0000 0.0000 25.0251 0.0000 -3.6896
# 5 12.5048 -0.4706 12.3506 0.0000 27.7012 0.0000
# 6 0.0000 0.0000 0.0000 -3.6896 0.0000 42.8220
#
#
#
# Elastic Compliance Matrix: (Units=1/GPa)
#
#
# Indices 1 2 3 4 5 6 
#
# 1 0.053959 -0.021234 0.000960 0.000000 -0.025147 0.000000
# 2 -0.021234 0.016391 -0.002851 0.000000 0.011135 0.000000
# 3 0.000960 -0.002851 0.014543 0.000000 -0.006966 0.000000
# 4 0.000000 0.000000 0.000000 0.040474 0.000000 0.003487
# 5 -0.025147 0.011135 -0.006966 0.000000 0.050746 0.000000
# 6 0.000000 0.000000 0.000000 0.003487 0.000000 0.023653
#
#
# Mechanical properties :
#
#
# Convention : Reuss Voigt Hill
#
# Bulk Modulus (GPa) = 25.87893 47.37461 36.62677
# Shear Modulus (GPa) = 19.31272 30.27088 24.79180
#
# Velocity S-wave (km/s) = 3.02399 3.78592 3.42620
# Velocity P-wave (km/s) = 4.94432 6.44536 5.74408
#
# Compressibility (1/GPa) = 0.03864148
#
# Stress axis : x y z
#
# Youngs Moduli (GPa) = 18.53268 61.00904 68.76317
#
# Poissons Ratio (x) = 1.29546 -0.06600
# Poissons Ratio (y) = 0.39352 0.19607
# Poissons Ratio (z) = -0.01779 0.17396
#
# Static dielectric constant tensor:
#      x y z
#    x 3.295340 0.000000 0.226910 
#    y 0.000000 4.192090 0.000000 
#    z 0.226910 0.000000 3.602440 
# 
# 
# High freq. dielectric constant tensor:
#      x y z
#    x 1.814110 0.000000 -0.006780 
#    y 0.000000 1.840000 0.000000 
#    z -0.006780 0.000000 1.816920 
# 
# From -- ./inp_files/82458.got.cif
#   From: 2010.06.25/outbox.cif.g09.slc.cpg/sg15_42_cif.got.tgz:82458.got - 2010.06.28 07:06:18.
