data_PCOD8139849
_publ_section_title
;
Structure prediction by ZEFSAII (Michael W. Deem and Ramdas Pophale) SiO2 
 PCOD8139849
Probable space group: C 2/C
;
_chemical_formula_sum "Si O2"
_cell_formula_units_Z 40
_cell_length_a 11.293124
_cell_length_b 31.068688
_cell_length_c 5.308432
_cell_angle_alpha 90.000000
_cell_angle_beta 108.306135
_cell_angle_gamma 90.000000
_cell_volume 1768.270774
_symmetry_space_group_name_H-M "C 2/C"
_symmetry_group_IT_number 15
_symmetry_cell_setting 'monoclinic'
loop_
_space_group_symop_operation_xyz
x,y,z
-x,y,1/2-z
-x,-y,-z
x,-y,1/2+z
1/2+x,1/2+y,z
1/2-x,1/2+y,1/2-z
1/2-x,1/2-y,-z
1/2+x,1/2-y,1/2+z
loop_
_atom_site_type_symbol
_atom_site_label
_atom_site_fract_x
_atom_site_fract_y
_atom_site_fract_z
Si Si1 0.641366 0.481912 0.591303
Si Si2 0.599951 0.786078 0.129895
Si Si3 0.270690 0.613114 0.381885
Si Si4 0.000000 0.637618 0.250000
Si Si5 0.673985 0.335612 0.077725
Si Si6 0.000000 0.217913 0.750000
O O1 0.500000 0.500000 0.500000
O O2 0.709665 0.500627 0.388446
O O3 0.652494 0.430755 0.595531
O O4 0.500000 0.765053 0.250000
O O5 0.728849 0.795974 0.353605
O O6 0.544139 0.831910 0.004856
O O7 0.612369 0.749637 0.919686
O O8 0.119739 0.608333 0.247248
O O9 0.298697 0.630921 0.678099
O O10 0.324856 0.643377 0.196962
O O11 0.542493 0.313118 0.049967
#
# Coordination Sequence:
#
# PCOD8139849 Si02
#       6
#     8   8   8   4   8   4
#     4  10  22  41  65  93 124 163 196 241 318 386
#     4  10  20  40  62  83 126 172 215 265 315 363
#     4  11  23  42  67  91 126 164 213 262 305 382
#     4   9  20  40  62  92 116 170 218 260 306 360
#     4  11  25  41  62  96 123 171 217 262 315 363
#     4  11  26  36  58  92 132 168 214 272 316 374
#
# _framework density 22.620971000000001
#
# number of rings (size 3 to 8) (size 9 to 14) (size 15 to 20)
#    0.000    1.600    2.000    1.800    2.800    5.600 
#    0.000    1.000    0.000    0.000    0.000    0.000 
#    0.000    0.000    0.000    0.000    0.000    0.000 
#
# Total GULP energy -247795.592676 kJ/mol
# GULP energy per Si atom -12389.779634 kJ/mol
# Density = 2.256948 g / cm^3
# Si number density = 22.620971 Si / 1000 Ang^3
#
#
#
# Elastic Constant Matrix: (Units=GPa)
#
#
# Indices 1 2 3 4 5 6 
#
# 1 89.3503 45.5584 6.7188 0.0000 -6.1550 0.0000
# 2 45.5584 114.0357 17.6789 0.0000 -0.0660 0.0000
# 3 6.7188 17.6789 81.4322 0.0000 -27.6625 0.0000
# 4 0.0000 0.0000 0.0000 28.2512 0.0000 -2.0643
# 5 -6.1550 -0.0660 -27.6625 0.0000 32.5352 0.0000
# 6 0.0000 0.0000 0.0000 -2.0643 0.0000 22.0355
#
#
#
# Elastic Compliance Matrix: (Units=1/GPa)
#
#
# Indices 1 2 3 4 5 6 
#
# 1 0.014402 -0.005976 0.001449 0.000000 0.003944 0.000000
# 2 -0.005976 0.011682 -0.003401 0.000000 -0.003999 0.000000
# 3 0.001449 -0.003401 0.018265 0.000000 0.015797 0.000000
# 4 0.000000 0.000000 0.000000 0.035641 0.000000 0.003339
# 5 0.003944 -0.003999 0.015797 0.000000 0.044905 0.000000
# 6 0.000000 0.000000 0.000000 0.003339 0.000000 0.045694
#
#
# Mechanical properties :
#
#
# Convention : Reuss Voigt Hill
#
# Bulk Modulus (GPa) = 35.09769 47.19228 41.14498
# Shear Modulus (GPa) = 25.51766 30.88851 28.20309
#
# Velocity S-wave (km/s) = 3.36229 3.69925 3.53479
# Velocity P-wave (km/s) = 5.53377 6.25727 5.90661
#
# Compressibility (1/GPa) = 0.02849191
#
# Stress axis : x y z
#
# Youngs Moduli (GPa) = 69.43611 85.60421 54.74871
#
# Poissons Ratio (x) = 0.51157 -0.07933
# Poissons Ratio (y) = 0.41495 0.18622
# Poissons Ratio (z) = -0.10062 0.29118
#
# Static dielectric constant tensor:
#      x y z
#    x 4.242970 0.000000 -0.376450 
#    y 0.000000 3.843740 0.000000 
#    z -0.376450 0.000000 4.629970 
# 
# 
# High freq. dielectric constant tensor:
#      x y z
#    x 1.879040 0.000000 -0.017120 
#    y 0.000000 1.873690 0.000000 
#    z -0.017120 0.000000 1.904860 
# 
# From -- ./inp_files/4988.got.cif
#   From: 2010.06.25/outbox.cif.g09.slc.cpg/sg15_3_cif.got.tgz:4988.got - 2010.06.28 07:06:18.
