data_PCOD8139755
_publ_section_title
;
Structure prediction by ZEFSAII (Michael W. Deem and Ramdas Pophale) SiO2 
 PCOD8139755
Probable space group: C 2/C
;
_chemical_formula_sum "Si O2"
_cell_formula_units_Z 40
_cell_length_a 11.115259
_cell_length_b 25.535106
_cell_length_c 10.618220
_cell_angle_alpha 90.000000
_cell_angle_beta 29.826853
_cell_angle_gamma 90.000000
_cell_volume 1498.986830
_symmetry_space_group_name_H-M "C 2/C"
_symmetry_group_IT_number 15
_symmetry_cell_setting 'monoclinic'
loop_
_space_group_symop_operation_xyz
x,y,z
-x,y,1/2-z
-x,-y,-z
x,-y,1/2+z
1/2+x,1/2+y,z
1/2-x,1/2+y,1/2-z
1/2-x,1/2-y,-z
1/2+x,1/2-y,1/2+z
loop_
_atom_site_type_symbol
_atom_site_label
_atom_site_fract_x
_atom_site_fract_y
_atom_site_fract_z
Si Si1 0.514462 0.376418 0.437797
Si Si2 0.801947 0.770103 0.591850
Si Si3 0.839838 0.553435 0.514692
Si Si4 0.255303 0.340567 0.033430
Si Si5 0.294446 0.061322 0.101662
O O1 0.313253 0.333299 0.582506
O O2 0.630591 0.402426 0.208084
O O3 0.710274 0.347529 0.349169
O O4 0.405424 0.424870 0.613654
O O5 0.750000 0.750000 0.500000
O O6 0.070994 0.747588 0.388398
O O7 0.738902 0.494642 0.587287
O O8 0.955741 0.557911 0.548645
O O9 0.000000 0.569436 0.250000
O O10 0.000000 0.308250 0.250000
O O11 0.500000 0.314226 0.750000
O O12 0.208686 0.395947 0.005542
#
# Coordination Sequence:
#
# PCOD8139755 Si02
#       5
#     8   8   8   8   8
#     4  11  24  44  75 101 148 205 251 310 399 456
#     4  10  25  48  77 107 149 187 251 326 396 456
#     4  11  24  39  67 107 154 198 259 303 370 459
#     4  10  20  39  70  98 139 198 247 298 364 434
#     4  10  23  42  65 104 154 197 252 311 362 458
#
# _framework density 26.68469
#
# number of rings (size 3 to 8) (size 9 to 14) (size 15 to 20)
#    0.000    1.600    2.000    1.200    5.600    4.000 
#    3.600    0.000    0.000   15.600    0.000    0.000 
#    0.000    0.000    0.000    0.000    0.000    0.000 
#
# Total GULP energy -247768.830942 kJ/mol
# GULP energy per Si atom -12388.441547 kJ/mol
# Density = 2.662395 g / cm^3
# Si number density = 26.684690 Si / 1000 Ang^3
#
#
#
# Elastic Constant Matrix: (Units=GPa)
#
#
# Indices 1 2 3 4 5 6 
#
# 1 84.6062 18.9691 9.1725 0.0000 -6.1964 0.0000
# 2 18.9691 81.5690 46.6060 0.0000 11.0902 0.0000
# 3 9.1725 46.6060 204.0897 -0.0001 -13.6608 0.0000
# 4 0.0000 0.0000 -0.0001 29.6161 0.0000 -9.1393
# 5 -6.1964 11.0902 -13.6608 0.0000 51.0907 0.0000
# 6 0.0000 0.0000 0.0000 -9.1393 0.0000 14.7736
#
#
#
# Elastic Compliance Matrix: (Units=1/GPa)
#
#
# Indices 1 2 3 4 5 6 
#
# 1 0.012742 -0.003515 0.000392 0.000000 0.002413 0.000000
# 2 -0.003515 0.015917 -0.003805 0.000000 -0.004899 0.000000
# 3 0.000392 -0.003805 0.005915 0.000000 0.002455 0.000000
# 4 0.000000 0.000000 0.000000 0.041732 0.000000 0.025817
# 5 0.002413 -0.004899 0.002455 0.000000 0.021585 0.000000
# 6 0.000000 0.000000 0.000000 0.025817 0.000000 0.083659
#
#
# Mechanical properties :
#
#
# Convention : Reuss Voigt Hill
#
# Bulk Modulus (GPa) = 48.26756 57.75114 53.00935
# Shear Modulus (GPa) = 24.71416 38.79722 31.75569
#
# Velocity S-wave (km/s) = 3.04658 3.81716 3.45343
# Velocity P-wave (km/s) = 5.52294 6.41222 5.98413
#
# Compressibility (1/GPa) = 0.02071785
#
# Stress axis : x y z
#
# Youngs Moduli (GPa) = 78.48182 62.82638 169.05074
#
# Poissons Ratio (x) = 0.22083 -0.06619
# Poissons Ratio (y) = 0.27586 0.64319
# Poissons Ratio (z) = -0.03073 0.23904
#
# Static dielectric constant tensor:
#      x y z
#    x 4.953210 0.000000 -0.454630 
#    y 0.000000 4.590590 0.000000 
#    z -0.454630 0.000000 6.019050 
# 
# 
# High freq. dielectric constant tensor:
#      x y z
#    x 2.075610 0.000000 -0.009810 
#    y 0.000000 2.045250 0.000000 
#    z -0.009810 0.000000 2.077940 
# 
# From -- ./inp_files/92195.got.cif
#   From: 2010.06.25/outbox.cif.g09.slc.cpg/sg15_47_cif.got.tgz:92195.got - 2010.06.28 07:06:18.
