data_PCOD8139445
_publ_section_title
;
Structure prediction by ZEFSAII (Michael W. Deem and Ramdas Pophale) SiO2 
 PCOD8139445
Probable space group: C 2/C
;
_chemical_formula_sum "Si O2"
_cell_formula_units_Z 40
_cell_length_a 11.113745
_cell_length_b 21.183242
_cell_length_c 10.217110
_cell_angle_alpha 90.000000
_cell_angle_beta 137.633960
_cell_angle_gamma 90.000000
_cell_volume 1620.890033
_symmetry_space_group_name_H-M "C 2/C"
_symmetry_group_IT_number 15
_symmetry_cell_setting 'monoclinic'
loop_
_space_group_symop_operation_xyz
x,y,z
-x,y,1/2-z
-x,-y,-z
x,-y,1/2+z
1/2+x,1/2+y,z
1/2-x,1/2+y,1/2-z
1/2-x,1/2-y,-z
1/2+x,1/2-y,1/2+z
loop_
_atom_site_type_symbol
_atom_site_label
_atom_site_fract_x
_atom_site_fract_y
_atom_site_fract_z
Si Si1 0.091066 0.349948 0.199927
Si Si2 0.442910 0.275660 0.556876
Si Si3 0.150631 0.811312 0.475373
Si Si4 0.280184 0.460310 0.216571
Si Si5 0.694697 0.554548 0.048881
O O1 0.247339 0.302950 0.375371
O O2 0.157156 0.399233 0.145372
O O3 0.000000 0.386193 0.250000
O O4 0.943406 0.300265 0.027601
O O5 0.500000 0.293634 0.750000
O O6 0.580635 0.303656 0.564400
O O7 0.250000 0.750000 0.500000
O O8 0.272103 0.874657 0.587830
O O9 0.000000 0.829591 0.250000
O O10 0.213627 0.517626 0.256831
O O11 0.483560 0.441207 0.411611
O O12 0.263851 0.482979 0.053077
#
# Coordination Sequence:
#
# PCOD8139445 Si02
#       5
#     8   8   8   8   8
#     4  11  22  40  63  95 133 173 214 274 330 391
#     4  11  22  38  62  93 131 171 217 263 328 395
#     4  12  23  41  65  97 134 171 212 274 339 397
#     4  10  20  39  62  90 123 168 218 271 321 390
#     4  10  20  39  63  91 125 166 220 270 326 388
#
# _framework density 24.677800999999999
#
# number of rings (size 3 to 8) (size 9 to 14) (size 15 to 20)
#    0.000    1.200    4.000    4.800    0.000    1.600 
#    0.000    2.000    0.000    0.000    0.000    0.000 
#    0.000    0.000    0.000    0.000    0.000    0.000 
#
# Total GULP energy -247808.935813 kJ/mol
# GULP energy per Si atom -12390.446791 kJ/mol
# Density = 2.462163 g / cm^3
# Si number density = 24.677801 Si / 1000 Ang^3
#
#
#
# Elastic Constant Matrix: (Units=GPa)
#
#
# Indices 1 2 3 4 5 6 
#
# 1 172.1809 59.0667 43.5772 0.0000 -34.8908 0.0000
# 2 59.0667 159.3006 35.3336 0.0000 -21.4998 0.0000
# 3 43.5772 35.3336 29.1671 0.0000 -18.3184 0.0000
# 4 0.0000 0.0000 0.0000 22.7341 0.0000 -6.1246
# 5 -34.8908 -21.4998 -18.3184 0.0000 43.9459 0.0000
# 6 0.0000 0.0000 0.0000 -6.1246 0.0000 35.7154
#
#
#
# Elastic Compliance Matrix: (Units=1/GPa)
#
#
# Indices 1 2 3 4 5 6 
#
# 1 0.009526 -0.000526 -0.012201 0.000000 0.002220 0.000000
# 2 -0.000526 0.008614 -0.009841 0.000000 -0.000306 0.000000
# 3 -0.012201 -0.009841 0.074949 0.000000 0.016740 0.000000
# 4 0.000000 0.000000 0.000000 0.046117 0.000000 0.007908
# 5 0.002220 -0.000306 0.016740 0.000000 0.031346 0.000000
# 6 0.000000 0.000000 0.000000 0.007908 0.000000 0.029355
#
#
# Mechanical properties :
#
#
# Convention : Reuss Voigt Hill
#
# Bulk Modulus (GPa) = 20.85361 70.73375 45.79368
# Shear Modulus (GPa) = 19.15506 35.32381 27.23943
#
# Velocity S-wave (km/s) = 2.78907 3.78749 3.32596
# Velocity P-wave (km/s) = 4.34057 6.91751 5.77462
#
# Compressibility (1/GPa) = 0.04795333
#
# Stress axis : x y z
#
# Youngs Moduli (GPa) = 104.97436 116.08869 13.34249
#
# Poissons Ratio (x) = 0.06111 0.16279
# Poissons Ratio (y) = 0.05526 0.13130
# Poissons Ratio (z) = 1.28074 1.14240
#
# Static dielectric constant tensor:
#      x y z
#    x 4.890790 0.000000 -0.101090 
#    y 0.000000 4.565070 0.000000 
#    z -0.101090 0.000000 4.141880 
# 
# 
# High freq. dielectric constant tensor:
#      x y z
#    x 2.013010 0.000000 -0.014510 
#    y 0.000000 1.976420 0.000000 
#    z -0.014510 0.000000 1.941100 
# 
# From -- ./inp_files/89873.got.cif
#   From: 2010.06.25/outbox.cif.g09.slc.cpg/sg15_45_cif.got.tgz:89873.got - 2010.06.28 07:06:18.
