data_PCOD8139050
_publ_section_title
;
Structure prediction by ZEFSAII (Michael W. Deem and Ramdas Pophale) SiO2 
 PCOD8139050
Probable space group: C 2/C
;
_chemical_formula_sum "Si O2"
_cell_formula_units_Z 60
_cell_length_a 16.320813
_cell_length_b 9.502359
_cell_length_c 19.706263
_cell_angle_alpha 90.000000
_cell_angle_beta 89.060384
_cell_angle_gamma 90.000000
_cell_volume 3055.758970
_symmetry_space_group_name_H-M "C 2/C"
_symmetry_group_IT_number 15
_symmetry_cell_setting 'monoclinic'
loop_
_space_group_symop_operation_xyz
x,y,z
-x,y,1/2-z
-x,-y,-z
x,-y,1/2+z
1/2+x,1/2+y,z
1/2-x,1/2+y,1/2-z
1/2-x,1/2-y,-z
1/2+x,1/2-y,1/2+z
loop_
_atom_site_type_symbol
_atom_site_label
_atom_site_fract_x
_atom_site_fract_y
_atom_site_fract_z
Si Si1 0.761885 0.682199 0.203858
Si Si2 0.829453 0.902537 0.306673
Si Si3 0.846386 0.898057 0.020458
Si Si4 0.329667 0.688686 0.961605
Si Si5 0.051208 0.443716 0.561184
Si Si6 0.500000 0.623526 0.750000
Si Si7 0.580159 0.780736 0.868663
Si Si8 0.678609 0.824868 0.090514
O O1 0.799614 0.760503 0.268644
O O2 0.723479 0.531503 0.222773
O O3 0.830796 0.651622 0.145285
O O4 0.694524 0.780917 0.168099
O O5 0.812026 0.869041 0.385822
O O6 0.925470 0.950862 0.293001
O O7 0.914023 0.832738 0.070351
O O8 0.756624 0.896606 0.054655
O O9 0.849067 0.811985 0.950614
O O10 0.866885 0.060106 0.004839
O O11 0.397505 0.808406 0.961156
O O12 0.250000 0.750000 0.000000
O O13 0.106754 0.562144 0.593640
O O14 0.000000 0.500000 0.500000
O O15 0.984632 0.402658 0.617840
O O16 0.553785 0.710084 0.800482
#
# Coordination Sequence:
#
# PCOD8139050 Si02
#       8
#     8   8   8   8   8   4   8   8
#     4  10  24  42  69  89 126 174 220 255 320 401
#     4  11  24  43  67  95 125 172 218 263 323 385
#     4  10  20  39  62  92 127 174 207 256 326 391
#     4  12  25  40  68 100 132 166 221 275 318 388
#     4  12  24  39  62 100 131 162 212 269 327 375
#     4  10  22  44  62  90 128 170 214 260 322 386
#     4  10  22  40  66  92 127 174 210 262 327 390
#     4  10  20  38  64  90 131 167 209 260 322 383
#
# _framework density 19.635057
#
# number of rings (size 3 to 8) (size 9 to 14) (size 15 to 20)
#    0.000    1.333    5.333    0.000    3.733    1.600 
#    2.400    1.333    0.000    0.000    0.000    0.000 
#    0.000    0.000    0.000    0.000    0.000    0.000 
#
# Total GULP energy -371824.579277 kJ/mol
# GULP energy per Si atom -12394.152643 kJ/mol
# Density = 1.959037 g / cm^3
# Si number density = 19.635057 Si / 1000 Ang^3
#
#
#
# Elastic Constant Matrix: (Units=GPa)
#
#
# Indices 1 2 3 4 5 6 
#
# 1 105.8776 48.6045 25.9518 0.0000 -5.7299 0.0000
# 2 48.6045 102.4099 14.8151 0.0000 -8.4815 0.0000
# 3 25.9518 14.8151 75.7368 0.0000 -0.5426 0.0000
# 4 0.0000 0.0000 0.0000 28.1176 0.0000 4.2277
# 5 -5.7299 -8.4815 -0.5426 0.0000 32.5016 0.0000
# 6 0.0000 0.0000 0.0000 4.2277 0.0000 44.8692
#
#
#
# Elastic Compliance Matrix: (Units=1/GPa)
#
#
# Indices 1 2 3 4 5 6 
#
# 1 0.012848 -0.005556 -0.003310 0.000000 0.000760 0.000000
# 2 -0.005556 0.012674 -0.000559 0.000000 0.002319 0.000000
# 3 -0.003310 -0.000559 0.014444 0.000000 -0.000488 0.000000
# 4 0.000000 0.000000 0.000000 0.036076 0.000000 -0.003399
# 5 0.000760 0.002319 -0.000488 0.000000 0.031499 0.000000
# 6 0.000000 0.000000 0.000000 -0.003399 0.000000 0.022607
#
#
# Mechanical properties :
#
#
# Convention : Reuss Voigt Hill
#
# Bulk Modulus (GPa) = 47.35729 51.41856 49.38792
# Shear Modulus (GPa) = 32.04380 34.07455 33.05917
#
# Velocity S-wave (km/s) = 4.04415 4.17032 4.10772
# Velocity P-wave (km/s) = 6.78070 7.03084 6.90691
#
# Compressibility (1/GPa) = 0.02111608
#
# Stress axis : x y z
#
# Youngs Moduli (GPa) = 77.83407 78.89906 69.23436
#
# Poissons Ratio (x) = 0.43835 0.22918
# Poissons Ratio (y) = 0.43244 0.03870
# Poissons Ratio (z) = 0.25764 0.04410
#
# Static dielectric constant tensor:
#      x y z
#    x 3.852720 0.000000 -0.036080 
#    y 0.000000 3.566020 0.000000 
#    z -0.036080 0.000000 3.572500 
# 
# 
# High freq. dielectric constant tensor:
#      x y z
#    x 1.773460 0.000000 0.004520 
#    y 0.000000 1.756680 0.000000 
#    z 0.004520 0.000000 1.767960 
# 
# From -- ./inp_files/272747.got.cif
#   From: 2010.06.25/outbox.cif.g09.slc.cpg/sg15_137_cif.got.tgz:272747.got - 2010.06.28 07:06:18.
