data_PCOD8139499
_publ_section_title
;
Structure prediction by ZEFSAII (Michael W. Deem and Ramdas Pophale) SiO2 
 PCOD8139499
Probable space group: C 2/C
;
_chemical_formula_sum "Si O2"
_cell_formula_units_Z 48
_cell_length_a 24.702836
_cell_length_b 15.185027
_cell_length_c 11.514614
_cell_angle_alpha 90.000000
_cell_angle_beta 148.343525
_cell_angle_gamma 90.000000
_cell_volume 2266.869026
_symmetry_space_group_name_H-M "C 2/C"
_symmetry_group_IT_number 15
_symmetry_cell_setting 'monoclinic'
loop_
_space_group_symop_operation_xyz
x,y,z
-x,y,1/2-z
-x,-y,-z
x,-y,1/2+z
1/2+x,1/2+y,z
1/2-x,1/2+y,1/2-z
1/2-x,1/2-y,-z
1/2+x,1/2-y,1/2+z
loop_
_atom_site_type_symbol
_atom_site_label
_atom_site_fract_x
_atom_site_fract_y
_atom_site_fract_z
Si Si1 0.218498 0.382734 0.852170
Si Si2 0.222972 0.679045 0.116744
Si Si3 0.888143 0.209542 0.778799
Si Si4 0.207370 0.420099 0.350504
Si Si5 0.429566 0.781901 0.507998
Si Si6 0.116556 0.845961 0.971987
O O1 0.193688 0.385291 0.669100
O O2 0.154102 0.309742 0.805458
O O3 0.186842 0.478220 0.842634
O O4 0.338000 0.356509 0.092754
O O5 0.324724 0.730872 0.344570
O O6 0.239017 0.627982 0.027216
O O7 0.132576 0.752058 0.935607
O O8 0.009081 0.220291 0.971843
O O9 0.860304 0.166410 0.850470
O O10 0.304388 0.416353 0.438706
O O11 0.104091 0.375989 0.108711
O O12 0.500000 0.798051 0.750000
O O13 0.000000 0.880584 0.750000
#
# Coordination Sequence:
#
# PCOD8139499 Si02
#       6
#     8   8   8   8   8   8
#     4  10  23  39  60  91 123 166 201 262 309 367
#     4  10  21  41  62  88 127 165 207 253 314 380
#     4  10  21  40  63  82 124 169 208 244 318 384
#     4  11  24  38  64  95 126 158 211 269 305 360
#     4  11  21  40  66  92 123 166 215 250 314 380
#     4  10  20  39  63  89 119 163 206 251 316 373
#
# _framework density 21.174578
#
# number of rings (size 3 to 8) (size 9 to 14) (size 15 to 20)
#    0.000    1.667    1.667    4.000    4.667    0.667 
#    3.000    5.000    0.000    0.000    0.000    0.000 
#    0.000    0.000    0.000    0.000    0.000    0.000 
#
# Total GULP energy -297531.113128 kJ/mol
# GULP energy per Si atom -12397.129714 kJ/mol
# Density = 2.112638 g / cm^3
# Si number density = 21.174578 Si / 1000 Ang^3
#
#
#
# Elastic Constant Matrix: (Units=GPa)
#
#
# Indices 1 2 3 4 5 6 
#
# 1 73.5767 2.6110 11.6289 0.0000 -12.0933 0.0000
# 2 2.6110 81.9341 20.2151 0.0000 -25.2931 0.0000
# 3 11.6289 20.2151 92.0689 0.0000 -11.4363 0.0000
# 4 0.0000 0.0000 0.0000 22.6254 0.0000 -4.0643
# 5 -12.0933 -25.2931 -11.4363 0.0000 32.1698 0.0000
# 6 0.0000 0.0000 0.0000 -4.0643 0.0000 16.6979
#
#
#
# Elastic Compliance Matrix: (Units=1/GPa)
#
#
# Indices 1 2 3 4 5 6 
#
# 1 0.014835 0.001917 -0.001480 0.000000 0.006558 0.000000
# 2 0.001917 0.016745 -0.002295 0.000000 0.013070 0.000000
# 3 -0.001480 -0.002295 0.011779 0.000000 0.001827 0.000000
# 4 0.000000 0.000000 0.000000 0.046219 0.000000 0.011250
# 5 0.006558 0.013070 0.001827 0.000000 0.044476 0.000000
# 6 0.000000 0.000000 0.000000 0.011250 0.000000 0.062626
#
#
# Mechanical properties :
#
#
# Convention : Reuss Voigt Hill
#
# Bulk Modulus (GPa) = 25.22569 35.16551 30.19560
# Shear Modulus (GPa) = 23.40705 28.50692 25.95699
#
# Velocity S-wave (km/s) = 3.32841 3.67315 3.50502
# Velocity P-wave (km/s) = 5.16819 5.88497 5.53819
#
# Compressibility (1/GPa) = 0.03964212
#
# Stress axis : x y z
#
# Youngs Moduli (GPa) = 67.40813 59.71984 84.89542
#
# Poissons Ratio (x) = -0.11447 0.12565
# Poissons Ratio (y) = -0.12921 0.19485
# Poissons Ratio (z) = 0.09977 0.13707
#
# Static dielectric constant tensor:
#      x y z
#    x 3.851940 0.000000 0.063000 
#    y 0.000000 3.545360 0.000000 
#    z 0.063000 0.000000 3.802250 
# 
# 
# High freq. dielectric constant tensor:
#      x y z
#    x 1.839660 0.000000 -0.007520 
#    y 0.000000 1.802460 0.000000 
#    z -0.007520 0.000000 1.829040 
# 
# From -- ./inp_files/123577.got.cif
#   From: 2010.06.25/outbox.cif.g09.slc.cpg/sg15_62_cif.got.tgz:123577.got - 2010.06.28 07:06:18.
