data_PCOD8139253
_publ_section_title
;
Structure prediction by ZEFSAII (Michael W. Deem and Ramdas Pophale) SiO2 
 PCOD8139253
Probable space group: C 2/C
;
_chemical_formula_sum "Si O2"
_cell_formula_units_Z 56
_cell_length_a 27.040652
_cell_length_b 9.082669
_cell_length_c 17.489576
_cell_angle_alpha 90.000000
_cell_angle_beta 39.368545
_cell_angle_gamma 90.000000
_cell_volume 2724.638433
_symmetry_space_group_name_H-M "C 2/C"
_symmetry_group_IT_number 15
_symmetry_cell_setting 'monoclinic'
loop_
_space_group_symop_operation_xyz
x,y,z
-x,y,1/2-z
-x,-y,-z
x,-y,1/2+z
1/2+x,1/2+y,z
1/2-x,1/2+y,1/2-z
1/2-x,1/2-y,-z
1/2+x,1/2-y,1/2+z
loop_
_atom_site_type_symbol
_atom_site_label
_atom_site_fract_x
_atom_site_fract_y
_atom_site_fract_z
Si Si1 0.825555 0.158623 0.291511
Si Si2 0.782917 0.927897 0.086834
Si Si3 0.132963 0.591777 0.291480
Si Si4 0.020372 0.717189 0.309653
Si Si5 0.880204 0.322495 0.086924
Si Si6 0.710193 0.624793 0.750062
Si Si7 0.920017 0.032865 0.309541
O O1 0.750660 0.264994 0.394430
O O2 0.881215 0.212205 0.157030
O O3 0.883352 0.149371 0.294559
O O4 0.792282 0.998147 0.312408
O O5 0.808541 0.940388 0.144297
O O6 0.711836 0.038319 0.156993
O O7 0.856198 0.983460 0.951963
O O8 0.072123 0.600787 0.294511
O O9 0.104975 0.485469 0.394396
O O10 0.145231 0.752358 0.312421
O O11 0.000000 0.653045 0.250000
O O12 0.941734 0.733131 0.452090
O O13 0.062605 0.875097 0.250184
O O14 0.797074 0.309883 0.144530
O O15 0.000000 0.097106 0.250000
#
# Coordination Sequence:
#
# PCOD8139253 Si02
#       7
#     8   8   8   8   8   8   8
#     4  10  21  42  64  92 119 173 210 262 316 376
#     4  10  22  40  64  91 129 155 219 268 308 380
#     4  10  21  42  64  92 119 173 210 262 316 376
#     4  11  25  39  59  94 130 167 210 259 324 374
#     4  10  22  40  64  91 129 155 219 268 308 380
#     4  10  20  38  69  92 117 168 214 262 322 372
#     4  11  25  39  59  94 130 167 210 259 324 374
#
# _framework density 20.553186
#
# number of rings (size 3 to 8) (size 9 to 14) (size 15 to 20)
#    0.000    2.000    1.429    4.286    8.000    3.429 
#    0.000    8.571    0.000    0.000    0.000    0.000 
#    0.000    0.000    0.000    0.000    0.000    0.000 
#
# Total GULP energy -347105.206463 kJ/mol
# GULP energy per Si atom -12396.614517 kJ/mol
# Density = 2.050641 g / cm^3
# Si number density = 20.553186 Si / 1000 Ang^3
#
#
#
# Elastic Constant Matrix: (Units=GPa)
#
#
# Indices 1 2 3 4 5 6 
#
# 1 115.6833 10.0039 23.3275 -0.0064 3.5667 0.0011
# 2 10.0039 64.4769 14.6953 0.0018 -0.2373 0.0002
# 3 23.3275 14.6953 163.5093 -0.0026 -5.9017 0.0013
# 4 -0.0064 0.0018 -0.0026 27.4353 -0.0008 -1.5025
# 5 3.5667 -0.2373 -5.9017 -0.0008 11.8822 0.0010
# 6 0.0011 0.0002 0.0013 -1.5025 0.0010 -2.3654
#
#
#
# Elastic Compliance Matrix: (Units=1/GPa)
#
#
# Indices 1 2 3 4 5 6 
#
# 1 0.009114 -0.001125 -0.001322 0.000002 -0.003415 0.000001
# 2 -0.001125 0.015975 -0.001274 -0.000001 0.000024 0.000001
# 3 -0.001322 -0.001274 0.006550 0.000001 0.003625 0.000004
# 4 0.000002 -0.000001 0.000001 0.035224 0.000004 -0.022375
# 5 -0.003415 0.000024 0.003625 0.000004 0.086985 0.000035
# 6 0.000001 0.000001 0.000004 -0.022375 0.000035 -0.408554
#
#
# Mechanical properties :
#
#
# Convention : Reuss Voigt Hill
#
# Bulk Modulus (GPa) = 41.33215 48.85811 45.09513
# Shear Modulus (GPa) = -20.90318 27.09995 3.09838
#
# Velocity S-wave (km/s) = -3.19255 3.63509 1.22913
# Velocity P-wave (km/s) = 2.56197 6.43752 4.89925
#
# Compressibility (1/GPa) = 0.02419424
#
# Stress axis : x y z
#
# Youngs Moduli (GPa) = 109.72701 62.59968 152.67474
#
# Poissons Ratio (x) = 0.07044 0.20189
# Poissons Ratio (y) = 0.12346 0.19456
# Poissons Ratio (z) = 0.14510 0.07977
#
# Static dielectric constant tensor:
#      x y z
#    x 3.938370 -0.000010 0.013910 
#    y -0.000010 3.684690 -0.000010 
#    z 0.013910 -0.000010 3.669850 
# 
# 
# High freq. dielectric constant tensor:
#      x y z
#    x 1.816710 0.000000 0.001330 
#    y 0.000000 1.799780 0.000000 
#    z 0.001330 0.000000 1.790580 
# 
# From -- ./inp_files/224409.got.cif
#   From: 2010.06.25/outbox.cif.g09.slc.cpg/sg15_113_cif.got.tgz:224409.got - 2010.06.28 07:06:18.
