data_PCOD8139573
_publ_section_title
;
Structure prediction by ZEFSAII (Michael W. Deem and Ramdas Pophale) SiO2 
 PCOD8139573
Probable space group: C 2/C
;
_chemical_formula_sum "Si O2"
_cell_formula_units_Z 60
_cell_length_a 25.837462
_cell_length_b 9.317637
_cell_length_c 21.160460
_cell_angle_alpha 90.000000
_cell_angle_beta 143.692923
_cell_angle_gamma 90.000000
_cell_volume 3016.373615
_symmetry_space_group_name_H-M "C 2/C"
_symmetry_group_IT_number 15
_symmetry_cell_setting 'monoclinic'
loop_
_space_group_symop_operation_xyz
x,y,z
-x,y,1/2-z
-x,-y,-z
x,-y,1/2+z
1/2+x,1/2+y,z
1/2-x,1/2+y,1/2-z
1/2-x,1/2-y,-z
1/2+x,1/2-y,1/2+z
loop_
_atom_site_type_symbol
_atom_site_label
_atom_site_fract_x
_atom_site_fract_y
_atom_site_fract_z
Si Si1 0.398503 0.584730 0.232234
Si Si2 0.704403 0.672836 0.740734
Si Si3 0.000000 0.304773 0.250000
Si Si4 0.285892 0.589543 0.529710
Si Si5 0.149977 0.212629 0.025331
Si Si6 0.484878 0.416208 0.420994
Si Si7 0.755380 0.628115 0.331424
Si Si8 0.366614 0.986971 0.048756
O O1 0.430331 0.704872 0.215726
O O2 0.358439 0.449490 0.154028
O O3 0.475712 0.523334 0.352255
O O4 0.328341 0.662557 0.208074
O O5 0.601953 0.683039 0.658954
O O6 0.733444 0.507267 0.764968
O O7 0.719907 0.737032 0.686961
O O8 0.761332 0.752566 0.849831
O O9 0.954444 0.408839 0.155240
O O10 0.250000 0.750000 0.500000
O O11 0.327376 0.579430 0.500111
O O12 0.205132 0.480875 0.464594
O O13 0.116168 0.347308 0.951133
O O14 0.072017 0.176404 0.996425
O O15 0.500000 0.500000 0.500000
O O16 0.836522 0.595215 0.456357
#
# Coordination Sequence:
#
# PCOD8139573 Si02
#       8
#     8   8   4   8   8   8   8   8
#     4  10  22  39  58  88 126 157 199 263 304 372
#     4  10  21  41  62  91 124 160 208 262 303 370
#     4  12  24  38  54  92 130 160 202 244 320 380
#     4   9  18  38  65  87 115 157 203 256 318 370
#     4  10  20  39  64  92 122 158 209 256 317 368
#     4  11  23  39  65  93 120 162 213 260 308 368
#     4   9  20  42  61  82 119 161 204 252 308 367
#     4   9  22  38  57  85 125 158 198 254 300 378
#
# _framework density 19.891435999999999
#
# number of rings (size 3 to 8) (size 9 to 14) (size 15 to 20)
#    0.000    2.133    0.000    4.800    1.867    5.333 
#    9.600    1.333    0.000    0.000    0.000    0.000 
#    0.000    0.000    0.000    0.000    0.000    0.000 
#
# Total GULP energy -371904.867927 kJ/mol
# GULP energy per Si atom -12396.828931 kJ/mol
# Density = 1.984616 g / cm^3
# Si number density = 19.891436 Si / 1000 Ang^3
#
#
#
# Elastic Constant Matrix: (Units=GPa)
#
#
# Indices 1 2 3 4 5 6 
#
# 1 138.3926 59.0933 51.4047 0.0000 2.5847 0.0000
# 2 59.0933 68.3268 45.3261 0.0000 -2.7952 0.0000
# 3 51.4047 45.3261 111.0178 0.0000 4.1314 0.0000
# 4 0.0000 0.0000 0.0000 30.1927 0.0000 -6.4903
# 5 2.5847 -2.7952 4.1314 0.0000 28.7748 0.0000
# 6 0.0000 0.0000 0.0000 -6.4903 0.0000 37.6381
#
#
#
# Elastic Compliance Matrix: (Units=1/GPa)
#
#
# Indices 1 2 3 4 5 6 
#
# 1 0.011786 -0.009168 -0.001650 0.000000 -0.001712 0.000000
# 2 -0.009168 0.027491 -0.007147 0.000000 0.004520 0.000000
# 3 -0.001650 -0.007147 0.012778 0.000000 -0.002381 0.000000
# 4 0.000000 0.000000 0.000000 0.034396 0.000000 0.005931
# 5 -0.001712 0.004520 -0.002381 0.000000 0.035687 0.000000
# 6 0.000000 0.000000 0.000000 0.005931 0.000000 0.027592
#
#
# Mechanical properties :
#
#
# Convention : Reuss Voigt Hill
#
# Bulk Modulus (GPa) = 62.01990 69.93172 65.97581
# Shear Modulus (GPa) = 26.17333 30.11533 28.14433
#
# Velocity S-wave (km/s) = 3.63134 3.89522 3.76559
# Velocity P-wave (km/s) = 6.98778 7.44737 7.22123
#
# Compressibility (1/GPa) = 0.01612386
#
# Stress axis : x y z
#
# Youngs Moduli (GPa) = 84.84962 36.37584 78.25857
#
# Poissons Ratio (x) = 0.33350 0.12914
# Poissons Ratio (y) = 0.77792 0.55931
# Poissons Ratio (z) = 0.14002 0.25997
#
# Static dielectric constant tensor:
#      x y z
#    x 3.860270 0.000000 -0.007630 
#    y 0.000000 3.436290 0.000000 
#    z -0.007630 0.000000 3.668520 
# 
# 
# High freq. dielectric constant tensor:
#      x y z
#    x 1.783130 0.000000 -0.004050 
#    y 0.000000 1.754030 0.000000 
#    z -0.004050 0.000000 1.782070 
# 
# From -- ./inp_files/224255.got.cif
#   From: 2010.06.25/outbox.cif.g09.slc.cpg/sg15_113_cif.got.tgz:224255.got - 2010.06.28 07:06:18.
