data_PCOD8139079
_publ_section_title
;
Structure prediction by ZEFSAII (Michael W. Deem and Ramdas Pophale) SiO2 
 PCOD8139079
Probable space group: C 2/C
;
_chemical_formula_sum "Si O2"
_cell_formula_units_Z 52
_cell_length_a 18.680470
_cell_length_b 10.926608
_cell_length_c 18.492775
_cell_angle_alpha 90.000000
_cell_angle_beta 33.503836
_cell_angle_gamma 90.000000
_cell_volume 2083.572759
_symmetry_space_group_name_H-M "C 2/C"
_symmetry_group_IT_number 15
_symmetry_cell_setting 'monoclinic'
loop_
_space_group_symop_operation_xyz
x,y,z
-x,y,1/2-z
-x,-y,-z
x,-y,1/2+z
1/2+x,1/2+y,z
1/2-x,1/2+y,1/2-z
1/2-x,1/2-y,-z
1/2+x,1/2-y,1/2+z
loop_
_atom_site_type_symbol
_atom_site_label
_atom_site_fract_x
_atom_site_fract_y
_atom_site_fract_z
Si Si1 0.963024 0.519783 0.371051
Si Si2 0.500000 0.232222 0.250000
Si Si3 0.210159 0.999168 0.264709
Si Si4 0.067904 0.330525 0.468384
Si Si5 0.533110 0.391139 0.094980
Si Si6 0.841181 0.318865 0.553310
Si Si7 0.252417 0.050848 0.891193
O O1 0.094922 0.470671 0.220087
O O2 0.904345 0.635197 0.373471
O O3 0.999885 0.567416 0.421535
O O4 0.857593 0.410859 0.469862
O O5 0.450631 0.322311 0.228336
O O6 0.292877 0.880862 0.171932
O O7 0.217628 0.009346 0.343855
O O8 0.062658 0.980269 0.366011
O O9 0.251715 0.124974 0.191288
O O10 0.092800 0.205915 0.489187
O O11 0.983182 0.301487 0.468654
O O12 0.653430 0.472801 0.025793
O O13 0.778527 0.194569 0.577504
#
# Coordination Sequence:
#
# PCOD8139079 Si02
#       7
#     8   4   8   8   8   8   8
#     4  10  22  45  64  93 126 182 221 255 329 385
#     4  10  26  52  68  84 134 174 230 276 298 402
#     4  11  22  38  63  98 140 170 207 274 336 389
#     4  10  20  38  64  94 136 171 213 265 335 388
#     4  11  26  40  65 103 125 174 230 267 323 377
#     4  11  22  39  63  98 136 171 212 265 339 396
#     4  12  24  36  68  99 135 167 213 280 331 386
#
# _framework density 24.957131
#
# number of rings (size 3 to 8) (size 9 to 14) (size 15 to 20)
#    0.000    1.231    4.615    1.385    8.615    0.615 
#    5.538    1.538    0.000    0.000    0.000    0.000 
#    0.000    0.000    0.000    0.000    0.000    0.000 
#
# Total GULP energy -322132.764938 kJ/mol
# GULP energy per Si atom -12389.721728 kJ/mol
# Density = 2.490033 g / cm^3
# Si number density = 24.957131 Si / 1000 Ang^3
#
#
#
# Elastic Constant Matrix: (Units=GPa)
#
#
# Indices 1 2 3 4 5 6 
#
# 1 26.9246 21.5318 11.9408 0.0000 -3.2269 0.0000
# 2 21.5318 146.1593 36.5870 0.0000 -5.0790 0.0000
# 3 11.9408 36.5870 76.6584 0.0001 -8.1671 0.0000
# 4 0.0000 0.0000 0.0001 31.9072 -0.0001 1.0101
# 5 -3.2269 -5.0790 -8.1671 -0.0001 40.8120 0.0000
# 6 0.0000 0.0000 0.0000 1.0101 0.0000 28.9226
#
#
#
# Elastic Compliance Matrix: (Units=1/GPa)
#
#
# Indices 1 2 3 4 5 6 
#
# 1 0.043413 -0.005323 -0.004012 0.000000 0.001967 0.000000
# 2 -0.005323 0.008425 -0.003193 0.000000 -0.000011 0.000000
# 3 -0.004012 -0.003193 0.015447 0.000000 0.002377 0.000000
# 4 0.000000 0.000000 0.000000 0.031376 0.000000 -0.001096
# 5 0.001967 -0.000011 0.002377 0.000000 0.025132 0.000000
# 6 0.000000 0.000000 0.000000 -0.001096 0.000000 0.034613
#
#
# Mechanical properties :
#
#
# Convention : Reuss Voigt Hill
#
# Bulk Modulus (GPa) = 23.68076 43.31795 33.49936
# Shear Modulus (GPa) = 25.31162 32.30722 28.80942
#
# Velocity S-wave (km/s) = 3.18811 3.60183 3.40127
# Velocity P-wave (km/s) = 4.80221 5.89001 5.37371
#
# Compressibility (1/GPa) = 0.04222837
#
# Stress axis : x y z
#
# Youngs Moduli (GPa) = 23.03483 118.69605 64.73738
#
# Poissons Ratio (x) = 0.63178 0.25974
# Poissons Ratio (y) = 0.12261 0.20671
# Poissons Ratio (z) = 0.09242 0.37901
#
# Static dielectric constant tensor:
#      x y z
#    x 4.355560 0.000000 0.437010 
#    y 0.000000 4.580050 0.000000 
#    z 0.437010 0.000000 4.511100 
# 
# 
# High freq. dielectric constant tensor:
#      x y z
#    x 1.970190 0.000000 0.021070 
#    y 0.000000 2.010450 0.000000 
#    z 0.021070 0.000000 1.985980 
# 
# From -- ./inp_files/252716.got.cif
#   From: 2010.06.25/outbox.cif.g09.slc.cpg/sg15_127_cif.got.tgz:252716.got - 2010.06.28 07:06:18.
