data_PCOD8139881
_publ_section_title
;
Structure prediction by ZEFSAII (Michael W. Deem and Ramdas Pophale) SiO2 
 PCOD8139881
Probable space group: C 2/C
;
_chemical_formula_sum "Si O2"
_cell_formula_units_Z 52
_cell_length_a 13.411070
_cell_length_b 11.861038
_cell_length_c 17.559015
_cell_angle_alpha 90.000000
_cell_angle_beta 112.983770
_cell_angle_gamma 90.000000
_cell_volume 2571.369913
_symmetry_space_group_name_H-M "C 2/C"
_symmetry_group_IT_number 15
_symmetry_cell_setting 'monoclinic'
loop_
_space_group_symop_operation_xyz
x,y,z
-x,y,1/2-z
-x,-y,-z
x,-y,1/2+z
1/2+x,1/2+y,z
1/2-x,1/2+y,1/2-z
1/2-x,1/2-y,-z
1/2+x,1/2-y,1/2+z
loop_
_atom_site_type_symbol
_atom_site_label
_atom_site_fract_x
_atom_site_fract_y
_atom_site_fract_z
Si Si1 0.425834 0.953642 0.336714
Si Si2 0.854211 0.505712 0.149978
Si Si3 0.800099 0.870047 0.497177
Si Si4 0.743597 0.272163 0.587684
Si Si5 0.779900 0.020719 0.637730
Si Si6 0.000000 0.919299 0.750000
Si Si7 0.971856 0.795566 0.900291
O O1 0.385011 0.945571 0.237868
O O2 0.541377 0.015585 0.374318
O O3 0.330481 0.020558 0.353099
O O4 0.458273 0.836992 0.385897
O O5 0.826311 0.636976 0.145897
O O6 0.756620 0.425797 0.092327
O O7 0.750000 0.750000 0.500000
O O8 0.926254 0.842120 0.520914
O O9 0.781208 0.962278 0.556780
O O10 0.750000 0.250000 0.500000
O O11 0.771752 0.155396 0.636179
O O12 0.629943 0.329628 0.578360
O O13 0.891244 0.993646 0.714289
O O14 0.982013 0.843969 0.818625
#
# Coordination Sequence:
#
# PCOD8139881 Si02
#       7
#     8   8   8   8   8   4   8
#     4  10  22  40  62  91 121 164 203 256 309 362
#     4  11  22  39  64  90 125 156 210 254 304 370
#     4  11  22  39  64  95 116 157 212 255 302 362
#     4  11  23  42  59  89 129 165 197 249 312 373
#     4  10  23  41  63  85 124 163 202 253 309 367
#     4  10  20  40  62  92 116 156 214 258 302 358
#     4  10  22  39  66  88 125 160 203 259 309 358
#
# _framework density 20.222683
#
# number of rings (size 3 to 8) (size 9 to 14) (size 15 to 20)
#    0.000    1.538    3.077    1.846    2.154    3.692 
#    2.769    0.000    0.000    0.000    0.000    0.000 
#    0.000    0.000    0.000    0.000    0.000    0.000 
#
# Total GULP energy -322116.292811 kJ/mol
# GULP energy per Si atom -12389.088185 kJ/mol
# Density = 2.017666 g / cm^3
# Si number density = 20.222683 Si / 1000 Ang^3
#
#
#
# Elastic Constant Matrix: (Units=GPa)
#
#
# Indices 1 2 3 4 5 6 
#
# 1 164.0163 25.7981 24.6452 0.0000 23.3701 0.0000
# 2 25.7981 78.6075 4.0095 0.0000 18.6806 0.0000
# 3 24.6452 4.0095 62.0767 0.0000 19.6144 0.0000
# 4 0.0000 0.0000 0.0000 22.2178 0.0000 4.8190
# 5 23.3701 18.6806 19.6144 0.0000 34.3832 0.0000
# 6 0.0000 0.0000 0.0000 4.8190 0.0000 33.4592
#
#
#
# Elastic Compliance Matrix: (Units=1/GPa)
#
#
# Indices 1 2 3 4 5 6 
#
# 1 0.007019 -0.001514 -0.001758 0.000000 -0.002945 0.000000
# 2 -0.001514 0.015122 0.002312 0.000000 -0.008505 0.000000
# 3 -0.001758 0.002312 0.020344 0.000000 -0.011667 0.000000
# 4 0.000000 0.000000 0.000000 0.046460 0.000000 -0.006692
# 5 -0.002945 -0.008505 -0.011667 0.000000 0.042362 0.000000
# 6 0.000000 0.000000 0.000000 -0.006692 0.000000 0.030851
#
#
# Mechanical properties :
#
#
# Convention : Reuss Voigt Hill
#
# Bulk Modulus (GPa) = 24.65241 45.95624 35.30432
# Shear Modulus (GPa) = 28.15313 34.69521 31.42417
#
# Velocity S-wave (km/s) = 3.73521 4.14654 3.94624
# Velocity P-wave (km/s) = 5.55151 6.76014 6.18542
#
# Compressibility (1/GPa) = 0.04056399
#
# Stress axis : x y z
#
# Youngs Moduli (GPa) = 142.47201 66.13033 49.15432
#
# Poissons Ratio (x) = 0.10012 0.08642
# Poissons Ratio (y) = 0.21569 -0.11364
# Poissons Ratio (z) = 0.25050 -0.15288
#
# Static dielectric constant tensor:
#      x y z
#    x 4.460790 0.000000 0.245860 
#    y 0.000000 3.598840 0.000000 
#    z 0.245860 0.000000 3.728800 
# 
# 
# High freq. dielectric constant tensor:
#      x y z
#    x 1.809890 0.000000 0.012880 
#    y 0.000000 1.789090 0.000000 
#    z 0.012880 0.000000 1.785100 
# 
# From -- ./inp_files/237684.got.cif
#   From: 2010.06.25/outbox.cif.g09.slc.cpg/sg15_119_cif.got.tgz:237684.got - 2010.06.28 07:06:18.
