data_PCOD8139330
_publ_section_title
;
Structure prediction by ZEFSAII (Michael W. Deem and Ramdas Pophale) SiO2 
 PCOD8139330
Probable space group: C 2/C
;
_chemical_formula_sum "Si O2"
_cell_formula_units_Z 56
_cell_length_a 11.437181
_cell_length_b 33.338305
_cell_length_c 9.075523
_cell_angle_alpha 90.000000
_cell_angle_beta 124.281622
_cell_angle_gamma 90.000000
_cell_volume 2859.307676
_symmetry_space_group_name_H-M "C 2/C"
_symmetry_group_IT_number 15
_symmetry_cell_setting 'monoclinic'
loop_
_space_group_symop_operation_xyz
x,y,z
-x,y,1/2-z
-x,-y,-z
x,-y,1/2+z
1/2+x,1/2+y,z
1/2-x,1/2+y,1/2-z
1/2-x,1/2-y,-z
1/2+x,1/2-y,1/2+z
loop_
_atom_site_type_symbol
_atom_site_label
_atom_site_fract_x
_atom_site_fract_y
_atom_site_fract_z
Si Si1 0.335424 0.890569 0.273074
Si Si2 0.583656 0.553058 0.662007
Si Si3 0.130107 0.691208 0.543734
Si Si4 0.880967 0.035514 0.285649
Si Si5 0.314756 0.176149 0.248912
Si Si6 0.154732 0.759259 0.793264
Si Si7 0.853233 0.597312 0.450116
O O1 0.206470 0.914681 0.249127
O O2 0.331666 0.845905 0.327867
O O3 0.479308 0.912703 0.429855
O O4 0.317709 0.885417 0.085507
O O5 0.500000 0.555925 0.750000
O O6 0.459621 0.563507 0.459030
O O7 0.654116 0.509237 0.679284
O O8 0.208236 0.684069 0.442045
O O9 0.182089 0.729553 0.673617
O O10 0.962872 0.695805 0.401574
O O11 0.735405 0.056437 0.133370
O O12 0.000000 0.029025 0.250000
O O13 0.189554 0.196948 0.252119
O O14 0.315898 0.128969 0.293816
O O15 0.000000 0.757883 0.750000
O O16 0.250000 0.750000 0.000000
#
# Coordination Sequence:
#
# PCOD8139330 Si02
#       7
#     8   8   8   8   8   8   8
#     4  10  21  39  61  88 115 159 201 247 298 353
#     4  10  22  38  60  86 123 156 197 247 305 356
#     4  10  22  41  63  86 125 157 196 250 303 346
#     4  10  20  39  60  85 119 164 197 244 300 353
#     4  10  22  41  62  90 121 159 198 248 299 349
#     4  12  23  41  66  91 121 160 202 241 294 361
#     4  10  21  38  64  86 118 156 207 246 290 358
#
# _framework density 19.585162
#
# number of rings (size 3 to 8) (size 9 to 14) (size 15 to 20)
#    0.000    1.714    2.857    1.286    4.000    1.143 
#    2.571    0.000    0.000    0.000    0.000    0.000 
#    0.000    0.000    0.000    0.000    0.000    0.000 
#
# Total GULP energy -347030.263159 kJ/mol
# GULP energy per Si atom -12393.937970 kJ/mol
# Density = 1.954059 g / cm^3
# Si number density = 19.585162 Si / 1000 Ang^3
#
#
#
# Elastic Constant Matrix: (Units=GPa)
#
#
# Indices 1 2 3 4 5 6 
#
# 1 90.4906 25.7653 34.2008 0.0000 -1.7612 0.0000
# 2 25.7653 44.9499 20.8913 0.0000 4.7491 0.0000
# 3 34.2008 20.8913 103.2916 0.0000 -10.0093 0.0000
# 4 0.0000 0.0000 0.0000 33.8510 0.0000 1.1731
# 5 -1.7612 4.7491 -10.0093 0.0000 29.9894 0.0000
# 6 0.0000 0.0000 0.0000 1.1731 0.0000 35.2040
#
#
#
# Elastic Compliance Matrix: (Units=1/GPa)
#
#
# Indices 1 2 3 4 5 6 
#
# 1 0.014214 -0.006713 -0.003271 0.000000 0.000806 0.000000
# 2 -0.006713 0.028717 -0.004200 0.000000 -0.006344 0.000000
# 3 -0.003271 -0.004200 0.012049 0.000000 0.004495 0.000000
# 4 0.000000 0.000000 0.000000 0.029575 0.000000 -0.000986
# 5 0.000806 -0.006344 0.004495 0.000000 0.035897 0.000000
# 6 0.000000 0.000000 0.000000 -0.000986 0.000000 0.028439
#
#
# Mechanical properties :
#
#
# Convention : Reuss Voigt Hill
#
# Bulk Modulus (GPa) = 37.57508 44.49413 41.03460
# Shear Modulus (GPa) = 26.86298 30.33385 28.59842
#
# Velocity S-wave (km/s) = 3.70753 3.93977 3.82541
# Velocity P-wave (km/s) = 6.12820 6.59267 6.36467
#
# Compressibility (1/GPa) = 0.02661338
#
# Stress axis : x y z
#
# Youngs Moduli (GPa) = 70.35347 34.82252 82.99206
#
# Poissons Ratio (x) = 0.23375 0.27143
# Poissons Ratio (y) = 0.47225 0.34859
# Poissons Ratio (z) = 0.23010 0.14627
#
# Static dielectric constant tensor:
#      x y z
#    x 3.491300 0.000000 -0.131760 
#    y 0.000000 3.716070 0.000000 
#    z -0.131760 0.000000 3.709640 
# 
# 
# High freq. dielectric constant tensor:
#      x y z
#    x 1.759320 0.000000 -0.011350 
#    y 0.000000 1.751810 0.000000 
#    z -0.011350 0.000000 1.778440 
# 
# From -- ./inp_files/35769.got.cif
#   From: 2010.06.25/outbox.cif.g09.slc.cpg/sg15_18_cif.got.tgz:35769.got - 2010.06.28 07:06:18.
