data_PCOD8139501
_publ_section_title
;
Structure prediction by ZEFSAII (Michael W. Deem and Ramdas Pophale) SiO2 
 PCOD8139501
Probable space group: C 2/C
;
_chemical_formula_sum "Si O2"
_cell_formula_units_Z 48
_cell_length_a 19.486689
_cell_length_b 19.523908
_cell_length_c 9.084813
_cell_angle_alpha 90.000000
_cell_angle_beta 39.941817
_cell_angle_gamma 90.000000
_cell_volume 2219.024855
_symmetry_space_group_name_H-M "C 2/C"
_symmetry_group_IT_number 15
_symmetry_cell_setting 'monoclinic'
loop_
_space_group_symop_operation_xyz
x,y,z
-x,y,1/2-z
-x,-y,-z
x,-y,1/2+z
1/2+x,1/2+y,z
1/2-x,1/2+y,1/2-z
1/2-x,1/2-y,-z
1/2+x,1/2-y,1/2+z
loop_
_atom_site_type_symbol
_atom_site_label
_atom_site_fract_x
_atom_site_fract_y
_atom_site_fract_z
Si Si1 0.708959 0.486321 0.692934
Si Si2 0.285381 0.910752 0.837616
Si Si3 0.707153 0.203845 0.698080
Si Si4 0.515316 0.173433 0.388995
Si Si5 0.842815 0.784018 0.434523
Si Si6 0.120171 0.910119 0.567204
O O1 0.785305 0.441517 0.673211
O O2 0.785367 0.531929 0.463986
O O3 0.638252 0.438038 0.703068
O O4 0.632690 0.530580 0.924690
O O5 0.392766 0.866607 0.674783
O O6 0.175416 0.865935 0.038976
O O7 0.750000 0.250000 0.500000
O O8 0.796130 0.150344 0.606633
O O9 0.595921 0.165151 0.837463
O O10 0.668687 0.256610 0.882804
O O11 0.500000 0.141740 0.250000
O O12 0.547452 0.255047 0.318205
O O13 0.750000 0.750000 0.500000
O O14 0.000000 0.881160 0.750000
#
# Coordination Sequence:
#
# PCOD8139501 Si02
#       6
#     8   8   8   8   8   8
#     4  10  22  40  62  89 118 158 207 243 290 359
#     4  10  20  39  63  89 123 160 200 246 294 357
#     4  11  23  38  60  95 123 149 200 258 307 351
#     4   9  19  38  62  91 123 158 197 244 303 374
#     4   9  18  36  61  85 116 159 196 234 298 366
#     4  11  23  41  61  85 120 158 199 251 302 355
#
# _framework density 21.631122999999999
#
# number of rings (size 3 to 8) (size 9 to 14) (size 15 to 20)
#    0.000    2.000    0.000    4.500    0.000    4.000 
#    0.000   26.667    0.000    0.000    0.000    0.000 
#    0.000    0.000    0.000    0.000    0.000    0.000 
#
# Total GULP energy -297404.931356 kJ/mol
# GULP energy per Si atom -12391.872140 kJ/mol
# Density = 2.158189 g / cm^3
# Si number density = 21.631123 Si / 1000 Ang^3
#
#
#
# Elastic Constant Matrix: (Units=GPa)
#
#
# Indices 1 2 3 4 5 6 
#
# 1 126.1667 50.8156 66.0774 0.0000 -10.1570 0.0000
# 2 50.8156 99.8172 38.3531 0.0000 -10.0552 0.0000
# 3 66.0774 38.3531 115.1735 0.0000 -21.4141 0.0000
# 4 0.0000 0.0000 0.0000 25.2334 0.0000 0.9429
# 5 -10.1570 -10.0552 -21.4141 0.0000 45.7499 0.0000
# 6 0.0000 0.0000 0.0000 0.9429 0.0000 32.8356
#
#
#
# Elastic Compliance Matrix: (Units=1/GPa)
#
#
# Indices 1 2 3 4 5 6 
#
# 1 0.012740 -0.004249 -0.006071 0.000000 -0.000947 0.000000
# 2 -0.004249 0.012932 -0.001660 0.000000 0.001122 0.000000
# 3 -0.006071 -0.001660 0.013582 0.000000 0.004645 0.000000
# 4 0.000000 0.000000 0.000000 0.039673 0.000000 -0.001139
# 5 -0.000947 0.001122 0.004645 0.000000 0.024068 0.000000
# 6 0.000000 0.000000 0.000000 -0.001139 0.000000 0.030487
#
#
# Mechanical properties :
#
#
# Convention : Reuss Voigt Hill
#
# Bulk Modulus (GPa) = 65.38016 72.40552 68.89284
# Shear Modulus (GPa) = 30.76152 33.15786 31.95969
#
# Velocity S-wave (km/s) = 3.77516 3.91945 3.84798
# Velocity P-wave (km/s) = 7.02090 7.35039 7.18754
#
# Compressibility (1/GPa) = 0.01529516
#
# Stress axis : x y z
#
# Youngs Moduli (GPa) = 78.49015 77.32583 73.62789
#
# Poissons Ratio (x) = 0.32854 0.44697
# Poissons Ratio (y) = 0.33349 0.12224
# Poissons Ratio (z) = 0.47648 0.12838
#
# Static dielectric constant tensor:
#      x y z
#    x 3.948240 0.000000 -0.491640 
#    y 0.000000 3.975620 0.000000 
#    z -0.491640 0.000000 3.927730 
# 
# 
# High freq. dielectric constant tensor:
#      x y z
#    x 1.863690 0.000000 0.003950 
#    y 0.000000 1.839860 0.000000 
#    z 0.003950 0.000000 1.835100 
# 
# From -- ./inp_files/57690.got.cif
#   From: 2010.06.25/outbox.cif.g09.slc.cpg/sg15_29_cif.got.tgz:57690.got - 2010.06.28 07:06:18.
