data_PCOD8139772
_publ_section_title
;
Structure prediction by ZEFSAII (Michael W. Deem and Ramdas Pophale) SiO2 
 PCOD8139772
Probable space group: C 2/C
;
_chemical_formula_sum "Si O2"
_cell_formula_units_Z 56
_cell_length_a 11.431480
_cell_length_b 8.367345
_cell_length_c 30.006016
_cell_angle_alpha 90.000000
_cell_angle_beta 77.108877
_cell_angle_gamma 90.000000
_cell_volume 2797.770650
_symmetry_space_group_name_H-M "C 2/C"
_symmetry_group_IT_number 15
_symmetry_cell_setting 'monoclinic'
loop_
_space_group_symop_operation_xyz
x,y,z
-x,y,1/2-z
-x,-y,-z
x,-y,1/2+z
1/2+x,1/2+y,z
1/2-x,1/2+y,1/2-z
1/2-x,1/2-y,-z
1/2+x,1/2-y,1/2+z
loop_
_atom_site_type_symbol
_atom_site_label
_atom_site_fract_x
_atom_site_fract_y
_atom_site_fract_z
Si Si1 0.450547 0.831622 0.328637
Si Si2 0.686015 0.862711 0.628504
Si Si3 0.139411 0.862123 0.052466
Si Si4 0.339278 0.894625 0.252141
Si Si5 0.628460 0.745984 0.723391
Si Si6 0.410124 0.137784 0.522992
Si Si7 0.535960 0.358800 0.902109
O O1 0.373593 0.778474 0.291187
O O2 0.578852 0.883672 0.298342
O O3 0.471638 0.687753 0.361076
O O4 0.390605 0.977147 0.360050
O O5 0.643661 0.784951 0.586256
O O6 0.654983 0.727556 0.668604
O O7 0.826448 0.912086 0.617706
O O8 0.274845 0.935284 0.038603
O O9 0.095540 0.788606 0.009630
O O10 0.042454 0.996422 0.072289
O O11 0.206146 0.864346 0.248385
O O12 0.347171 0.069339 0.271073
O O13 0.500000 0.689754 0.750000
O O14 0.460961 0.206347 0.565242
O O15 0.500000 0.000000 0.500000
#
# Coordination Sequence:
#
# PCOD8139772 Si02
#       7
#     8   8   8   8   8   8   8
#     4  10  20  40  57  83 123 157 196 252 295 345
#     4  10  21  38  58  84 122 157 197 246 296 350
#     4  10  23  39  61  92 118 152 200 244 294 360
#     4  10  21  39  58  83 119 158 204 249 294 344
#     4  11  21  40  60  83 119 164 201 247 297 347
#     4  10  22  42  63  88 122 155 190 243 303 359
#     4  11  22  38  63  89 122 154 200 248 292 358
#
# _framework density 20.015937000000001
#
# number of rings (size 3 to 8) (size 9 to 14) (size 15 to 20)
#    0.000    1.714    4.286    1.286    0.000    5.143 
#    2.571    0.000    0.000    0.000    0.000    0.000 
#    0.000    0.000    0.000    0.000    0.000    0.000 
#
# Total GULP energy -347074.130687 kJ/mol
# GULP energy per Si atom -12395.504667 kJ/mol
# Density = 1.997038 g / cm^3
# Si number density = 20.015937 Si / 1000 Ang^3
#
#
#
# Elastic Constant Matrix: (Units=GPa)
#
#
# Indices 1 2 3 4 5 6 
#
# 1 122.9528 41.9486 41.1898 0.0000 -17.8842 0.0000
# 2 41.9486 41.2955 24.2744 0.0000 -14.1302 0.0000
# 3 41.1898 24.2744 96.9965 0.0000 -13.6467 0.0000
# 4 0.0000 0.0000 0.0000 37.1097 0.0000 -15.6570
# 5 -17.8842 -14.1302 -13.6467 0.0000 32.7191 0.0000
# 6 0.0000 0.0000 0.0000 -15.6570 0.0000 46.6447
#
#
#
# Elastic Compliance Matrix: (Units=1/GPa)
#
#
# Indices 1 2 3 4 5 6 
#
# 1 0.013018 -0.011340 -0.002526 0.000000 0.001164 0.000000
# 2 -0.011340 0.041632 -0.004192 0.000000 0.010032 0.000000
# 3 -0.002526 -0.004192 0.012729 0.000000 0.002118 0.000000
# 4 0.000000 0.000000 0.000000 0.031393 0.000000 0.010538
# 5 0.001164 0.010032 0.002118 0.000000 0.036416 0.000000
# 6 0.000000 0.000000 0.000000 0.010538 0.000000 0.024976
#
#
# Mechanical properties :
#
#
# Convention : Reuss Voigt Hill
#
# Bulk Modulus (GPa) = 31.98665 52.89670 42.44167
# Shear Modulus (GPa) = 24.18941 33.55016 28.86979
#
# Velocity S-wave (km/s) = 3.48013 4.09855 3.80194
# Velocity P-wave (km/s) = 5.67130 6.99158 6.36576
#
# Compressibility (1/GPa) = 0.03126305
#
# Stress axis : x y z
#
# Youngs Moduli (GPa) = 76.81700 24.01979 78.55802
#
# Poissons Ratio (x) = 0.27239 0.19845
# Poissons Ratio (y) = 0.87114 0.32929
# Poissons Ratio (z) = 0.19406 0.10068
#
# Static dielectric constant tensor:
#      x y z
#    x 3.436360 0.000000 -0.015660 
#    y 0.000000 3.320240 0.000000 
#    z -0.015660 0.000000 4.043830 
# 
# 
# High freq. dielectric constant tensor:
#      x y z
#    x 1.792680 0.000000 0.001660 
#    y 0.000000 1.751890 0.000000 
#    z 0.001660 0.000000 1.803840 
# 
# From -- ./inp_files/291521.got.cif
#   From: 2010.06.25/outbox.cif.g09.slc.cpg/sg15_146_cif.got.tgz:291521.got - 2010.06.28 07:06:18.
