data_PCOD8139035
_publ_section_title
;
Structure prediction by ZEFSAII (Michael W. Deem and Ramdas Pophale) SiO2 
 PCOD8139035
Probable space group: C 2/C
;
_chemical_formula_sum "Si O2"
_cell_formula_units_Z 36
_cell_length_a 13.024557
_cell_length_b 13.571365
_cell_length_c 14.035378
_cell_angle_alpha 90.000000
_cell_angle_beta 44.223012
_cell_angle_gamma 90.000000
_cell_volume 1730.316469
_symmetry_space_group_name_H-M "C 2/C"
_symmetry_group_IT_number 15
_symmetry_cell_setting 'monoclinic'
loop_
_space_group_symop_operation_xyz
x,y,z
-x,y,1/2-z
-x,-y,-z
x,-y,1/2+z
1/2+x,1/2+y,z
1/2-x,1/2+y,1/2-z
1/2-x,1/2-y,-z
1/2+x,1/2-y,1/2+z
loop_
_atom_site_type_symbol
_atom_site_label
_atom_site_fract_x
_atom_site_fract_y
_atom_site_fract_z
Si Si1 0.730051 0.051174 0.851316
Si Si2 0.038504 0.669801 0.126082
Si Si3 0.319110 0.177357 0.112811
Si Si4 0.568671 0.167315 0.801322
Si Si5 0.500000 0.353262 0.250000
O O1 0.660544 0.082187 0.795763
O O2 0.900738 0.079473 0.747084
O O3 0.717757 0.936576 0.878532
O O4 0.647151 0.106899 0.990934
O O5 0.097875 0.779813 0.116752
O O6 0.000000 0.611282 0.250000
O O7 0.885236 0.690951 0.173550
O O8 0.173268 0.242424 0.201583
O O9 0.438786 0.210067 0.954216
O O10 0.500000 0.122410 0.750000
#
# Coordination Sequence:
#
# PCOD8139035 Si02
#       5
#     8   8   8   8   4
#     4  11  23  40  65  95 123 165 210 256 314 371
#     4   9  19  38  66  91 120 164 200 261 317 359
#     4  11  24  41  67  92 127 167 210 259 310 377
#     4  11  23  45  63  92 129 171 204 256 316 372
#     4  10  20  38  64  88 130 152 210 262 306 350
#
# _framework density 20.805443
#
# number of rings (size 3 to 8) (size 9 to 14) (size 15 to 20)
#    0.667    0.889    2.222    4.000    1.556    3.556 
#    0.000    1.111    0.000    0.000    0.000    0.000 
#    0.000    0.000    0.000    0.000    0.000    0.000 
#
# Total GULP energy -223063.216954 kJ/mol
# GULP energy per Si atom -12392.400942 kJ/mol
# Density = 2.075809 g / cm^3
# Si number density = 20.805443 Si / 1000 Ang^3
#
#
#
# Elastic Constant Matrix: (Units=GPa)
#
#
# Indices 1 2 3 4 5 6 
#
# 1 96.6038 18.2510 35.0713 0.0000 19.2026 0.0000
# 2 18.2510 61.0096 18.9068 0.0000 -23.1479 0.0000
# 3 35.0713 18.9068 84.8243 0.0000 2.2712 0.0000
# 4 0.0000 0.0000 0.0000 13.8353 0.0000 -11.6609
# 5 19.2026 -23.1479 2.2712 0.0000 33.4233 0.0000
# 6 0.0000 0.0000 0.0000 -11.6609 0.0000 12.1662
#
#
#
# Elastic Compliance Matrix: (Units=1/GPa)
#
#
# Indices 1 2 3 4 5 6 
#
# 1 0.017110 -0.009996 -0.004406 0.000000 -0.016454 0.000000
# 2 -0.009996 0.030824 -0.003469 0.000000 0.027327 0.000000
# 3 -0.004406 -0.003469 0.014407 0.000000 -0.000850 0.000000
# 4 0.000000 0.000000 0.000000 0.376116 0.000000 0.360494
# 5 -0.016454 0.027327 -0.000850 0.000000 0.058356 0.000000
# 6 0.000000 0.000000 0.000000 0.360494 0.000000 0.427716
#
#
# Mechanical properties :
#
#
# Convention : Reuss Voigt Hill
#
# Bulk Modulus (GPa) = 37.59504 42.98841 40.29173
# Shear Modulus (GPa) = 5.15923 23.23221 14.19572
#
# Velocity S-wave (km/s) = 1.57643 3.34524 2.61494
# Velocity P-wave (km/s) = 4.62845 5.96890 5.34090
#
# Compressibility (1/GPa) = 0.02659925
#
# Stress axis : x y z
#
# Youngs Moduli (GPa) = 58.44490 32.44187 69.41198
#
# Poissons Ratio (x) = 0.32429 0.30581
# Poissons Ratio (y) = 0.58421 0.24081
# Poissons Ratio (z) = 0.25749 0.11255
#
# Static dielectric constant tensor:
#      x y z
#    x 4.139610 0.000000 0.062590 
#    y 0.000000 3.550090 0.000000 
#    z 0.062590 0.000000 3.587890 
# 
# 
# High freq. dielectric constant tensor:
#      x y z
#    x 1.833810 0.000000 0.006410 
#    y 0.000000 1.802010 0.000000 
#    z 0.006410 0.000000 1.798450 
# 
# From -- ./inp_files/153210.got.cif
#   From: 2010.06.25/outbox.cif.g09.slc.cpg/sg15_77_cif.got.tgz:153210.got - 2010.06.28 07:06:18.
