data_PCOD8139102
_publ_section_title
;
Structure prediction by ZEFSAII (Michael W. Deem and Ramdas Pophale) SiO2 
 PCOD8139102
Probable space group: C 2/C
;
_chemical_formula_sum "Si O2"
_cell_formula_units_Z 64
_cell_length_a 21.847881
_cell_length_b 9.355118
_cell_length_c 28.418343
_cell_angle_alpha 90.000000
_cell_angle_beta 149.007602
_cell_angle_gamma 90.000000
_cell_volume 2990.892237
_symmetry_space_group_name_H-M "C 2/C"
_symmetry_group_IT_number 15
_symmetry_cell_setting 'monoclinic'
loop_
_space_group_symop_operation_xyz
x,y,z
-x,y,1/2-z
-x,-y,-z
x,-y,1/2+z
1/2+x,1/2+y,z
1/2-x,1/2+y,1/2-z
1/2-x,1/2-y,-z
1/2+x,1/2-y,1/2+z
loop_
_atom_site_type_symbol
_atom_site_label
_atom_site_fract_x
_atom_site_fract_y
_atom_site_fract_z
Si Si1 0.151841 0.195371 0.294401
Si Si2 0.541653 0.705744 0.620999
Si Si3 0.298631 0.367187 0.928679
Si Si4 0.601004 0.978523 0.145489
Si Si5 0.717693 0.614824 0.814292
Si Si6 0.202628 0.375626 0.412905
Si Si7 0.801569 0.929614 0.348452
Si Si8 0.433094 0.784475 0.089704
O O1 0.130838 0.263367 0.332369
O O2 0.263908 0.278618 0.346141
O O3 0.037159 0.203338 0.185619
O O4 0.183585 0.029843 0.318509
O O5 0.402765 0.669618 0.534308
O O6 0.606988 0.684914 0.713663
O O7 0.593814 0.589808 0.619468
O O8 0.555705 0.861656 0.606539
O O9 0.245241 0.219818 0.875179
O O10 0.199144 0.464564 0.888992
O O11 0.347844 0.456594 0.916665
O O12 0.669609 0.910483 0.146089
O O13 0.686267 0.993483 0.246593
O O14 0.487912 0.878900 0.083605
O O15 0.341236 0.329587 0.507715
O O16 0.139192 0.384713 0.421490
#
# Coordination Sequence:
#
# PCOD8139102 Si02
#       8
#     8   8   8   8   8   8   8   8
#     4  10  20  38  65  88 120 158 203 251 301 364
#     4  11  21  36  59  87 130 166 197 244 320 368
#     4  11  23  37  61  92 127 162 201 257 310 358
#     4  10  21  37  62  92 125 164 194 253 314 364
#     4  11  23  38  61  96 130 154 198 256 315 374
#     4  10  23  43  65  91 116 163 219 254 289 358
#     4   9  19  37  55  88 123 162 202 241 295 380
#     4  10  22  42  69  85 120 165 217 247 294 363
#
# _framework density 21.398295999999998
#
# number of rings (size 3 to 8) (size 9 to 14) (size 15 to 20)
#    0.000    1.750    2.500    1.500    1.750    3.500 
#    0.000    0.625    5.500    0.000    0.000    0.000 
#    0.000    0.000    0.000    0.000    0.000    0.000 
#
# Total GULP energy -396799.171022 kJ/mol
# GULP energy per Si atom -12399.974094 kJ/mol
# Density = 2.134959 g / cm^3
# Si number density = 21.398296 Si / 1000 Ang^3
#
#
#
# Elastic Constant Matrix: (Units=GPa)
#
#
# Indices 1 2 3 4 5 6 
#
# 1 55.0514 21.5496 4.7827 -0.0004 5.1365 0.0002
# 2 21.5496 132.5633 30.3755 0.0000 8.3296 0.0009
# 3 4.7827 30.3755 76.3157 0.0011 7.7505 -0.0001
# 4 -0.0004 0.0000 0.0011 25.8743 0.0001 -5.8767
# 5 5.1365 8.3296 7.7505 0.0001 19.3897 0.0001
# 6 0.0002 0.0009 -0.0001 -5.8767 0.0001 15.9706
#
#
#
# Elastic Compliance Matrix: (Units=1/GPa)
#
#
# Indices 1 2 3 4 5 6 
#
# 1 0.019699 -0.003035 0.000387 0.000000 -0.004069 0.000000
# 2 -0.003035 0.008871 -0.003164 0.000000 -0.001742 0.000000
# 3 0.000387 -0.003164 0.014812 -0.000001 -0.004664 0.000000
# 4 0.000000 0.000000 -0.000001 0.042173 0.000000 0.015518
# 5 -0.004069 -0.001742 -0.004664 0.000000 0.055264 0.000000
# 6 0.000000 0.000000 0.000000 0.015518 0.000000 0.068325
#
#
# Mechanical properties :
#
#
# Convention : Reuss Voigt Hill
#
# Bulk Modulus (GPa) = 31.48805 41.92733 36.70769
# Shear Modulus (GPa) = 21.61170 26.06176 23.83673
#
# Velocity S-wave (km/s) = 3.18146 3.49368 3.34122
# Velocity P-wave (km/s) = 5.31439 5.99255 5.66363
#
# Compressibility (1/GPa) = 0.03175808
#
# Stress axis : x y z
#
# Youngs Moduli (GPa) = 50.76388 112.72142 67.51189
#
# Poissons Ratio (x) = 0.34214 -0.02612
# Poissons Ratio (y) = 0.15408 0.21360
# Poissons Ratio (z) = -0.01964 0.35664
#
# Static dielectric constant tensor:
#      x y z
#    x 3.621510 0.000000 -0.056510 
#    y 0.000000 3.772320 0.000000 
#    z -0.056510 0.000000 3.904730 
# 
# 
# High freq. dielectric constant tensor:
#      x y z
#    x 1.814500 0.000000 -0.005180 
#    y 0.000000 1.839460 0.000000 
#    z -0.005180 0.000000 1.843770 
# 
# From -- ./inp_files/318633.got.cif
#   From: 2010.06.25/outbox.cif.g09.slc.cpg/sg15_160_cif.got.tgz:318633.got - 2010.06.28 07:06:18.
