data_PCOD8139564
_publ_section_title
;
Structure prediction by ZEFSAII (Michael W. Deem and Ramdas Pophale) SiO2 
 PCOD8139564
Probable space group: C 2/C
;
_chemical_formula_sum "Si O2"
_cell_formula_units_Z 48
_cell_length_a 8.869689
_cell_length_b 15.563644
_cell_length_c 20.049591
_cell_angle_alpha 90.000000
_cell_angle_beta 127.038342
_cell_angle_gamma 90.000000
_cell_volume 2209.299829
_symmetry_space_group_name_H-M "C 2/C"
_symmetry_group_IT_number 15
_symmetry_cell_setting 'monoclinic'
loop_
_space_group_symop_operation_xyz
x,y,z
-x,y,1/2-z
-x,-y,-z
x,-y,1/2+z
1/2+x,1/2+y,z
1/2-x,1/2+y,1/2-z
1/2-x,1/2-y,-z
1/2+x,1/2-y,1/2+z
loop_
_atom_site_type_symbol
_atom_site_label
_atom_site_fract_x
_atom_site_fract_y
_atom_site_fract_z
Si Si1 0.273898 0.752939 0.704125
Si Si2 0.327762 0.431941 0.255758
Si Si3 0.494949 0.572095 0.942199
Si Si4 0.644483 0.158900 0.471840
Si Si5 0.593391 0.089104 0.205813
Si Si6 0.941585 0.759989 0.511270
O O1 0.500000 0.755430 0.750000
O O2 0.227757 0.661698 0.726377
O O3 0.244866 0.836491 0.743499
O O4 0.132719 0.768268 0.605280
O O5 0.500000 0.433612 0.250000
O O6 0.373455 0.453697 0.345259
O O7 0.182004 0.505544 0.193802
O O8 0.703189 0.587409 0.965853
O O9 0.418235 0.658544 0.956505
O O10 0.500000 0.500000 0.000000
O O11 0.750000 0.250000 0.500000
O O12 0.574415 0.130100 0.381398
O O13 0.469365 0.171400 0.476175
O O14 0.500000 0.059518 0.250000
O O15 0.750000 0.750000 0.500000
#
# Coordination Sequence:
#
# PCOD8139564 Si02
#       6
#     8   8   8   8   8   8
#     4  10  20  41  66  89 127 178 222 267 336 420
#     4  11  24  42  64  96 132 174 223 279 341 410
#     4  11  22  42  67  93 129 176 225 275 336 418
#     4  10  20  39  64  89 123 174 219 263 335 413
#     4  11  22  39  64  94 124 166 222 276 330 403
#     4  11  24  41  64  97 129 168 222 284 343 404
#
# _framework density 21.72634
#
# number of rings (size 3 to 8) (size 9 to 14) (size 15 to 20)
#    0.000    1.333    0.000   10.000    0.000    5.333 
#    0.000    5.000    0.000    0.000    0.000    0.000 
#    0.000    0.000    0.000    0.000    0.000    0.000 
#
# Total GULP energy -297328.289087 kJ/mol
# GULP energy per Si atom -12388.678712 kJ/mol
# Density = 2.167689 g / cm^3
# Si number density = 21.726340 Si / 1000 Ang^3
#
#
#
# Elastic Constant Matrix: (Units=GPa)
#
#
# Indices 1 2 3 4 5 6 
#
# 1 120.8633 37.8148 19.1176 0.0000 5.6738 0.0000
# 2 37.8148 130.4479 12.5162 0.0000 4.6453 0.0000
# 3 19.1176 12.5162 104.2947 0.0000 3.3677 0.0000
# 4 0.0000 0.0000 0.0000 33.6706 0.0000 -1.1145
# 5 5.6738 4.6453 3.3677 0.0000 23.7332 0.0000
# 6 0.0000 0.0000 0.0000 -1.1145 0.0000 37.5296
#
#
#
# Elastic Compliance Matrix: (Units=1/GPa)
#
#
# Indices 1 2 3 4 5 6 
#
# 1 0.009352 -0.002525 -0.001361 0.000000 -0.001548 0.000000
# 2 -0.002525 0.008483 -0.000523 0.000000 -0.000982 0.000000
# 3 -0.001361 -0.000523 0.009932 0.000000 -0.000982 0.000000
# 4 0.000000 0.000000 0.000000 0.029729 0.000000 0.000883
# 5 -0.001548 -0.000982 -0.000982 0.000000 0.042837 0.000000
# 6 0.000000 0.000000 0.000000 0.000883 0.000000 0.026672
#
#
# Mechanical properties :
#
#
# Convention : Reuss Voigt Hill
#
# Bulk Modulus (GPa) = 52.77732 54.94479 53.86106
# Shear Modulus (GPa) = 35.17657 38.06383 36.62020
#
# Velocity S-wave (km/s) = 4.02814 4.19019 4.10996
# Velocity P-wave (km/s) = 6.78079 6.98245 6.88236
#
# Compressibility (1/GPa) = 0.01894753
#
# Stress axis : x y z
#
# Youngs Moduli (GPa) = 106.93044 117.88106 100.68221
#
# Poissons Ratio (x) = 0.29768 0.13705
# Poissons Ratio (y) = 0.27002 0.05270
# Poissons Ratio (z) = 0.14555 0.06170
#
# Static dielectric constant tensor:
#      x y z
#    x 4.055880 0.000000 -0.076230 
#    y 0.000000 4.442360 0.000000 
#    z -0.076230 0.000000 4.020930 
# 
# 
# High freq. dielectric constant tensor:
#      x y z
#    x 1.830040 0.000000 -0.003930 
#    y 0.000000 1.863730 0.000000 
#    z -0.003930 0.000000 1.861390 
# 
# From -- ./inp_files/232882.got.cif
#   From: 2010.06.25/outbox.cif.g09.slc.cpg/sg15_117_cif.got.tgz:232882.got - 2010.06.28 07:06:18.
