data_PCOD8139766
_publ_section_title
;
Structure prediction by ZEFSAII (Michael W. Deem and Ramdas Pophale) SiO2 
 PCOD8139766
Probable space group: C 2/C
;
_chemical_formula_sum "Si O2"
_cell_formula_units_Z 52
_cell_length_a 6.508839
_cell_length_b 14.265616
_cell_length_c 26.506518
_cell_angle_alpha 90.000000
_cell_angle_beta 65.995256
_cell_angle_gamma 90.000000
_cell_volume 2248.334323
_symmetry_space_group_name_H-M "C 2/C"
_symmetry_group_IT_number 15
_symmetry_cell_setting 'monoclinic'
loop_
_space_group_symop_operation_xyz
x,y,z
-x,y,1/2-z
-x,-y,-z
x,-y,1/2+z
1/2+x,1/2+y,z
1/2-x,1/2+y,1/2-z
1/2-x,1/2-y,-z
1/2+x,1/2-y,1/2+z
loop_
_atom_site_type_symbol
_atom_site_label
_atom_site_fract_x
_atom_site_fract_y
_atom_site_fract_z
Si Si1 0.382005 0.330553 0.421587
Si Si2 0.000000 0.961512 0.750000
Si Si3 0.567627 0.042539 0.840143
Si Si4 0.436598 0.790402 0.515279
Si Si5 0.255821 0.972221 0.577694
Si Si6 0.697284 0.588863 0.329654
Si Si7 0.161162 0.206564 0.685738
O O1 0.572743 0.274484 0.433255
O O2 0.346290 0.438897 0.442575
O O3 0.444708 0.334280 0.355858
O O4 0.157866 0.274533 0.459531
O O5 0.846605 0.903439 0.726107
O O6 0.824664 0.022934 0.798067
O O7 0.589325 0.156585 0.832380
O O8 0.562007 0.006742 0.898345
O O9 0.364570 0.997972 0.828035
O O10 0.250000 0.750000 0.500000
O O11 0.396619 0.901008 0.529143
O O12 0.041614 0.915785 0.619716
O O13 0.818460 0.684822 0.330819
O O14 0.000000 0.190936 0.750000
#
# Coordination Sequence:
#
# PCOD8139766 Si02
#       7
#     8   4   8   8   8   8   8
#     4  10  24  43  65  98 136 173 226 288 337 416
#     4  10  20  40  54  88 126 166 222 268 324 402
#     4  10  21  40  64  88 132 174 219 276 343 404
#     4  11  23  42  69  96 134 177 228 282 347 411
#     4  10  23  40  64  96 133 171 225 279 346 410
#     4  11  23  39  63  93 132 177 219 282 338 412
#     4  11  22  42  68  99 132 173 229 283 344 413
#
# _framework density 23.128232000000001
#
# number of rings (size 3 to 8) (size 9 to 14) (size 15 to 20)
#    0.000    1.538    0.769    3.692    0.000    6.769 
#    2.769    3.077    0.000    0.000    0.000    0.000 
#    0.000    0.000    0.000    0.000    0.000    0.000 
#
# Total GULP energy -322092.016023 kJ/mol
# GULP energy per Si atom -12388.154462 kJ/mol
# Density = 2.307559 g / cm^3
# Si number density = 23.128232 Si / 1000 Ang^3
#
#
#
# Elastic Constant Matrix: (Units=GPa)
#
#
# Indices 1 2 3 4 5 6 
#
# 1 98.5561 35.7399 24.2671 0.0000 13.7601 0.0001
# 2 35.7399 119.8454 20.8899 0.0000 22.0964 0.0000
# 3 24.2671 20.8899 97.9028 0.0002 5.6170 0.0000
# 4 0.0000 0.0000 0.0002 30.7476 -0.0001 -3.4618
# 5 13.7601 22.0964 5.6170 -0.0001 24.9470 0.0000
# 6 0.0001 0.0000 0.0000 -3.4618 0.0000 29.0041
#
#
#
# Elastic Compliance Matrix: (Units=1/GPa)
#
#
# Indices 1 2 3 4 5 6 
#
# 1 0.012165 -0.002500 -0.002253 0.000000 -0.003988 0.000000
# 2 -0.002500 0.010754 -0.001223 0.000000 -0.007871 0.000000
# 3 -0.002253 -0.001223 0.011043 0.000000 -0.000160 0.000000
# 4 0.000000 0.000000 0.000000 0.032966 0.000000 0.003935
# 5 -0.003988 -0.007871 -0.000160 0.000000 0.049292 0.000000
# 6 0.000000 0.000000 0.000000 0.003935 0.000000 0.034947
#
#
# Mechanical properties :
#
#
# Convention : Reuss Voigt Hill
#
# Bulk Modulus (GPa) = 45.43552 53.12202 49.27877
# Shear Modulus (GPa) = 29.33313 32.63358 30.98336
#
# Velocity S-wave (km/s) = 3.56516 3.76038 3.66407
# Velocity P-wave (km/s) = 6.05267 6.47088 6.26527
#
# Compressibility (1/GPa) = 0.02200921
#
# Stress axis : x y z
#
# Youngs Moduli (GPa) = 82.20604 92.98903 90.55581
#
# Poissons Ratio (x) = 0.23243 0.20403
# Poissons Ratio (y) = 0.20548 0.11079
# Poissons Ratio (z) = 0.18521 0.11377
#
# Static dielectric constant tensor:
#      x y z
#    x 3.908340 0.000000 0.119470 
#    y 0.000000 3.453890 0.000000 
#    z 0.119470 0.000000 4.265530 
# 
# 
# High freq. dielectric constant tensor:
#      x y z
#    x 1.895600 0.000000 -0.000660 
#    y 0.000000 1.922860 0.000000 
#    z -0.000660 0.000000 1.918050 
# 
# From -- ./inp_files/305363.got.cif
#   From: 2010.06.25/outbox.cif.g09.slc.cpg/sg15_153_cif.got.tgz:305363.got - 2010.06.28 07:06:18.
