data_PCOD8139266
_publ_section_title
;
Structure prediction by ZEFSAII (Michael W. Deem and Ramdas Pophale) SiO2 
 PCOD8139266
Probable space group: C 2/C
;
_chemical_formula_sum "Si O2"
_cell_formula_units_Z 44
_cell_length_a 10.786750
_cell_length_b 14.606705
_cell_length_c 20.037110
_cell_angle_alpha 90.000000
_cell_angle_beta 139.031046
_cell_angle_gamma 90.000000
_cell_volume 2069.903089
_symmetry_space_group_name_H-M "C 2/C"
_symmetry_group_IT_number 15
_symmetry_cell_setting 'monoclinic'
loop_
_space_group_symop_operation_xyz
x,y,z
-x,y,1/2-z
-x,-y,-z
x,-y,1/2+z
1/2+x,1/2+y,z
1/2-x,1/2+y,1/2-z
1/2-x,1/2-y,-z
1/2+x,1/2-y,1/2+z
loop_
_atom_site_type_symbol
_atom_site_label
_atom_site_fract_x
_atom_site_fract_y
_atom_site_fract_z
Si Si1 0.552487 0.396761 0.504456
Si Si2 0.334524 0.740071 0.337952
Si Si3 0.500000 0.635383 0.750000
Si Si4 0.102506 0.367366 0.510136
Si Si5 0.793811 0.268855 0.174196
Si Si6 0.766466 0.435278 0.462786
O O1 0.500000 0.500000 0.500000
O O2 0.634611 0.350460 0.604782
O O3 0.369019 0.344301 0.401440
O O4 0.717326 0.394150 0.515386
O O5 0.520012 0.804822 0.417293
O O6 0.285310 0.717233 0.242005
O O7 0.164759 0.799080 0.295739
O O8 0.421568 0.570425 0.659285
O O9 0.275621 0.313236 0.613662
O O10 0.177906 0.458861 0.506929
O O11 0.943006 0.381307 0.502744
O O12 0.000000 0.315781 0.250000
#
# Coordination Sequence:
#
# PCOD8139266 Si02
#       6
#     8   8   4   8   8   8
#     4  11  26  43  66  94 134 172 218 279 323 384
#     4  10  23  42  64  97 127 173 216 268 330 387
#     4  10  20  38  70  92 124 164 218 270 318 396
#     4   9  23  40  68  93 131 172 204 277 322 390
#     4  11  25  43  66  94 132 176 221 260 334 398
#     4  10  21  42  64  98 129 162 220 264 329 383
#
# _framework density 21.257034000000001
#
# number of rings (size 3 to 8) (size 9 to 14) (size 15 to 20)
#    0.000    1.818    1.818    0.000    8.909    3.636 
#    4.909    0.000    0.000    0.000    0.000    0.000 
#    0.000    0.000    0.000    0.000    0.000    0.000 
#
# Total GULP energy -272752.737602 kJ/mol
# GULP energy per Si atom -12397.851709 kJ/mol
# Density = 2.120865 g / cm^3
# Si number density = 21.257034 Si / 1000 Ang^3
#
#
#
# Elastic Constant Matrix: (Units=GPa)
#
#
# Indices 1 2 3 4 5 6 
#
# 1 61.1731 16.1959 24.9998 0.0000 1.8849 0.0000
# 2 16.1959 82.3453 35.1811 0.0000 6.6023 0.0000
# 3 24.9998 35.1811 118.3215 0.0000 -3.8850 0.0000
# 4 0.0000 0.0000 0.0000 21.1150 0.0000 4.8367
# 5 1.8849 6.6023 -3.8850 0.0000 30.3175 0.0000
# 6 0.0000 0.0000 0.0000 4.8367 0.0000 30.7614
#
#
#
# Elastic Compliance Matrix: (Units=1/GPa)
#
#
# Indices 1 2 3 4 5 6 
#
# 1 0.018276 -0.002110 -0.003270 0.000000 -0.001096 0.000000
# 2 -0.002110 0.014551 -0.003997 0.000000 -0.003550 0.000000
# 3 -0.003270 -0.003997 0.010410 0.000000 0.002408 0.000000
# 4 0.000000 0.000000 0.000000 0.049129 0.000000 -0.007725
# 5 -0.001096 -0.003550 0.002408 0.000000 0.034134 0.000000
# 6 0.000000 0.000000 0.000000 -0.007725 0.000000 0.033723
#
#
# Mechanical properties :
#
#
# Convention : Reuss Voigt Hill
#
# Bulk Modulus (GPa) = 40.84476 46.06596 43.45536
# Shear Modulus (GPa) = 26.71813 28.80296 27.76054
#
# Velocity S-wave (km/s) = 3.54914 3.68501 3.61771
# Velocity P-wave (km/s) = 6.00430 6.31060 6.15935
#
# Compressibility (1/GPa) = 0.02448295
#
# Stress axis : x y z
#
# Youngs Moduli (GPa) = 54.71723 68.72187 96.06010
#
# Poissons Ratio (x) = 0.14497 0.31413
# Poissons Ratio (y) = 0.11543 0.38400
# Poissons Ratio (z) = 0.17894 0.27472
#
# Static dielectric constant tensor:
#      x y z
#    x 3.895590 0.000000 -0.059750 
#    y 0.000000 3.737400 0.000000 
#    z -0.059750 0.000000 4.343420 
# 
# 
# High freq. dielectric constant tensor:
#      x y z
#    x 1.838830 0.000000 0.003210 
#    y 0.000000 1.825270 0.000000 
#    z 0.003210 0.000000 1.844300 
# 
# From -- ./inp_files/86073.got.cif
#   From: 2010.06.25/outbox.cif.g09.slc.cpg/sg15_44_cif.got.tgz:86073.got - 2010.06.28 07:06:18.
