data_PCOD8139788
_publ_section_title
;
Structure prediction by ZEFSAII (Michael W. Deem and Ramdas Pophale) SiO2 
 PCOD8139788
Probable space group: C 2/C
;
_chemical_formula_sum "Si O2"
_cell_formula_units_Z 44
_cell_length_a 25.292510
_cell_length_b 11.932739
_cell_length_c 12.732829
_cell_angle_alpha 90.000000
_cell_angle_beta 35.388590
_cell_angle_gamma 90.000000
_cell_volume 2225.484984
_symmetry_space_group_name_H-M "C 2/C"
_symmetry_group_IT_number 15
_symmetry_cell_setting 'monoclinic'
loop_
_space_group_symop_operation_xyz
x,y,z
-x,y,1/2-z
-x,-y,-z
x,-y,1/2+z
1/2+x,1/2+y,z
1/2-x,1/2+y,1/2-z
1/2-x,1/2-y,-z
1/2+x,1/2-y,1/2+z
loop_
_atom_site_type_symbol
_atom_site_label
_atom_site_fract_x
_atom_site_fract_y
_atom_site_fract_z
Si Si1 0.675212 0.353995 0.520175
Si Si2 0.462484 0.884008 0.519383
Si Si3 0.557959 0.211370 0.052532
Si Si4 0.804445 0.853274 0.782584
Si Si5 0.194692 0.503245 0.816360
Si Si6 0.000000 0.265202 0.250000
O O1 0.749673 0.257869 0.397247
O O2 0.649844 0.389601 0.680737
O O3 0.719649 0.460176 0.391569
O O4 0.586895 0.315437 0.598196
O O5 0.484177 0.797169 0.577148
O O6 0.355677 0.902194 0.665524
O O7 0.513149 0.843514 0.331011
O O8 0.500000 0.000000 0.500000
O O9 0.500000 0.233556 0.250000
O O10 0.619474 0.320797 0.927778
O O11 0.621931 0.100902 0.962303
O O12 0.736705 0.951566 0.854617
#
# Coordination Sequence:
#
# PCOD8139788 Si02
#       6
#     8   8   8   8   8   4
#     4  10  22  37  62  89 121 160 205 247 304 362
#     4  10  22  34  61  95 114 158 201 255 294 349
#     4  10  22  38  59  92 124 153 200 250 309 352
#     4  10  20  40  59  88 123 158 197 257 302 356
#     4  10  22  36  61  89 120 157 203 248 302 357
#     4  12  20  42  64  88 124 162 206 248 298 368
#
# _framework density 19.770970999999999
#
# number of rings (size 3 to 8) (size 9 to 14) (size 15 to 20)
#    0.000    1.818    3.636    0.000   10.182    0.000 
#    1.636    3.636    0.000    0.000    0.000    0.000 
#    0.000    0.000    0.000    0.000    0.000    0.000 
#
# Total GULP energy -272674.326364 kJ/mol
# GULP energy per Si atom -12394.287562 kJ/mol
# Density = 1.972597 g / cm^3
# Si number density = 19.770971 Si / 1000 Ang^3
#
#
#
# Elastic Constant Matrix: (Units=GPa)
#
#
# Indices 1 2 3 4 5 6 
#
# 1 99.9751 23.5144 42.5536 0.0000 15.1283 0.0000
# 2 23.5144 42.1971 26.6866 0.0000 2.9110 0.0000
# 3 42.5536 26.6866 118.7301 0.0000 15.6603 0.0000
# 4 0.0000 0.0000 0.0000 17.7816 0.0000 -8.4355
# 5 15.1283 2.9110 15.6603 0.0000 36.2147 0.0000
# 6 0.0000 0.0000 0.0000 -8.4355 0.0000 26.9515
#
#
#
# Elastic Compliance Matrix: (Units=1/GPa)
#
#
# Indices 1 2 3 4 5 6 
#
# 1 0.013061 -0.005096 -0.003044 0.000000 -0.003730 0.000000
# 2 -0.005096 0.029622 -0.005089 0.000000 0.001948 0.000000
# 3 -0.003044 -0.005089 0.011067 0.000000 -0.003105 0.000000
# 4 0.000000 0.000000 0.000000 0.066044 0.000000 0.020671
# 5 -0.003730 0.001948 -0.003105 0.000000 0.030358 0.000000
# 6 0.000000 0.000000 0.000000 0.020671 0.000000 0.043574
#
#
# Mechanical properties :
#
#
# Convention : Reuss Voigt Hill
#
# Bulk Modulus (GPa) = 36.63948 49.60126 43.12037
# Shear Modulus (GPa) = 21.80747 27.39939 24.60343
#
# Velocity S-wave (km/s) = 3.32475 3.72673 3.53146
# Velocity P-wave (km/s) = 5.77155 6.60760 6.20368
#
# Compressibility (1/GPa) = 0.02729296
#
# Stress axis : x y z
#
# Youngs Moduli (GPa) = 76.56318 33.75891 90.36165
#
# Poissons Ratio (x) = 0.17204 0.27504
# Poissons Ratio (y) = 0.39017 0.45981
# Poissons Ratio (z) = 0.23304 0.17178
#
# Static dielectric constant tensor:
#      x y z
#    x 4.024910 0.000000 -0.041530 
#    y 0.000000 3.446320 0.000000 
#    z -0.041530 0.000000 3.600630 
# 
# 
# High freq. dielectric constant tensor:
#      x y z
#    x 1.784320 0.000000 0.001290 
#    y 0.000000 1.740190 0.000000 
#    z 0.001290 0.000000 1.759170 
# 
# From -- ./inp_files/95083.got.cif
#   From: 2010.06.25/outbox.cif.g09.slc.cpg/sg15_48_cif.got.tgz:95083.got - 2010.06.28 07:06:18.
