data_PCOD8139363
_publ_section_title
;
Structure prediction by ZEFSAII (Michael W. Deem and Ramdas Pophale) SiO2 
 PCOD8139363
Probable space group: C 2/C
;
_chemical_formula_sum "Si O2"
_cell_formula_units_Z 40
_cell_length_a 22.063850
_cell_length_b 8.960951
_cell_length_c 9.995636
_cell_angle_alpha 90.000000
_cell_angle_beta 90.815113
_cell_angle_gamma 90.000000
_cell_volume 1976.067982
_symmetry_space_group_name_H-M "C 2/C"
_symmetry_group_IT_number 15
_symmetry_cell_setting 'monoclinic'
loop_
_space_group_symop_operation_xyz
x,y,z
-x,y,1/2-z
-x,-y,-z
x,-y,1/2+z
1/2+x,1/2+y,z
1/2-x,1/2+y,1/2-z
1/2-x,1/2-y,-z
1/2+x,1/2-y,1/2+z
loop_
_atom_site_type_symbol
_atom_site_label
_atom_site_fract_x
_atom_site_fract_y
_atom_site_fract_z
Si Si1 0.174452 0.282043 0.246884
Si Si2 0.108933 0.661290 0.479552
Si Si3 0.381831 0.819298 0.983585
Si Si4 0.202316 0.622154 0.257336
Si Si5 0.503578 0.361393 0.098601
O O1 0.137556 0.239475 0.379257
O O2 0.202837 0.444614 0.264372
O O3 0.228241 0.166849 0.224050
O O4 0.127955 0.271968 0.122839
O O5 0.093511 0.485995 0.488905
O O6 0.163126 0.690303 0.376905
O O7 0.049333 0.743893 0.429354
O O8 0.323704 0.822544 0.884872
O O9 0.433355 0.722856 0.916713
O O10 0.500000 0.421217 0.250000
O O11 0.500000 0.500000 0.000000
#
# Coordination Sequence:
#
# PCOD8139363 Si02
#       5
#     8   8   8   8   8
#     4  10  22  35  64  93 125 160 206 248 305 372
#     4  10  22  42  65  90 123 167 210 251 306 370
#     4  10  22  42  65  90 123 167 210 251 306 370
#     4  10  20  39  60  93 125 164 204 252 305 362
#     4  12  27  44  64  92 126 160 207 264 318 366
#
# _framework density 20.242217
#
# number of rings (size 3 to 8) (size 9 to 14) (size 15 to 20)
#    0.000    1.600    2.000    1.800    2.800    3.200 
#    0.000    0.000    0.000    0.000    0.000    0.000 
#    0.000    0.000    0.000    0.000    0.000    0.000 
#
# Total GULP energy -248120.354627 kJ/mol
# GULP energy per Si atom -12406.017731 kJ/mol
# Density = 2.019614 g / cm^3
# Si number density = 20.242217 Si / 1000 Ang^3
#
#
#
# Elastic Constant Matrix: (Units=GPa)
#
#
# Indices 1 2 3 4 5 6 
#
# 1 74.1573 23.9454 16.1032 0.0000 -12.5190 0.0000
# 2 23.9454 49.2111 17.3388 0.0000 -2.7796 0.0000
# 3 16.1032 17.3388 127.4110 0.0000 -25.1555 0.0000
# 4 0.0000 0.0000 0.0000 24.2141 0.0000 0.6420
# 5 -12.5190 -2.7796 -25.1555 0.0000 27.2601 0.0000
# 6 0.0000 0.0000 0.0000 0.6420 0.0000 27.1140
#
#
#
# Elastic Compliance Matrix: (Units=1/GPa)
#
#
# Indices 1 2 3 4 5 6 
#
# 1 0.017285 -0.008129 0.000398 0.000000 0.007476 0.000000
# 2 -0.008129 0.025175 -0.003214 0.000000 -0.004132 0.000000
# 3 0.000398 -0.003214 0.010036 0.000000 0.009116 0.000000
# 4 0.000000 0.000000 0.000000 0.041324 0.000000 -0.000978
# 5 0.007476 -0.004132 0.009116 0.000000 0.048108 0.000000
# 6 0.000000 0.000000 0.000000 -0.000978 0.000000 0.036905
#
#
# Mechanical properties :
#
#
# Convention : Reuss Voigt Hill
#
# Bulk Modulus (GPa) = 32.67436 40.61712 36.64574
# Shear Modulus (GPa) = 23.70512 28.61043 26.15777
#
# Velocity S-wave (km/s) = 3.42581 3.76360 3.59867
# Velocity P-wave (km/s) = 5.64136 6.24463 5.95064
#
# Compressibility (1/GPa) = 0.03060503
#
# Stress axis : x y z
#
# Youngs Moduli (GPa) = 57.85249 39.72192 99.64566
#
# Poissons Ratio (x) = 0.32288 -0.03962
# Poissons Ratio (y) = 0.47026 0.32031
# Poissons Ratio (z) = -0.02300 0.12768
#
# Static dielectric constant tensor:
#      x y z
#    x 3.553290 0.000000 -0.133560 
#    y 0.000000 3.547270 0.000000 
#    z -0.133560 0.000000 3.987540 
# 
# 
# High freq. dielectric constant tensor:
#      x y z
#    x 1.791280 0.000000 -0.003830 
#    y 0.000000 1.779440 0.000000 
#    z -0.003830 0.000000 1.813610 
# 
# From -- ./inp_files/59880.got.cif
#   From: 2010.06.25/outbox.cif.g09.slc.cpg/sg15_30_cif.got.tgz:59880.got - 2010.06.28 07:06:18.
