data_PCOD8139756
_publ_section_title
;
Structure prediction by ZEFSAII (Michael W. Deem and Ramdas Pophale) SiO2 
 PCOD8139756
Probable space group: C 2/C
;
_chemical_formula_sum "Si O2"
_cell_formula_units_Z 60
_cell_length_a 11.354787
_cell_length_b 18.119980
_cell_length_c 17.904752
_cell_angle_alpha 90.000000
_cell_angle_beta 132.022929
_cell_angle_gamma 90.000000
_cell_volume 2736.666789
_symmetry_space_group_name_H-M "C 2/C"
_symmetry_group_IT_number 15
_symmetry_cell_setting 'monoclinic'
loop_
_space_group_symop_operation_xyz
x,y,z
-x,y,1/2-z
-x,-y,-z
x,-y,1/2+z
1/2+x,1/2+y,z
1/2-x,1/2+y,1/2-z
1/2-x,1/2-y,-z
1/2+x,1/2-y,1/2+z
loop_
_atom_site_type_symbol
_atom_site_label
_atom_site_fract_x
_atom_site_fract_y
_atom_site_fract_z
Si Si1 0.296226 0.076862 0.427470
Si Si2 0.398260 0.073482 0.307307
Si Si3 0.771820 0.575191 0.995887
Si Si4 0.488981 0.414373 0.481065
Si Si5 0.642470 0.688236 0.161848
Si Si6 0.611101 0.848252 0.099066
Si Si7 0.500000 0.664079 0.250000
Si Si8 0.843635 0.418686 0.225556
O O1 0.359047 0.045805 0.374930
O O2 0.422827 0.136935 0.511143
O O3 0.126932 0.112645 0.344225
O O4 0.274584 0.012037 0.478508
O O5 0.586263 0.089888 0.384533
O O6 0.311679 0.149052 0.247123
O O7 0.348450 0.008008 0.230531
O O8 0.610466 0.603404 0.965306
O O9 0.790264 0.621108 0.928370
O O10 0.500000 0.500000 0.500000
O O11 0.527759 0.369500 0.572270
O O12 0.310560 0.391944 0.384408
O O13 0.651879 0.761573 0.117012
O O14 0.575712 0.712134 0.215514
O O15 0.673747 0.886238 0.199827
O O16 0.000000 0.388489 0.250000
#
# Coordination Sequence:
#
# PCOD8139756 Si02
#       8
#     8   8   8   8   8   8   4   8
#     4  10  20  39  70  99 129 178 230 281 344 404
#     4  10  20  42  66  98 128 175 233 270 342 405
#     4  11  22  42  74  99 133 181 227 283 339 417
#     4  12  26  42  69 103 137 174 232 284 338 404
#     4  11  26  43  64 102 136 180 226 287 349 404
#     4  11  25  44  66  99 139 180 226 279 349 414
#     4  10  24  40  68  94 138 180 230 288 340 410
#     4  12  25  42  70 101 133 179 232 283 334 407
#
# _framework density 21.924481
#
# number of rings (size 3 to 8) (size 9 to 14) (size 15 to 20)
#    0.000    1.067    4.000    2.400    4.667    4.800 
#    0.000    1.333    0.000    0.000    0.000    0.000 
#    0.000    0.000    0.000    0.000    0.000    0.000 
#
# Total GULP energy -372090.207207 kJ/mol
# GULP energy per Si atom -12403.006907 kJ/mol
# Density = 2.187458 g / cm^3
# Si number density = 21.924481 Si / 1000 Ang^3
#
#
#
# Elastic Constant Matrix: (Units=GPa)
#
#
# Indices 1 2 3 4 5 6 
#
# 1 104.5128 17.2384 39.7192 0.0000 8.0684 0.0000
# 2 17.2384 90.9979 31.3370 0.0000 -6.6467 0.0000
# 3 39.7192 31.3370 146.2077 0.0000 16.0536 0.0000
# 4 0.0000 0.0000 0.0000 31.7708 0.0000 -5.4370
# 5 8.0684 -6.6467 16.0536 0.0000 37.0211 0.0000
# 6 0.0000 0.0000 0.0000 -5.4370 0.0000 16.0424
#
#
#
# Elastic Compliance Matrix: (Units=1/GPa)
#
#
# Indices 1 2 3 4 5 6 
#
# 1 0.010851 -0.001305 -0.002502 0.000000 -0.001514 0.000000
# 2 -0.001305 0.012443 -0.002718 0.000000 0.003697 0.000000
# 3 -0.002502 -0.002718 0.008500 0.000000 -0.003629 0.000000
# 4 0.000000 0.000000 0.000000 0.033413 0.000000 0.011324
# 5 -0.001514 0.003697 -0.003629 0.000000 0.029579 0.000000
# 6 0.000000 0.000000 0.000000 0.011324 0.000000 0.066173
#
#
# Mechanical properties :
#
#
# Convention : Reuss Voigt Hill
#
# Bulk Modulus (GPa) = 53.34989 57.58974 55.46981
# Shear Modulus (GPa) = 27.73817 33.86179 30.79998
#
# Velocity S-wave (km/s) = 3.56078 3.93424 3.75216
# Velocity P-wave (km/s) = 6.42587 6.85289 6.64281
#
# Compressibility (1/GPa) = 0.01874418
#
# Stress axis : x y z
#
# Youngs Moduli (GPa) = 92.15627 80.36927 117.64219
#
# Poissons Ratio (x) = 0.10485 0.29434
# Poissons Ratio (y) = 0.12023 0.31979
# Poissons Ratio (z) = 0.23057 0.21847
#
# Static dielectric constant tensor:
#      x y z
#    x 4.137800 0.000000 -0.031960 
#    y 0.000000 3.674690 0.000000 
#    z -0.031960 0.000000 4.263130 
# 
# 
# High freq. dielectric constant tensor:
#      x y z
#    x 1.870150 0.000000 -0.007710 
#    y 0.000000 1.836090 0.000000 
#    z -0.007710 0.000000 1.877440 
# 
# From -- ./inp_files/240004.got.cif
#   From: 2010.06.25/outbox.cif.g09.slc.cpg/sg15_121_cif.got.tgz:240004.got - 2010.06.28 07:06:18.
