data_PCOD8139626
_publ_section_title
;
Structure prediction by ZEFSAII (Michael W. Deem and Ramdas Pophale) SiO2 
 PCOD8139626
Probable space group: C 2/C
;
_chemical_formula_sum "Si O2"
_cell_formula_units_Z 56
_cell_length_a 19.354649
_cell_length_b 16.622537
_cell_length_c 9.309559
_cell_angle_alpha 90.000000
_cell_angle_beta 61.311768
_cell_angle_gamma 90.000000
_cell_volume 2627.438193
_symmetry_space_group_name_H-M "C 2/C"
_symmetry_group_IT_number 15
_symmetry_cell_setting 'monoclinic'
loop_
_space_group_symop_operation_xyz
x,y,z
-x,y,1/2-z
-x,-y,-z
x,-y,1/2+z
1/2+x,1/2+y,z
1/2-x,1/2+y,1/2-z
1/2-x,1/2-y,-z
1/2+x,1/2-y,1/2+z
loop_
_atom_site_type_symbol
_atom_site_label
_atom_site_fract_x
_atom_site_fract_y
_atom_site_fract_z
Si Si1 0.500000 0.073082 0.250000
Si Si2 0.213451 0.399277 0.223759
Si Si3 0.351448 0.023184 0.983170
Si Si4 0.944730 0.663976 0.040582
Si Si5 0.621982 0.316536 0.447873
Si Si6 0.039708 0.103173 0.444302
Si Si7 0.594748 0.760953 0.281966
Si Si8 0.500000 0.491681 0.250000
O O1 0.497662 0.128889 0.114020
O O2 0.422691 0.018643 0.327709
O O3 0.193941 0.461951 0.368992
O O4 0.154864 0.324238 0.288145
O O5 0.209434 0.443998 0.074396
O O6 0.299731 0.364887 0.164463
O O7 0.387223 0.097567 0.033606
O O8 0.891728 0.740294 0.146729
O O9 0.007976 0.698129 0.861416
O O10 0.552066 0.379777 0.498820
O O11 0.623519 0.271442 0.600246
O O12 0.051180 0.063390 0.589257
O O13 0.092159 0.183336 0.389822
O O14 0.060705 0.043538 0.289481
#
# Coordination Sequence:
#
# PCOD8139626 Si02
#       8
#     4   8   8   8   8   8   8   4
#     4  12  22  39  67 104 132 168 222 300 346 383
#     4  12  26  44  65  98 142 179 227 266 359 417
#     4  12  24  41  69 103 135 178 221 294 342 410
#     4  11  22  39  70  97 130 171 239 282 341 396
#     4  11  24  41  64  94 132 183 222 270 337 423
#     4  10  21  40  67  93 124 165 231 275 337 378
#     4  11  21  40  66  95 125 174 223 282 325 412
#     4  10  20  39  65  94 120 160 218 290 314 387
#
# _framework density 21.313535000000002
#
# number of rings (size 3 to 8) (size 9 to 14) (size 15 to 20)
#    0.000    0.857    5.714    3.000    0.000    3.429 
#    0.000    0.714    3.143    0.000    0.000    0.000 
#    0.000    0.000    0.000    0.000    0.000    0.000 
#
# Total GULP energy -347052.802902 kJ/mol
# GULP energy per Si atom -12394.742961 kJ/mol
# Density = 2.126502 g / cm^3
# Si number density = 21.313535 Si / 1000 Ang^3
#
#
#
# Elastic Constant Matrix: (Units=GPa)
#
#
# Indices 1 2 3 4 5 6 
#
# 1 69.7986 39.1957 19.7719 0.0000 -12.9240 0.0000
# 2 39.1957 141.4866 49.7796 0.0000 -4.8466 0.0000
# 3 19.7719 49.7796 83.9423 0.0000 4.3696 0.0000
# 4 0.0000 0.0000 0.0000 34.1253 0.0000 -6.3124
# 5 -12.9240 -4.8466 4.3696 0.0000 33.5521 0.0000
# 6 0.0000 0.0000 0.0000 -6.3124 0.0000 10.7857
#
#
#
# Elastic Compliance Matrix: (Units=1/GPa)
#
#
# Indices 1 2 3 4 5 6 
#
# 1 0.018546 -0.004095 -0.002296 0.000000 0.006851 0.000000
# 2 -0.004095 0.009970 -0.004974 0.000000 0.000511 0.000000
# 3 -0.002296 -0.004974 0.015593 0.000000 -0.003634 0.000000
# 4 0.000000 0.000000 0.000000 0.032861 0.000000 0.019232
# 5 0.006851 0.000511 -0.003634 0.000000 0.032990 0.000000
# 6 0.000000 0.000000 0.000000 0.019232 0.000000 0.103971
#
#
# Mechanical properties :
#
#
# Convention : Reuss Voigt Hill
#
# Bulk Modulus (GPa) = 46.77991 56.96909 51.87450
# Shear Modulus (GPa) = 20.50955 28.12463 24.31709
#
# Velocity S-wave (km/s) = 3.10543 3.63652 3.38142
# Velocity P-wave (km/s) = 5.90376 6.66480 6.29579
#
# Compressibility (1/GPa) = 0.02137670
#
# Stress axis : x y z
#
# Youngs Moduli (GPa) = 53.92120 100.30207 64.13153
#
# Poissons Ratio (x) = 0.41074 0.14728
# Poissons Ratio (y) = 0.22081 0.31902
# Poissons Ratio (z) = 0.12383 0.49894
#
# Static dielectric constant tensor:
#      x y z
#    x 3.620880 0.000000 0.078110 
#    y 0.000000 4.452170 0.000000 
#    z 0.078110 0.000000 3.816390 
# 
# 
# High freq. dielectric constant tensor:
#      x y z
#    x 1.806260 0.000000 0.010270 
#    y 0.000000 1.869700 0.000000 
#    z 0.010270 0.000000 1.822040 
# 
# From -- ./inp_files/49055.got.cif
#   From: 2010.06.25/outbox.cif.g09.slc.cpg/sg15_25_cif.got.tgz:49055.got - 2010.06.28 07:06:18.
