data_PCOD8139158
_publ_section_title
;
Structure prediction by ZEFSAII (Michael W. Deem and Ramdas Pophale) SiO2 
 PCOD8139158
Probable space group: C 2/C
;
_chemical_formula_sum "Si O2"
_cell_formula_units_Z 44
_cell_length_a 5.178110
_cell_length_b 31.904228
_cell_length_c 12.362137
_cell_angle_alpha 90.000000
_cell_angle_beta 97.776182
_cell_angle_gamma 90.000000
_cell_volume 2023.489202
_symmetry_space_group_name_H-M "C 2/C"
_symmetry_group_IT_number 15
_symmetry_cell_setting 'monoclinic'
loop_
_space_group_symop_operation_xyz
x,y,z
-x,y,1/2-z
-x,-y,-z
x,-y,1/2+z
1/2+x,1/2+y,z
1/2-x,1/2+y,1/2-z
1/2-x,1/2-y,-z
1/2+x,1/2-y,1/2+z
loop_
_atom_site_type_symbol
_atom_site_label
_atom_site_fract_x
_atom_site_fract_y
_atom_site_fract_z
Si Si1 0.823862 0.316451 0.955889
Si Si2 0.088703 0.746189 0.599194
Si Si3 0.266213 0.538281 0.819784
Si Si4 0.500000 0.215480 0.250000
Si Si5 0.647907 0.945778 0.867344
Si Si6 0.181415 0.911331 0.972422
O O1 0.606069 0.284354 0.908470
O O2 0.999053 0.315007 0.855626
O O3 0.711779 0.361748 0.972816
O O4 0.956267 0.299810 0.075548
O O5 0.250000 0.750000 0.500000
O O6 0.260735 0.751340 0.718115
O O7 0.500000 0.529792 0.750000
O O8 0.203710 0.495107 0.878321
O O9 0.000000 0.554700 0.750000
O O10 0.369488 0.573031 0.908829
O O11 0.500000 0.932792 0.750000
O O12 0.449882 0.933248 0.951089
O O13 0.925262 0.922079 0.887683
#
# Coordination Sequence:
#
# PCOD8139158 Si02
#       6
#     8   8   8   4   8   8
#     4  10  23  39  63  95 133 165 218 274 329 394
#     4   9  20  40  62  87 124 172 208 264 324 398
#     4  11  23  46  68  93 135 185 231 271 330 405
#     4  10  20  38  66  90 126 170 218 266 332 392
#     4  11  24  41  66 102 134 177 221 275 336 409
#     4  12  25  41  70 100 140 172 224 287 339 386
#
# _framework density 21.744616000000001
#
# number of rings (size 3 to 8) (size 9 to 14) (size 15 to 20)
#    0.000    1.455    0.000    5.455    6.364    1.455 
#    0.000    5.455    8.000    0.000    0.000    0.000 
#    0.000    0.000    0.000    0.000    0.000    0.000 
#
# Total GULP energy -272632.521117 kJ/mol
# GULP energy per Si atom -12392.387324 kJ/mol
# Density = 2.169512 g / cm^3
# Si number density = 21.744616 Si / 1000 Ang^3
#
#
#
# Elastic Constant Matrix: (Units=GPa)
#
#
# Indices 1 2 3 4 5 6 
#
# 1 89.3527 23.1982 10.3285 0.0000 16.7602 0.0000
# 2 23.1982 133.1278 62.9240 0.0000 15.7684 0.0000
# 3 10.3285 62.9240 68.6774 0.0000 21.4182 0.0000
# 4 0.0000 0.0000 0.0000 11.0942 0.0000 -12.6534
# 5 16.7602 15.7684 21.4182 0.0000 48.3060 0.0000
# 6 0.0000 0.0000 0.0000 -12.6534 0.0000 5.2956
#
#
#
# Elastic Compliance Matrix: (Units=1/GPa)
#
#
# Indices 1 2 3 4 5 6 
#
# 1 0.012437 -0.002482 0.001737 0.000000 -0.004275 0.000000
# 2 -0.002482 0.013808 -0.012928 0.000000 0.002086 0.000000
# 3 0.001737 -0.012928 0.029031 0.000000 -0.009254 0.000000
# 4 0.000000 0.000000 0.000000 -0.052247 0.000000 -0.124840
# 5 -0.004275 0.002086 -0.009254 0.000000 0.025607 0.000000
# 6 0.000000 0.000000 0.000000 -0.124840 0.000000 -0.109457
#
#
# Mechanical properties :
#
#
# Convention : Reuss Voigt Hill
#
# Bulk Modulus (GPa) = 35.80513 53.78437 44.79475
# Shear Modulus (GPa) = -113.21031 25.91965 -43.64533
#
# Velocity S-wave (km/s) = -7.22334 3.45629 -4.48502
# Velocity P-wave (km/s) = 7.28470 6.38092 2.48503
#
# Compressibility (1/GPa) = 0.02792896
#
# Stress axis : x y z
#
# Youngs Moduli (GPa) = 80.40490 72.42415 34.44608
#
# Poissons Ratio (x) = 0.17973 -0.05982
# Poissons Ratio (y) = 0.19954 0.44532
# Poissons Ratio (z) = -0.13963 0.93631
#
# Static dielectric constant tensor:
#      x y z
#    x 4.224210 0.000000 0.348350 
#    y 0.000000 3.750010 0.000000 
#    z 0.348350 0.000000 4.131670 
# 
# 
# High freq. dielectric constant tensor:
#      x y z
#    x 1.878010 0.000000 0.004650 
#    y 0.000000 1.832800 0.000000 
#    z 0.004650 0.000000 1.853950 
# 
# From -- ./inp_files/73969.got.cif
#   From: 2010.06.25/outbox.cif.g09.slc.cpg/sg15_37_cif.got.tgz:73969.got - 2010.06.28 07:06:18.
