data_PCOD8139555
_publ_section_title
;
Structure prediction by ZEFSAII (Michael W. Deem and Ramdas Pophale) SiO2 
 PCOD8139555
Probable space group: C 2/C
;
_chemical_formula_sum "Si O2"
_cell_formula_units_Z 40
_cell_length_a 31.160657
_cell_length_b 7.398742
_cell_length_c 13.448971
_cell_angle_alpha 90.000000
_cell_angle_beta 145.002037
_cell_angle_gamma 90.000000
_cell_volume 1778.372754
_symmetry_space_group_name_H-M "C 2/C"
_symmetry_group_IT_number 15
_symmetry_cell_setting 'monoclinic'
loop_
_space_group_symop_operation_xyz
x,y,z
-x,y,1/2-z
-x,-y,-z
x,-y,1/2+z
1/2+x,1/2+y,z
1/2-x,1/2+y,1/2-z
1/2-x,1/2-y,-z
1/2+x,1/2-y,1/2+z
loop_
_atom_site_type_symbol
_atom_site_label
_atom_site_fract_x
_atom_site_fract_y
_atom_site_fract_z
Si Si1 0.401989 0.840946 0.331075
Si Si2 0.845783 0.838782 0.093308
Si Si3 0.557336 0.239970 0.052087
Si Si4 0.369237 0.550415 0.417298
Si Si5 0.232363 0.480633 0.521803
O O1 0.468292 0.792675 0.379451
O O2 0.413855 0.711168 0.447835
O O3 0.321946 0.815858 0.120729
O O4 0.403154 0.044756 0.374617
O O5 0.868451 0.926145 0.032859
O O6 0.777664 0.947693 0.012808
O O7 0.918567 0.849800 0.302675
O O8 0.822759 0.631053 0.036808
O O9 0.589410 0.357916 0.021648
O O10 0.285424 0.567875 0.214518
#
# Coordination Sequence:
#
# PCOD8139555 Si02
#       5
#     8   8   8   8   8
#     4  10  20  39  64  87 127 167 203 259 319 369
#     4   9  20  38  62  90 130 158 208 265 312 366
#     4   9  21  42  62  90 128 166 207 258 315 378
#     4  11  21  36  66  92 122 165 214 253 316 378
#     4   9  20  39  58  94 125 162 204 265 314 370
#
# _framework density 22.492471999999999
#
# number of rings (size 3 to 8) (size 9 to 14) (size 15 to 20)
#    0.000    2.400    0.000    2.400    2.800    0.800 
#    0.000    4.000    0.000   12.000    0.000    0.000 
#    0.000    0.000    0.000    0.000    0.000    0.000 
#
# Total GULP energy -247956.347423 kJ/mol
# GULP energy per Si atom -12397.817371 kJ/mol
# Density = 2.244128 g / cm^3
# Si number density = 22.492472 Si / 1000 Ang^3
#
#
#
# Elastic Constant Matrix: (Units=GPa)
#
#
# Indices 1 2 3 4 5 6 
#
# 1 93.1260 42.0787 37.7742 0.0000 -4.7424 0.0000
# 2 42.0787 84.8098 12.5138 0.0000 -6.6687 0.0001
# 3 37.7742 12.5138 66.9194 0.0000 12.8592 0.0000
# 4 0.0000 0.0000 0.0000 22.8700 0.0000 0.9312
# 5 -4.7424 -6.6687 12.8592 0.0000 42.6665 0.0000
# 6 0.0000 0.0001 0.0000 0.9312 0.0000 21.1493
#
#
#
# Elastic Compliance Matrix: (Units=1/GPa)
#
#
# Indices 1 2 3 4 5 6 
#
# 1 0.018102 -0.007272 -0.009581 0.000000 0.003763 0.000000
# 2 -0.007272 0.015356 0.000984 0.000000 0.001295 0.000000
# 3 -0.009581 0.000984 0.021593 0.000000 -0.007419 0.000000
# 4 0.000000 0.000000 0.000000 0.043804 0.000000 -0.001929
# 5 0.003763 0.001295 -0.007419 0.000000 0.026294 0.000000
# 6 0.000000 0.000000 0.000000 -0.001929 0.000000 0.047368
#
#
# Mechanical properties :
#
#
# Convention : Reuss Voigt Hill
#
# Bulk Modulus (GPa) = 42.89380 47.73206 45.31293
# Shear Modulus (GPa) = 23.58206 27.50305 25.54256
#
# Velocity S-wave (km/s) = 3.24148 3.50060 3.37353
# Velocity P-wave (km/s) = 5.75511 6.13240 5.94675
#
# Compressibility (1/GPa) = 0.02331339
#
# Stress axis : x y z
#
# Youngs Moduli (GPa) = 55.24274 65.12297 46.31044
#
# Poissons Ratio (x) = 0.47355 0.44372
# Poissons Ratio (y) = 0.40171 -0.04559
# Poissons Ratio (z) = 0.52930 -0.06410
#
# Static dielectric constant tensor:
#      x y z
#    x 3.727630 0.000000 0.316940 
#    y 0.000000 4.243790 0.000000 
#    z 0.316940 0.000000 4.041910 
# 
# 
# High freq. dielectric constant tensor:
#      x y z
#    x 1.864740 0.000000 0.024080 
#    y 0.000000 1.901530 0.000000 
#    z 0.024080 0.000000 1.878720 
# 
# From -- ./inp_files/102791.got.cif
#   From: 2010.06.25/outbox.cif.g09.slc.cpg/sg15_52_cif.got.tgz:102791.got - 2010.06.28 07:06:18.
