data_PCOD8139278
_publ_section_title
;
Structure prediction by ZEFSAII (Michael W. Deem and Ramdas Pophale) SiO2 
 PCOD8139278
Probable space group: C 2/C
;
_chemical_formula_sum "Si O2"
_cell_formula_units_Z 44
_cell_length_a 12.078804
_cell_length_b 26.813089
_cell_length_c 8.583031
_cell_angle_alpha 90.000000
_cell_angle_beta 50.885187
_cell_angle_gamma 90.000000
_cell_volume 2156.790120
_symmetry_space_group_name_H-M "C 2/C"
_symmetry_group_IT_number 15
_symmetry_cell_setting 'monoclinic'
loop_
_space_group_symop_operation_xyz
x,y,z
-x,y,1/2-z
-x,-y,-z
x,-y,1/2+z
1/2+x,1/2+y,z
1/2-x,1/2+y,1/2-z
1/2-x,1/2-y,-z
1/2+x,1/2-y,1/2+z
loop_
_atom_site_type_symbol
_atom_site_label
_atom_site_fract_x
_atom_site_fract_y
_atom_site_fract_z
Si Si1 0.000000 0.489833 0.750000
Si Si2 0.311560 0.770933 0.106890
Si Si3 0.535872 0.851428 0.885275
Si Si4 0.146531 0.855928 0.419506
Si Si5 0.167995 0.830527 0.753780
Si Si6 0.137437 0.434443 0.351330
O O1 0.889996 0.523566 0.751456
O O2 0.107514 0.457903 0.547591
O O3 0.199600 0.812689 0.258392
O O4 0.336916 0.728899 0.214997
O O5 0.250000 0.750000 0.000000
O O6 0.467853 0.796036 0.950417
O O7 0.500000 0.875522 0.750000
O O8 0.704940 0.851442 0.753741
O O9 0.469879 0.887386 0.076136
O O10 0.198383 0.842154 0.547026
O O11 0.204807 0.910355 0.312283
O O12 0.975438 0.857763 0.561994
#
# Coordination Sequence:
#
# PCOD8139278 Si02
#       6
#     4   8   8   8   8   8
#     4  10  20  38  72  90 118 144 204 254 314 390
#     4  11  22  37  57  88 128 167 213 250 290 343
#     4  11  21  37  60  91 123 158 207 253 293 355
#     4  10  24  40  58  89 128 162 206 251 301 360
#     4  11  22  38  61  85 127 174 204 244 295 352
#     4  10  21  40  63  96 114 154 197 254 313 367
#
# _framework density 20.400686
#
# number of rings (size 3 to 8) (size 9 to 14) (size 15 to 20)
#    0.000    1.455    2.727    2.727    0.000    3.636 
#    0.000    0.000    0.000   19.636    0.000    0.000 
#    0.000    0.000    0.000    0.000    0.000    0.000 
#
# Total GULP energy -272720.626170 kJ/mol
# GULP energy per Si atom -12396.392099 kJ/mol
# Density = 2.035425 g / cm^3
# Si number density = 20.400686 Si / 1000 Ang^3
#
#
#
# Elastic Constant Matrix: (Units=GPa)
#
#
# Indices 1 2 3 4 5 6 
#
# 1 135.8596 47.2599 64.7033 0.0000 -12.8022 0.0000
# 2 47.2599 118.4497 60.0032 0.0000 0.0026 0.0000
# 3 64.7033 60.0032 125.5054 0.0000 -0.3818 0.0000
# 4 0.0000 0.0000 0.0000 39.8786 0.0000 1.3396
# 5 -12.8022 0.0026 -0.3818 0.0000 35.8565 0.0000
# 6 0.0000 0.0000 0.0000 1.3396 0.0000 5.8226
#
#
#
# Elastic Compliance Matrix: (Units=1/GPa)
#
#
# Indices 1 2 3 4 5 6 
#
# 1 0.010518 -0.001921 -0.004493 0.000000 0.003708 0.000000
# 2 -0.001921 0.011491 -0.004506 0.000000 -0.000735 0.000000
# 3 -0.004493 -0.004506 0.012434 0.000000 -0.001471 0.000000
# 4 0.000000 0.000000 0.000000 0.025271 0.000000 -0.005814
# 5 0.003708 -0.000735 -0.001471 0.000000 0.029197 0.000000
# 6 0.000000 0.000000 0.000000 -0.005814 0.000000 0.173081
#
#
# Mechanical properties :
#
#
# Convention : Reuss Voigt Hill
#
# Bulk Modulus (GPa) = 79.33965 80.41638 79.87801
# Shear Modulus (GPa) = 17.35915 30.16810 23.76362
#
# Velocity S-wave (km/s) = 2.92020 3.84966 3.41668
# Velocity P-wave (km/s) = 7.09544 7.69830 7.40301
#
# Compressibility (1/GPa) = 0.01260404
#
# Stress axis : x y z
#
# Youngs Moduli (GPa) = 95.07772 87.02223 80.42568
#
# Poissons Ratio (x) = 0.16713 0.36134
# Poissons Ratio (y) = 0.18260 0.36240
# Poissons Ratio (z) = 0.42717 0.39212
#
# Static dielectric constant tensor:
#      x y z
#    x 3.498080 0.000000 0.053210 
#    y 0.000000 3.806860 0.000000 
#    z 0.053210 0.000000 3.935740 
# 
# 
# High freq. dielectric constant tensor:
#      x y z
#    x 1.780540 0.000000 0.006830 
#    y 0.000000 1.795130 0.000000 
#    z 0.006830 0.000000 1.811960 
# 
# From -- ./inp_files/35045.got.cif
#   From: 2010.06.25/outbox.cif.g09.slc.cpg/sg15_18_cif.got.tgz:35045.got - 2010.06.28 07:06:18.
