data_PCOD8139462
_publ_section_title
;
Structure prediction by ZEFSAII (Michael W. Deem and Ramdas Pophale) SiO2 
 PCOD8139462
Probable space group: C 2/C
;
_chemical_formula_sum "Si O2"
_cell_formula_units_Z 60
_cell_length_a 11.956317
_cell_length_b 15.308493
_cell_length_c 17.012621
_cell_angle_alpha 90.000000
_cell_angle_beta 82.265078
_cell_angle_gamma 90.000000
_cell_volume 3085.542327
_symmetry_space_group_name_H-M "C 2/C"
_symmetry_group_IT_number 15
_symmetry_cell_setting 'monoclinic'
loop_
_space_group_symop_operation_xyz
x,y,z
-x,y,1/2-z
-x,-y,-z
x,-y,1/2+z
1/2+x,1/2+y,z
1/2-x,1/2+y,1/2-z
1/2-x,1/2-y,-z
1/2+x,1/2-y,1/2+z
loop_
_atom_site_type_symbol
_atom_site_label
_atom_site_fract_x
_atom_site_fract_y
_atom_site_fract_z
Si Si1 0.070664 0.753203 0.505127
Si Si2 0.755315 0.317184 0.782775
Si Si3 0.018800 0.119865 0.885406
Si Si4 0.709075 0.470096 0.109618
Si Si5 0.500000 0.239848 0.250000
Si Si6 0.681076 0.204029 0.935039
Si Si7 0.123240 0.017192 0.277187
Si Si8 0.258127 0.330190 0.896791
O O1 0.055490 0.847124 0.466622
O O2 0.131147 0.690980 0.435771
O O3 0.150221 0.767250 0.572008
O O4 0.951574 0.713757 0.540870
O O5 0.891605 0.323562 0.768984
O O6 0.718549 0.241739 0.846668
O O7 0.687541 0.403897 0.815077
O O8 0.719361 0.304739 0.695634
O O9 0.907805 0.064847 0.912598
O O10 0.000689 0.199270 0.826632
O O11 0.114342 0.056000 0.844146
O O12 0.801599 0.400820 0.070053
O O13 0.704856 0.474596 0.204614
O O14 0.727887 0.568949 0.079576
O O15 0.750000 0.250000 0.000000
O O16 0.000000 0.041981 0.250000
#
# Coordination Sequence:
#
# PCOD8139462 Si02
#       8
#     8   8   8   8   4   8   8   8
#     4  11  24  41  64  95 127 166 206 252 322 377
#     4  11  23  38  66  91 124 164 209 258 310 375
#     4  11  18  37  64  90 121 158 210 257 300 365
#     4  10  20  39  62  93 125 160 210 259 310 358
#     4  12  18  38  66  88 114 168 204 252 304 372
#     4  12  24  39  64 100 124 158 216 266 306 361
#     4   9  20  36  64  96 121 162 212 259 307 362
#     4  10  25  43  63  89 128 173 199 254 325 381
#
# _framework density 19.445526999999998
#
# number of rings (size 3 to 8) (size 9 to 14) (size 15 to 20)
#    0.000    1.333    6.000    0.000    5.600    2.133 
#    0.000    0.000   11.733    0.000    0.000    0.000 
#    0.000    0.000    0.000    0.000    0.000    0.000 
#
# Total GULP energy -371766.719019 kJ/mol
# GULP energy per Si atom -12392.223967 kJ/mol
# Density = 1.940127 g / cm^3
# Si number density = 19.445527 Si / 1000 Ang^3
#
#
#
# Elastic Constant Matrix: (Units=GPa)
#
#
# Indices 1 2 3 4 5 6 
#
# 1 80.2257 31.3389 7.6125 0.0000 -13.5360 0.0000
# 2 31.3389 95.0432 22.8057 0.0000 -7.8909 0.0000
# 3 7.6125 22.8057 65.7130 0.0000 -1.9944 0.0000
# 4 0.0000 0.0000 0.0000 20.1302 0.0000 -5.3160
# 5 -13.5360 -7.8909 -1.9944 0.0000 26.3684 0.0000
# 6 0.0000 0.0000 0.0000 -5.3160 0.0000 42.5750
#
#
#
# Elastic Compliance Matrix: (Units=1/GPa)
#
#
# Indices 1 2 3 4 5 6 
#
# 1 0.015327 -0.004510 -0.000013 0.000000 0.006518 0.000000
# 2 -0.004510 0.013070 -0.003974 0.000000 0.001296 0.000000
# 3 -0.000013 -0.003974 0.016600 0.000000 0.000060 0.000000
# 4 0.000000 0.000000 0.000000 0.051370 0.000000 0.006414
# 5 0.006518 0.001296 0.000060 0.000000 0.041662 0.000000
# 6 0.000000 0.000000 0.000000 0.006414 0.000000 0.024289
#
#
# Mechanical properties :
#
#
# Convention : Reuss Voigt Hill
#
# Bulk Modulus (GPa) = 35.70895 40.49957 38.10426
# Shear Modulus (GPa) = 26.50460 29.76305 28.13383
#
# Velocity S-wave (km/s) = 3.69591 3.91651 3.80781
# Velocity P-wave (km/s) = 6.05115 6.42842 6.24264
#
# Compressibility (1/GPa) = 0.02800419
#
# Stress axis : x y z
#
# Youngs Moduli (GPa) = 65.24271 76.51274 60.24034
#
# Poissons Ratio (x) = 0.34506 0.00076
# Poissons Ratio (y) = 0.29423 0.23940
# Poissons Ratio (z) = 0.00082 0.30407
#
# Static dielectric constant tensor:
#      x y z
#    x 3.647170 0.000000 -0.115200 
#    y 0.000000 3.733410 0.000000 
#    z -0.115200 0.000000 3.643750 
# 
# 
# High freq. dielectric constant tensor:
#      x y z
#    x 1.752920 0.000000 -0.010890 
#    y 0.000000 1.750080 0.000000 
#    z -0.010890 0.000000 1.762190 
# 
# From -- ./inp_files/197891.got.cif
#   From: 2010.06.25/outbox.cif.g09.slc.cpg/sg15_99_cif.got.tgz:197891.got - 2010.06.28 07:06:18.
