data_PCOD8139506
_publ_section_title
;
Structure prediction by ZEFSAII (Michael W. Deem and Ramdas Pophale) SiO2 
 PCOD8139506
Probable space group: C 2/C
;
_chemical_formula_sum "Si O2"
_cell_formula_units_Z 48
_cell_length_a 17.190159
_cell_length_b 7.148691
_cell_length_c 26.233723
_cell_angle_alpha 90.000000
_cell_angle_beta 42.195872
_cell_angle_gamma 90.000000
_cell_volume 2165.312074
_symmetry_space_group_name_H-M "C 2/C"
_symmetry_group_IT_number 15
_symmetry_cell_setting 'monoclinic'
loop_
_space_group_symop_operation_xyz
x,y,z
-x,y,1/2-z
-x,-y,-z
x,-y,1/2+z
1/2+x,1/2+y,z
1/2-x,1/2+y,1/2-z
1/2-x,1/2-y,-z
1/2+x,1/2-y,1/2+z
loop_
_atom_site_type_symbol
_atom_site_label
_atom_site_fract_x
_atom_site_fract_y
_atom_site_fract_z
Si Si1 0.397694 0.715601 0.181635
Si Si2 0.374565 0.691795 0.824510
Si Si3 0.949276 0.539142 0.374333
Si Si4 0.513593 0.289271 0.975374
Si Si5 0.348820 0.302669 0.225508
Si Si6 0.159990 0.509240 0.967811
O O1 0.427851 0.721659 0.107738
O O2 0.403389 0.508582 0.200722
O O3 0.489408 0.841035 0.168697
O O4 0.266958 0.795641 0.252228
O O5 0.500000 0.604971 0.750000
O O6 0.388511 0.872974 0.854269
O O7 0.318934 0.760527 0.798116
O O8 0.296146 0.531678 0.888956
O O9 0.853211 0.511484 0.464634
O O10 0.052757 0.669881 0.346232
O O11 0.594169 0.188120 0.977197
O O12 0.500000 0.500000 0.000000
O O13 0.389142 0.183001 0.032666
#
# Coordination Sequence:
#
# PCOD8139506 Si02
#       6
#     8   8   8   8   8   8
#     4  11  21  36  64  92 125 169 221 269 324 388
#     4  10  22  41  61  88 131 171 212 264 336 387
#     4  10  22  40  61  91 127 174 217 267 332 389
#     4  10  21  36  61  99 126 163 217 274 326 378
#     4  11  21  38  62  93 128 168 219 272 322 387
#     4  10  20  39  63  89 128 169 221 266 325 391
#
# _framework density 22.167704000000001
#
# number of rings (size 3 to 8) (size 9 to 14) (size 15 to 20)
#    0.000    1.667    3.333    1.500    0.000    1.333 
#    0.000   10.833    0.000   12.000    0.000    0.000 
#    0.000    0.000    0.000    0.000    0.000    0.000 
#
# Total GULP energy -297561.464654 kJ/mol
# GULP energy per Si atom -12398.394361 kJ/mol
# Density = 2.211725 g / cm^3
# Si number density = 22.167704 Si / 1000 Ang^3
#
#
#
# Elastic Constant Matrix: (Units=GPa)
#
#
# Indices 1 2 3 4 5 6 
#
# 1 49.7163 14.7802 15.8375 0.0030 -0.9591 -0.0203
# 2 14.7802 143.1326 27.9948 0.0132 -9.0340 -0.0226
# 3 15.8375 27.9948 100.1359 -0.0022 -17.1619 -0.0069
# 4 0.0030 0.0132 -0.0022 23.5944 0.0016 2.0474
# 5 -0.9591 -9.0340 -17.1619 0.0016 31.2777 -0.0031
# 6 -0.0203 -0.0226 -0.0069 2.0474 -0.0031 32.7403
#
#
#
# Elastic Compliance Matrix: (Units=1/GPa)
#
#
# Indices 1 2 3 4 5 6 
#
# 1 0.021614 -0.001704 -0.003215 -0.000003 -0.001594 0.000012
# 2 -0.001704 0.007560 -0.001632 -0.000005 0.001236 0.000004
# 3 -0.003215 -0.001632 0.011980 0.000002 0.006003 0.000000
# 4 -0.000003 -0.000005 0.000002 0.042614 -0.000003 -0.002665
# 5 -0.001594 0.001236 0.006003 -0.000003 0.035574 0.000005
# 6 0.000012 0.000004 0.000000 -0.002665 0.000005 0.030710
#
#
# Mechanical properties :
#
#
# Convention : Reuss Voigt Hill
#
# Bulk Modulus (GPa) = 35.64850 45.57886 40.61368
# Shear Modulus (GPa) = 28.98466 33.14728 31.06597
#
# Velocity S-wave (km/s) = 3.61988 3.87110 3.74760
# Velocity P-wave (km/s) = 5.79548 6.37072 6.08990
#
# Compressibility (1/GPa) = 0.02805167
#
# Stress axis : x y z
#
# Youngs Moduli (GPa) = 46.26598 132.28074 83.47114
#
# Poissons Ratio (x) = 0.22536 0.26839
# Poissons Ratio (y) = 0.07882 0.13624
# Poissons Ratio (z) = 0.14876 0.21591
#
# Static dielectric constant tensor:
#      x y z
#    x 3.898930 0.000070 -0.056820 
#    y 0.000070 4.397860 -0.000060 
#    z -0.056820 -0.000060 4.107570 
# 
# 
# High freq. dielectric constant tensor:
#      x y z
#    x 1.860750 0.000000 -0.001570 
#    y 0.000000 1.861650 0.000000 
#    z -0.001570 0.000000 1.879390 
# 
# From -- ./inp_files/299855.got.cif
#   From: 2010.06.25/outbox.cif.g09.slc.cpg/sg15_150_cif.got.tgz:299855.got - 2010.06.28 07:06:18.
