data_PCOD8139862
_publ_section_title
;
Structure prediction by ZEFSAII (Michael W. Deem and Ramdas Pophale) SiO2 
 PCOD8139862
Probable space group: C 2/C
;
_chemical_formula_sum "Si O2"
_cell_formula_units_Z 60
_cell_length_a 22.228762
_cell_length_b 27.086039
_cell_length_c 15.478479
_cell_angle_alpha 90.000000
_cell_angle_beta 18.056360
_cell_angle_gamma 90.000000
_cell_volume 2888.577450
_symmetry_space_group_name_H-M "C 2/C"
_symmetry_group_IT_number 15
_symmetry_cell_setting 'monoclinic'
loop_
_space_group_symop_operation_xyz
x,y,z
-x,y,1/2-z
-x,-y,-z
x,-y,1/2+z
1/2+x,1/2+y,z
1/2-x,1/2+y,1/2-z
1/2-x,1/2-y,-z
1/2+x,1/2-y,1/2+z
loop_
_atom_site_type_symbol
_atom_site_label
_atom_site_fract_x
_atom_site_fract_y
_atom_site_fract_z
Si Si1 0.659069 0.934604 0.687561
Si Si2 0.708029 0.403812 0.165235
Si Si3 0.747213 0.520987 0.755398
Si Si4 0.500000 0.506450 0.250000
Si Si5 0.476452 0.241509 0.530290
Si Si6 0.282002 0.404985 0.694505
Si Si7 0.387996 0.187964 0.991286
Si Si8 0.646880 0.805058 0.472477
O O1 0.633297 0.908282 0.629569
O O2 0.831808 0.973665 0.436744
O O3 0.719176 0.896383 0.680620
O O4 0.463149 0.961607 0.984209
O O5 0.679625 0.453827 0.258807
O O6 0.505666 0.389833 0.396989
O O7 0.773614 0.360844 0.140233
O O8 0.750960 0.462212 0.736135
O O9 0.599979 0.536990 0.034794
O O10 0.473794 0.211491 0.623904
O O11 0.307983 0.281758 0.756087
O O12 0.453537 0.203517 0.482573
O O13 0.682193 0.267330 0.241230
O O14 0.156635 0.368994 0.925445
O O15 0.500000 0.188272 0.750000
O O16 0.500000 0.796212 0.750000
#
# Coordination Sequence:
#
# PCOD8139862 Si02
#       8
#     8   8   8   4   8   8   8   8
#     4  11  22  42  64  90 130 183 209 269 326 388
#     4  12  23  42  65  95 136 169 219 270 328 388
#     4  11  24  41  64  95 131 176 220 264 323 388
#     4  10  20  40  62  86 130 172 220 264 318 372
#     4  10  24  46  66  95 135 162 218 277 320 396
#     4  11  23  43  63  96 131 168 222 265 327 383
#     4  11  24  45  72  95 127 173 216 269 330 392
#     4  11  23  42  66 100 129 171 215 265 337 390
#
# _framework density 20.771470000000001
#
# number of rings (size 3 to 8) (size 9 to 14) (size 15 to 20)
#    0.000    1.067    4.000    4.000    3.733    1.067 
#    2.400    0.000    1.467    0.000    0.000    0.000 
#    0.000    0.000    0.000    0.000    0.000    0.000 
#
# Total GULP energy -372006.010555 kJ/mol
# GULP energy per Si atom -12400.200352 kJ/mol
# Density = 2.072419 g / cm^3
# Si number density = 20.771470 Si / 1000 Ang^3
#
#
#
# Elastic Constant Matrix: (Units=GPa)
#
#
# Indices 1 2 3 4 5 6 
#
# 1 169.0111 67.7011 62.5964 0.0065 15.3741 -0.0139
# 2 67.7011 104.7004 36.3281 0.1107 11.6065 -0.0773
# 3 62.5964 36.3281 114.3478 -0.0174 10.1335 -0.0970
# 4 0.0065 0.1107 -0.0174 36.7532 -0.0586 0.9291
# 5 15.3741 11.6065 10.1335 -0.0586 37.1967 0.0717
# 6 -0.0139 -0.0773 -0.0970 0.9291 0.0717 36.0698
#
#
#
# Elastic Compliance Matrix: (Units=1/GPa)
#
#
# Indices 1 2 3 4 5 6 
#
# 1 0.009145 -0.004566 -0.003430 0.000009 -0.001421 -0.000013
# 2 -0.004566 0.013242 -0.001546 -0.000043 -0.001824 0.000027
# 3 -0.003430 -0.001546 0.011216 0.000008 -0.001156 0.000028
# 4 0.000009 -0.000043 0.000008 0.027226 0.000052 -0.000701
# 5 -0.001421 -0.001824 -0.001156 0.000052 0.028355 -0.000065
# 6 -0.000013 0.000027 0.000028 -0.000701 -0.000065 0.027742
#
#
# Mechanical properties :
#
#
# Convention : Reuss Voigt Hill
#
# Bulk Modulus (GPa) = 68.86832 80.14562 74.50697
# Shear Modulus (GPa) = 35.49838 36.76620 36.13229
#
# Velocity S-wave (km/s) = 4.13849 4.21174 4.17527
# Velocity P-wave (km/s) = 7.48754 7.89430 7.69361
#
# Compressibility (1/GPa) = 0.01452046
#
# Stress axis : x y z
#
# Youngs Moduli (GPa) = 109.34561 75.51673 89.15539
#
# Poissons Ratio (x) = 0.34481 0.30579
# Poissons Ratio (y) = 0.49927 0.13782
# Poissons Ratio (z) = 0.37504 0.11674
#
# Static dielectric constant tensor:
#      x y z
#    x 3.976820 -0.000830 -0.107920 
#    y -0.000830 3.713390 0.001590 
#    z -0.107920 0.001590 3.827120 
# 
# 
# High freq. dielectric constant tensor:
#      x y z
#    x 1.831180 -0.000060 -0.012210 
#    y -0.000060 1.799510 0.000140 
#    z -0.012210 0.000140 1.822280 
# 
# From -- ./inp_files/169930.got.cif
#   From: 2010.06.25/outbox.cif.g09.slc.cpg/sg15_85_cif.got.tgz:169930.got - 2010.06.28 07:06:18.
