data_PCOD8139911
_publ_section_title
;
Structure prediction by ZEFSAII (Michael W. Deem and Ramdas Pophale) SiO2 
 PCOD8139911
Probable space group: C 2/C
;
_chemical_formula_sum "Si O2"
_cell_formula_units_Z 40
_cell_length_a 11.178196
_cell_length_b 16.727803
_cell_length_c 10.148539
_cell_angle_alpha 90.000000
_cell_angle_beta 98.488011
_cell_angle_gamma 90.000000
_cell_volume 1876.856115
_symmetry_space_group_name_H-M "C 2/C"
_symmetry_group_IT_number 15
_symmetry_cell_setting 'monoclinic'
loop_
_space_group_symop_operation_xyz
x,y,z
-x,y,1/2-z
-x,-y,-z
x,-y,1/2+z
1/2+x,1/2+y,z
1/2-x,1/2+y,1/2-z
1/2-x,1/2-y,-z
1/2+x,1/2-y,1/2+z
loop_
_atom_site_type_symbol
_atom_site_label
_atom_site_fract_x
_atom_site_fract_y
_atom_site_fract_z
Si Si1 0.859128 0.923240 0.230087
Si Si2 0.518231 0.172734 0.103325
Si Si3 0.648411 0.313327 0.022210
Si Si4 0.233780 0.095636 0.306050
Si Si5 0.256248 0.158012 0.029137
O O1 0.820988 0.862531 0.339798
O O2 0.000000 0.944515 0.250000
O O3 0.780768 0.003327 0.233280
O O4 0.830314 0.888446 0.082747
O O5 0.500000 0.200684 0.250000
O O6 0.531786 0.256989 0.026237
O O7 0.632263 0.112472 0.111013
O O8 0.396351 0.128770 0.033568
O O9 0.750000 0.250000 0.000000
O O10 0.634653 0.375890 0.899081
O O11 0.211304 0.145359 0.170396
O O12 0.250000 0.250000 0.000000
#
# Coordination Sequence:
#
# PCOD8139911 Si02
#       5
#     8   8   8   8   8
#     4  12  25  41  61  88 125 161 196 247 306 362
#     4   9  19  39  64  87 120 159 200 252 300 355
#     4  10  20  40  63  89 121 153 200 252 293 351
#     4  10  23  40  61  92 123 156 200 250 301 354
#     4  11  22  40  65  88 117 164 205 240 303 365
#
# _framework density 21.312238000000001
#
# number of rings (size 3 to 8) (size 9 to 14) (size 15 to 20)
#    0.000    1.600    0.000    6.600    0.000    5.600 
#    0.000   16.000    0.000    0.000    0.000    0.000 
#    0.000    0.000    0.000    0.000    0.000    0.000 
#
# Total GULP energy -247928.176166 kJ/mol
# GULP energy per Si atom -12396.408808 kJ/mol
# Density = 2.126373 g / cm^3
# Si number density = 21.312238 Si / 1000 Ang^3
#
#
#
# Elastic Constant Matrix: (Units=GPa)
#
#
# Indices 1 2 3 4 5 6 
#
# 1 91.9259 32.9082 42.8881 0.0000 4.8907 0.0000
# 2 32.9082 104.3784 28.7357 0.0000 4.9175 0.0000
# 3 42.8881 28.7357 110.6491 0.0000 4.0797 0.0000
# 4 0.0000 0.0000 0.0000 32.3638 0.0000 -0.2232
# 5 4.8907 4.9175 4.0797 0.0000 34.4821 0.0000
# 6 0.0000 0.0000 0.0000 -0.2232 0.0000 25.6499
#
#
#
# Elastic Compliance Matrix: (Units=1/GPa)
#
#
# Indices 1 2 3 4 5 6 
#
# 1 0.014237 -0.003158 -0.004661 0.000000 -0.001018 0.000000
# 2 -0.003158 0.011065 -0.001615 0.000000 -0.000939 0.000000
# 3 -0.004661 -0.001615 0.011280 0.000000 -0.000443 0.000000
# 4 0.000000 0.000000 0.000000 0.030901 0.000000 0.000269
# 5 -0.001018 -0.000939 -0.000443 0.000000 0.029331 0.000000
# 6 0.000000 0.000000 0.000000 0.000269 0.000000 0.038989
#
#
# Mechanical properties :
#
#
# Convention : Reuss Voigt Hill
#
# Bulk Modulus (GPa) = 56.44906 57.33526 56.89216
# Shear Modulus (GPa) = 31.13805 31.99391 31.56598
#
# Velocity S-wave (km/s) = 3.82650 3.87873 3.85271
# Velocity P-wave (km/s) = 6.78727 6.85714 6.82229
#
# Compressibility (1/GPa) = 0.01771509
#
# Stress axis : x y z
#
# Youngs Moduli (GPa) = 70.23744 90.37562 88.65289
#
# Poissons Ratio (x) = 0.28537 0.41320
# Poissons Ratio (y) = 0.22178 0.14318
# Poissons Ratio (z) = 0.32737 0.14596
#
# Static dielectric constant tensor:
#      x y z
#    x 4.344600 0.000000 -0.105300 
#    y 0.000000 4.687670 0.000000 
#    z -0.105300 0.000000 3.986810 
# 
# 
# High freq. dielectric constant tensor:
#      x y z
#    x 1.836650 0.000000 -0.011280 
#    y 0.000000 1.834870 0.000000 
#    z -0.011280 0.000000 1.838690 
# 
# From -- ./inp_files/29319.got.cif
#   From: 2010.06.25/outbox.cif.g09.slc.cpg/sg15_15_cif.got.tgz:29319.got - 2010.06.28 07:06:18.
