data_PCOD8139055
_publ_section_title
;
Structure prediction by ZEFSAII (Michael W. Deem and Ramdas Pophale) SiO2 
 PCOD8139055
Probable space group: C 2/C
;
_chemical_formula_sum "Si O2"
_cell_formula_units_Z 56
_cell_length_a 20.974492
_cell_length_b 15.416045
_cell_length_c 9.552109
_cell_angle_alpha 90.000000
_cell_angle_beta 61.416978
_cell_angle_gamma 90.000000
_cell_volume 2712.188840
_symmetry_space_group_name_H-M "C 2/C"
_symmetry_group_IT_number 15
_symmetry_cell_setting 'monoclinic'
loop_
_space_group_symop_operation_xyz
x,y,z
-x,y,1/2-z
-x,-y,-z
x,-y,1/2+z
1/2+x,1/2+y,z
1/2-x,1/2+y,1/2-z
1/2-x,1/2-y,-z
1/2+x,1/2-y,1/2+z
loop_
_atom_site_type_symbol
_atom_site_label
_atom_site_fract_x
_atom_site_fract_y
_atom_site_fract_z
Si Si1 0.061179 0.447122 0.514843
Si Si2 0.262782 0.344365 0.926900
Si Si3 0.500000 0.492397 0.250000
Si Si4 0.847182 0.521538 0.840227
Si Si5 0.500000 0.202921 0.250000
Si Si6 0.870714 0.923665 0.017163
Si Si7 0.892206 0.151989 0.772895
Si Si8 0.781197 0.092305 0.110005
O O1 0.085117 0.493128 0.634528
O O2 0.127835 0.440258 0.336141
O O3 0.000000 0.500000 0.500000
O O4 0.030510 0.352921 0.588308
O O5 0.270332 0.342967 0.751478
O O6 0.250000 0.250000 0.000000
O O7 0.194070 0.402571 0.037268
O O8 0.336321 0.384878 0.912459
O O9 0.455147 0.553479 0.402783
O O10 0.557156 0.432897 0.271655
O O11 0.796308 0.437521 0.870017
O O12 0.564833 0.260381 0.243265
O O13 0.863749 0.849815 0.143560
O O14 0.826343 0.008449 0.113471
O O15 0.824132 0.146338 0.948045
#
# Coordination Sequence:
#
# PCOD8139055 Si02
#       8
#     8   8   4   8   4   8   8   8
#     4  12  24  45  68  90 119 168 217 260 309 382
#     4  11  25  40  59  93 128 158 204 263 317 363
#     4   9  18  36  64  91 128 162 204 245 304 376
#     4  11  23  43  70  90 123 166 216 260 311 383
#     4  11  26  42  62  95 134 164 214 265 318 372
#     4  10  20  38  64  91 123 168 208 244 304 382
#     4  10  22  38  64  97 128 161 204 262 317 367
#     4  10  21  41  66  93 126 164 208 253 316 382
#
# _framework density 20.647528999999999
#
# number of rings (size 3 to 8) (size 9 to 14) (size 15 to 20)
#    0.000    1.429    2.857    3.000    4.000    4.571 
#    0.000    1.429    0.000    0.000    0.000    0.000 
#    0.000    0.000    0.000    0.000    0.000    0.000 
#
# Total GULP energy -347305.665982 kJ/mol
# GULP energy per Si atom -12403.773785 kJ/mol
# Density = 2.060053 g / cm^3
# Si number density = 20.647529 Si / 1000 Ang^3
#
#
#
# Elastic Constant Matrix: (Units=GPa)
#
#
# Indices 1 2 3 4 5 6 
#
# 1 97.7163 46.5349 47.6924 0.0000 1.9309 0.0000
# 2 46.5349 107.9075 53.7373 0.0000 0.6081 0.0000
# 3 47.6924 53.7373 146.5641 0.0000 -1.2088 0.0000
# 4 0.0000 0.0000 0.0000 34.9007 0.0000 -1.1398
# 5 1.9309 0.6081 -1.2088 0.0000 34.7214 0.0000
# 6 0.0000 0.0000 0.0000 -1.1398 0.0000 26.1332
#
#
#
# Elastic Compliance Matrix: (Units=1/GPa)
#
#
# Indices 1 2 3 4 5 6 
#
# 1 0.013790 -0.004532 -0.002832 0.000000 -0.000786 0.000000
# 2 -0.004532 0.012831 -0.003230 0.000000 -0.000085 0.000000
# 3 -0.002832 -0.003230 0.008933 0.000000 0.000525 0.000000
# 4 0.000000 0.000000 0.000000 0.028694 0.000000 0.001251
# 5 -0.000786 -0.000085 0.000525 0.000000 0.028864 0.000000
# 6 0.000000 0.000000 0.000000 0.001251 0.000000 0.038320
#
#
# Mechanical properties :
#
#
# Convention : Reuss Voigt Hill
#
# Bulk Modulus (GPa) = 69.61396 72.01301 70.81349
# Shear Modulus (GPa) = 31.76443 32.76595 32.26519
#
# Velocity S-wave (km/s) = 3.92652 3.98794 3.95735
# Velocity P-wave (km/s) = 7.37193 7.49386 7.43314
#
# Compressibility (1/GPa) = 0.01436494
#
# Stress axis : x y z
#
# Youngs Moduli (GPa) = 72.51768 77.93749 111.94149
#
# Poissons Ratio (x) = 0.35321 0.31702
# Poissons Ratio (y) = 0.32865 0.36161
# Poissons Ratio (z) = 0.20537 0.25176
#
# Static dielectric constant tensor:
#      x y z
#    x 3.837480 0.000000 -0.141860 
#    y 0.000000 3.540640 0.000000 
#    z -0.141860 0.000000 4.028210 
# 
# 
# High freq. dielectric constant tensor:
#      x y z
#    x 1.815940 0.000000 -0.002910 
#    y 0.000000 1.787010 0.000000 
#    z -0.002910 0.000000 1.821710 
# 
# From -- ./inp_files/61847.got.cif
#   From: 2010.06.25/outbox.cif.g09.slc.cpg/sg15_31_cif.got.tgz:61847.got - 2010.06.28 07:06:18.
