data_PCOD8139468
_publ_section_title
;
Structure prediction by ZEFSAII (Michael W. Deem and Ramdas Pophale) SiO2 
 PCOD8139468
Probable space group: C 2/C
;
_chemical_formula_sum "Si O2"
_cell_formula_units_Z 52
_cell_length_a 16.956367
_cell_length_b 9.428416
_cell_length_c 17.246728
_cell_angle_alpha 90.000000
_cell_angle_beta 117.043593
_cell_angle_gamma 90.000000
_cell_volume 2455.786579
_symmetry_space_group_name_H-M "C 2/C"
_symmetry_group_IT_number 15
_symmetry_cell_setting 'monoclinic'
loop_
_space_group_symop_operation_xyz
x,y,z
-x,y,1/2-z
-x,-y,-z
x,-y,1/2+z
1/2+x,1/2+y,z
1/2-x,1/2+y,1/2-z
1/2-x,1/2-y,-z
1/2+x,1/2-y,1/2+z
loop_
_atom_site_type_symbol
_atom_site_label
_atom_site_fract_x
_atom_site_fract_y
_atom_site_fract_z
Si Si1 0.500000 0.059556 0.250000
Si Si2 0.284443 0.595837 0.650890
Si Si3 0.371272 0.117772 0.440801
Si Si4 0.564783 0.696756 0.881405
Si Si5 0.875464 0.102208 0.849769
Si Si6 0.025011 0.408951 0.113230
Si Si7 0.860461 0.807048 0.918643
O O1 0.435229 0.160962 0.171185
O O2 0.545074 0.950408 0.210843
O O3 0.216898 0.475655 0.590972
O O4 0.369561 0.587493 0.632789
O O5 0.305991 0.570123 0.750658
O O6 0.240827 0.753070 0.625763
O O7 0.346613 0.267369 0.391062
O O8 0.421947 0.130797 0.546809
O O9 0.445307 0.048707 0.419460
O O10 0.468969 0.624725 0.848052
O O11 0.599001 0.737080 0.981053
O O12 0.872971 0.972282 0.908499
O O13 0.086488 0.274730 0.124344
#
# Coordination Sequence:
#
# PCOD8139468 Si02
#       7
#     4   8   8   8   8   8   8
#     4  12  20  38  68  94 128 168 228 274 324 386
#     4  11  23  40  64 101 131 170 228 276 313 389
#     4  10  20  40  65  90 134 171 218 261 330 394
#     4  12  22  42  68  98 128 176 223 266 329 397
#     4  12  22  43  69  94 135 179 216 269 339 397
#     4  10  20  39  62  97 122 173 219 272 317 400
#     4  11  25  42  69  98 133 175 224 267 338 397
#
# _framework density 21.174479000000002
#
# number of rings (size 3 to 8) (size 9 to 14) (size 15 to 20)
#    0.000    0.923    4.615    3.692    0.000    1.231 
#    2.769    0.769    0.000    0.000    0.000    0.000 
#    0.000    0.000    0.000    0.000    0.000    0.000 
#
# Total GULP energy -322321.156971 kJ/mol
# GULP energy per Si atom -12396.967576 kJ/mol
# Density = 2.112628 g / cm^3
# Si number density = 21.174479 Si / 1000 Ang^3
#
#
#
# Elastic Constant Matrix: (Units=GPa)
#
#
# Indices 1 2 3 4 5 6 
#
# 1 84.0352 37.0319 32.1763 0.0000 -2.6547 0.0000
# 2 37.0319 117.6086 23.1138 0.0000 -9.3192 0.0000
# 3 32.1763 23.1138 86.9429 0.0000 -5.5988 0.0000
# 4 0.0000 0.0000 0.0000 19.5406 0.0000 -1.9130
# 5 -2.6547 -9.3192 -5.5988 0.0000 31.6279 0.0000
# 6 0.0000 0.0000 0.0000 -1.9130 0.0000 26.0375
#
#
#
# Elastic Compliance Matrix: (Units=1/GPa)
#
#
# Indices 1 2 3 4 5 6 
#
# 1 0.015435 -0.003994 -0.004697 0.000000 -0.000713 0.000000
# 2 -0.003994 0.010165 -0.001065 0.000000 0.002471 0.000000
# 3 -0.004697 -0.001065 0.013633 0.000000 0.001705 0.000000
# 4 0.000000 0.000000 0.000000 0.051546 0.000000 0.003787
# 5 -0.000713 0.002471 0.001705 0.000000 0.032588 0.000000
# 6 0.000000 0.000000 0.000000 0.003787 0.000000 0.038684
#
#
# Mechanical properties :
#
#
# Convention : Reuss Voigt Hill
#
# Bulk Modulus (GPa) = 50.70302 52.58120 51.64211
# Shear Modulus (GPa) = 26.57624 28.52551 27.55087
#
# Velocity S-wave (km/s) = 3.54659 3.67436 3.61104
# Velocity P-wave (km/s) = 6.38501 6.54885 6.46745
#
# Compressibility (1/GPa) = 0.01972269
#
# Stress axis : x y z
#
# Youngs Moduli (GPa) = 64.78596 98.37205 73.35156
#
# Poissons Ratio (x) = 0.39286 0.34450
# Poissons Ratio (y) = 0.25873 0.07814
# Poissons Ratio (z) = 0.30427 0.10480
#
# Static dielectric constant tensor:
#      x y z
#    x 3.705320 0.000000 0.046610 
#    y 0.000000 3.682260 0.000000 
#    z 0.046610 0.000000 4.069450 
# 
# 
# High freq. dielectric constant tensor:
#      x y z
#    x 1.812580 0.000000 0.005770 
#    y 0.000000 1.820870 0.000000 
#    z 0.005770 0.000000 1.844690 
# 
# From -- ./inp_files/209681.got.cif
#   From: 2010.06.25/outbox.cif.g09.slc.cpg/sg15_105_cif.got.tgz:209681.got - 2010.06.28 07:06:18.
