data_PCOD8139867
_publ_section_title
;
Structure prediction by ZEFSAII (Michael W. Deem and Ramdas Pophale) SiO2 
 PCOD8139867
Probable space group: C 2/C
;
_chemical_formula_sum "Si O2"
_cell_formula_units_Z 40
_cell_length_a 20.550606
_cell_length_b 10.287949
_cell_length_c 9.379156
_cell_angle_alpha 90.000000
_cell_angle_beta 79.920158
_cell_angle_gamma 90.000000
_cell_volume 1952.367221
_symmetry_space_group_name_H-M "C 2/C"
_symmetry_group_IT_number 15
_symmetry_cell_setting 'monoclinic'
loop_
_space_group_symop_operation_xyz
x,y,z
-x,y,1/2-z
-x,-y,-z
x,-y,1/2+z
1/2+x,1/2+y,z
1/2-x,1/2+y,1/2-z
1/2-x,1/2-y,-z
1/2+x,1/2-y,1/2+z
loop_
_atom_site_type_symbol
_atom_site_label
_atom_site_fract_x
_atom_site_fract_y
_atom_site_fract_z
Si Si1 0.173938 0.298298 0.538444
Si Si2 0.690461 0.737848 0.234538
Si Si3 0.379795 0.583244 0.455264
Si Si4 0.248824 0.003358 0.362401
Si Si5 0.072055 0.137276 0.752697
O O1 0.250000 0.250000 0.500000
O O2 0.145245 0.276264 0.390096
O O3 0.184829 0.449479 0.579265
O O4 0.128384 0.233272 0.674463
O O5 0.733431 0.605126 0.239426
O O6 0.741562 0.855948 0.191782
O O7 0.643105 0.715171 0.117120
O O8 0.316844 0.492834 0.515416
O O9 0.419847 0.619932 0.581200
O O10 0.424769 0.501230 0.328989
O O11 0.000000 0.198301 0.750000
#
# Coordination Sequence:
#
# PCOD8139867 Si02
#       5
#     8   8   8   8   8
#     4  10  20  40  62  88 130 166 210 266 315 375
#     4  11  22  37  63  96 132 170 214 267 326 376
#     4  12  21  39  60  92 131 170 220 262 321 382
#     4  11  21  37  67  97 131 165 213 269 323 380
#     4  12  24  40  63  93 130 174 216 266 323 389
#
# _framework density 20.487947999999999
#
# number of rings (size 3 to 8) (size 9 to 14) (size 15 to 20)
#    0.000    0.800    6.000    4.800    0.000    1.600 
#    0.000    0.000    0.000    6.000    0.000    0.000 
#    0.000    0.000    0.000    0.000    0.000    0.000 
#
# Total GULP energy -247859.333866 kJ/mol
# GULP energy per Si atom -12392.966693 kJ/mol
# Density = 2.044132 g / cm^3
# Si number density = 20.487948 Si / 1000 Ang^3
#
#
#
# Elastic Constant Matrix: (Units=GPa)
#
#
# Indices 1 2 3 4 5 6 
#
# 1 94.1771 35.2458 47.5575 0.0000 14.5422 0.0000
# 2 35.2458 90.9760 30.6052 0.0000 7.6684 0.0000
# 3 47.5575 30.6052 124.9073 0.0000 34.8036 0.0000
# 4 0.0000 0.0000 0.0000 30.9936 0.0000 4.5594
# 5 14.5422 7.6684 34.8036 0.0000 33.8362 0.0000
# 6 0.0000 0.0000 0.0000 4.5594 0.0000 19.9506
#
#
#
# Elastic Compliance Matrix: (Units=1/GPa)
#
#
# Indices 1 2 3 4 5 6 
#
# 1 0.014429 -0.004088 -0.004237 0.000000 -0.000917 0.000000
# 2 -0.004088 0.013142 -0.001855 0.000000 0.000686 0.000000
# 3 -0.004237 -0.001855 0.013245 0.000000 -0.011383 0.000000
# 4 0.000000 0.000000 0.000000 0.033387 0.000000 -0.007630
# 5 -0.000917 0.000686 -0.011383 0.000000 0.041501 0.000000
# 6 0.000000 0.000000 0.000000 -0.007630 0.000000 0.051868
#
#
# Mechanical properties :
#
#
# Convention : Reuss Voigt Hill
#
# Bulk Modulus (GPa) = 48.88177 59.65303 54.26740
# Shear Modulus (GPa) = 25.67407 30.06621 27.87014
#
# Velocity S-wave (km/s) = 3.54380 3.83496 3.69225
# Velocity P-wave (km/s) = 6.37615 6.98488 6.68745
#
# Compressibility (1/GPa) = 0.02045753
#
# Stress axis : x y z
#
# Youngs Moduli (GPa) = 69.30432 76.09383 75.49957
#
# Poissons Ratio (x) = 0.31104 0.31987
# Poissons Ratio (y) = 0.28328 0.14005
# Poissons Ratio (z) = 0.29362 0.14115
#
# Static dielectric constant tensor:
#      x y z
#    x 3.465580 0.000000 0.260740 
#    y 0.000000 3.900530 0.000000 
#    z 0.260740 0.000000 4.258490 
# 
# 
# High freq. dielectric constant tensor:
#      x y z
#    x 1.753230 0.000000 0.012190 
#    y 0.000000 1.790660 0.000000 
#    z 0.012190 0.000000 1.823590 
# 
# From -- ./inp_files/54120.got.cif
#   From: 2010.06.25/outbox.cif.g09.slc.cpg/sg15_28_cif.got.tgz:54120.got - 2010.06.28 07:06:18.
