data_PCOD8139437
_publ_section_title
;
Structure prediction by ZEFSAII (Michael W. Deem and Ramdas Pophale) SiO2 
 PCOD8139437
Probable space group: C 2/C
;
_chemical_formula_sum "Si O2"
_cell_formula_units_Z 40
_cell_length_a 19.385775
_cell_length_b 9.127274
_cell_length_c 13.666225
_cell_angle_alpha 90.000000
_cell_angle_beta 131.615783
_cell_angle_gamma 90.000000
_cell_volume 1807.802280
_symmetry_space_group_name_H-M "C 2/C"
_symmetry_group_IT_number 15
_symmetry_cell_setting 'monoclinic'
loop_
_space_group_symop_operation_xyz
x,y,z
-x,y,1/2-z
-x,-y,-z
x,-y,1/2+z
1/2+x,1/2+y,z
1/2-x,1/2+y,1/2-z
1/2-x,1/2-y,-z
1/2+x,1/2-y,1/2+z
loop_
_atom_site_type_symbol
_atom_site_label
_atom_site_fract_x
_atom_site_fract_y
_atom_site_fract_z
Si Si1 0.111948 0.283986 0.937568
Si Si2 0.167118 0.859623 0.825846
Si Si3 0.414334 0.352705 0.281205
Si Si4 0.733655 0.178555 0.277803
Si Si5 0.179503 0.454892 0.388817
O O1 0.141945 0.190733 0.870802
O O2 0.115000 0.453890 0.904186
O O3 0.011363 0.229720 0.876843
O O4 0.179442 0.258037 0.090542
O O5 0.240586 0.864898 0.806987
O O6 0.127996 0.697140 0.810721
O O7 0.081535 0.969211 0.717146
O O8 0.221139 0.918137 0.971455
O O9 0.350483 0.295927 0.309694
O O10 0.698568 0.038636 0.305335
#
# Coordination Sequence:
#
# PCOD8139437 Si02
#       5
#     8   8   8   8   8
#     4  10  20  39  65  84 122 170 207 239 314 378
#     4  11  21  36  65  95 124 156 209 261 305 354
#     4  10  20  39  62  88 119 171 202 249 310 367
#     4  11  20  39  66  87 124 171 204 243 310 379
#     4  10  21  38  62  95 124 160 204 260 306 361
#
# _framework density 22.126311999999999
#
# number of rings (size 3 to 8) (size 9 to 14) (size 15 to 20)
#    0.000    1.600    4.000    2.400    0.000    0.800 
#    0.000    9.000    8.800    0.000    0.000    0.000 
#    0.000    0.000    0.000    0.000    0.000    0.000 
#
# Total GULP energy -247861.089016 kJ/mol
# GULP energy per Si atom -12393.054451 kJ/mol
# Density = 2.207595 g / cm^3
# Si number density = 22.126312 Si / 1000 Ang^3
#
#
#
# Elastic Constant Matrix: (Units=GPa)
#
#
# Indices 1 2 3 4 5 6 
#
# 1 64.1844 47.0045 12.5248 0.0000 10.9252 0.0000
# 2 47.0045 194.7682 25.4657 0.0000 22.6449 0.0000
# 3 12.5248 25.4657 26.5678 0.0000 4.1814 0.0000
# 4 0.0000 0.0000 0.0000 15.8206 0.0000 -1.8805
# 5 10.9252 22.6449 4.1814 0.0000 27.7200 0.0000
# 6 0.0000 0.0000 0.0000 -1.8805 0.0000 26.9715
#
#
#
# Elastic Compliance Matrix: (Units=1/GPa)
#
#
# Indices 1 2 3 4 5 6 
#
# 1 0.019984 -0.003658 -0.005271 0.000000 -0.004093 0.000000
# 2 -0.003658 0.007018 -0.004432 0.000000 -0.003623 0.000000
# 3 -0.005271 -0.004432 0.044533 0.000000 -0.001020 0.000000
# 4 0.000000 0.000000 0.000000 0.063737 0.000000 0.004444
# 5 -0.004093 -0.003623 -0.001020 0.000000 0.040802 0.000000
# 6 0.000000 0.000000 0.000000 0.004444 0.000000 0.037386
#
#
# Mechanical properties :
#
#
# Convention : Reuss Voigt Hill
#
# Bulk Modulus (GPa) = 22.31467 50.61226 36.46346
# Shear Modulus (GPa) = 19.59872 27.47077 23.53475
#
# Velocity S-wave (km/s) = 2.97941 3.52738 3.26491
# Velocity P-wave (km/s) = 4.68432 6.28600 5.54331
#
# Compressibility (1/GPa) = 0.04481357
#
# Stress axis : x y z
#
# Youngs Moduli (GPa) = 50.03976 142.49567 22.45521
#
# Poissons Ratio (x) = 0.52123 0.11836
# Poissons Ratio (y) = 0.18304 0.09952
# Poissons Ratio (z) = 0.26375 0.63155
#
# Static dielectric constant tensor:
#      x y z
#    x 3.765930 0.000000 -0.167610 
#    y 0.000000 4.434260 0.000000 
#    z -0.167610 0.000000 3.634340 
# 
# 
# High freq. dielectric constant tensor:
#      x y z
#    x 1.852130 0.000000 -0.011820 
#    y 0.000000 1.889250 0.000000 
#    z -0.011820 0.000000 1.840000 
# 
# From -- ./inp_files/166498.got.cif
#   From: 2010.06.25/outbox.cif.g09.slc.cpg/sg15_84_cif.got.tgz:166498.got - 2010.06.28 07:06:18.
