data_PCOD8139975
_publ_section_title
;
Structure prediction by ZEFSAII (Michael W. Deem and Ramdas Pophale) SiO2 
 PCOD8139975
Probable space group: C 2/C
;
_chemical_formula_sum "Si O2"
_cell_formula_units_Z 64
_cell_length_a 14.959232
_cell_length_b 9.184148
_cell_length_c 24.879547
_cell_angle_alpha 90.000000
_cell_angle_beta 116.408803
_cell_angle_gamma 90.000000
_cell_volume 3061.440244
_symmetry_space_group_name_H-M "C 2/C"
_symmetry_group_IT_number 15
_symmetry_cell_setting 'monoclinic'
loop_
_space_group_symop_operation_xyz
x,y,z
-x,y,1/2-z
-x,-y,-z
x,-y,1/2+z
1/2+x,1/2+y,z
1/2-x,1/2+y,1/2-z
1/2-x,1/2-y,-z
1/2+x,1/2-y,1/2+z
loop_
_atom_site_type_symbol
_atom_site_label
_atom_site_fract_x
_atom_site_fract_y
_atom_site_fract_z
Si Si1 0.165081 0.463340 0.184523
Si Si2 0.903136 0.094823 0.487561
Si Si3 0.690444 0.577104 0.922084
Si Si4 0.314615 0.636211 0.286368
Si Si5 0.491600 0.475267 0.184127
Si Si6 0.992813 0.646604 0.186164
Si Si7 0.777260 0.385105 0.624099
Si Si8 0.399059 0.922517 0.455041
O O1 0.264598 0.561026 0.220398
O O2 0.182301 0.309632 0.218510
O O3 0.131288 0.452904 0.114378
O O4 0.078034 0.541068 0.192247
O O5 0.873776 0.108937 0.541950
O O6 0.805863 0.025692 0.431760
O O7 0.923656 0.253346 0.469243
O O8 0.000000 0.000000 0.500000
O O9 0.619602 0.475179 0.865617
O O10 0.721899 0.717463 0.894962
O O11 0.802956 0.516088 0.964205
O O12 0.426376 0.574689 0.323138
O O13 0.247897 0.598921 0.320110
O O14 0.500000 0.492994 0.250000
O O15 0.502031 0.309432 0.163792
O O16 0.890067 0.561620 0.143835
O O17 0.000000 0.680395 0.250000
O O18 0.500000 0.000000 0.500000
#
# Coordination Sequence:
#
# PCOD8139975 Si02
#       8
#     8   8   8   8   8   8   8   8
#     4  12  25  41  68  95 141 169 226 275 335 395
#     4  11  23  43  70  97 128 174 229 275 327 402
#     4  10  21  40  69  94 125 180 223 270 328 404
#     4  12  23  42  67  96 131 176 217 284 334 399
#     4  10  22  39  69  92 131 173 229 273 341 397
#     4  10  21  40  63  93 123 175 219 270 328 403
#     4  10  20  40  64  91 128 169 223 266 329 400
#     4  11  25  44  65  99 135 176 221 273 335 397
#
# _framework density 20.905194000000002
#
# number of rings (size 3 to 8) (size 9 to 14) (size 15 to 20)
#    0.000    1.250    3.750    3.750    7.000    0.500 
#    2.250    1.875    0.000    0.000    0.000    0.000 
#    0.000    0.000    0.000    0.000    0.000    0.000 
#
# Total GULP energy -396447.290045 kJ/mol
# GULP energy per Si atom -12388.977814 kJ/mol
# Density = 2.085761 g / cm^3
# Si number density = 20.905194 Si / 1000 Ang^3
#
#
#
# Elastic Constant Matrix: (Units=GPa)
#
#
# Indices 1 2 3 4 5 6 
#
# 1 120.5415 40.8946 39.6260 0.0000 30.2498 0.0000
# 2 40.8946 78.2312 34.5282 0.0000 10.5476 0.0000
# 3 39.6260 34.5282 108.6994 0.0000 17.6455 0.0000
# 4 0.0000 0.0000 0.0000 32.0479 0.0000 1.9841
# 5 30.2498 10.5476 17.6455 0.0000 52.6370 0.0000
# 6 0.0000 0.0000 0.0000 1.9841 0.0000 38.8403
#
#
#
# Elastic Compliance Matrix: (Units=1/GPa)
#
#
# Indices 1 2 3 4 5 6 
#
# 1 0.011818 -0.004591 -0.002006 0.000000 -0.005199 0.000000
# 2 -0.004591 0.016760 -0.003737 0.000000 0.000533 0.000000
# 3 -0.002006 -0.003737 0.011431 0.000000 -0.001931 0.000000
# 4 0.000000 0.000000 0.000000 0.031302 0.000000 -0.001599
# 5 -0.005199 0.000533 -0.001931 0.000000 0.022526 0.000000
# 6 0.000000 0.000000 0.000000 -0.001599 0.000000 0.025828
#
#
# Mechanical properties :
#
#
# Convention : Reuss Voigt Hill
#
# Bulk Modulus (GPa) = 51.70169 59.72996 55.71583
# Shear Modulus (GPa) = 34.06465 37.53327 35.79896
#
# Velocity S-wave (km/s) = 4.04106 4.24182 4.14266
# Velocity P-wave (km/s) = 6.82340 7.25428 7.04214
#
# Compressibility (1/GPa) = 0.01934173
#
# Stress axis : x y z
#
# Youngs Moduli (GPa) = 84.61983 59.66576 87.48022
#
# Poissons Ratio (x) = 0.27395 0.17545
# Poissons Ratio (y) = 0.38852 0.32687
# Poissons Ratio (z) = 0.16972 0.22294
#
# Static dielectric constant tensor:
#      x y z
#    x 4.281110 0.000000 0.586440 
#    y 0.000000 3.564990 0.000000 
#    z 0.586440 0.000000 4.155460 
# 
# 
# High freq. dielectric constant tensor:
#      x y z
#    x 1.841780 0.000000 0.018490 
#    y 0.000000 1.773630 0.000000 
#    z 0.018490 0.000000 1.834110 
# 
# From -- ./inp_files/295201.got.cif
#   From: 2010.06.25/outbox.cif.g09.slc.cpg/sg15_148_cif.got.tgz:295201.got - 2010.06.28 07:06:18.
