data_PCOD8139396
_publ_section_title
;
Structure prediction by ZEFSAII (Michael W. Deem and Ramdas Pophale) SiO2 
 PCOD8139396
Probable space group: C 2/C
;
_chemical_formula_sum "Si O2"
_cell_formula_units_Z 48
_cell_length_a 6.702398
_cell_length_b 27.275244
_cell_length_c 15.868825
_cell_angle_alpha 90.000000
_cell_angle_beta 52.064785
_cell_angle_gamma 90.000000
_cell_volume 2288.015622
_symmetry_space_group_name_H-M "C 2/C"
_symmetry_group_IT_number 15
_symmetry_cell_setting 'monoclinic'
loop_
_space_group_symop_operation_xyz
x,y,z
-x,y,1/2-z
-x,-y,-z
x,-y,1/2+z
1/2+x,1/2+y,z
1/2-x,1/2+y,1/2-z
1/2-x,1/2-y,-z
1/2+x,1/2-y,1/2+z
loop_
_atom_site_type_symbol
_atom_site_label
_atom_site_fract_x
_atom_site_fract_y
_atom_site_fract_z
Si Si1 0.500000 0.021715 0.750000
Si Si2 0.977778 0.534733 0.425141
Si Si3 0.261676 0.877798 0.556625
Si Si4 0.550729 0.583318 0.936969
Si Si5 0.500000 0.688118 0.250000
Si Si6 0.482884 0.227626 0.345173
Si Si7 0.767431 0.173359 0.945046
O O1 0.258947 0.055563 0.828715
O O2 0.429152 0.989824 0.685912
O O3 0.685516 0.547864 0.486837
O O4 0.000000 0.500000 0.500000
O O5 0.147696 0.582548 0.397528
O O6 0.161374 0.902774 0.498847
O O7 0.507677 0.844842 0.469177
O O8 0.038682 0.845989 0.657302
O O9 0.470166 0.630220 0.902892
O O10 0.262838 0.724578 0.310251
O O11 0.500000 0.202580 0.250000
O O12 0.285145 0.195560 0.448885
O O13 0.391581 0.283643 0.357836
#
# Coordination Sequence:
#
# PCOD8139396 Si02
#       7
#     4   8   8   8   4   8   8
#     4  12  26  41  68  94 124 176 212 261 328 378
#     4  11  25  45  63  95 131 167 217 268 320 383
#     4  10  22  41  63  91 128 166 211 267 319 382
#     4  11  24  44  63  93 129 164 216 265 320 384
#     4  10  22  35  64  96 118 168 214 257 324 384
#     4  10  20  39  61  89 124 163 209 257 320 387
#     4   9  22  40  60  89 128 162 205 267 316 380
#
# _framework density 20.978876
#
# number of rings (size 3 to 8) (size 9 to 14) (size 15 to 20)
#    0.000    1.667    1.667    1.500    2.333    4.000 
#    3.000    5.000    0.000    0.000    0.000    0.000 
#    0.000    0.000    0.000    0.000    0.000    0.000 
#
# Total GULP energy -297605.041571 kJ/mol
# GULP energy per Si atom -12400.210065 kJ/mol
# Density = 2.093113 g / cm^3
# Si number density = 20.978876 Si / 1000 Ang^3
#
#
#
# Elastic Constant Matrix: (Units=GPa)
#
#
# Indices 1 2 3 4 5 6 
#
# 1 106.8135 47.5062 46.5442 0.0000 -1.5691 0.0000
# 2 47.5062 99.1271 38.3122 0.0000 -11.6641 0.0000
# 3 46.5442 38.3122 101.9446 0.0000 1.1204 0.0000
# 4 0.0000 0.0000 0.0000 18.0232 0.0000 -6.2278
# 5 -1.5691 -11.6641 1.1204 0.0000 36.7720 0.0000
# 6 0.0000 0.0000 0.0000 -6.2278 0.0000 29.7308
#
#
#
# Elastic Compliance Matrix: (Units=1/GPa)
#
#
# Indices 1 2 3 4 5 6 
#
# 1 0.013370 -0.004856 -0.004270 0.000000 -0.000840 0.000000
# 2 -0.004856 0.014147 -0.003148 0.000000 0.004376 0.000000
# 3 -0.004270 -0.003148 0.012959 0.000000 -0.001575 0.000000
# 4 0.000000 0.000000 0.000000 0.059813 0.000000 0.012529
# 5 -0.000840 0.004376 -0.001575 0.000000 0.028595 0.000000
# 6 0.000000 0.000000 0.000000 0.012529 0.000000 0.036260
#
#
# Mechanical properties :
#
#
# Convention : Reuss Voigt Hill
#
# Bulk Modulus (GPa) = 62.78040 63.62337 63.20188
# Shear Modulus (GPa) = 25.64088 28.60672 27.12380
#
# Velocity S-wave (km/s) = 3.49982 3.69670 3.59961
# Velocity P-wave (km/s) = 6.80604 6.97237 6.88971
#
# Compressibility (1/GPa) = 0.01592854
#
# Stress axis : x y z
#
# Youngs Moduli (GPa) = 74.79269 70.68776 77.16601
#
# Poissons Ratio (x) = 0.34326 0.32951
# Poissons Ratio (y) = 0.36320 0.24288
# Poissons Ratio (z) = 0.31938 0.22249
#
# Static dielectric constant tensor:
#      x y z
#    x 3.757220 0.000000 -0.119210 
#    y 0.000000 3.976650 0.000000 
#    z -0.119210 0.000000 3.763280 
# 
# 
# High freq. dielectric constant tensor:
#      x y z
#    x 1.823780 0.000000 -0.006640 
#    y 0.000000 1.832210 0.000000 
#    z -0.006640 0.000000 1.821940 
# 
# From -- ./inp_files/130373.got.cif
#   From: 2010.06.25/outbox.cif.g09.slc.cpg/sg15_66_cif.got.tgz:130373.got - 2010.06.28 07:06:18.
