data_PCOD8139630
_publ_section_title
;
Structure prediction by ZEFSAII (Michael W. Deem and Ramdas Pophale) SiO2 
 PCOD8139630
Probable space group: C 2/C
;
_chemical_formula_sum "Si O2"
_cell_formula_units_Z 52
_cell_length_a 16.181221
_cell_length_b 9.448719
_cell_length_c 17.327063
_cell_angle_alpha 90.000000
_cell_angle_beta 59.057676
_cell_angle_gamma 90.000000
_cell_volume 2272.150820
_symmetry_space_group_name_H-M "C 2/C"
_symmetry_group_IT_number 15
_symmetry_cell_setting 'monoclinic'
loop_
_space_group_symop_operation_xyz
x,y,z
-x,y,1/2-z
-x,-y,-z
x,-y,1/2+z
1/2+x,1/2+y,z
1/2-x,1/2+y,1/2-z
1/2-x,1/2-y,-z
1/2+x,1/2-y,1/2+z
loop_
_atom_site_type_symbol
_atom_site_label
_atom_site_fract_x
_atom_site_fract_y
_atom_site_fract_z
Si Si1 0.500000 0.355992 0.250000
Si Si2 0.775355 0.447607 0.426696
Si Si3 0.797381 0.274951 0.824165
Si Si4 0.703432 0.225523 0.350797
Si Si5 0.157122 0.445661 0.454084
Si Si6 0.493915 0.716661 0.998370
Si Si7 0.071131 0.978404 0.574017
O O1 0.588778 0.254689 0.227402
O O2 0.475335 0.466501 0.327092
O O3 0.777805 0.566328 0.360159
O O4 0.778046 0.300932 0.375746
O O5 0.856269 0.482038 0.453806
O O6 0.682656 0.437860 0.527436
O O7 0.758283 0.258475 0.755215
O O8 0.740799 0.172591 0.910350
O O9 0.597574 0.294351 0.406924
O O10 0.688499 0.060991 0.376580
O O11 0.054686 0.371962 0.480915
O O12 0.509779 0.660540 0.078078
O O13 0.425448 0.604137 0.990354
#
# Coordination Sequence:
#
# PCOD8139630 Si02
#       7
#     4   8   8   8   8   8   8
#     4  12  22  38  64 100 120 168 220 276 318 382
#     4  11  23  43  65  94 125 169 215 266 322 392
#     4  12  24  39  66  92 128 163 222 267 323 387
#     4  11  25  41  63  95 132 166 210 273 330 386
#     4  12  23  41  66  93 125 173 216 263 326 393
#     4  10  21  39  65  91 127 168 209 258 330 391
#     4  10  20  39  65  95 124 163 213 267 316 384
#
# _framework density 22.885804
#
# number of rings (size 3 to 8) (size 9 to 14) (size 15 to 20)
#    0.000    0.923    4.615    3.231    0.000    1.231 
#    0.000    0.000    0.000    0.923    0.000    0.000 
#    0.000    0.000    0.000    0.000    0.000    0.000 
#
# Total GULP energy -322212.453069 kJ/mol
# GULP energy per Si atom -12392.786657 kJ/mol
# Density = 2.283371 g / cm^3
# Si number density = 22.885804 Si / 1000 Ang^3
#
#
#
# Elastic Constant Matrix: (Units=GPa)
#
#
# Indices 1 2 3 4 5 6 
#
# 1 56.9198 31.8546 29.4338 0.0000 18.9997 0.0000
# 2 31.8546 117.4928 30.1726 0.0000 19.7279 0.0000
# 3 29.4338 30.1726 98.7442 0.0000 15.7359 0.0000
# 4 0.0000 0.0000 0.0000 38.7656 0.0000 2.0667
# 5 18.9997 19.7279 15.7359 0.0000 22.9740 0.0000
# 6 0.0000 0.0000 0.0000 2.0667 0.0000 37.6797
#
#
#
# Elastic Compliance Matrix: (Units=1/GPa)
#
#
# Indices 1 2 3 4 5 6 
#
# 1 0.027356 -0.003491 -0.004445 0.000000 -0.016581 0.000000
# 2 -0.003491 0.010713 -0.001377 0.000000 -0.005369 0.000000
# 3 -0.004445 -0.001377 0.012459 0.000000 -0.003675 0.000000
# 4 0.000000 0.000000 0.000000 0.025872 0.000000 -0.001419
# 5 -0.016581 -0.005369 -0.003675 0.000000 0.064367 0.000000
# 6 0.000000 0.000000 0.000000 -0.001419 0.000000 0.026617
#
#
# Mechanical properties :
#
#
# Convention : Reuss Voigt Hill
#
# Bulk Modulus (GPa) = 31.34782 50.67543 41.01162
# Shear Modulus (GPa) = 25.42673 31.99691 28.71182
#
# Velocity S-wave (km/s) = 3.33682 3.74319 3.54583
# Velocity P-wave (km/s) = 5.34538 6.39318 5.89262
#
# Compressibility (1/GPa) = 0.03190015
#
# Stress axis : x y z
#
# Youngs Moduli (GPa) = 36.55554 93.34656 80.26575
#
# Poissons Ratio (x) = 0.32588 0.35679
# Poissons Ratio (y) = 0.12762 0.11055
# Poissons Ratio (z) = 0.16249 0.12856
#
# Static dielectric constant tensor:
#      x y z
#    x 4.643260 0.000000 0.352720 
#    y 0.000000 4.143460 0.000000 
#    z 0.352720 0.000000 4.074890 
# 
# 
# High freq. dielectric constant tensor:
#      x y z
#    x 1.898220 0.000000 0.011570 
#    y 0.000000 1.909910 0.000000 
#    z 0.011570 0.000000 1.890250 
# 
# From -- ./inp_files/209477.got.cif
#   From: 2010.06.25/outbox.cif.g09.slc.cpg/sg15_105_cif.got.tgz:209477.got - 2010.06.28 07:06:18.
