data_PCOD8139180
_publ_section_title
;
Structure prediction by ZEFSAII (Michael W. Deem and Ramdas Pophale) SiO2 
 PCOD8139180
Probable space group: C 2/C
;
_chemical_formula_sum "Si O2"
_cell_formula_units_Z 60
_cell_length_a 21.984895
_cell_length_b 6.515342
_cell_length_c 25.292518
_cell_angle_alpha 90.000000
_cell_angle_beta 51.839668
_cell_angle_gamma 90.000000
_cell_volume 2848.613905
_symmetry_space_group_name_H-M "C 2/C"
_symmetry_group_IT_number 15
_symmetry_cell_setting 'monoclinic'
loop_
_space_group_symop_operation_xyz
x,y,z
-x,y,1/2-z
-x,-y,-z
x,-y,1/2+z
1/2+x,1/2+y,z
1/2-x,1/2+y,1/2-z
1/2-x,1/2-y,-z
1/2+x,1/2-y,1/2+z
loop_
_atom_site_type_symbol
_atom_site_label
_atom_site_fract_x
_atom_site_fract_y
_atom_site_fract_z
Si Si1 0.786340 0.059727 0.949653
Si Si2 0.500000 0.821983 0.750000
Si Si3 0.790539 0.487589 0.788225
Si Si4 0.510094 0.037882 0.932502
Si Si5 0.844999 0.569312 0.367048
Si Si6 0.648319 0.812459 0.030727
Si Si7 0.566856 0.287055 0.320202
Si Si8 0.639234 0.319118 0.821143
O O1 0.836936 0.180274 0.878490
O O2 0.839892 0.927661 0.961582
O O3 0.750000 0.250000 0.000000
O O4 0.720000 0.912001 0.958482
O O5 0.571102 0.974277 0.702492
O O6 0.485759 0.693343 0.704026
O O7 0.785541 0.508234 0.854408
O O8 0.850077 0.312988 0.737084
O O9 0.703024 0.434244 0.821115
O O10 0.816632 0.703170 0.749656
O O11 0.433958 0.156862 0.952494
O O12 0.588169 0.168932 0.884714
O O13 0.520592 0.832727 0.891686
O O14 0.500000 0.000000 0.000000
O O15 0.837590 0.435669 0.422749
O O16 0.578693 0.519246 0.330916
#
# Coordination Sequence:
#
# PCOD8139180 Si02
#       8
#     8   4   8   8   8   8   8   8
#     4   9  21  40  63  91 121 165 209 272 319 378
#     4  10  20  38  66  94 128 162 206 274 334 390
#     4  10  22  41  63  93 126 167 218 268 331 400
#     4  11  26  43  66  98 135 179 227 274 331 406
#     4  10  21  38  64  89 126 168 210 268 329 388
#     4  10  21  43  62  91 131 162 223 271 322 392
#     4  10  22  44  65  94 132 171 214 277 332 398
#     4  11  23  43  65  94 132 174 221 274 335 405
#
# _framework density 21.062874999999998
#
# number of rings (size 3 to 8) (size 9 to 14) (size 15 to 20)
#    0.000    1.867    2.667    0.000    3.733    2.667 
#    7.200    0.667    0.000    0.000    0.000    0.000 
#    0.000    0.000    0.000    0.000    0.000    0.000 
#
# Total GULP energy -371753.821387 kJ/mol
# GULP energy per Si atom -12391.794046 kJ/mol
# Density = 2.101493 g / cm^3
# Si number density = 21.062875 Si / 1000 Ang^3
#
#
#
# Elastic Constant Matrix: (Units=GPa)
#
#
# Indices 1 2 3 4 5 6 
#
# 1 145.1440 56.1319 54.1707 -0.0326 14.7709 -0.0654
# 2 56.1319 117.4726 41.1736 0.0162 7.9904 -0.0761
# 3 54.1707 41.1736 88.3445 0.0037 15.3229 0.0033
# 4 -0.0326 0.0162 0.0037 18.9478 0.0037 -5.9226
# 5 14.7709 7.9904 15.3229 0.0037 38.8325 -0.0009
# 6 -0.0654 -0.0761 0.0033 -5.9226 -0.0009 30.6266
#
#
#
# Elastic Compliance Matrix: (Units=1/GPa)
#
#
# Indices 1 2 3 4 5 6 
#
# 1 0.009852 -0.003084 -0.004362 0.000027 -0.001392 0.000019
# 2 -0.003084 0.011142 -0.003336 -0.000008 0.000197 0.000020
# 3 -0.004362 -0.003336 0.016255 -0.000014 -0.004068 -0.000022
# 4 0.000027 -0.000008 -0.000014 0.056172 -0.000008 0.010863
# 5 -0.001392 0.000197 -0.004068 -0.000008 0.027846 -0.000003
# 6 0.000019 0.000020 -0.000022 0.010863 -0.000003 0.034752
#
#
# Mechanical properties :
#
#
# Convention : Reuss Voigt Hill
#
# Bulk Modulus (GPa) = 63.75875 72.65706 68.20790
# Shear Modulus (GPa) = 27.35060 30.98038 29.16549
#
# Velocity S-wave (km/s) = 3.60741 3.83933 3.72518
# Velocity P-wave (km/s) = 6.90562 7.36370 7.13834
#
# Compressibility (1/GPa) = 0.01568412
#
# Stress axis : x y z
#
# Youngs Moduli (GPa) = 101.50047 89.74957 61.52100
#
# Poissons Ratio (x) = 0.27679 0.26838
# Poissons Ratio (y) = 0.31303 0.20523
# Poissons Ratio (z) = 0.44279 0.29940
#
# Static dielectric constant tensor:
#      x y z
#    x 3.892060 -0.000180 -0.237910 
#    y -0.000180 4.102680 0.000130 
#    z -0.237910 0.000130 4.661960 
# 
# 
# High freq. dielectric constant tensor:
#      x y z
#    x 1.829510 -0.000010 -0.013510 
#    y -0.000010 1.817890 -0.000010 
#    z -0.013510 -0.000010 1.824880 
# 
# From -- ./inp_files/300112.got.cif
#   From: 2010.06.25/outbox.cif.g09.slc.cpg/sg15_151_cif.got.tgz:300112.got - 2010.06.28 07:06:18.
