data_PCOD8139507
_publ_section_title
;
Structure prediction by ZEFSAII (Michael W. Deem and Ramdas Pophale) SiO2 
 PCOD8139507
Probable space group: C 2/C
;
_chemical_formula_sum "Si O2"
_cell_formula_units_Z 48
_cell_length_a 10.286455
_cell_length_b 12.100649
_cell_length_c 18.085633
_cell_angle_alpha 90.000000
_cell_angle_beta 81.279375
_cell_angle_gamma 90.000000
_cell_volume 2225.144117
_symmetry_space_group_name_H-M "C 2/C"
_symmetry_group_IT_number 15
_symmetry_cell_setting 'monoclinic'
loop_
_space_group_symop_operation_xyz
x,y,z
-x,y,1/2-z
-x,-y,-z
x,-y,1/2+z
1/2+x,1/2+y,z
1/2-x,1/2+y,1/2-z
1/2-x,1/2-y,-z
1/2+x,1/2-y,1/2+z
loop_
_atom_site_type_symbol
_atom_site_label
_atom_site_fract_x
_atom_site_fract_y
_atom_site_fract_z
Si Si1 0.578535 0.252261 0.946832
Si Si2 0.881993 0.138064 0.203519
Si Si3 0.306405 0.578463 0.960070
Si Si4 0.108242 0.677481 0.304673
Si Si5 0.399150 0.090261 0.035326
Si Si6 0.963892 0.911677 0.169698
O O1 0.574431 0.269892 0.859471
O O2 0.692946 0.166168 0.953522
O O3 0.609153 0.373456 0.978918
O O4 0.439924 0.205398 0.991322
O O5 0.748642 0.171368 0.254190
O O6 0.000000 0.128728 0.250000
O O7 0.865426 0.015869 0.168230
O O8 0.244079 0.455889 0.979033
O O9 0.400223 0.564536 0.882676
O O10 0.094346 0.593881 0.375203
O O11 0.100445 0.795442 0.347915
O O12 0.000000 0.653716 0.250000
O O13 0.500000 0.000000 0.000000
O O14 0.000000 0.889654 0.250000
#
# Coordination Sequence:
#
# PCOD8139507 Si02
#       6
#     8   8   8   8   8   8
#     4  10  21  40  66  96 131 179 226 285 344 411
#     4  11  25  43  64  97 138 175 224 286 352 411
#     4  10  20  39  68  92 133 177 229 274 348 424
#     4  11  23  43  71  96 130 184 237 276 338 424
#     4  10  21  38  65 104 131 172 232 293 334 415
#     4  10  20  39  63  89 129 180 219 270 348 413
#
# _framework density 21.571636999999999
#
# number of rings (size 3 to 8) (size 9 to 14) (size 15 to 20)
#    0.000    1.667    1.667    4.000    4.667    2.000 
#    3.000    5.833    0.000    0.000    0.000    0.000 
#    0.000    0.000    0.000    0.000    0.000    0.000 
#
# Total GULP energy -297383.284810 kJ/mol
# GULP energy per Si atom -12390.970200 kJ/mol
# Density = 2.152254 g / cm^3
# Si number density = 21.571637 Si / 1000 Ang^3
#
#
#
# Elastic Constant Matrix: (Units=GPa)
#
#
# Indices 1 2 3 4 5 6 
#
# 1 98.1673 51.0883 45.5448 0.0000 -27.3201 0.0000
# 2 51.0883 101.6349 47.7878 0.0000 -8.5357 0.0000
# 3 45.5448 47.7878 138.7344 0.0000 -25.6653 0.0000
# 4 0.0000 0.0000 0.0000 56.7390 0.0000 -19.7604
# 5 -27.3201 -8.5357 -25.6653 0.0000 36.7834 0.0000
# 6 0.0000 0.0000 0.0000 -19.7604 0.0000 53.1680
#
#
#
# Elastic Compliance Matrix: (Units=1/GPa)
#
#
# Indices 1 2 3 4 5 6 
#
# 1 0.017480 -0.007302 -0.001303 0.000000 0.010379 0.000000
# 2 -0.007302 0.014792 -0.003521 0.000000 -0.004448 0.000000
# 3 -0.001303 -0.003521 0.009781 0.000000 0.005040 0.000000
# 4 0.000000 0.000000 0.000000 0.020245 0.000000 0.007524
# 5 0.010379 -0.004448 0.005040 0.000000 0.037380 0.000000
# 6 0.000000 0.000000 0.000000 0.007524 0.000000 0.021605
#
#
# Mechanical properties :
#
#
# Convention : Reuss Voigt Hill
#
# Bulk Modulus (GPa) = 56.17781 69.70868 62.94324
# Shear Modulus (GPa) = 33.01049 42.27911 37.64480
#
# Velocity S-wave (km/s) = 3.91611 4.43192 4.18198
# Velocity P-wave (km/s) = 6.82253 7.65339 7.24987
#
# Compressibility (1/GPa) = 0.01780062
#
# Stress axis : x y z
#
# Youngs Moduli (GPa) = 57.20809 67.60624 102.24102
#
# Poissons Ratio (x) = 0.49368 0.13323
# Poissons Ratio (y) = 0.41775 0.35995
# Poissons Ratio (z) = 0.07455 0.23801
#
# Static dielectric constant tensor:
#      x y z
#    x 3.103070 0.000000 -0.332080 
#    y 0.000000 4.676460 0.000000 
#    z -0.332080 0.000000 4.048050 
# 
# 
# High freq. dielectric constant tensor:
#      x y z
#    x 1.824900 0.000000 -0.022110 
#    y 0.000000 1.854410 0.000000 
#    z -0.022110 0.000000 1.862430 
# 
# From -- ./inp_files/196498.got.cif
#   From: 2010.06.25/outbox.cif.g09.slc.cpg/sg15_99_cif.got.tgz:196498.got - 2010.06.28 07:06:18.
