data_PCOD8139938
_publ_section_title
;
Structure prediction by ZEFSAII (Michael W. Deem and Ramdas Pophale) SiO2 
 PCOD8139938
Probable space group: C 2/C
;
_chemical_formula_sum "Si O2"
_cell_formula_units_Z 64
_cell_length_a 29.146668
_cell_length_b 8.904726
_cell_length_c 12.882068
_cell_angle_alpha 90.000000
_cell_angle_beta 83.405219
_cell_angle_gamma 90.000000
_cell_volume 3321.328916
_symmetry_space_group_name_H-M "C 2/C"
_symmetry_group_IT_number 15
_symmetry_cell_setting 'monoclinic'
loop_
_space_group_symop_operation_xyz
x,y,z
-x,y,1/2-z
-x,-y,-z
x,-y,1/2+z
1/2+x,1/2+y,z
1/2-x,1/2+y,1/2-z
1/2-x,1/2-y,-z
1/2+x,1/2-y,1/2+z
loop_
_atom_site_type_symbol
_atom_site_label
_atom_site_fract_x
_atom_site_fract_y
_atom_site_fract_z
Si Si1 0.787224 0.285072 0.689720
Si Si2 0.383842 0.140744 0.221942
Si Si3 0.550856 0.979086 0.442740
Si Si4 0.549589 0.720868 0.285674
Si Si5 0.667725 0.353735 0.499325
Si Si6 0.797958 0.000730 0.811604
Si Si7 0.610577 0.095968 0.611385
Si Si8 0.614732 0.534892 0.825035
O O1 0.836440 0.372743 0.667617
O O2 0.787943 0.182239 0.585589
O O3 0.785443 0.175020 0.791131
O O4 0.745326 0.397801 0.704781
O O5 0.431216 0.091204 0.152106
O O6 0.391504 0.316518 0.245327
O O7 0.371312 0.040335 0.323851
O O8 0.585630 0.003995 0.527334
O O9 0.500000 0.000000 0.500000
O O10 0.550919 0.815296 0.391518
O O11 0.500000 0.690509 0.250000
O O12 0.577080 0.797512 0.185464
O O13 0.569589 0.562842 0.319281
O O14 0.685886 0.480073 0.573892
O O15 0.652108 0.201090 0.561632
O O16 0.624132 0.417961 0.443016
O O17 0.840114 0.945754 0.727397
#
# Coordination Sequence:
#
# PCOD8139938 Si02
#       8
#     8   8   8   8   8   8   8   8
#     4  10  22  38  60  90 119 159 203 248 310 362
#     4   9  22  39  60  87 119 159 198 251 305 362
#     4  11  21  39  60  89 120 153 207 250 290 371
#     4  11  23  38  63  90 120 162 201 248 313 359
#     4  10  20  40  64  83 122 164 199 252 307 360
#     4  10  21  38  63  84 125 159 199 254 301 362
#     4  11  20  40  65  83 121 162 200 249 305 361
#     4  10  22  43  59  88 127 156 206 251 308 364
#
# _framework density 19.269394999999999
#
# number of rings (size 3 to 8) (size 9 to 14) (size 15 to 20)
#    0.000    2.000    5.000    0.375    1.750    2.000 
#    2.250    3.750    0.000    0.000    0.000    0.000 
#    0.000    0.000    0.000    0.000    0.000    0.000 
#
# Total GULP energy -396441.130717 kJ/mol
# GULP energy per Si atom -12388.785335 kJ/mol
# Density = 1.922554 g / cm^3
# Si number density = 19.269395 Si / 1000 Ang^3
#
#
#
# Elastic Constant Matrix: (Units=GPa)
#
#
# Indices 1 2 3 4 5 6 
#
# 1 90.0931 58.8263 23.9528 0.0000 -5.1795 0.0000
# 2 58.8263 110.9995 46.4439 0.0000 4.1145 0.0000
# 3 23.9528 46.4439 87.4459 0.0000 -2.9072 0.0000
# 4 0.0000 0.0000 0.0000 36.7669 0.0000 5.3636
# 5 -5.1795 4.1145 -2.9072 0.0000 26.8037 0.0000
# 6 0.0000 0.0000 0.0000 5.3636 0.0000 35.8305
#
#
#
# Elastic Compliance Matrix: (Units=1/GPa)
#
#
# Indices 1 2 3 4 5 6 
#
# 1 0.017597 -0.009722 0.000508 0.000000 0.004948 0.000000
# 2 -0.009722 0.017117 -0.006602 0.000000 -0.005222 0.000000
# 3 0.000508 -0.006602 0.014894 0.000000 0.002727 0.000000
# 4 0.000000 0.000000 0.000000 0.027806 0.000000 -0.004162
# 5 0.004948 -0.005222 0.002727 0.000000 0.039362 0.000000
# 6 0.000000 0.000000 0.000000 -0.004162 0.000000 0.028532
#
#
# Mechanical properties :
#
#
# Convention : Reuss Voigt Hill
#
# Bulk Modulus (GPa) = 55.62967 60.77604 58.20286
# Shear Modulus (GPa) = 27.33276 30.50125 28.91701
#
# Velocity S-wave (km/s) = 3.77032 3.98287 3.87805
# Velocity P-wave (km/s) = 6.91996 7.26358 7.09385
#
# Compressibility (1/GPa) = 0.01797602
#
# Stress axis : x y z
#
# Youngs Moduli (GPa) = 56.82845 58.42107 67.14305
#
# Poissons Ratio (x) = 0.56795 -0.03409
# Poissons Ratio (y) = 0.55246 0.44327
# Poissons Ratio (z) = -0.02886 0.38569
#
# Static dielectric constant tensor:
#      x y z
#    x 3.526970 0.000000 -0.033600 
#    y 0.000000 3.551030 0.000000 
#    z -0.033600 0.000000 3.810930 
# 
# 
# High freq. dielectric constant tensor:
#      x y z
#    x 1.744490 0.000000 -0.001890 
#    y 0.000000 1.742200 0.000000 
#    z -0.001890 0.000000 1.754080 
# 
# From -- ./inp_files/125925.got.cif
#   From: 2010.06.25/outbox.cif.g09.slc.cpg/sg15_63_cif.got.tgz:125925.got - 2010.06.28 07:06:18.
