data_PCOD8139481
_publ_section_title
;
Structure prediction by ZEFSAII (Michael W. Deem and Ramdas Pophale) SiO2 
 PCOD8139481
Probable space group: C 2/C
;
_chemical_formula_sum "Si O2"
_cell_formula_units_Z 52
_cell_length_a 8.956794
_cell_length_b 11.963030
_cell_length_c 25.633765
_cell_angle_alpha 90.000000
_cell_angle_beta 98.933236
_cell_angle_gamma 90.000000
_cell_volume 2713.350848
_symmetry_space_group_name_H-M "C 2/C"
_symmetry_group_IT_number 15
_symmetry_cell_setting 'monoclinic'
loop_
_space_group_symop_operation_xyz
x,y,z
-x,y,1/2-z
-x,-y,-z
x,-y,1/2+z
1/2+x,1/2+y,z
1/2-x,1/2+y,1/2-z
1/2-x,1/2-y,-z
1/2+x,1/2-y,1/2+z
loop_
_atom_site_type_symbol
_atom_site_label
_atom_site_fract_x
_atom_site_fract_y
_atom_site_fract_z
Si Si1 0.298514 0.779449 0.944109
Si Si2 0.565987 0.548571 0.431770
Si Si3 0.094891 0.182553 0.985455
Si Si4 0.243782 0.705107 0.830100
Si Si5 0.739172 0.557166 0.280003
Si Si6 0.548598 0.505552 0.680122
Si Si7 0.500000 0.087305 0.750000
O O1 0.232465 0.901865 0.929081
O O2 0.480294 0.772949 0.953773
O O3 0.234624 0.701070 0.893282
O O4 0.250000 0.750000 0.000000
O O5 0.472716 0.627029 0.466074
O O6 0.607757 0.422122 0.447906
O O7 0.456597 0.551300 0.376431
O O8 0.250000 0.250000 0.000000
O O9 0.279623 0.828981 0.811621
O O10 0.380824 0.628799 0.817719
O O11 0.087288 0.663818 0.796580
O O12 0.621524 0.482632 0.307192
O O13 0.654487 0.577468 0.219983
O O14 0.892202 0.489195 0.279497
#
# Coordination Sequence:
#
# PCOD8139481 Si02
#       7
#     8   8   8   8   8   8   4
#     4  10  21  39  63  90 123 162 199 247 306 359
#     4  10  20  40  62  85 126 159 197 253 297 360
#     4  10  22  41  60  92 119 159 208 247 302 359
#     4  11  21  41  63  87 127 158 199 252 300 356
#     4  10  22  40  59  90 120 155 205 248 303 354
#     4  10  20  39  63  86 120 166 196 246 310 359
#     4  10  24  40  62  94 116 158 210 244 298 370
#
# _framework density 19.164497000000001
#
# number of rings (size 3 to 8) (size 9 to 14) (size 15 to 20)
#    0.000    1.846    3.077    0.923    0.000    3.077 
#   11.077    1.538    0.000    0.000    0.000    0.000 
#    0.000    0.000    0.000    0.000    0.000    0.000 
#
# Total GULP energy -322106.112933 kJ/mol
# GULP energy per Si atom -12388.696651 kJ/mol
# Density = 1.912088 g / cm^3
# Si number density = 19.164497 Si / 1000 Ang^3
#
#
#
# Elastic Constant Matrix: (Units=GPa)
#
#
# Indices 1 2 3 4 5 6 
#
# 1 119.7524 59.4523 39.8467 0.0000 20.4218 0.0000
# 2 59.4523 80.2120 45.5770 0.0000 2.4424 0.0000
# 3 39.8467 45.5770 139.2489 0.0000 14.4655 0.0000
# 4 0.0000 0.0000 0.0000 22.8239 0.0000 3.4035
# 5 20.4218 2.4424 14.4655 0.0000 22.8415 0.0000
# 6 0.0000 0.0000 0.0000 3.4035 0.0000 38.0278
#
#
#
# Elastic Compliance Matrix: (Units=1/GPa)
#
#
# Indices 1 2 3 4 5 6 
#
# 1 0.016592 -0.012284 0.000725 0.000000 -0.013980 0.000000
# 2 -0.012284 0.024468 -0.005740 0.000000 0.012002 0.000000
# 3 0.000725 -0.005740 0.009480 0.000000 -0.006038 0.000000
# 4 0.000000 0.000000 0.000000 0.044406 0.000000 -0.003974
# 5 -0.013980 0.012002 -0.006038 0.000000 0.058820 0.000000
# 6 0.000000 0.000000 0.000000 -0.003974 0.000000 0.026652
#
#
# Mechanical properties :
#
#
# Convention : Reuss Voigt Hill
#
# Bulk Modulus (GPa) = 62.72923 69.88503 66.30713
# Shear Modulus (GPa) = 22.69327 29.69447 26.19387
#
# Velocity S-wave (km/s) = 3.44485 3.94058 3.70102
# Velocity P-wave (km/s) = 6.97322 7.56632 7.27582
#
# Compressibility (1/GPa) = 0.01594153
#
# Stress axis : x y z
#
# Youngs Moduli (GPa) = 60.27061 40.87000 105.48603
#
# Poissons Ratio (x) = 0.50205 -0.07648
# Poissons Ratio (y) = 0.74036 0.60550
# Poissons Ratio (z) = -0.04370 0.23460
#
# Static dielectric constant tensor:
#      x y z
#    x 3.586980 0.000000 0.064380 
#    y 0.000000 3.516790 0.000000 
#    z 0.064380 0.000000 3.936590 
# 
# 
# High freq. dielectric constant tensor:
#      x y z
#    x 1.737970 0.000000 0.005150 
#    y 0.000000 1.732220 0.000000 
#    z 0.005150 0.000000 1.768000 
# 
# From -- ./inp_files/287617.got.cif
#   From: 2010.06.25/outbox.cif.g09.slc.cpg/sg15_144_cif.got.tgz:287617.got - 2010.06.28 07:06:18.
