data_PCOD8139664
_publ_section_title
;
Structure prediction by ZEFSAII (Michael W. Deem and Ramdas Pophale) SiO2 
 PCOD8139664
Probable space group: C 2/C
;
_chemical_formula_sum "Si O2"
_cell_formula_units_Z 64
_cell_length_a 13.746606
_cell_length_b 30.093701
_cell_length_c 11.306348
_cell_angle_alpha 90.000000
_cell_angle_beta 138.527252
_cell_angle_gamma 90.000000
_cell_volume 3097.593428
_symmetry_space_group_name_H-M "C 2/C"
_symmetry_group_IT_number 15
_symmetry_cell_setting 'monoclinic'
loop_
_space_group_symop_operation_xyz
x,y,z
-x,y,1/2-z
-x,-y,-z
x,-y,1/2+z
1/2+x,1/2+y,z
1/2-x,1/2+y,1/2-z
1/2-x,1/2-y,-z
1/2+x,1/2-y,1/2+z
loop_
_atom_site_type_symbol
_atom_site_label
_atom_site_fract_x
_atom_site_fract_y
_atom_site_fract_z
Si Si1 0.437084 0.069518 0.902976
Si Si2 0.110624 0.517074 0.248981
Si Si3 0.325274 0.203116 0.583839
Si Si4 0.345236 0.143546 0.384037
Si Si5 0.345696 0.413541 0.963062
Si Si6 0.339048 0.391624 0.218515
Si Si7 0.503694 0.220712 0.113131
Si Si8 0.704219 0.701424 0.723457
O O1 0.303830 0.085252 0.861097
O O2 0.377236 0.036954 0.744511
O O3 0.551243 0.038692 0.075709
O O4 0.527879 0.112422 0.941729
O O5 0.272562 0.537837 0.413305
O O6 0.000000 0.532206 0.250000
O O7 0.500000 0.208269 0.750000
O O8 0.250000 0.250000 0.500000
O O9 0.277786 0.171526 0.431291
O O10 0.260734 0.184556 0.647211
O O11 0.219462 0.114491 0.206229
O O12 0.418266 0.174477 0.350050
O O13 0.319317 0.387067 0.060266
O O14 0.520762 0.420301 0.109130
O O15 0.367098 0.341602 0.284364
O O16 0.500000 0.228290 0.250000
O O17 0.581284 0.260294 0.110523
O O18 0.336639 0.220995 0.920216
#
# Coordination Sequence:
#
# PCOD8139664 Si02
#       8
#     8   8   8   8   8   8   8   8
#     4  10  21  38  64  95 122 160 214 270 316 406
#     4  10  20  39  66  94 122 161 210 260 336 396
#     4  12  23  43  62  88 129 176 227 270 320 387
#     4  11  23  41  65  92 126 175 225 265 332 378
#     4  10  24  39  66  95 129 168 206 275 331 407
#     4  11  22  41  63  96 133 164 215 266 337 384
#     4  12  25  40  63  93 131 170 223 275 324 383
#     4  12  25  41  62  96 127 177 217 274 322 378
#
# _framework density 20.661200000000001
#
# number of rings (size 3 to 8) (size 9 to 14) (size 15 to 20)
#    0.000    1.000    5.000    1.125    3.500    3.000 
#    0.000    0.000    0.000    0.000    0.000    0.000 
#    0.000    0.000    0.000    0.000    0.000    0.000 
#
# Total GULP energy -396737.168994 kJ/mol
# GULP energy per Si atom -12398.036531 kJ/mol
# Density = 2.061417 g / cm^3
# Si number density = 20.661200 Si / 1000 Ang^3
#
#
#
# Elastic Constant Matrix: (Units=GPa)
#
#
# Indices 1 2 3 4 5 6 
#
# 1 94.6870 40.5508 38.8266 0.0000 -7.6664 0.0000
# 2 40.5508 110.0034 33.1159 0.0000 -0.4108 0.0000
# 3 38.8266 33.1159 93.4410 0.0000 2.5188 0.0000
# 4 0.0000 0.0000 0.0000 15.6210 0.0000 -6.9283
# 5 -7.6664 -0.4108 2.5188 0.0000 34.9893 0.0000
# 6 0.0000 0.0000 0.0000 -6.9283 0.0000 22.8771
#
#
#
# Elastic Compliance Matrix: (Units=1/GPa)
#
#
# Indices 1 2 3 4 5 6 
#
# 1 0.014441 -0.003891 -0.004715 0.000000 0.003458 0.000000
# 2 -0.003891 0.011230 -0.002348 0.000000 -0.000552 0.000000
# 3 -0.004715 -0.002348 0.013548 0.000000 -0.002036 0.000000
# 4 0.000000 0.000000 0.000000 0.073949 0.000000 0.022396
# 5 0.003458 -0.000552 -0.002036 0.000000 0.029478 0.000000
# 6 0.000000 0.000000 0.000000 0.022396 0.000000 0.050494
#
#
# Mechanical properties :
#
#
# Convention : Reuss Voigt Hill
#
# Bulk Modulus (GPa) = 57.76736 58.12423 57.94579
# Shear Modulus (GPa) = 22.64305 27.07334 24.85819
#
# Velocity S-wave (km/s) = 3.31406 3.62380 3.47239
# Velocity P-wave (km/s) = 6.53177 6.76035 6.64704
#
# Compressibility (1/GPa) = 0.01731081
#
# Stress axis : x y z
#
# Youngs Moduli (GPa) = 69.24862 89.04820 73.81135
#
# Poissons Ratio (x) = 0.34650 0.34799
# Poissons Ratio (y) = 0.26945 0.17332
# Poissons Ratio (z) = 0.32648 0.20910
#
# Static dielectric constant tensor:
#      x y z
#    x 3.912500 0.000000 -0.049160 
#    y 0.000000 4.003950 0.000000 
#    z -0.049160 0.000000 3.859660 
# 
# 
# High freq. dielectric constant tensor:
#      x y z
#    x 1.808550 0.000000 0.000760 
#    y 0.000000 1.811150 0.000000 
#    z 0.000760 0.000000 1.805300 
# 
# From -- ./inp_files/101664.got.cif
#   From: 2010.06.25/outbox.cif.g09.slc.cpg/sg15_51_cif.got.tgz:101664.got - 2010.06.28 07:06:18.
