data_PCOD8139049
_publ_section_title
;
Structure prediction by ZEFSAII (Michael W. Deem and Ramdas Pophale) SiO2 
 PCOD8139049
Probable space group: C 2/C
;
_chemical_formula_sum "Si O2"
_cell_formula_units_Z 48
_cell_length_a 8.401718
_cell_length_b 17.927070
_cell_length_c 18.096709
_cell_angle_alpha 90.000000
_cell_angle_beta 125.861769
_cell_angle_gamma 90.000000
_cell_volume 2208.991196
_symmetry_space_group_name_H-M "C 2/C"
_symmetry_group_IT_number 15
_symmetry_cell_setting 'monoclinic'
loop_
_space_group_symop_operation_xyz
x,y,z
-x,y,1/2-z
-x,-y,-z
x,-y,1/2+z
1/2+x,1/2+y,z
1/2-x,1/2+y,1/2-z
1/2-x,1/2-y,-z
1/2+x,1/2-y,1/2+z
loop_
_atom_site_type_symbol
_atom_site_label
_atom_site_fract_x
_atom_site_fract_y
_atom_site_fract_z
Si Si1 0.187857 0.708209 0.754404
Si Si2 0.625366 0.059371 0.489596
Si Si3 0.671478 0.463972 0.594139
Si Si4 0.360268 0.200025 0.425142
Si Si5 0.044307 0.065561 0.680256
Si Si6 0.509895 0.693591 0.083835
O O1 0.289020 0.776457 0.824837
O O2 0.344959 0.643923 0.782626
O O3 0.121991 0.740373 0.657474
O O4 0.000000 0.678235 0.750000
O O5 0.638273 0.031009 0.407704
O O6 0.526465 0.139264 0.463589
O O7 0.839902 0.072208 0.581802
O O8 0.500000 0.000000 0.500000
O O9 0.500000 0.500000 0.500000
O O10 0.690173 0.509188 0.676024
O O11 0.643769 0.377329 0.605517
O O12 0.442267 0.274172 0.486843
O O13 0.179253 0.165514 0.421911
O O14 0.000000 0.033784 0.750000
#
# Coordination Sequence:
#
# PCOD8139049 Si02
#       6
#     8   8   8   8   8   8
#     4  10  23  41  63  93 126 166 217 268 329 395
#     4  11  24  41  64  94 129 171 218 265 323 395
#     4  10  22  40  63  90 125 168 214 263 319 382
#     4  10  20  38  64  90 127 168 204 265 331 383
#     4  11  24  41  65  93 129 170 214 270 326 391
#     4  10  21  39  64  93 126 167 216 268 325 392
#
# _framework density 21.729375000000001
#
# number of rings (size 3 to 8) (size 9 to 14) (size 15 to 20)
#    0.000    1.667    0.000    5.000    0.000   11.333 
#    0.000    1.667    0.000    0.000    0.000    0.000 
#    0.000    0.000    0.000    0.000    0.000    0.000 
#
# Total GULP energy -297611.003623 kJ/mol
# GULP energy per Si atom -12400.458484 kJ/mol
# Density = 2.167992 g / cm^3
# Si number density = 21.729375 Si / 1000 Ang^3
#
#
#
# Elastic Constant Matrix: (Units=GPa)
#
#
# Indices 1 2 3 4 5 6 
#
# 1 139.4547 62.2274 42.5072 0.0000 -22.6620 0.0001
# 2 62.2274 82.7953 13.9184 0.0000 -6.2227 0.0000
# 3 42.5072 13.9184 79.5685 0.0000 -8.4805 0.0000
# 4 0.0000 0.0000 0.0000 21.0603 0.0000 7.8492
# 5 -22.6620 -6.2227 -8.4805 0.0000 41.6156 0.0000
# 6 0.0001 0.0000 0.0000 7.8492 0.0000 23.5032
#
#
#
# Elastic Compliance Matrix: (Units=1/GPa)
#
#
# Indices 1 2 3 4 5 6 
#
# 1 0.013532 -0.008933 -0.005135 0.000000 0.004987 0.000000
# 2 -0.008933 0.018426 0.001353 0.000000 -0.001833 0.000000
# 3 -0.005135 0.001353 0.015126 0.000000 0.000488 0.000000
# 4 0.000000 0.000000 0.000000 0.054233 0.000000 -0.018112
# 5 0.004987 -0.001833 0.000488 0.000000 0.026571 0.000000
# 6 0.000000 0.000000 0.000000 -0.018112 0.000000 0.048596
#
#
# Mechanical properties :
#
#
# Convention : Reuss Voigt Hill
#
# Bulk Modulus (GPa) = 46.17612 59.90273 53.03942
# Shear Modulus (GPa) = 23.90834 29.44686 26.67760
#
# Velocity S-wave (km/s) = 3.32064 3.68525 3.50769
# Velocity P-wave (km/s) = 5.99991 6.76281 6.39275
#
# Compressibility (1/GPa) = 0.02165621
#
# Stress axis : x y z
#
# Youngs Moduli (GPa) = 73.89689 54.27041 66.10935
#
# Poissons Ratio (x) = 0.48478 0.33949
# Poissons Ratio (y) = 0.66009 -0.08947
# Poissons Ratio (z) = 0.37948 -0.07345
#
# Static dielectric constant tensor:
#      x y z
#    x 4.334780 0.000000 -0.298610 
#    y 0.000000 3.723980 0.000000 
#    z -0.298610 0.000000 4.064110 
# 
# 
# High freq. dielectric constant tensor:
#      x y z
#    x 1.862540 0.000000 -0.013930 
#    y 0.000000 1.849770 0.000000 
#    z -0.013930 0.000000 1.853820 
# 
# From -- ./inp_files/190630.got.cif
#   From: 2010.06.25/outbox.cif.g09.slc.cpg/sg15_96_cif.got.tgz:190630.got - 2010.06.28 07:06:18.
