data_PCOD8139707
_publ_section_title
;
Structure prediction by ZEFSAII (Michael W. Deem and Ramdas Pophale) SiO2 
 PCOD8139707
Probable space group: C 2/C
;
_chemical_formula_sum "Si O2"
_cell_formula_units_Z 48
_cell_length_a 14.837515
_cell_length_b 15.268546
_cell_length_c 16.085998
_cell_angle_alpha 90.000000
_cell_angle_beta 35.851892
_cell_angle_gamma 90.000000
_cell_volume 2134.401701
_symmetry_space_group_name_H-M "C 2/C"
_symmetry_group_IT_number 15
_symmetry_cell_setting 'monoclinic'
loop_
_space_group_symop_operation_xyz
x,y,z
-x,y,1/2-z
-x,-y,-z
x,-y,1/2+z
1/2+x,1/2+y,z
1/2-x,1/2+y,1/2-z
1/2-x,1/2-y,-z
1/2+x,1/2-y,1/2+z
loop_
_atom_site_type_symbol
_atom_site_label
_atom_site_fract_x
_atom_site_fract_y
_atom_site_fract_z
Si Si1 0.353122 0.311647 0.585872
Si Si2 0.300674 0.024532 0.562691
Si Si3 0.091001 0.174737 0.758065
Si Si4 0.883399 0.757409 0.015080
Si Si5 0.117429 0.397417 0.854379
Si Si6 0.342167 0.878175 0.403370
O O1 0.249288 0.225695 0.653188
O O2 0.472733 0.330128 0.422740
O O3 0.450293 0.301747 0.598574
O O4 0.237081 0.393339 0.687375
O O5 0.143554 0.077594 0.691867
O O6 0.449395 0.087900 0.438976
O O7 0.334877 0.975795 0.622738
O O8 0.267427 0.957809 0.511350
O O9 0.000000 0.219177 0.750000
O O10 0.886531 0.701353 0.929994
O O11 0.865088 0.696540 0.111256
O O12 0.762347 0.837981 0.093020
O O13 0.500000 0.916990 0.250000
#
# Coordination Sequence:
#
# PCOD8139707 Si02
#       6
#     8   8   8   8   8   8
#     4  12  23  42  72  94 125 177 235 281 335 408
#     4  10  23  42  62  96 145 178 215 281 345 404
#     4  12  26  43  65  94 131 173 230 292 339 403
#     4  10  20  39  68 102 133 173 234 281 327 410
#     4  10  21  41  69  98 132 180 227 271 341 414
#     4  10  22  37  66 102 141 180 218 279 347 409
#
# _framework density 22.488738000000001
#
# number of rings (size 3 to 8) (size 9 to 14) (size 15 to 20)
#    0.000    1.333    3.333    1.500    0.000    3.333 
#    0.000    2.500    0.000    0.000    0.000    0.000 
#    0.000    0.000    0.000    0.000    0.000    0.000 
#
# Total GULP energy -297385.488869 kJ/mol
# GULP energy per Si atom -12391.062036 kJ/mol
# Density = 2.243755 g / cm^3
# Si number density = 22.488738 Si / 1000 Ang^3
#
#
#
# Elastic Constant Matrix: (Units=GPa)
#
#
# Indices 1 2 3 4 5 6 
#
# 1 99.3267 39.2021 36.7194 -0.0005 -18.7269 0.0002
# 2 39.2021 88.2725 66.0104 -0.0020 -2.1230 0.0026
# 3 36.7194 66.0104 159.7250 -0.0027 -4.5168 0.0041
# 4 -0.0005 -0.0020 -0.0027 34.6584 0.0016 -4.9315
# 5 -18.7269 -2.1230 -4.5168 0.0016 27.4760 -0.0019
# 6 0.0002 0.0026 0.0041 -4.9315 -0.0019 27.1903
#
#
#
# Elastic Compliance Matrix: (Units=1/GPa)
#
#
# Indices 1 2 3 4 5 6 
#
# 1 0.014263 -0.005580 -0.000713 0.000000 0.009173 0.000001
# 2 -0.005580 0.018579 -0.006493 0.000000 -0.003435 -0.000001
# 3 -0.000713 -0.006493 0.009123 0.000000 0.000512 -0.000001
# 4 0.000000 0.000000 0.000000 0.029617 -0.000002 0.005372
# 5 0.009173 -0.003435 0.000512 -0.000002 0.042466 0.000003
# 6 0.000001 -0.000001 -0.000001 0.005372 0.000003 0.037752
#
#
# Mechanical properties :
#
#
# Convention : Reuss Voigt Hill
#
# Bulk Modulus (GPa) = 61.00349 70.13201 65.56775
# Shear Modulus (GPa) = 27.34662 31.55777 29.45220
#
# Velocity S-wave (km/s) = 3.49092 3.75009 3.62282
# Velocity P-wave (km/s) = 6.59044 7.07135 6.83512
#
# Compressibility (1/GPa) = 0.01639250
#
# Stress axis : x y z
#
# Youngs Moduli (GPa) = 70.10938 53.82301 109.61891
#
# Poissons Ratio (x) = 0.30035 0.07821
# Poissons Ratio (y) = 0.39123 0.71172
# Poissons Ratio (z) = 0.05002 0.34946
#
# Static dielectric constant tensor:
#      x y z
#    x 4.224600 0.000000 -0.221780 
#    y 0.000000 4.030420 0.000010 
#    z -0.221780 0.000010 4.163440 
# 
# 
# High freq. dielectric constant tensor:
#      x y z
#    x 1.887260 0.000000 -0.010340 
#    y 0.000000 1.876430 0.000000 
#    z -0.010340 0.000000 1.892790 
# 
# From -- ./inp_files/206383.got.cif
#   From: 2010.06.25/outbox.cif.g09.slc.cpg/sg15_104_cif.got.tgz:206383.got - 2010.06.28 07:06:18.
