data_PCOD8139498
_publ_section_title
;
Structure prediction by ZEFSAII (Michael W. Deem and Ramdas Pophale) SiO2 
 PCOD8139498
Probable space group: C 2/C
;
_chemical_formula_sum "Si O2"
_cell_formula_units_Z 48
_cell_length_a 17.600188
_cell_length_b 9.614990
_cell_length_c 20.545342
_cell_angle_alpha 90.000000
_cell_angle_beta 135.800005
_cell_angle_gamma 90.000000
_cell_volume 2423.902350
_symmetry_space_group_name_H-M "C 2/C"
_symmetry_group_IT_number 15
_symmetry_cell_setting 'monoclinic'
loop_
_space_group_symop_operation_xyz
x,y,z
-x,y,1/2-z
-x,-y,-z
x,-y,1/2+z
1/2+x,1/2+y,z
1/2-x,1/2+y,1/2-z
1/2-x,1/2-y,-z
1/2+x,1/2-y,1/2+z
loop_
_atom_site_type_symbol
_atom_site_label
_atom_site_fract_x
_atom_site_fract_y
_atom_site_fract_z
Si Si1 0.235205 0.063737 0.826286
Si Si2 0.837141 0.343594 0.517012
Si Si3 0.105693 0.650299 0.924103
Si Si4 0.635126 0.063872 0.723355
Si Si5 0.782907 0.771065 0.626847
Si Si6 0.550591 0.223686 0.210463
O O1 0.310713 0.027086 0.811800
O O2 0.132756 0.154774 0.741382
O O3 0.188604 0.922181 0.827700
O O4 0.307711 0.148357 0.922978
O O5 0.750000 0.250000 0.500000
O O6 0.840890 0.497275 0.550981
O O7 0.956082 0.274544 0.597847
O O8 0.124384 0.733508 0.868842
O O9 0.977515 0.645177 0.859347
O O10 0.163713 0.729783 0.019828
O O11 0.716875 0.159038 0.815187
O O12 0.613444 0.923027 0.749824
O O13 0.500000 0.250928 0.250000
#
# Coordination Sequence:
#
# PCOD8139498 Si02
#       6
#     8   8   8   8   8   8
#     4  11  24  38  60  94 122 157 198 257 305 349
#     4  10  20  39  63  89 119 154 206 253 291 361
#     4   9  21  39  64  88 114 171 203 242 298 363
#     4  11  22  39  61  89 125 159 200 245 309 363
#     4  10  21  40  60  90 125 156 206 249 294 362
#     4  11  22  39  64  87 116 162 204 242 301 359
#
# _framework density 19.802776999999999
#
# number of rings (size 3 to 8) (size 9 to 14) (size 15 to 20)
#    0.000    1.667    1.667    3.500    0.000    8.667 
#    3.000    0.000    0.000    4.000    0.000    0.000 
#    0.000    0.000    0.000    0.000    0.000    0.000 
#
# Total GULP energy -297689.739679 kJ/mol
# GULP energy per Si atom -12403.739153 kJ/mol
# Density = 1.975771 g / cm^3
# Si number density = 19.802777 Si / 1000 Ang^3
#
#
#
# Elastic Constant Matrix: (Units=GPa)
#
#
# Indices 1 2 3 4 5 6 
#
# 1 101.1594 38.3253 33.4522 0.0000 4.8249 0.0000
# 2 38.3253 81.4960 48.8782 0.0000 9.9827 0.0000
# 3 33.4522 48.8782 92.9050 0.0000 2.1489 0.0000
# 4 0.0000 0.0000 0.0000 38.3443 0.0000 0.1174
# 5 4.8249 9.9827 2.1489 0.0000 23.2260 0.0000
# 6 0.0000 0.0000 0.0000 0.1174 0.0000 22.4968
#
#
#
# Elastic Compliance Matrix: (Units=1/GPa)
#
#
# Indices 1 2 3 4 5 6 
#
# 1 0.012287 -0.004497 -0.002048 0.000000 -0.000430 0.000000
# 2 -0.004497 0.020730 -0.009122 0.000000 -0.007132 0.000000
# 3 -0.002048 -0.009122 0.016235 0.000000 0.002844 0.000000
# 4 0.000000 0.000000 0.000000 0.026080 0.000000 -0.000136
# 5 -0.000430 -0.007132 0.002844 0.000000 0.045947 0.000000
# 6 0.000000 0.000000 0.000000 -0.000136 0.000000 0.044451
#
#
# Mechanical properties :
#
#
# Convention : Reuss Voigt Hill
#
# Bulk Modulus (GPa) = 55.81337 57.43020 56.62178
# Shear Modulus (GPa) = 24.62611 27.14042 25.88326
#
# Velocity S-wave (km/s) = 3.53025 3.70609 3.61924
# Velocity P-wave (km/s) = 6.69796 6.88313 6.79118
#
# Compressibility (1/GPa) = 0.01791685
#
# Stress axis : x y z
#
# Youngs Moduli (GPa) = 81.38679 48.23924 61.59683
#
# Poissons Ratio (x) = 0.21694 0.12617
# Poissons Ratio (y) = 0.36600 0.56189
# Poissons Ratio (z) = 0.16670 0.44004
#
# Static dielectric constant tensor:
#      x y z
#    x 3.411760 0.000000 0.005690 
#    y 0.000000 3.642890 0.000000 
#    z 0.005690 0.000000 3.876780 
# 
# 
# High freq. dielectric constant tensor:
#      x y z
#    x 1.756410 0.000000 -0.001070 
#    y 0.000000 1.771930 0.000000 
#    z -0.001070 0.000000 1.784570 
# 
# From -- ./inp_files/247269.got.cif
#   From: 2010.06.25/outbox.cif.g09.slc.cpg/sg15_124_cif.got.tgz:247269.got - 2010.06.28 07:06:18.
