data_PCOD8139163
_publ_section_title
;
Structure prediction by ZEFSAII (Michael W. Deem and Ramdas Pophale) SiO2 
 PCOD8139163
Probable space group: C 2/C
;
_chemical_formula_sum "Si O2"
_cell_formula_units_Z 64
_cell_length_a 27.183026
_cell_length_b 11.814074
_cell_length_c 14.025525
_cell_angle_alpha 90.000000
_cell_angle_beta 136.917528
_cell_angle_gamma 90.000000
_cell_volume 3076.588020
_symmetry_space_group_name_H-M "C 2/C"
_symmetry_group_IT_number 15
_symmetry_cell_setting 'monoclinic'
loop_
_space_group_symop_operation_xyz
x,y,z
-x,y,1/2-z
-x,-y,-z
x,-y,1/2+z
1/2+x,1/2+y,z
1/2-x,1/2+y,1/2-z
1/2-x,1/2-y,-z
1/2+x,1/2-y,1/2+z
loop_
_atom_site_type_symbol
_atom_site_label
_atom_site_fract_x
_atom_site_fract_y
_atom_site_fract_z
Si Si1 0.229434 0.504286 0.770932
Si Si2 0.950011 0.113634 0.428135
Si Si3 0.042579 0.653196 0.645990
Si Si4 0.799998 0.162982 0.519605
Si Si5 0.695723 0.495051 0.817942
Si Si6 0.927664 0.481080 0.503580
Si Si7 0.932933 0.245008 0.597039
Si Si8 0.703505 0.141693 0.913342
O O1 0.284910 0.532455 0.763028
O O2 0.153215 0.469381 0.616751
O O3 0.218799 0.613650 0.823456
O O4 0.257768 0.404738 0.878126
O O5 0.983316 0.217043 0.412512
O O6 0.933969 0.163655 0.508332
O O7 0.870293 0.092085 0.274772
O O8 0.000000 0.000000 0.500000
O O9 0.052433 0.576113 0.567850
O O10 0.117980 0.656520 0.810801
O O11 0.978410 0.586322 0.609295
O O12 0.750000 0.250000 0.500000
O O13 0.833941 0.093231 0.655484
O O14 0.861750 0.230923 0.556225
O O15 0.768295 0.451593 0.972381
O O16 0.936377 0.379734 0.590108
O O17 0.000000 0.200266 0.750000
O O18 0.750000 0.250000 0.000000
#
# Coordination Sequence:
#
# PCOD8139163 Si02
#       8
#     8   8   8   8   8   8   8   8
#     4  10  22  39  62  96 130 166 227 275 330 413
#     4  11  22  39  65  93 134 181 216 271 342 404
#     4   9  19  38  61  94 125 167 222 266 332 396
#     4  11  24  40  65  99 133 175 227 283 339 407
#     4  11  22  39  65  92 127 174 218 271 338 401
#     4   9  20  37  64  88 128 172 212 279 333 386
#     4  11  23  41  65  95 137 174 226 285 341 407
#     4  10  20  38  66  91 125 172 214 274 333 392
#
# _framework density 20.802264000000001
#
# number of rings (size 3 to 8) (size 9 to 14) (size 15 to 20)
#    0.000    1.750    2.500    1.500    0.000    8.000 
#    0.000    0.000    0.000    2.250    0.000    0.000 
#    0.000    0.000    0.000    0.000    0.000    0.000 
#
# Total GULP energy -396492.345909 kJ/mol
# GULP energy per Si atom -12390.385810 kJ/mol
# Density = 2.075492 g / cm^3
# Si number density = 20.802264 Si / 1000 Ang^3
#
#
#
# Elastic Constant Matrix: (Units=GPa)
#
#
# Indices 1 2 3 4 5 6 
#
# 1 106.4354 52.1497 37.0650 0.0000 2.5222 0.0000
# 2 52.1497 99.3475 45.7840 0.0000 9.4915 0.0000
# 3 37.0650 45.7840 118.4938 0.0000 12.6502 0.0000
# 4 0.0000 0.0000 0.0000 30.4538 0.0000 3.2850
# 5 2.5222 9.4915 12.6502 0.0000 36.4811 0.0000
# 6 0.0000 0.0000 0.0000 3.2850 0.0000 37.2140
#
#
#
# Elastic Compliance Matrix: (Units=1/GPa)
#
#
# Indices 1 2 3 4 5 6 
#
# 1 0.012995 -0.006095 -0.001852 0.000000 0.001329 0.000000
# 2 -0.006095 0.015196 -0.003726 0.000000 -0.002240 0.000000
# 3 -0.001852 -0.003726 0.010738 0.000000 -0.002626 0.000000
# 4 0.000000 0.000000 0.000000 0.033152 0.000000 -0.002926
# 5 0.001329 -0.002240 -0.002626 0.000000 0.028813 0.000000
# 6 0.000000 0.000000 0.000000 -0.002926 0.000000 0.027130
#
#
# Mechanical properties :
#
#
# Convention : Reuss Voigt Hill
#
# Bulk Modulus (GPa) = 64.16667 66.03046 65.09857
# Shear Modulus (GPa) = 31.93557 33.44831 32.69194
#
# Velocity S-wave (km/s) = 3.92241 4.01423 3.96859
# Velocity P-wave (km/s) = 7.17124 7.30043 7.23612
#
# Compressibility (1/GPa) = 0.01558441
#
# Stress axis : x y z
#
# Youngs Moduli (GPa) = 76.95213 65.80602 93.12293
#
# Poissons Ratio (x) = 0.40109 0.17245
# Poissons Ratio (y) = 0.46903 0.34696
# Poissons Ratio (z) = 0.14250 0.24518
#
# Static dielectric constant tensor:
#      x y z
#    x 3.741750 0.000000 -0.034630 
#    y 0.000000 3.758760 0.000000 
#    z -0.034630 0.000000 4.219590 
# 
# 
# High freq. dielectric constant tensor:
#      x y z
#    x 1.803690 0.000000 0.001240 
#    y 0.000000 1.812640 0.000000 
#    z 0.001240 0.000000 1.828330 
# 
# From -- ./inp_files/177854.got.cif
#   From: 2010.06.25/outbox.cif.g09.slc.cpg/sg15_89_cif.got.tgz:177854.got - 2010.06.28 07:06:18.
