data_PCOD8139357
_publ_section_title
;
Structure prediction by ZEFSAII (Michael W. Deem and Ramdas Pophale) SiO2 
 PCOD8139357
Probable space group: C 2/C
;
_chemical_formula_sum "Si O2"
_cell_formula_units_Z 44
_cell_length_a 22.872983
_cell_length_b 11.008416
_cell_length_c 17.927615
_cell_angle_alpha 90.000000
_cell_angle_beta 154.337327
_cell_angle_gamma 90.000000
_cell_volume 1954.925549
_symmetry_space_group_name_H-M "C 2/C"
_symmetry_group_IT_number 15
_symmetry_cell_setting 'monoclinic'
loop_
_space_group_symop_operation_xyz
x,y,z
-x,y,1/2-z
-x,-y,-z
x,-y,1/2+z
1/2+x,1/2+y,z
1/2-x,1/2+y,1/2-z
1/2-x,1/2-y,-z
1/2+x,1/2-y,1/2+z
loop_
_atom_site_type_symbol
_atom_site_label
_atom_site_fract_x
_atom_site_fract_y
_atom_site_fract_z
Si Si1 0.476539 0.638960 0.375039
Si Si2 0.319202 0.795436 0.961681
Si Si3 0.489893 0.616088 0.556632
Si Si4 0.000000 0.468792 0.250000
Si Si5 0.811075 0.449543 0.810046
Si Si6 0.500422 0.880289 0.602804
O O1 0.589751 0.672251 0.442238
O O2 0.536659 0.657333 0.527856
O O3 0.425796 0.496360 0.309837
O O4 0.341385 0.723519 0.209940
O O5 0.371606 0.880849 0.088883
O O6 0.354145 0.854020 0.922209
O O7 0.346983 0.547970 0.383975
O O8 0.491444 0.735692 0.609613
O O9 0.973398 0.554433 0.289361
O O10 0.873385 0.414489 0.802811
O O11 0.863897 0.580226 0.901639
#
# Coordination Sequence:
#
# PCOD8139357 Si02
#       6
#     8   8   8   4   8   8
#     4  10  22  37  65  95 127 160 211 265 320 361
#     4  10  21  41  61  93 126 168 207 261 305 386
#     4  10  21  36  63  98 121 155 212 276 307 368
#     4  10  24  40  60  88 132 172 212 244 318 382
#     4   9  20  34  64  89 122 161 213 254 326 353
#     4  10  20  39  60  91 124 169 207 260 312 380
#
# _framework density 22.507251
#
# number of rings (size 3 to 8) (size 9 to 14) (size 15 to 20)
#    0.000    2.182    1.818    0.000    5.091    3.636 
#    0.000    4.545    0.000    0.000    0.000    0.000 
#    0.000    0.000    0.000    0.000    0.000    0.000 
#
# Total GULP energy -272585.270208 kJ/mol
# GULP energy per Si atom -12390.239555 kJ/mol
# Density = 2.245602 g / cm^3
# Si number density = 22.507251 Si / 1000 Ang^3
#
#
#
# Elastic Constant Matrix: (Units=GPa)
#
#
# Indices 1 2 3 4 5 6 
#
# 1 71.2446 30.6019 36.9869 0.0000 1.8840 0.0000
# 2 30.6019 124.1102 23.2040 0.0000 -4.6161 0.0000
# 3 36.9869 23.2040 72.3318 0.0000 5.5822 0.0000
# 4 0.0000 0.0000 0.0000 22.6081 0.0000 -1.1474
# 5 1.8840 -4.6161 5.5822 0.0000 29.4335 0.0000
# 6 0.0000 0.0000 0.0000 -1.1474 0.0000 29.8919
#
#
#
# Elastic Compliance Matrix: (Units=1/GPa)
#
#
# Indices 1 2 3 4 5 6 
#
# 1 0.020275 -0.003258 -0.009319 0.000000 -0.000041 0.000000
# 2 -0.003258 0.009200 -0.001434 0.000000 0.001923 0.000000
# 3 -0.009319 -0.001434 0.019304 0.000000 -0.003289 0.000000
# 4 0.000000 0.000000 0.000000 0.044318 0.000000 0.001701
# 5 -0.000041 0.001923 -0.003289 0.000000 0.034903 0.000000
# 6 0.000000 0.000000 0.000000 0.001701 0.000000 0.033519
#
#
# Mechanical properties :
#
#
# Convention : Reuss Voigt Hill
#
# Bulk Modulus (GPa) = 48.17622 49.91913 49.04768
# Shear Modulus (GPa) = 25.45025 28.17959 26.81492
#
# Velocity S-wave (km/s) = 3.36632 3.54223 3.45540
# Velocity P-wave (km/s) = 6.04655 6.24157 6.14483
#
# Compressibility (1/GPa) = 0.02075713
#
# Stress axis : x y z
#
# Youngs Moduli (GPa) = 49.32205 108.69126 51.80193
#
# Poissons Ratio (x) = 0.35416 0.48275
# Poissons Ratio (y) = 0.16071 0.07427
# Poissons Ratio (z) = 0.45964 0.15583
#
# Static dielectric constant tensor:
#      x y z
#    x 3.800560 0.000000 0.054160 
#    y 0.000000 4.223290 0.000000 
#    z 0.054160 0.000000 3.862960 
# 
# 
# High freq. dielectric constant tensor:
#      x y z
#    x 1.871290 0.000000 0.015740 
#    y 0.000000 1.892310 0.000000 
#    z 0.015740 0.000000 1.861660 
# 
# From -- ./inp_files/219204.got.cif
#   From: 2010.06.25/outbox.cif.g09.slc.cpg/sg15_110_cif.got.tgz:219204.got - 2010.06.28 07:06:18.
