data_PCOD8139121
_publ_section_title
;
Structure prediction by ZEFSAII (Michael W. Deem and Ramdas Pophale) SiO2 
 PCOD8139121
Probable space group: C 2/C
;
_chemical_formula_sum "Si O2"
_cell_formula_units_Z 48
_cell_length_a 18.297213
_cell_length_b 9.360025
_cell_length_c 26.742257
_cell_angle_alpha 90.000000
_cell_angle_beta 28.777338
_cell_angle_gamma 90.000000
_cell_volume 2204.816459
_symmetry_space_group_name_H-M "C 2/C"
_symmetry_group_IT_number 15
_symmetry_cell_setting 'monoclinic'
loop_
_space_group_symop_operation_xyz
x,y,z
-x,y,1/2-z
-x,-y,-z
x,-y,1/2+z
1/2+x,1/2+y,z
1/2-x,1/2+y,1/2-z
1/2-x,1/2-y,-z
1/2+x,1/2-y,1/2+z
loop_
_atom_site_type_symbol
_atom_site_label
_atom_site_fract_x
_atom_site_fract_y
_atom_site_fract_z
Si Si1 0.648029 0.234897 0.270549
Si Si2 0.889024 0.010581 0.270016
Si Si3 0.950853 0.146989 0.131615
Si Si4 0.466946 0.644303 0.961884
Si Si5 0.831976 0.746472 0.071508
Si Si6 0.657983 0.027513 0.181335
O O1 0.663136 0.358043 0.219685
O O2 0.794575 0.234780 0.219099
O O3 0.498946 0.257640 0.394128
O O4 0.637385 0.082166 0.250294
O O5 0.972054 0.102251 0.176658
O O6 0.736073 0.089776 0.379703
O O7 0.000000 0.989546 0.250000
O O8 0.947704 0.007310 0.097263
O O9 0.093684 0.244189 0.028609
O O10 0.531146 0.720963 0.972444
O O11 0.287584 0.618768 0.074972
O O12 0.695926 0.860079 0.159444
O O13 0.500000 0.055852 0.250000
#
# Coordination Sequence:
#
# PCOD8139121 Si02
#       6
#     8   8   8   8   8   8
#     4  11  21  39  66  90 124 167 207 256 318 370
#     4  11  25  40  58  95 136 161 199 275 326 353
#     4  10  20  39  66  88 119 172 215 251 304 384
#     4  10  20  38  65  92 121 161 215 262 301 372
#     4  11  20  40  66  88 120 167 221 250 306 380
#     4  11  22  39  63  91 124 165 211 257 312 378
#
# _framework density 21.770522
#
# number of rings (size 3 to 8) (size 9 to 14) (size 15 to 20)
#    0.000    1.333    5.000    2.000    0.000    2.000 
#    0.000    3.333    0.000    0.000    0.000    0.000 
#    0.000    0.000    0.000    0.000    0.000    0.000 
#
# Total GULP energy -297636.106825 kJ/mol
# GULP energy per Si atom -12401.504451 kJ/mol
# Density = 2.172097 g / cm^3
# Si number density = 21.770522 Si / 1000 Ang^3
#
#
#
# Elastic Constant Matrix: (Units=GPa)
#
#
# Indices 1 2 3 4 5 6 
#
# 1 104.4767 26.2713 34.0487 0.0007 -9.1015 -0.0011
# 2 26.2713 32.0974 15.5976 0.0007 -4.9153 -0.0014
# 3 34.0487 15.5976 78.3320 -0.0013 -13.9314 0.0003
# 4 0.0007 0.0007 -0.0013 30.2523 0.0003 5.0418
# 5 -9.1015 -4.9153 -13.9314 0.0003 36.3296 0.0008
# 6 -0.0011 -0.0014 0.0003 5.0418 0.0008 27.0066
#
#
#
# Elastic Compliance Matrix: (Units=1/GPa)
#
#
# Indices 1 2 3 4 5 6 
#
# 1 0.013073 -0.008743 -0.003831 0.000000 0.000623 0.000000
# 2 -0.008743 0.040502 -0.003949 -0.000001 0.001775 0.000002
# 3 -0.003831 -0.003949 0.016046 0.000001 0.004659 -0.000001
# 4 0.000000 -0.000001 0.000001 0.034117 0.000000 -0.006369
# 5 0.000623 0.001775 0.004659 0.000000 0.029709 -0.000001
# 6 0.000000 0.000002 -0.000001 -0.006369 -0.000001 0.038217
#
#
# Mechanical properties :
#
#
# Convention : Reuss Voigt Hill
#
# Bulk Modulus (GPa) = 27.34024 40.74905 34.04464
# Shear Modulus (GPa) = 23.05211 27.98359 25.51785
#
# Velocity S-wave (km/s) = 3.25756 3.58912 3.42735
# Velocity P-wave (km/s) = 5.17054 5.99449 5.59770
#
# Compressibility (1/GPa) = 0.03657613
#
# Stress axis : x y z
#
# Youngs Moduli (GPa) = 76.49575 24.69024 62.32020
#
# Poissons Ratio (x) = 0.21586 0.23872
# Poissons Ratio (y) = 0.66879 0.24609
# Poissons Ratio (z) = 0.29302 0.09750
#
# Static dielectric constant tensor:
#      x y z
#    x 3.703940 0.000000 0.279310 
#    y 0.000000 3.869550 0.000000 
#    z 0.279310 0.000000 4.084360 
# 
# 
# High freq. dielectric constant tensor:
#      x y z
#    x 1.840460 0.000000 0.015990 
#    y 0.000000 1.845280 0.000000 
#    z 0.015990 0.000000 1.861070 
# 
# From -- ./inp_files/298739.got.cif
#   From: 2010.06.25/outbox.cif.g09.slc.cpg/sg15_150_cif.got.tgz:298739.got - 2010.06.28 07:06:18.
