data_PCOD8139411
_publ_section_title
;
Structure prediction by ZEFSAII (Michael W. Deem and Ramdas Pophale) SiO2 
 PCOD8139411
Probable space group: C 2/C
;
_chemical_formula_sum "Si O2"
_cell_formula_units_Z 52
_cell_length_a 15.062444
_cell_length_b 22.572577
_cell_length_c 8.447025
_cell_angle_alpha 90.000000
_cell_angle_beta 117.752105
_cell_angle_gamma 90.000000
_cell_volume 2541.611559
_symmetry_space_group_name_H-M "C 2/C"
_symmetry_group_IT_number 15
_symmetry_cell_setting 'monoclinic'
loop_
_space_group_symop_operation_xyz
x,y,z
-x,y,1/2-z
-x,-y,-z
x,-y,1/2+z
1/2+x,1/2+y,z
1/2-x,1/2+y,1/2-z
1/2-x,1/2-y,-z
1/2+x,1/2-y,1/2+z
loop_
_atom_site_type_symbol
_atom_site_label
_atom_site_fract_x
_atom_site_fract_y
_atom_site_fract_z
Si Si1 0.459528 0.144172 0.043760
Si Si2 0.126940 0.579020 0.007979
Si Si3 0.788131 0.841452 0.558633
Si Si4 0.393902 0.230052 0.748515
Si Si5 0.000000 0.978919 0.250000
Si Si6 0.653746 0.957916 0.180581
Si Si7 0.876751 0.937126 0.430350
O O1 0.500000 0.157688 0.250000
O O2 0.549609 0.128665 0.999415
O O3 0.408227 0.204647 0.937435
O O4 0.379248 0.090337 0.978826
O O5 0.106904 0.562702 0.808138
O O6 0.240754 0.604684 0.122355
O O7 0.109582 0.521804 0.101738
O O8 0.690272 0.809863 0.404977
O O9 0.853482 0.797564 0.720966
O O10 0.859583 0.870198 0.482127
O O11 0.500000 0.228674 0.750000
O O12 0.047183 0.936324 0.154758
O O13 0.083759 0.021039 0.396541
O O14 0.772701 0.963813 0.282685
#
# Coordination Sequence:
#
# PCOD8139411 Si02
#       7
#     8   8   8   8   4   8   8
#     4  12  23  39  63  97 133 170 208 266 327 388
#     4  11  21  39  62 101 129 170 211 261 320 393
#     4  10  22  38  72  92 118 172 226 262 320 380
#     4  11  21  44  70  88 123 168 221 273 314 379
#     4  10  22  36  62  94 140 170 202 268 318 384
#     4  11  21  37  62  93 136 169 209 257 325 391
#     4  10  20  39  61  95 131 171 214 259 320 384
#
# _framework density 20.45946
#
# number of rings (size 3 to 8) (size 9 to 14) (size 15 to 20)
#    0.000    1.231    4.615    3.692    1.077    0.000 
#    0.000    0.769    1.692    0.000    0.000    0.000 
#    0.000    0.000    0.000    0.000    0.000    0.000 
#
# Total GULP energy -322325.481211 kJ/mol
# GULP energy per Si atom -12397.133893 kJ/mol
# Density = 2.041289 g / cm^3
# Si number density = 20.459460 Si / 1000 Ang^3
#
#
#
# Elastic Constant Matrix: (Units=GPa)
#
#
# Indices 1 2 3 4 5 6 
#
# 1 91.3983 39.9824 41.8936 0.0000 2.4243 0.0000
# 2 39.9824 122.0062 60.7397 0.0000 -2.5526 0.0000
# 3 41.8936 60.7397 121.7867 0.0000 4.5916 0.0000
# 4 0.0000 0.0000 0.0000 31.4362 0.0000 6.2103
# 5 2.4243 -2.5526 4.5916 0.0000 28.3991 0.0000
# 6 0.0000 0.0000 0.0000 6.2103 0.0000 30.5356
#
#
#
# Elastic Compliance Matrix: (Units=1/GPa)
#
#
# Indices 1 2 3 4 5 6 
#
# 1 0.013719 -0.002903 -0.003237 0.000000 -0.000909 0.000000
# 2 -0.002903 0.011618 -0.004874 0.000000 0.002080 0.000000
# 3 -0.003237 -0.004874 0.011834 0.000000 -0.002075 0.000000
# 4 0.000000 0.000000 0.000000 0.033142 0.000000 -0.006740
# 5 -0.000909 0.002080 -0.002075 0.000000 0.035812 0.000000
# 6 0.000000 0.000000 0.000000 -0.006740 0.000000 0.034120
#
#
# Mechanical properties :
#
#
# Convention : Reuss Voigt Hill
#
# Bulk Modulus (GPa) = 66.04186 68.93586 67.48886
# Shear Modulus (GPa) = 29.88287 30.91255 30.39771
#
# Velocity S-wave (km/s) = 3.82591 3.89127 3.85873
# Velocity P-wave (km/s) = 7.20182 7.34550 7.27401
#
# Compressibility (1/GPa) = 0.01514191
#
# Stress axis : x y z
#
# Youngs Moduli (GPa) = 72.89158 86.07559 84.50513
#
# Poissons Ratio (x) = 0.24991 0.27354
# Poissons Ratio (y) = 0.21163 0.41187
# Poissons Ratio (z) = 0.23595 0.41952
#
# Static dielectric constant tensor:
#      x y z
#    x 3.720460 0.000000 0.221200 
#    y 0.000000 3.883070 0.000000 
#    z 0.221200 0.000000 3.667630 
# 
# 
# High freq. dielectric constant tensor:
#      x y z
#    x 1.801020 0.000000 0.020540 
#    y 0.000000 1.795800 0.000000 
#    z 0.020540 0.000000 1.791140 
# 
# From -- ./inp_files/42348.got.cif
#   From: 2010.06.25/outbox.cif.g09.slc.cpg/sg15_22_cif.got.tgz:42348.got - 2010.06.28 07:06:18.
