data_PCOD8139372
_publ_section_title
;
Structure prediction by ZEFSAII (Michael W. Deem and Ramdas Pophale) SiO2 
 PCOD8139372
Probable space group: C 2/C
;
_chemical_formula_sum "Si O2"
_cell_formula_units_Z 64
_cell_length_a 12.026977
_cell_length_b 30.989477
_cell_length_c 8.733230
_cell_angle_alpha 90.000000
_cell_angle_beta 91.305152
_cell_angle_gamma 90.000000
_cell_volume 3254.115321
_symmetry_space_group_name_H-M "C 2/C"
_symmetry_group_IT_number 15
_symmetry_cell_setting 'monoclinic'
loop_
_space_group_symop_operation_xyz
x,y,z
-x,y,1/2-z
-x,-y,-z
x,-y,1/2+z
1/2+x,1/2+y,z
1/2-x,1/2+y,1/2-z
1/2-x,1/2-y,-z
1/2+x,1/2-y,1/2+z
loop_
_atom_site_type_symbol
_atom_site_label
_atom_site_fract_x
_atom_site_fract_y
_atom_site_fract_z
Si Si1 0.273079 0.204656 0.925829
Si Si2 0.500459 0.928989 0.929996
Si Si3 0.131629 0.875335 0.430145
Si Si4 0.880622 0.125322 0.934735
Si Si5 0.233077 0.454642 0.438841
Si Si6 0.001592 0.661773 0.926508
Si Si7 0.227625 0.542925 0.574703
Si Si8 0.764969 0.296522 0.069976
O O1 0.195300 0.167084 0.994877
O O2 0.401801 0.194301 0.957194
O O3 0.245956 0.208408 0.747994
O O4 0.250000 0.250000 0.000000
O O5 0.500000 0.937881 0.750000
O O6 0.388809 0.946694 0.000266
O O7 0.512145 0.878422 0.962612
O O8 0.602476 0.954110 0.009275
O O9 0.126721 0.874545 0.247739
O O10 0.198903 0.917470 0.486999
O O11 0.007729 0.876529 0.496457
O O12 0.814501 0.083789 0.995535
O O13 0.824313 0.169026 0.998502
O O14 0.281163 0.498897 0.511200
O O15 0.227107 0.457762 0.256843
O O16 0.000000 0.645440 0.750000
O O17 0.113483 0.686734 0.969339
O O18 0.750000 0.250000 0.000000
#
# Coordination Sequence:
#
# PCOD8139372 Si02
#       8
#     8   8   8   8   8   8   8   8
#     4  10  21  37  59  85 116 152 194 236 287 344
#     4  12  23  37  60  90 119 150 196 245 293 347
#     4   9  19  37  60  84 114 154 194 234 287 349
#     4   9  19  37  60  84 114 154 194 234 287 349
#     4  11  22  39  61  86 119 154 192 238 291 350
#     4  10  20  39  61  84 116 160 196 237 298 349
#     4  11  22  39  61  86 119 154 192 238 291 350
#     4  10  21  37  59  85 116 152 194 236 287 344
#
# _framework density 19.667404000000001
#
# number of rings (size 3 to 8) (size 9 to 14) (size 15 to 20)
#    0.000    1.750    2.500    2.250    1.750    1.500 
#    0.000    0.000    0.000    5.250    0.000    0.000 
#    0.000    0.000    0.000    0.000    0.000    0.000 
#
# Total GULP energy -396865.553602 kJ/mol
# GULP energy per Si atom -12402.048550 kJ/mol
# Density = 1.962264 g / cm^3
# Si number density = 19.667404 Si / 1000 Ang^3
#
#
#
# Elastic Constant Matrix: (Units=GPa)
#
#
# Indices 1 2 3 4 5 6 
#
# 1 152.3187 72.3516 26.2947 0.0000 -12.6203 0.0000
# 2 72.3516 181.3018 36.9251 0.0000 -15.8625 0.0000
# 3 26.2947 36.9251 54.9634 0.0000 -4.6867 0.0000
# 4 0.0000 0.0000 0.0000 33.6543 0.0000 -5.2755
# 5 -12.6203 -15.8625 -4.6867 0.0000 6.2476 0.0000
# 6 0.0000 0.0000 0.0000 -5.2755 0.0000 27.6242
#
#
#
# Elastic Compliance Matrix: (Units=1/GPa)
#
#
# Indices 1 2 3 4 5 6 
#
# 1 0.008825 -0.002200 -0.001816 0.000000 0.010878 0.000000
# 2 -0.002200 0.008309 -0.003322 0.000000 0.014160 0.000000
# 3 -0.001816 -0.003322 0.021647 0.000000 0.004135 0.000000
# 4 0.000000 0.000000 0.000000 0.030631 0.000000 0.005850
# 5 0.010878 0.014160 0.004135 0.000000 0.221090 0.000000
# 6 0.000000 0.000000 0.000000 0.005850 0.000000 0.037317
#
#
# Mechanical properties :
#
#
# Convention : Reuss Voigt Hill
#
# Bulk Modulus (GPa) = 41.48627 73.30297 57.39462
# Shear Modulus (GPa) = 14.26405 30.37273 22.31839
#
# Velocity S-wave (km/s) = 2.69599 3.93404 3.37232
# Velocity P-wave (km/s) = 5.55256 7.61497 6.66403
#
# Compressibility (1/GPa) = 0.02410436
#
# Stress axis : x y z
#
# Youngs Moduli (GPa) = 113.31313 120.34839 46.19501
#
# Poissons Ratio (x) = 0.26478 0.08390
# Poissons Ratio (y) = 0.24930 0.15347
# Poissons Ratio (z) = 0.20581 0.39983
#
# Static dielectric constant tensor:
#      x y z
#    x 3.870580 0.000000 -0.040290 
#    y 0.000000 4.656250 0.000000 
#    z -0.040290 0.000000 3.377960 
# 
# 
# High freq. dielectric constant tensor:
#      x y z
#    x 1.774160 0.000000 -0.003010 
#    y 0.000000 1.783680 0.000000 
#    z -0.003010 0.000000 1.736530 
# 
# From -- ./inp_files/35680.got.cif
#   From: 2010.06.25/outbox.cif.g09.slc.cpg/sg15_18_cif.got.tgz:35680.got - 2010.06.28 07:06:18.
