data_PCOD8139546
_publ_section_title
;
Structure prediction by ZEFSAII (Michael W. Deem and Ramdas Pophale) SiO2 
 PCOD8139546
Probable space group: C 2/C
;
_chemical_formula_sum "Si O2"
_cell_formula_units_Z 44
_cell_length_a 14.979243
_cell_length_b 19.612209
_cell_length_c 9.137568
_cell_angle_alpha 90.000000
_cell_angle_beta 57.046053
_cell_angle_gamma 90.000000
_cell_volume 2252.500500
_symmetry_space_group_name_H-M "C 2/C"
_symmetry_group_IT_number 15
_symmetry_cell_setting 'monoclinic'
loop_
_space_group_symop_operation_xyz
x,y,z
-x,y,1/2-z
-x,-y,-z
x,-y,1/2+z
1/2+x,1/2+y,z
1/2-x,1/2+y,1/2-z
1/2-x,1/2-y,-z
1/2+x,1/2-y,1/2+z
loop_
_atom_site_type_symbol
_atom_site_label
_atom_site_fract_x
_atom_site_fract_y
_atom_site_fract_z
Si Si1 0.631175 0.570307 0.389364
Si Si2 0.500000 0.509084 0.250000
Si Si3 0.632310 0.946719 0.764579
Si Si4 0.171840 0.658078 0.975434
Si Si5 0.542886 0.906277 0.357585
Si Si6 0.887537 0.807916 0.409662
O O1 0.571787 0.556670 0.290210
O O2 0.575766 0.535946 0.579932
O O3 0.751617 0.543639 0.266687
O O4 0.634286 0.651764 0.418693
O O5 0.635847 0.903287 0.612864
O O6 0.585625 0.020275 0.768629
O O7 0.555256 0.907890 0.943811
O O8 0.111011 0.727343 0.069164
O O9 0.139887 0.636790 0.839887
O O10 0.298220 0.670460 0.870421
O O11 0.500000 0.868834 0.250000
O O12 0.000000 0.832530 0.250000
#
# Coordination Sequence:
#
# PCOD8139546 Si02
#       6
#     8   4   8   8   8   8
#     4  10  22  37  60  87 115 157 193 247 292 352
#     4  10  22  38  56  88 120 150 196 246 294 350
#     4  10  21  36  59  85 117 155 198 236 293 353
#     4  10  22  39  62  85 118 158 200 240 283 360
#     4  11  22  35  56  91 120 151 188 250 301 337
#     4  10  20  39  64  85 112 161 205 232 287 353
#
# _framework density 19.533846
#
# number of rings (size 3 to 8) (size 9 to 14) (size 15 to 20)
#    0.000    1.818    0.909    3.818    7.636    0.000 
#    1.636    0.000    0.000    4.364    0.000    0.000 
#    0.000    0.000    0.000    0.000    0.000    0.000 
#
# Total GULP energy -272811.648055 kJ/mol
# GULP energy per Si atom -12400.529457 kJ/mol
# Density = 1.948939 g / cm^3
# Si number density = 19.533846 Si / 1000 Ang^3
#
#
#
# Elastic Constant Matrix: (Units=GPa)
#
#
# Indices 1 2 3 4 5 6 
#
# 1 162.6032 58.6341 58.6842 0.0000 20.6715 0.0000
# 2 58.6341 77.2043 27.7540 0.0000 9.9499 0.0000
# 3 58.6842 27.7540 58.3033 0.0000 4.4483 0.0000
# 4 0.0000 0.0000 0.0000 8.5963 0.0000 -1.9358
# 5 20.6715 9.9499 4.4483 0.0000 43.9718 0.0000
# 6 0.0000 0.0000 0.0000 -1.9358 0.0000 26.3937
#
#
#
# Elastic Compliance Matrix: (Units=1/GPa)
#
#
# Indices 1 2 3 4 5 6 
#
# 1 0.011739 -0.005213 -0.009073 0.000000 -0.003421 0.000000
# 2 -0.005213 0.018293 -0.003358 0.000000 -0.001349 0.000000
# 3 -0.009073 -0.003358 0.027713 0.000000 0.002222 0.000000
# 4 0.000000 0.000000 0.000000 0.118283 0.000000 0.008675
# 5 -0.003421 -0.001349 0.002222 0.000000 0.024431 0.000000
# 6 0.000000 0.000000 0.000000 0.008675 0.000000 0.038524
#
#
# Mechanical properties :
#
#
# Convention : Reuss Voigt Hill
#
# Bulk Modulus (GPa) = 44.53013 65.36171 54.94592
# Shear Modulus (GPa) = 17.74579 25.99492 21.87035
#
# Velocity S-wave (km/s) = 3.01734 3.65192 3.34969
# Velocity P-wave (km/s) = 5.91481 7.16348 6.56888
#
# Compressibility (1/GPa) = 0.02245670
#
# Stress axis : x y z
#
# Youngs Moduli (GPa) = 85.18415 54.66685 36.08364
#
# Poissons Ratio (x) = 0.28497 0.32740
# Poissons Ratio (y) = 0.44405 0.12117
# Poissons Ratio (z) = 0.77292 0.18357
#
# Static dielectric constant tensor:
#      x y z
#    x 3.866460 0.000000 -0.083630 
#    y 0.000000 3.503660 0.000000 
#    z -0.083630 0.000000 3.366910 
# 
# 
# High freq. dielectric constant tensor:
#      x y z
#    x 1.785040 0.000000 -0.011630 
#    y 0.000000 1.751940 0.000000 
#    z -0.011630 0.000000 1.740600 
# 
# From -- ./inp_files/39772.got.cif
#   From: 2010.06.25/outbox.cif.g09.slc.cpg/sg15_20_cif.got.tgz:39772.got - 2010.06.28 07:06:18.
