data_PCOD8139900
_publ_section_title
;
Structure prediction by ZEFSAII (Michael W. Deem and Ramdas Pophale) SiO2 
 PCOD8139900
Probable space group: C 2/C
;
_chemical_formula_sum "Si O2"
_cell_formula_units_Z 40
_cell_length_a 17.507480
_cell_length_b 9.051152
_cell_length_c 13.483831
_cell_angle_alpha 90.000000
_cell_angle_beta 55.498742
_cell_angle_gamma 90.000000
_cell_volume 1760.872695
_symmetry_space_group_name_H-M "C 2/C"
_symmetry_group_IT_number 15
_symmetry_cell_setting 'monoclinic'
loop_
_space_group_symop_operation_xyz
x,y,z
-x,y,1/2-z
-x,-y,-z
x,-y,1/2+z
1/2+x,1/2+y,z
1/2-x,1/2+y,1/2-z
1/2-x,1/2-y,-z
1/2+x,1/2-y,1/2+z
loop_
_atom_site_type_symbol
_atom_site_label
_atom_site_fract_x
_atom_site_fract_y
_atom_site_fract_z
Si Si1 0.512867 0.610712 0.855312
Si Si2 0.858929 0.930196 0.074522
Si Si3 0.208846 0.401692 0.573712
Si Si4 0.547176 0.069864 0.339296
Si Si5 0.623563 0.900135 0.987616
O O1 0.500000 0.576004 0.750000
O O2 0.617316 0.581726 0.824312
O O3 0.487263 0.780276 0.902468
O O4 0.445820 0.500821 0.958292
O O5 0.770177 0.031402 0.117915
O O6 0.847140 0.769850 0.033695
O O7 0.250000 0.250000 0.500000
O O8 0.105296 0.391228 0.696632
O O9 0.205550 0.513336 0.483484
O O10 0.615228 0.038083 0.381658
O O11 0.475598 0.932445 0.383461
#
# Coordination Sequence:
#
# PCOD8139900 Si02
#       5
#     8   8   8   8   8
#     4  10  20  40  63  85 119 160 202 248 310 374
#     4  10  23  39  60  92 121 154 207 257 303 368
#     4  12  24  40  63  92 128 165 207 259 312 369
#     4  10  22  40  64  90 122 168 210 249 310 380
#     4  10  22  41  61  89 127 164 207 257 310 372
#
# _framework density 22.716007999999999
#
# number of rings (size 3 to 8) (size 9 to 14) (size 15 to 20)
#    0.000    1.600    0.000    4.800    0.000    8.000 
#    0.000    2.000    0.000    0.000    0.000    0.000 
#    0.000    0.000    0.000    0.000    0.000    0.000 
#
# Total GULP energy -247794.146413 kJ/mol
# GULP energy per Si atom -12389.707321 kJ/mol
# Density = 2.266431 g / cm^3
# Si number density = 22.716008 Si / 1000 Ang^3
#
#
#
# Elastic Constant Matrix: (Units=GPa)
#
#
# Indices 1 2 3 4 5 6 
#
# 1 113.9801 48.6744 21.8565 0.0000 38.0320 0.0000
# 2 48.6744 119.2817 25.7638 0.0000 6.6515 0.0000
# 3 21.8565 25.7638 78.0636 0.0000 18.4247 0.0000
# 4 0.0000 0.0000 0.0000 25.2827 0.0000 -4.5888
# 5 38.0320 6.6515 18.4247 0.0000 41.9852 0.0000
# 6 0.0000 0.0000 0.0000 -4.5888 0.0000 48.0324
#
#
#
# Elastic Compliance Matrix: (Units=1/GPa)
#
#
# Indices 1 2 3 4 5 6 
#
# 1 0.015625 -0.005778 0.000733 0.000000 -0.013560 0.000000
# 2 -0.005778 0.011164 -0.003218 0.000000 0.004878 0.000000
# 3 0.000733 -0.003218 0.015287 0.000000 -0.006862 0.000000
# 4 0.000000 0.000000 0.000000 0.040251 0.000000 0.003845
# 5 -0.013560 0.004878 -0.006862 0.000000 0.038340 0.000000
# 6 0.000000 0.000000 0.000000 0.003845 0.000000 0.021187
#
#
# Mechanical properties :
#
#
# Convention : Reuss Voigt Hill
#
# Bulk Modulus (GPa) = 39.14038 55.99053 47.56546
# Shear Modulus (GPa) = 29.95867 37.39545 33.67706
#
# Velocity S-wave (km/s) = 3.63552 4.06176 3.85453
# Velocity P-wave (km/s) = 5.90681 6.83365 6.38706
#
# Compressibility (1/GPa) = 0.02554906
#
# Stress axis : x y z
#
# Youngs Moduli (GPa) = 63.99983 89.57017 65.41657
#
# Poissons Ratio (x) = 0.51754 -0.04793
# Poissons Ratio (y) = 0.36980 0.21052
# Poissons Ratio (z) = -0.04689 0.28825
#
# Static dielectric constant tensor:
#      x y z
#    x 5.054830 0.000000 0.723770 
#    y 0.000000 4.126200 0.000000 
#    z 0.723770 0.000000 4.130060 
# 
# 
# High freq. dielectric constant tensor:
#      x y z
#    x 1.922620 0.000000 0.027710 
#    y 0.000000 1.894710 0.000000 
#    z 0.027710 0.000000 1.865840 
# 
# From -- ./inp_files/159131.got.cif
#   From: 2010.06.25/outbox.cif.g09.slc.cpg/sg15_80_cif.got.tgz:159131.got - 2010.06.28 07:06:18.
