data_PCOD8139571
_publ_section_title
;
Structure prediction by ZEFSAII (Michael W. Deem and Ramdas Pophale) SiO2 
 PCOD8139571
Probable space group: C 2/C
;
_chemical_formula_sum "Si O2"
_cell_formula_units_Z 36
_cell_length_a 7.972227
_cell_length_b 22.264256
_cell_length_c 14.684354
_cell_angle_alpha 90.000000
_cell_angle_beta 40.232503
_cell_angle_gamma 90.000000
_cell_volume 1683.456259
_symmetry_space_group_name_H-M "C 2/C"
_symmetry_group_IT_number 15
_symmetry_cell_setting 'monoclinic'
loop_
_space_group_symop_operation_xyz
x,y,z
-x,y,1/2-z
-x,-y,-z
x,-y,1/2+z
1/2+x,1/2+y,z
1/2-x,1/2+y,1/2-z
1/2-x,1/2-y,-z
1/2+x,1/2-y,1/2+z
loop_
_atom_site_type_symbol
_atom_site_label
_atom_site_fract_x
_atom_site_fract_y
_atom_site_fract_z
Si Si1 0.569108 0.709378 0.827440
Si Si2 0.902458 0.604785 0.695894
Si Si3 0.724789 0.920151 0.893905
Si Si4 0.058379 0.339249 0.622503
Si Si5 0.000000 0.964715 0.250000
O O1 0.500000 0.701811 0.750000
O O2 0.838678 0.675259 0.735506
O O3 0.608454 0.779722 0.834397
O O4 0.356124 0.679146 0.982424
O O5 0.629919 0.575074 0.775416
O O6 0.000000 0.575782 0.750000
O O7 0.142094 0.599987 0.527973
O O8 0.509840 0.896743 0.911677
O O9 0.000000 0.890659 0.750000
O O10 0.759963 0.992951 0.882687
O O11 0.000000 0.358838 0.750000
#
# Coordination Sequence:
#
# PCOD8139571 Si02
#       5
#     8   8   8   8   4
#     4  10  20  39  64  91 129 169 208 263 316 374
#     4  12  24  42  68  96 125 171 217 259 321 379
#     4  10  24  42  60  93 131 166 207 270 313 373
#     4  10  21  38  65  93 126 172 210 256 321 380
#     4  10  24  44  68  88 134 166 210 270 314 372
#
# _framework density 21.384575000000002
#
# number of rings (size 3 to 8) (size 9 to 14) (size 15 to 20)
#    0.667    0.889    3.333    0.667    3.111    2.667 
#    0.000    2.222    0.000    0.000    0.000    0.000 
#    0.000    0.000    0.000    0.000    0.000    0.000 
#
# Total GULP energy -223066.345069 kJ/mol
# GULP energy per Si atom -12392.574726 kJ/mol
# Density = 2.133590 g / cm^3
# Si number density = 21.384575 Si / 1000 Ang^3
#
#
#
# Elastic Constant Matrix: (Units=GPa)
#
#
# Indices 1 2 3 4 5 6 
#
# 1 114.4114 35.7016 29.9489 0.0000 21.6903 0.0000
# 2 35.7016 88.6027 15.2941 0.0000 3.4968 0.0000
# 3 29.9489 15.2941 117.9334 0.0000 29.7309 0.0000
# 4 0.0000 0.0000 0.0000 20.4957 0.0000 -18.5498
# 5 21.6903 3.4968 29.7309 0.0000 34.0333 0.0000
# 6 0.0000 0.0000 0.0000 -18.5498 0.0000 4.8962
#
#
#
# Elastic Compliance Matrix: (Units=1/GPa)
#
#
# Indices 1 2 3 4 5 6 
#
# 1 0.011436 -0.004226 -0.000806 0.000000 -0.006151 0.000000
# 2 -0.004226 0.013107 -0.001239 0.000000 0.002429 0.000000
# 3 -0.000806 -0.001239 0.011135 0.000000 -0.009087 0.000000
# 4 0.000000 0.000000 0.000000 -0.020087 0.000000 -0.076103
# 5 -0.006151 0.002429 -0.009087 0.000000 0.040992 0.000000
# 6 0.000000 0.000000 0.000000 -0.076103 0.000000 -0.084087
#
#
# Mechanical properties :
#
#
# Convention : Reuss Voigt Hill
#
# Bulk Modulus (GPa) = 43.22025 53.64854 48.43440
# Shear Modulus (GPa) = -689.67812 27.88524 -330.89644
#
# Velocity S-wave (km/s) = -17.97810 3.61500 -12.45279
# Velocity P-wave (km/s) = 20.26560 6.52428 13.56703
#
# Compressibility (1/GPa) = 0.02313730
#
# Stress axis : x y z
#
# Youngs Moduli (GPa) = 87.44256 76.29361 89.80354
#
# Poissons Ratio (x) = 0.32244 0.07234
# Poissons Ratio (y) = 0.36956 0.11126
# Poissons Ratio (z) = 0.07044 0.09452
#
# Static dielectric constant tensor:
#      x y z
#    x 3.444000 0.000000 0.035980 
#    y 0.000000 4.016910 0.000000 
#    z 0.035980 0.000000 3.967560 
# 
# 
# High freq. dielectric constant tensor:
#      x y z
#    x 1.804810 0.000000 -0.000540 
#    y 0.000000 1.842270 0.000000 
#    z -0.000540 0.000000 1.854800 
# 
# From -- ./inp_files/136750.got.cif
#   From: 2010.06.25/outbox.cif.g09.slc.cpg/sg15_69_cif.got.tgz:136750.got - 2010.06.28 07:06:18.
