data_PCOD8139559
_publ_section_title
;
Structure prediction by ZEFSAII (Michael W. Deem and Ramdas Pophale) SiO2 
 PCOD8139559
Probable space group: C 2/C
;
_chemical_formula_sum "Si O2"
_cell_formula_units_Z 48
_cell_length_a 12.690743
_cell_length_b 12.271746
_cell_length_c 23.453391
_cell_angle_alpha 90.000000
_cell_angle_beta 39.354197
_cell_angle_gamma 90.000000
_cell_volume 2316.143259
_symmetry_space_group_name_H-M "C 2/C"
_symmetry_group_IT_number 15
_symmetry_cell_setting 'monoclinic'
loop_
_space_group_symop_operation_xyz
x,y,z
-x,y,1/2-z
-x,-y,-z
x,-y,1/2+z
1/2+x,1/2+y,z
1/2-x,1/2+y,1/2-z
1/2-x,1/2-y,-z
1/2+x,1/2-y,1/2+z
loop_
_atom_site_type_symbol
_atom_site_label
_atom_site_fract_x
_atom_site_fract_y
_atom_site_fract_z
Si Si1 0.357678 0.932939 0.094162
Si Si2 0.389995 0.456764 0.996526
Si Si3 0.678270 0.142489 0.336601
Si Si4 0.153553 0.295990 0.147420
Si Si5 0.567438 0.727314 0.357751
Si Si6 0.208046 0.631812 0.997140
O O1 0.419331 0.840850 0.112982
O O2 0.249649 0.022945 0.174794
O O3 0.253798 0.876045 0.086850
O O4 0.500000 0.000000 0.000000
O O5 0.227063 0.406314 0.092541
O O6 0.329303 0.545987 0.976827
O O7 0.500000 0.500000 0.000000
O O8 0.516314 0.368534 0.919792
O O9 0.708524 0.225558 0.376536
O O10 0.761048 0.193326 0.245449
O O11 0.485235 0.117441 0.405943
O O12 0.000000 0.332306 0.250000
O O13 0.083127 0.227870 0.124158
O O14 0.250000 0.750000 0.000000
#
# Coordination Sequence:
#
# PCOD8139559 Si02
#       6
#     8   8   8   8   8   8
#     4  10  20  39  64  88 122 166 207 259 322 383
#     4  12  24  39  62  89 122 163 210 262 318 385
#     4  10  22  40  62  91 124 160 206 262 323 383
#     4  10  21  39  63  89 118 158 208 258 309 380
#     4  11  23  40  64  93 123 163 213 262 318 394
#     4  11  23  41  61  88 125 166 208 261 325 391
#
# _framework density 20.724107
#
# number of rings (size 3 to 8) (size 9 to 14) (size 15 to 20)
#    0.000    1.333    0.000    7.500    0.000    5.333 
#    0.000    4.167    0.000    0.000    0.000    0.000 
#    0.000    0.000    0.000    0.000    0.000    0.000 
#
# Total GULP energy -297397.515423 kJ/mol
# GULP energy per Si atom -12391.563143 kJ/mol
# Density = 2.067694 g / cm^3
# Si number density = 20.724107 Si / 1000 Ang^3
#
#
#
# Elastic Constant Matrix: (Units=GPa)
#
#
# Indices 1 2 3 4 5 6 
#
# 1 87.9204 24.1000 38.2123 0.0000 15.7357 0.0000
# 2 24.1000 130.4862 52.6857 0.0000 19.8908 0.0000
# 3 38.2123 52.6857 89.3906 0.0001 18.0293 0.0000
# 4 0.0000 0.0000 0.0001 38.2635 0.0000 5.8179
# 5 15.7357 19.8908 18.0293 0.0000 31.0133 0.0000
# 6 0.0000 0.0000 0.0000 5.8179 0.0000 47.3883
#
#
#
# Elastic Compliance Matrix: (Units=1/GPa)
#
#
# Indices 1 2 3 4 5 6 
#
# 1 0.014447 0.000171 -0.005410 0.000000 -0.004295 0.000000
# 2 0.000171 0.010386 -0.005476 0.000000 -0.003565 0.000000
# 3 -0.005410 -0.005476 0.017519 0.000000 -0.003928 0.000000
# 4 0.000000 0.000000 0.000000 0.026632 0.000000 -0.003270
# 5 -0.004295 -0.003565 -0.003928 0.000000 0.038993 0.000000
# 6 0.000000 0.000000 0.000000 -0.003270 0.000000 0.021504
#
#
# Mechanical properties :
#
#
# Convention : Reuss Voigt Hill
#
# Bulk Modulus (GPa) = 47.79556 59.75480 53.77518
# Shear Modulus (GPa) = 31.66855 36.18630 33.92743
#
# Velocity S-wave (km/s) = 3.91334 4.18317 4.05050
# Velocity P-wave (km/s) = 6.59786 7.22689 6.91953
#
# Compressibility (1/GPa) = 0.02092245
#
# Stress axis : x y z
#
# Youngs Moduli (GPa) = 69.21759 96.27991 57.08067
#
# Poissons Ratio (x) = -0.01645 0.30883
# Poissons Ratio (y) = -0.01183 0.31255
# Poissons Ratio (z) = 0.37449 0.52719
#
# Static dielectric constant tensor:
#      x y z
#    x 3.737000 0.000000 0.065470 
#    y 0.000000 4.012240 0.000000 
#    z 0.065470 0.000000 3.750790 
# 
# 
# High freq. dielectric constant tensor:
#      x y z
#    x 1.818610 0.000000 0.017780 
#    y 0.000000 1.824870 0.000000 
#    z 0.017780 0.000000 1.804630 
# 
# From -- ./inp_files/237398.got.cif
#   From: 2010.06.25/outbox.cif.g09.slc.cpg/sg15_119_cif.got.tgz:237398.got - 2010.06.28 07:06:18.
