data_PCOD8139265
_publ_section_title
;
Structure prediction by ZEFSAII (Michael W. Deem and Ramdas Pophale) SiO2 
 PCOD8139265
Probable space group: C 2/C
;
_chemical_formula_sum "Si O2"
_cell_formula_units_Z 44
_cell_length_a 15.433654
_cell_length_b 28.065366
_cell_length_c 8.273600
_cell_angle_alpha 90.000000
_cell_angle_beta 142.254076
_cell_angle_gamma 90.000000
_cell_volume 2193.813319
_symmetry_space_group_name_H-M "C 2/C"
_symmetry_group_IT_number 15
_symmetry_cell_setting 'monoclinic'
loop_
_space_group_symop_operation_xyz
x,y,z
-x,y,1/2-z
-x,-y,-z
x,-y,1/2+z
1/2+x,1/2+y,z
1/2-x,1/2+y,1/2-z
1/2-x,1/2-y,-z
1/2+x,1/2-y,1/2+z
loop_
_atom_site_type_symbol
_atom_site_label
_atom_site_fract_x
_atom_site_fract_y
_atom_site_fract_z
Si Si1 0.000000 0.508279 0.250000
Si Si2 0.678339 0.775848 0.245905
Si Si3 0.650257 0.680386 0.049631
Si Si4 0.114645 0.432440 0.183253
Si Si5 0.654083 0.639884 0.417299
Si Si6 0.446051 0.156356 0.355269
O O1 0.907401 0.475250 0.226773
O O2 0.111513 0.543085 0.503063
O O3 0.750000 0.750000 0.500000
O O4 0.665265 0.738077 0.080768
O O5 0.779367 0.821270 0.359230
O O6 0.522549 0.798075 0.054509
O O7 0.661271 0.657620 0.243472
O O8 0.776965 0.661208 0.122832
O O9 0.500000 0.666339 0.750000
O O10 0.265391 0.409813 0.444571
O O11 0.992242 0.392022 0.014681
O O12 0.500000 0.628861 0.250000
O O13 0.500000 0.155624 0.250000
#
# Coordination Sequence:
#
# PCOD8139265 Si02
#       6
#     4   8   8   8   8   8
#     4  10  20  38  70  92 118 148 204 264 312 396
#     4   9  22  37  58  84 122 166 215 255 303 355
#     4  11  25  38  60  91 126 174 220 258 303 356
#     4  10  21  40  64  96 119 156 204 257 321 372
#     4  10  23  41  62  87 130 165 204 258 318 370
#     4  11  23  39  61  90 129 162 209 263 305 367
#
# _framework density 20.0564
#
# number of rings (size 3 to 8) (size 9 to 14) (size 15 to 20)
#    0.000    1.818    0.909    1.636   10.182    6.545 
#    0.000    0.909    0.000    4.364    0.000    0.000 
#    0.000    0.000    0.000    0.000    0.000    0.000 
#
# Total GULP energy -272661.162089 kJ/mol
# GULP energy per Si atom -12393.689186 kJ/mol
# Density = 2.001075 g / cm^3
# Si number density = 20.056400 Si / 1000 Ang^3
#
#
#
# Elastic Constant Matrix: (Units=GPa)
#
#
# Indices 1 2 3 4 5 6 
#
# 1 107.2707 40.3739 63.0175 0.0000 16.9932 0.0000
# 2 40.3739 117.9544 59.2052 0.0000 6.0687 0.0000
# 3 63.0175 59.2052 140.2927 0.0000 22.6617 0.0000
# 4 0.0000 0.0000 0.0000 31.7446 0.0000 5.7689
# 5 16.9932 6.0687 22.6617 0.0000 40.2750 0.0000
# 6 0.0000 0.0000 0.0000 5.7689 0.0000 1.6127
#
#
#
# Elastic Compliance Matrix: (Units=1/GPa)
#
#
# Indices 1 2 3 4 5 6 
#
# 1 0.013254 -0.002065 -0.004652 0.000000 -0.002664 0.000000
# 2 -0.002065 0.011117 -0.003997 0.000000 0.001445 0.000000
# 3 -0.004652 -0.003997 0.011539 0.000000 -0.003928 0.000000
# 4 0.000000 0.000000 0.000000 0.090022 0.000000 -0.322020
# 5 -0.002664 0.001445 -0.003928 0.000000 0.027945 0.000000
# 6 0.000000 0.000000 0.000000 -0.322020 0.000000 1.771981
#
#
# Mechanical properties :
#
#
# Convention : Reuss Voigt Hill
#
# Bulk Modulus (GPa) = 69.05318 76.74566 72.89942
# Shear Modulus (GPa) = 2.56133 28.25455 15.40794
#
# Velocity S-wave (km/s) = 1.13130 3.75741 2.77470
# Velocity P-wave (km/s) = 6.01753 7.56123 6.83311
#
# Compressibility (1/GPa) = 0.01448159
#
# Stress axis : x y z
#
# Youngs Moduli (GPa) = 75.44834 89.95542 86.66310
#
# Poissons Ratio (x) = 0.18572 0.40316
# Poissons Ratio (y) = 0.15577 0.34643
# Poissons Ratio (z) = 0.35099 0.35959
#
# Static dielectric constant tensor:
#      x y z
#    x 3.459660 0.000000 -0.178810 
#    y 0.000000 3.990560 0.000000 
#    z -0.178810 0.000000 3.930320 
# 
# 
# High freq. dielectric constant tensor:
#      x y z
#    x 1.756900 0.000000 -0.010830 
#    y 0.000000 1.788570 0.000000 
#    z -0.010830 0.000000 1.795820 
# 
# From -- ./inp_files/43710.got.cif
#   From: 2010.06.25/outbox.cif.g09.slc.cpg/sg15_22_cif.got.tgz:43710.got - 2010.06.28 07:06:18.
