data_PCOD8139902
_publ_section_title
;
Structure prediction by ZEFSAII (Michael W. Deem and Ramdas Pophale) SiO2 
 PCOD8139902
Probable space group: C 2/C
;
_chemical_formula_sum "Si O2"
_cell_formula_units_Z 52
_cell_length_a 10.707387
_cell_length_b 22.805692
_cell_length_c 9.051707
_cell_angle_alpha 90.000000
_cell_angle_beta 86.818553
_cell_angle_gamma 90.000000
_cell_volume 2206.924041
_symmetry_space_group_name_H-M "C 2/C"
_symmetry_group_IT_number 15
_symmetry_cell_setting 'monoclinic'
loop_
_space_group_symop_operation_xyz
x,y,z
-x,y,1/2-z
-x,-y,-z
x,-y,1/2+z
1/2+x,1/2+y,z
1/2-x,1/2+y,1/2-z
1/2-x,1/2-y,-z
1/2+x,1/2-y,1/2+z
loop_
_atom_site_type_symbol
_atom_site_label
_atom_site_fract_x
_atom_site_fract_y
_atom_site_fract_z
Si Si1 0.500000 0.025173 0.250000
Si Si2 0.626255 0.466240 0.447971
Si Si3 0.341387 0.884382 0.903300
Si Si4 0.369493 0.621536 0.313470
Si Si5 0.732883 0.042755 0.850404
Si Si6 0.620236 0.254209 0.806951
Si Si7 0.612535 0.747363 0.638338
O O1 0.542886 0.070168 0.117419
O O2 0.391599 0.981007 0.213743
O O3 0.500000 0.500000 0.500000
O O4 0.640834 0.401254 0.518271
O O5 0.738972 0.503169 0.509122
O O6 0.649773 0.457627 0.271137
O O7 0.241025 0.902861 0.783722
O O8 0.385221 0.817745 0.879296
O O9 0.287454 0.892417 0.074344
O O10 0.500000 0.594138 0.250000
O O11 0.371370 0.691854 0.308285
O O12 0.500000 0.216736 0.750000
O O13 0.756363 0.223111 0.800217
O O14 0.594574 0.278860 0.975028
O O15 0.500000 0.726739 0.750000
#
# Coordination Sequence:
#
# PCOD8139902 Si02
#       7
#     4   8   8   8   8   8   8
#     4  12  22  40  58  84 128 164 202 246 310 370
#     4  12  23  38  61  89 121 166 215 256 307 370
#     4  11  22  40  63  90 125 166 206 257 315 374
#     4  10  20  40  63  86 120 162 204 253 313 370
#     4  12  24  38  58  87 128 165 206 257 304 374
#     4   9  21  42  65  91 125 160 207 267 326 387
#     4  10  21  41  68  95 124 164 213 270 326 384
#
# _framework density 23.562204999999999
#
# number of rings (size 3 to 8) (size 9 to 14) (size 15 to 20)
#    0.000    1.231    3.846    2.769    0.000    0.615 
#    1.385    9.231    0.000    0.000    0.000    0.000 
#    0.000    0.000    0.000    0.000    0.000    0.000 
#
# Total GULP energy -322116.359890 kJ/mol
# GULP energy per Si atom -12389.090765 kJ/mol
# Density = 2.350858 g / cm^3
# Si number density = 23.562205 Si / 1000 Ang^3
#
#
#
# Elastic Constant Matrix: (Units=GPa)
#
#
# Indices 1 2 3 4 5 6 
#
# 1 138.6500 -4.3596 27.6903 0.0000 -1.4913 0.0000
# 2 -4.3596 34.3278 3.0468 0.0000 4.9921 0.0000
# 3 27.6903 3.0468 100.5380 0.0000 -14.2575 0.0000
# 4 0.0000 0.0000 0.0000 35.1295 0.0000 -2.2846
# 5 -1.4913 4.9921 -14.2575 0.0000 38.8091 0.0000
# 6 0.0000 0.0000 0.0000 -2.2846 0.0000 11.8923
#
#
#
# Elastic Compliance Matrix: (Units=1/GPa)
#
#
# Indices 1 2 3 4 5 6 
#
# 1 0.007696 0.001279 -0.002257 0.000000 -0.000698 0.000000
# 2 0.001279 0.030121 -0.001907 0.000000 -0.004526 0.000000
# 3 -0.002257 -0.001907 0.011234 0.000000 0.004286 0.000000
# 4 0.000000 0.000000 0.000000 0.028826 0.000000 0.005538
# 5 -0.000698 -0.004526 0.004286 0.000000 0.027897 0.000000
# 6 0.000000 0.000000 0.000000 0.005538 0.000000 0.085152
#
#
# Mechanical properties :
#
#
# Convention : Reuss Voigt Hill
#
# Bulk Modulus (GPa) = 23.10521 36.25233 29.67877
# Shear Modulus (GPa) = 23.68290 33.64205 28.66247
#
# Velocity S-wave (km/s) = 3.17381 3.78272 3.49156
# Velocity P-wave (km/s) = 4.82266 5.87348 5.37382
#
# Compressibility (1/GPa) = 0.04328027
#
# Stress axis : x y z
#
# Youngs Moduli (GPa) = 129.93835 33.19964 89.01743
#
# Poissons Ratio (x) = -0.04247 0.20095
# Poissons Ratio (y) = -0.16622 0.16975
# Poissons Ratio (z) = 0.29332 0.06331
#
# Static dielectric constant tensor:
#      x y z
#    x 4.670150 0.000000 0.132020 
#    y 0.000000 3.889770 0.000000 
#    z 0.132020 0.000000 4.483870 
# 
# 
# High freq. dielectric constant tensor:
#      x y z
#    x 1.948260 0.000000 0.000860 
#    y 0.000000 1.904490 0.000000 
#    z 0.000860 0.000000 1.924200 
# 
# From -- ./inp_files/33544.got.cif
#   From: 2010.06.25/outbox.cif.g09.slc.cpg/sg15_17_cif.got.tgz:33544.got - 2010.06.28 07:06:18.
