data_PCOD8139875
_publ_section_title
;
Structure prediction by ZEFSAII (Michael W. Deem and Ramdas Pophale) SiO2 
 PCOD8139875
Probable space group: C 2/C
;
_chemical_formula_sum "Si O2"
_cell_formula_units_Z 44
_cell_length_a 11.629955
_cell_length_b 25.768636
_cell_length_c 8.566248
_cell_angle_alpha 90.000000
_cell_angle_beta 123.035272
_cell_angle_gamma 90.000000
_cell_volume 2152.175931
_symmetry_space_group_name_H-M "C 2/C"
_symmetry_group_IT_number 15
_symmetry_cell_setting 'monoclinic'
loop_
_space_group_symop_operation_xyz
x,y,z
-x,y,1/2-z
-x,-y,-z
x,-y,1/2+z
1/2+x,1/2+y,z
1/2-x,1/2+y,1/2-z
1/2-x,1/2-y,-z
1/2+x,1/2-y,1/2+z
loop_
_atom_site_type_symbol
_atom_site_label
_atom_site_fract_x
_atom_site_fract_y
_atom_site_fract_z
Si Si1 0.597738 0.245527 0.959134
Si Si2 0.500000 0.495513 0.750000
Si Si3 0.942744 0.659786 0.034473
Si Si4 0.557291 0.949330 0.126601
Si Si5 0.355001 0.559096 0.870241
Si Si6 0.370422 0.669883 0.767108
O O1 0.500000 0.266049 0.750000
O O2 0.750000 0.250000 0.000000
O O3 0.538067 0.190062 0.977280
O O4 0.587673 0.280826 0.102591
O O5 0.383628 0.534829 0.721262
O O6 0.459924 0.458593 0.579108
O O7 0.000000 0.668885 0.250000
O O8 0.951265 0.598965 0.998556
O O9 0.782013 0.678198 0.920496
O O10 0.500000 0.933066 0.250000
O O11 0.707793 0.963337 0.296847
O O12 0.500000 0.000000 0.000000
O O13 0.359114 0.620966 0.872572
O O14 0.500000 0.660768 0.750000
#
# Coordination Sequence:
#
# PCOD8139875 Si02
#       6
#     8   4   8   8   8   8
#     4  12  26  46  70 100 131 172 222 282 338 397
#     4  10  20  40  62  90 132 168 210 264 322 384
#     4  11  26  46  69  98 137 180 225 279 336 405
#     4  11  23  42  67  98 132 174 221 273 332 397
#     4  10  22  40  62  94 128 169 213 265 324 389
#     4  11  25  45  67  97 136 173 225 270 334 406
#
# _framework density 20.444424999999999
#
# number of rings (size 3 to 8) (size 9 to 14) (size 15 to 20)
#    0.000    1.091    2.727    2.727    6.364    2.909 
#    3.273    0.000    0.000    0.000    0.000    0.000 
#    0.000    0.000    0.000    0.000    0.000    0.000 
#
# Total GULP energy -272567.587174 kJ/mol
# GULP energy per Si atom -12389.435781 kJ/mol
# Density = 2.039789 g / cm^3
# Si number density = 20.444425 Si / 1000 Ang^3
#
#
#
# Elastic Constant Matrix: (Units=GPa)
#
#
# Indices 1 2 3 4 5 6 
#
# 1 146.4417 19.3661 40.1782 0.0000 18.0372 0.0000
# 2 19.3661 95.2823 36.5798 0.0000 11.4338 0.0000
# 3 40.1782 36.5798 120.1628 0.0000 7.8658 0.0000
# 4 0.0000 0.0000 0.0000 27.7284 0.0000 -0.1513
# 5 18.0372 11.4338 7.8658 0.0000 33.8682 0.0000
# 6 0.0000 0.0000 0.0000 -0.1513 0.0000 31.6909
#
#
#
# Elastic Compliance Matrix: (Units=1/GPa)
#
#
# Indices 1 2 3 4 5 6 
#
# 1 0.007950 -0.000288 -0.002335 0.000000 -0.003594 0.000000
# 2 -0.000288 0.012251 -0.003424 0.000000 -0.003187 0.000000
# 3 -0.002335 -0.003424 0.010142 0.000000 0.000044 0.000000
# 4 0.000000 0.000000 0.000000 0.036065 0.000000 0.000172
# 5 -0.003594 -0.003187 0.000044 0.000000 0.032506 0.000000
# 6 0.000000 0.000000 0.000000 0.000172 0.000000 0.031556
#
#
# Mechanical properties :
#
#
# Convention : Reuss Voigt Hill
#
# Bulk Modulus (GPa) = 54.80066 61.57054 58.18560
# Shear Modulus (GPa) = 33.63639 36.37501 35.00570
#
# Velocity S-wave (km/s) = 4.06058 4.22265 4.14241
# Velocity P-wave (km/s) = 6.98909 7.34546 7.16949
#
# Compressibility (1/GPa) = 0.01824795
#
# Stress axis : x y z
#
# Youngs Moduli (GPa) = 125.78316 81.62729 98.59542
#
# Poissons Ratio (x) = 0.02351 0.23025
# Poissons Ratio (y) = 0.03623 0.33764
# Poissons Ratio (z) = 0.29374 0.27953
#
# Static dielectric constant tensor:
#      x y z
#    x 3.954630 0.000000 0.109960 
#    y 0.000000 3.761290 0.000000 
#    z 0.109960 0.000000 3.727140 
# 
# 
# High freq. dielectric constant tensor:
#      x y z
#    x 1.819780 0.000000 0.001350 
#    y 0.000000 1.806010 0.000000 
#    z 0.001350 0.000000 1.802780 
# 
# From -- ./inp_files/32761.got.cif
#   From: 2010.06.25/outbox.cif.g09.slc.cpg/sg15_17_cif.got.tgz:32761.got - 2010.06.28 07:06:18.
