data_PCOD8139943
_publ_section_title
;
Structure prediction by ZEFSAII (Michael W. Deem and Ramdas Pophale) SiO2 
 PCOD8139943
Probable space group: C 2/C
;
_chemical_formula_sum "Si O2"
_cell_formula_units_Z 64
_cell_length_a 20.904281
_cell_length_b 29.054954
_cell_length_c 14.797213
_cell_angle_alpha 90.000000
_cell_angle_beta 159.434077
_cell_angle_gamma 90.000000
_cell_volume 3157.146857
_symmetry_space_group_name_H-M "C 2/C"
_symmetry_group_IT_number 15
_symmetry_cell_setting 'monoclinic'
loop_
_space_group_symop_operation_xyz
x,y,z
-x,y,1/2-z
-x,-y,-z
x,-y,1/2+z
1/2+x,1/2+y,z
1/2-x,1/2+y,1/2-z
1/2-x,1/2-y,-z
1/2+x,1/2-y,1/2+z
loop_
_atom_site_type_symbol
_atom_site_label
_atom_site_fract_x
_atom_site_fract_y
_atom_site_fract_z
Si Si1 0.895746 0.398039 0.379350
Si Si2 0.085140 0.313271 0.707444
Si Si3 0.983561 0.112446 0.331049
Si Si4 0.621264 0.369917 0.321866
Si Si5 0.625436 0.050441 0.329932
Si Si6 0.644408 0.944521 0.361693
Si Si7 0.775410 0.248096 0.324424
Si Si8 0.958583 0.184039 0.439530
O O1 0.919173 0.413418 0.306688
O O2 0.963684 0.345429 0.480672
O O3 0.022330 0.430735 0.605979
O O4 0.684911 0.401520 0.132850
O O5 0.242771 0.287759 0.860735
O O6 0.962442 0.274788 0.593217
O O7 0.187189 0.342447 0.918832
O O8 0.000000 0.129914 0.250000
O O9 0.891394 0.152950 0.267977
O O10 0.847914 0.069381 0.161278
O O11 0.500000 0.362724 0.250000
O O12 0.682124 0.423502 0.396477
O O13 0.520086 0.351141 0.100052
O O14 0.500000 0.057299 0.250000
O O15 0.663638 0.997424 0.359320
O O16 0.500000 0.936677 0.250000
O O17 0.617426 0.285131 0.106692
O O18 0.800458 0.218258 0.265276
#
# Coordination Sequence:
#
# PCOD8139943 Si02
#       8
#     8   8   8   8   8   8   8   8
#     4  10  20  40  64  85 123 159 192 243 301 347
#     4  10  21  37  56  91 121 160 196 242 298 355
#     4  10  22  41  64  86 117 160 199 244 300 349
#     4  11  23  36  58  90 127 160 193 237 299 365
#     4  10  22  40  61  93 121 153 197 240 296 361
#     4  10  23  40  64  90 118 154 202 245 291 355
#     4  10  22  36  62  84 124 155 207 240 295 359
#     4  11  22  40  58  89 121 159 197 251 293 349
#
# _framework density 20.271467000000001
#
# number of rings (size 3 to 8) (size 9 to 14) (size 15 to 20)
#    0.000    1.750    2.500    1.125    3.500    4.500 
#    0.000    6.250    0.000    0.000    0.000    0.000 
#    0.000    0.000    0.000    0.000    0.000    0.000 
#
# Total GULP energy -396742.001496 kJ/mol
# GULP energy per Si atom -12398.187547 kJ/mol
# Density = 2.022533 g / cm^3
# Si number density = 20.271467 Si / 1000 Ang^3
#
#
#
# Elastic Constant Matrix: (Units=GPa)
#
#
# Indices 1 2 3 4 5 6 
#
# 1 91.5986 48.0355 33.9455 -0.0004 10.3592 0.0000
# 2 48.0355 101.9415 40.6182 0.0001 -0.3387 0.0001
# 3 33.9455 40.6182 69.8226 -0.0019 5.6682 0.0002
# 4 -0.0004 0.0001 -0.0019 13.8130 -0.0008 4.7354
# 5 10.3592 -0.3387 5.6682 -0.0008 26.8996 0.0001
# 6 0.0000 0.0001 0.0002 4.7354 0.0001 32.0236
#
#
#
# Elastic Compliance Matrix: (Units=1/GPa)
#
#
# Indices 1 2 3 4 5 6 
#
# 1 0.016168 -0.006095 -0.003869 0.000000 -0.005488 0.000000
# 2 -0.006095 0.015149 -0.006161 -0.000001 0.003836 0.000000
# 3 -0.003869 -0.006161 0.020015 0.000003 -0.002805 -0.000001
# 4 0.000000 -0.000001 0.000003 0.076262 0.000002 -0.011277
# 5 -0.005488 0.003836 -0.002805 0.000002 0.039928 0.000000
# 6 0.000000 0.000000 -0.000001 -0.011277 0.000000 0.032894
#
#
# Mechanical properties :
#
#
# Convention : Reuss Voigt Hill
#
# Bulk Modulus (GPa) = 52.40651 56.50679 54.45665
# Shear Modulus (GPa) = 20.91812 23.93146 22.42479
#
# Velocity S-wave (km/s) = 3.21580 3.43964 3.32960
# Velocity P-wave (km/s) = 6.30056 6.61138 6.45784
#
# Compressibility (1/GPa) = 0.01908160
#
# Stress axis : x y z
#
# Youngs Moduli (GPa) = 61.85039 66.01032 49.96295
#
# Poissons Ratio (x) = 0.40234 0.19332
# Poissons Ratio (y) = 0.37698 0.30782
# Poissons Ratio (z) = 0.23931 0.40669
#
# Static dielectric constant tensor:
#      x y z
#    x 3.725250 0.000000 0.190560 
#    y 0.000000 3.924530 0.000000 
#    z 0.190560 0.000000 3.606000 
# 
# 
# High freq. dielectric constant tensor:
#      x y z
#    x 1.796820 0.000000 0.017580 
#    y 0.000000 1.802350 0.000000 
#    z 0.017580 0.000000 1.775110 
# 
# From -- ./inp_files/170066.got.cif
#   From: 2010.06.25/outbox.cif.g09.slc.cpg/sg15_86_cif.got.tgz:170066.got - 2010.06.28 07:06:18.
