data_PCOD8139488
_publ_section_title
;
Structure prediction by ZEFSAII (Michael W. Deem and Ramdas Pophale) SiO2 
 PCOD8139488
Probable space group: C 2/C
;
_chemical_formula_sum "Si O2"
_cell_formula_units_Z 52
_cell_length_a 10.865927
_cell_length_b 12.048856
_cell_length_c 21.526978
_cell_angle_alpha 90.000000
_cell_angle_beta 63.203141
_cell_angle_gamma 90.000000
_cell_volume 2515.693178
_symmetry_space_group_name_H-M "C 2/C"
_symmetry_group_IT_number 15
_symmetry_cell_setting 'monoclinic'
loop_
_space_group_symop_operation_xyz
x,y,z
-x,y,1/2-z
-x,-y,-z
x,-y,1/2+z
1/2+x,1/2+y,z
1/2-x,1/2+y,1/2-z
1/2-x,1/2-y,-z
1/2+x,1/2-y,1/2+z
loop_
_atom_site_type_symbol
_atom_site_label
_atom_site_fract_x
_atom_site_fract_y
_atom_site_fract_z
Si Si1 0.575553 0.403584 0.338560
Si Si2 0.276203 0.218433 0.130399
Si Si3 0.500000 0.768728 0.750000
Si Si4 0.596165 0.464360 0.534660
Si Si5 0.511563 0.745430 0.121445
Si Si6 0.239786 0.122075 0.269526
Si Si7 0.896717 0.418200 0.490200
O O1 0.654069 0.337774 0.374849
O O2 0.520846 0.313910 0.302551
O O3 0.440661 0.462163 0.396614
O O4 0.679243 0.497999 0.288564
O O5 0.116422 0.241741 0.154801
O O6 0.286288 0.137957 0.187643
O O7 0.345597 0.166906 0.054002
O O8 0.629338 0.853377 0.715603
O O9 0.500000 0.500000 0.500000
O O10 0.555266 0.338661 0.557282
O O11 0.761932 0.476164 0.488633
O O12 0.365118 0.718301 0.185069
O O13 0.515283 0.863306 0.085539
O O14 0.000000 0.500000 0.500000
#
# Coordination Sequence:
#
# PCOD8139488 Si02
#       7
#     8   8   4   8   8   8   8
#     4  10  22  39  67  86 127 174 205 276 336 384
#     4  10  21  43  62  93 126 167 216 264 319 408
#     4  10  24  42  60  98 134 158 226 278 316 408
#     4  10  20  39  63  87 120 167 212 256 328 395
#     4  10  21  39  64  86 124 161 218 256 320 399
#     4  10  23  41  65  94 126 170 216 268 337 387
#     4  11  24  38  62  97 128 166 213 275 320 395
#
# _framework density 20.670248000000001
#
# number of rings (size 3 to 8) (size 9 to 14) (size 15 to 20)
#    0.000    1.846    0.000    4.154    8.615    1.231 
#   22.154    1.538    0.000    0.000    0.000    0.000 
#    0.000    0.000    0.000    0.000    0.000    0.000 
#
# Total GULP energy -322248.766371 kJ/mol
# GULP energy per Si atom -12394.183322 kJ/mol
# Density = 2.062320 g / cm^3
# Si number density = 20.670248 Si / 1000 Ang^3
#
#
#
# Elastic Constant Matrix: (Units=GPa)
#
#
# Indices 1 2 3 4 5 6 
#
# 1 132.3967 24.4053 16.0983 0.0000 11.2203 0.0000
# 2 24.4053 58.1503 8.2903 0.0000 15.3751 0.0000
# 3 16.0983 8.2903 53.9966 0.0000 3.7890 0.0000
# 4 0.0000 0.0000 0.0000 22.0649 0.0000 3.3459
# 5 11.2203 15.3751 3.7890 0.0000 26.5694 0.0000
# 6 0.0000 0.0000 0.0000 3.3459 0.0000 34.4069
#
#
#
# Elastic Compliance Matrix: (Units=1/GPa)
#
#
# Indices 1 2 3 4 5 6 
#
# 1 0.008454 -0.002831 -0.001970 0.000000 -0.001651 0.000000
# 2 -0.002831 0.021542 -0.001690 0.000000 -0.011030 0.000000
# 3 -0.001970 -0.001690 0.019434 0.000000 -0.000962 0.000000
# 4 0.000000 0.000000 0.000000 0.045999 0.000000 -0.004473
# 5 -0.001651 -0.011030 -0.000962 0.000000 0.044854 0.000000
# 6 0.000000 0.000000 0.000000 -0.004473 0.000000 0.029499
#
#
# Mechanical properties :
#
#
# Convention : Reuss Voigt Hill
#
# Bulk Modulus (GPa) = 27.43516 38.01459 32.72488
# Shear Modulus (GPa) = 25.65244 29.65821 27.65532
#
# Velocity S-wave (km/s) = 3.52665 3.79202 3.66174
# Velocity P-wave (km/s) = 5.46668 6.13216 5.80896
#
# Compressibility (1/GPa) = 0.03644957
#
# Stress axis : x y z
#
# Youngs Moduli (GPa) = 118.28231 46.42096 51.45649
#
# Poissons Ratio (x) = 0.13141 0.10137
# Poissons Ratio (y) = 0.33483 0.08694
# Poissons Ratio (z) = 0.23302 0.07843
#
# Static dielectric constant tensor:
#      x y z
#    x 4.133200 0.000000 -0.040670 
#    y 0.000000 3.866830 0.000000 
#    z -0.040670 0.000000 3.656590 
# 
# 
# High freq. dielectric constant tensor:
#      x y z
#    x 1.819680 0.000000 0.006140 
#    y 0.000000 1.805740 0.000000 
#    z 0.006140 0.000000 1.807060 
# 
# From -- ./inp_files/237489.got.cif
#   From: 2010.06.25/outbox.cif.g09.slc.cpg/sg15_119_cif.got.tgz:237489.got - 2010.06.28 07:06:18.
