data_PCOD8139312
_publ_section_title
;
Structure prediction by ZEFSAII (Michael W. Deem and Ramdas Pophale) SiO2 
 PCOD8139312
Probable space group: C 2/C
;
_chemical_formula_sum "Si O2"
_cell_formula_units_Z 48
_cell_length_a 19.415645
_cell_length_b 29.786570
_cell_length_c 9.260899
_cell_angle_alpha 90.000000
_cell_angle_beta 152.262299
_cell_angle_gamma 90.000000
_cell_volume 2492.727153
_symmetry_space_group_name_H-M "C 2/C"
_symmetry_group_IT_number 15
_symmetry_cell_setting 'monoclinic'
loop_
_space_group_symop_operation_xyz
x,y,z
-x,y,1/2-z
-x,-y,-z
x,-y,1/2+z
1/2+x,1/2+y,z
1/2-x,1/2+y,1/2-z
1/2-x,1/2-y,-z
1/2+x,1/2-y,1/2+z
loop_
_atom_site_type_symbol
_atom_site_label
_atom_site_fract_x
_atom_site_fract_y
_atom_site_fract_z
Si Si1 0.090908 0.055221 0.790217
Si Si2 0.383761 0.456838 0.649226
Si Si3 0.320253 0.122909 0.079445
Si Si4 0.324385 0.212241 0.238870
Si Si5 0.338390 0.879022 0.279435
Si Si6 0.829177 0.707990 0.582394
O O1 0.000000 0.080451 0.750000
O O2 0.958312 0.042346 0.440993
O O3 0.162650 0.008001 0.979857
O O4 0.217862 0.082926 0.946008
O O5 0.500000 0.436335 0.750000
O O6 0.240327 0.425872 0.398221
O O7 0.266504 0.166415 0.063649
O O8 0.489482 0.111258 0.430053
O O9 0.303379 0.134070 0.879290
O O10 0.279513 0.210000 0.323341
O O11 0.500336 0.216156 0.563719
O O12 0.250000 0.250000 0.000000
O O13 0.280080 0.839118 0.065870
O O14 0.750000 0.750000 0.500000
#
# Coordination Sequence:
#
# PCOD8139312 Si02
#       6
#     8   8   8   8   8   8
#     4  10  22  37  59  86 120 154 196 244 293 345
#     4  10  20  39  59  85 118 157 197 241 289 348
#     4  10  21  39  59  86 118 154 196 241 292 348
#     4  10  22  40  60  86 119 151 192 243 291 348
#     4  10  21  38  62  84 116 157 196 241 290 349
#     4  10  22  40  60  86 117 153 194 238 292 349
#
# _framework density 19.256018999999998
#
# number of rings (size 3 to 8) (size 9 to 14) (size 15 to 20)
#    0.000    2.000    1.667    1.000    2.333    4.000 
#    3.000    0.000    0.000    0.000    0.000    0.000 
#    0.000    0.000    0.000    0.000    0.000    0.000 
#
# Total GULP energy -297395.972549 kJ/mol
# GULP energy per Si atom -12391.498856 kJ/mol
# Density = 1.921219 g / cm^3
# Si number density = 19.256019 Si / 1000 Ang^3
#
#
#
# Elastic Constant Matrix: (Units=GPa)
#
#
# Indices 1 2 3 4 5 6 
#
# 1 135.8021 60.4781 38.4998 0.0000 -7.1101 0.0000
# 2 60.4781 123.7357 53.3123 0.0000 0.3976 0.0000
# 3 38.4998 53.3123 66.2918 0.0000 -13.3409 0.0000
# 4 0.0000 0.0000 0.0000 23.7941 0.0000 1.8039
# 5 -7.1101 0.3976 -13.3409 0.0000 28.5411 0.0000
# 6 0.0000 0.0000 0.0000 1.8039 0.0000 38.5829
#
#
#
# Elastic Compliance Matrix: (Units=1/GPa)
#
#
# Indices 1 2 3 4 5 6 
#
# 1 0.009786 -0.003762 -0.002381 0.000000 0.001377 0.000000
# 2 -0.003762 0.014591 -0.010795 0.000000 -0.006186 0.000000
# 3 -0.002381 -0.010795 0.027662 0.000000 0.012487 0.000000
# 4 0.000000 0.000000 0.000000 0.042177 0.000000 -0.001972
# 5 0.001377 -0.006186 0.012487 0.000000 0.041303 0.000000
# 6 0.000000 0.000000 0.000000 -0.001972 0.000000 0.026010
#
#
# Mechanical properties :
#
#
# Convention : Reuss Voigt Hill
#
# Bulk Modulus (GPa) = 55.05303 70.04555 62.54929
# Shear Modulus (GPa) = 24.81904 29.75292 27.28598
#
# Velocity S-wave (km/s) = 3.59402 3.93507 3.76840
# Velocity P-wave (km/s) = 6.77309 7.55654 7.17551
#
# Compressibility (1/GPa) = 0.01816430
#
# Stress axis : x y z
#
# Youngs Moduli (GPa) = 102.18689 68.53507 36.15113
#
# Poissons Ratio (x) = 0.25780 0.08608
# Poissons Ratio (y) = 0.38439 0.39023
# Poissons Ratio (z) = 0.24331 0.73980
#
# Static dielectric constant tensor:
#      x y z
#    x 3.792480 0.000000 -0.156300 
#    y 0.000000 3.612060 0.000000 
#    z -0.156300 0.000000 3.592520 
# 
# 
# High freq. dielectric constant tensor:
#      x y z
#    x 1.766410 0.000000 -0.010780 
#    y 0.000000 1.750870 0.000000 
#    z -0.010780 0.000000 1.738780 
# 
# From -- ./inp_files/26133.got.cif
#   From: 2010.06.25/outbox.cif.g09.slc.cpg/sg15_14_cif.got.tgz:26133.got - 2010.06.28 07:06:18.
