data_PCOD8139585
_publ_section_title
;
Structure prediction by ZEFSAII (Michael W. Deem and Ramdas Pophale) SiO2 
 PCOD8139585
Probable space group: C 2/C
;
_chemical_formula_sum "Si O2"
_cell_formula_units_Z 64
_cell_length_a 13.595431
_cell_length_b 19.459826
_cell_length_c 11.086495
_cell_angle_alpha 90.000000
_cell_angle_beta 92.508962
_cell_angle_gamma 90.000000
_cell_volume 2930.283759
_symmetry_space_group_name_H-M "C 2/C"
_symmetry_group_IT_number 15
_symmetry_cell_setting 'monoclinic'
loop_
_space_group_symop_operation_xyz
x,y,z
-x,y,1/2-z
-x,-y,-z
x,-y,1/2+z
1/2+x,1/2+y,z
1/2-x,1/2+y,1/2-z
1/2-x,1/2-y,-z
1/2+x,1/2-y,1/2+z
loop_
_atom_site_type_symbol
_atom_site_label
_atom_site_fract_x
_atom_site_fract_y
_atom_site_fract_z
Si Si1 0.689517 0.606468 0.645505
Si Si2 0.394540 0.035214 0.299899
Si Si3 0.170948 0.344143 0.551859
Si Si4 0.645371 0.762838 0.053247
Si Si5 0.293361 0.547950 0.368388
Si Si6 0.792475 0.405469 0.397900
Si Si7 0.356399 0.329213 0.722294
Si Si8 0.447209 0.292564 0.491620
O O1 0.779973 0.620108 0.560736
O O2 0.656689 0.527048 0.628808
O O3 0.726397 0.619886 0.782377
O O4 0.595774 0.654914 0.610129
O O5 0.500000 0.019528 0.250000
O O6 0.401096 0.101590 0.386806
O O7 0.317437 0.046052 0.188354
O O8 0.360284 0.970727 0.376937
O O9 0.253369 0.319833 0.649105
O O10 0.113751 0.277448 0.506014
O O11 0.632515 0.844997 0.059371
O O12 0.637554 0.734227 0.187321
O O13 0.559966 0.727425 0.967387
O O14 0.750000 0.750000 0.000000
O O15 0.287040 0.577840 0.502565
O O16 0.361309 0.597650 0.290946
O O17 0.443001 0.326258 0.626247
#
# Coordination Sequence:
#
# PCOD8139585 Si02
#       8
#     8   8   8   8   8   8   8   8
#     4  10  21  41  66  99 129 179 230 272 337 409
#     4  10  23  36  61  99 136 180 231 277 339 425
#     4  10  20  39  64  94 134 176 220 279 335 410
#     4  12  25  41  65  96 133 174 220 285 348 406
#     4  10  21  39  66  93 134 186 216 284 353 392
#     4  11  22  41  64  93 138 182 217 277 353 405
#     4  10  21  42  65  93 131 177 223 271 343 399
#     4  11  24  40  69  99 129 174 231 281 332 413
#
# _framework density 21.840888
#
# number of rings (size 3 to 8) (size 9 to 14) (size 15 to 20)
#    0.000    1.500    2.500    3.375    3.500    3.500 
#    0.000    2.500    0.000    0.000    0.000    0.000 
#    0.000    0.000    0.000    0.000    0.000    0.000 
#
# Total GULP energy -396869.483878 kJ/mol
# GULP energy per Si atom -12402.171371 kJ/mol
# Density = 2.179118 g / cm^3
# Si number density = 21.840888 Si / 1000 Ang^3
#
#
#
# Elastic Constant Matrix: (Units=GPa)
#
#
# Indices 1 2 3 4 5 6 
#
# 1 98.9206 44.7847 33.5294 0.0000 -10.4046 0.0000
# 2 44.7847 149.4384 41.5311 0.0000 1.5926 0.0000
# 3 33.5294 41.5311 89.0720 0.0000 3.6764 0.0000
# 4 0.0000 0.0000 0.0000 40.8542 0.0000 1.2820
# 5 -10.4046 1.5926 3.6764 0.0000 13.3757 0.0000
# 6 0.0000 0.0000 0.0000 1.2820 0.0000 23.2503
#
#
#
# Elastic Compliance Matrix: (Units=1/GPa)
#
#
# Indices 1 2 3 4 5 6 
#
# 1 0.014429 -0.003222 -0.004459 0.000000 0.012833 0.000000
# 2 -0.003222 0.008407 -0.002592 0.000000 -0.002795 0.000000
# 3 -0.004459 -0.002592 0.014408 0.000000 -0.007120 0.000000
# 4 0.000000 0.000000 0.000000 0.024520 0.000000 -0.001352
# 5 0.012833 -0.002795 -0.007120 0.000000 0.087035 0.000000
# 6 0.000000 0.000000 0.000000 -0.001352 0.000000 0.043085
#
#
# Mechanical properties :
#
#
# Convention : Reuss Voigt Hill
#
# Bulk Modulus (GPa) = 59.88475 64.12460 62.00467
# Shear Modulus (GPa) = 22.93632 30.00174 26.46903
#
# Velocity S-wave (km/s) = 3.24413 3.71030 3.48502
# Velocity P-wave (km/s) = 6.44287 6.91222 6.68167
#
# Compressibility (1/GPa) = 0.01669874
#
# Stress axis : x y z
#
# Youngs Moduli (GPa) = 69.30545 118.94365 69.40696
#
# Poissons Ratio (x) = 0.38320 0.30948
# Poissons Ratio (y) = 0.22328 0.17990
# Poissons Ratio (z) = 0.30903 0.30830
#
# Static dielectric constant tensor:
#      x y z
#    x 3.735000 0.000000 0.042870 
#    y 0.000000 4.463310 0.000000 
#    z 0.042870 0.000000 4.103220 
# 
# 
# High freq. dielectric constant tensor:
#      x y z
#    x 1.832530 0.000000 0.002500 
#    y 0.000000 1.877260 0.000000 
#    z 0.002500 0.000000 1.865800 
# 
# From -- ./inp_files/98774.got.cif
#   From: 2010.06.25/outbox.cif.g09.slc.cpg/sg15_50_cif.got.tgz:98774.got - 2010.06.28 07:06:18.
