data_PCOD8139981
_publ_section_title
;
Structure prediction by ZEFSAII (Michael W. Deem and Ramdas Pophale) SiO2 
 PCOD8139981
Probable space group: C 2/C
;
_chemical_formula_sum "Si O2"
_cell_formula_units_Z 60
_cell_length_a 23.714321
_cell_length_b 7.299662
_cell_length_c 20.330015
_cell_angle_alpha 90.000000
_cell_angle_beta 124.827010
_cell_angle_gamma 90.000000
_cell_volume 2888.889027
_symmetry_space_group_name_H-M "C 2/C"
_symmetry_group_IT_number 15
_symmetry_cell_setting 'monoclinic'
loop_
_space_group_symop_operation_xyz
x,y,z
-x,y,1/2-z
-x,-y,-z
x,-y,1/2+z
1/2+x,1/2+y,z
1/2-x,1/2+y,1/2-z
1/2-x,1/2-y,-z
1/2+x,1/2-y,1/2+z
loop_
_atom_site_type_symbol
_atom_site_label
_atom_site_fract_x
_atom_site_fract_y
_atom_site_fract_z
Si Si1 0.147876 0.273356 0.970543
Si Si2 0.644290 0.588198 0.548237
Si Si3 0.500000 0.451243 0.750000
Si Si4 0.140630 0.893027 0.325157
Si Si5 0.260168 0.122794 0.444873
Si Si6 0.104248 0.102330 0.663416
Si Si7 0.503725 0.918401 0.929778
Si Si8 0.993228 0.196804 0.113393
O O1 0.146693 0.248062 0.890173
O O2 0.076103 0.330401 0.955785
O O3 0.205196 0.426207 0.019032
O O4 0.170418 0.084213 0.021723
O O5 0.693317 0.763511 0.573839
O O6 0.648695 0.549735 0.628794
O O7 0.566510 0.642126 0.477135
O O8 0.440190 0.575265 0.738687
O O9 0.534701 0.335245 0.831467
O O10 0.155034 0.835510 0.258169
O O11 0.184937 0.076604 0.366598
O O12 0.250000 0.250000 0.500000
O O13 0.054189 0.268885 0.614981
O O14 0.061889 0.916227 0.646634
O O15 0.488013 0.089909 0.873051
O O16 0.500000 0.000000 0.000000
#
# Coordination Sequence:
#
# PCOD8139981 Si02
#       8
#     8   8   4   8   8   8   8   8
#     4  12  23  41  72  95 126 178 227 266 334 401
#     4  12  22  43  69  93 131 180 219 274 330 399
#     4  10  20  40  64  92 128 158 206 274 332 382
#     4  11  24  44  65  99 129 173 216 280 337 396
#     4  12  25  45  68  95 129 172 235 274 324 410
#     4  11  24  43  64  98 144 167 214 286 336 395
#     4  12  22  37  67 103 130 170 223 265 330 409
#     4  11  20  37  65  96 131 167 216 264 336 388
#
# _framework density 20.769231000000001
#
# number of rings (size 3 to 8) (size 9 to 14) (size 15 to 20)
#    0.000    0.533    6.667    2.400    0.000    1.067 
#    4.800    0.000    0.000    0.000    0.000    0.000 
#    0.000    0.000    0.000    0.000    0.000    0.000 
#
# Total GULP energy -371712.580077 kJ/mol
# GULP energy per Si atom -12390.419336 kJ/mol
# Density = 2.072196 g / cm^3
# Si number density = 20.769231 Si / 1000 Ang^3
#
#
#
# Elastic Constant Matrix: (Units=GPa)
#
#
# Indices 1 2 3 4 5 6 
#
# 1 68.9047 16.7418 46.7563 0.0000 -4.7407 0.0000
# 2 16.7418 108.7359 31.3403 0.0003 7.1146 -0.0001
# 3 46.7563 31.3403 121.5036 0.0000 -26.9298 0.0000
# 4 0.0000 0.0003 0.0000 20.6169 0.0000 1.9674
# 5 -4.7407 7.1146 -26.9298 0.0000 35.3060 0.0000
# 6 0.0000 -0.0001 0.0000 1.9674 0.0000 42.8077
#
#
#
# Elastic Compliance Matrix: (Units=1/GPa)
#
#
# Indices 1 2 3 4 5 6 
#
# 1 0.020083 -0.000425 -0.008427 0.000000 -0.003645 0.000000
# 2 -0.000425 0.010657 -0.003699 0.000000 -0.005026 0.000000
# 3 -0.008427 -0.003699 0.014852 0.000000 0.010943 0.000000
# 4 0.000000 0.000000 0.000000 0.048718 0.000000 -0.002239
# 5 -0.003645 -0.005026 0.010943 0.000000 0.037194 0.000000
# 6 0.000000 0.000000 0.000000 -0.002239 0.000000 0.023463
#
#
# Mechanical properties :
#
#
# Convention : Reuss Voigt Hill
#
# Bulk Modulus (GPa) = 48.80194 54.31344 51.55769
# Shear Modulus (GPa) = 26.75234 33.36651 30.05942
#
# Velocity S-wave (km/s) = 3.59287 4.01251 3.80847
# Velocity P-wave (km/s) = 6.38435 6.90468 6.64961
#
# Compressibility (1/GPa) = 0.02049099
#
# Stress axis : x y z
#
# Youngs Moduli (GPa) = 49.79276 93.83371 67.32902
#
# Poissons Ratio (x) = 0.03987 0.56736
# Poissons Ratio (y) = 0.02116 0.24908
# Poissons Ratio (z) = 0.41958 0.34713
#
# Static dielectric constant tensor:
#      x y z
#    x 4.209380 0.000000 -0.391020 
#    y 0.000000 4.070110 0.000000 
#    z -0.391020 0.000000 4.254480 
# 
# 
# High freq. dielectric constant tensor:
#      x y z
#    x 1.819590 0.000000 -0.021210 
#    y 0.000000 1.812610 0.000000 
#    z -0.021210 0.000000 1.811010 
# 
# From -- ./inp_files/256792.got.cif
#   From: 2010.06.25/outbox.cif.g09.slc.cpg/sg15_129_cif.got.tgz:256792.got - 2010.06.28 07:06:18.
