data_PCOD8139416
_publ_section_title
;
Structure prediction by ZEFSAII (Michael W. Deem and Ramdas Pophale) SiO2 
 PCOD8139416
Probable space group: C 2/C
;
_chemical_formula_sum "Si O2"
_cell_formula_units_Z 48
_cell_length_a 15.374341
_cell_length_b 18.206709
_cell_length_c 17.814727
_cell_angle_alpha 90.000000
_cell_angle_beta 27.312943
_cell_angle_gamma 90.000000
_cell_volume 2288.116497
_symmetry_space_group_name_H-M "C 2/C"
_symmetry_group_IT_number 15
_symmetry_cell_setting 'monoclinic'
loop_
_space_group_symop_operation_xyz
x,y,z
-x,y,1/2-z
-x,-y,-z
x,-y,1/2+z
1/2+x,1/2+y,z
1/2-x,1/2+y,1/2-z
1/2-x,1/2-y,-z
1/2+x,1/2-y,1/2+z
loop_
_atom_site_type_symbol
_atom_site_label
_atom_site_fract_x
_atom_site_fract_y
_atom_site_fract_z
Si Si1 0.684041 0.571016 0.658738
Si Si2 0.566422 0.209411 0.619075
Si Si3 0.977392 0.344108 0.575031
Si Si4 0.927267 0.797458 0.592532
Si Si5 0.059507 0.434226 0.037584
Si Si6 0.865177 0.934739 0.128447
O O1 0.500000 0.582414 0.750000
O O2 0.841039 0.632716 0.513654
O O3 0.776392 0.492014 0.571339
O O4 0.619083 0.580673 0.794901
O O5 0.500000 0.179861 0.750000
O O6 0.750000 0.250000 0.500000
O O7 0.432568 0.266976 0.674718
O O8 0.625518 0.141013 0.523856
O O9 0.033529 0.270430 0.490410
O O10 0.779391 0.331025 0.769287
O O11 0.953908 0.417397 0.541131
O O12 0.083203 0.860374 0.456805
O O13 0.850499 0.456461 0.228256
O O14 0.000000 0.000000 0.000000
#
# Coordination Sequence:
#
# PCOD8139416 Si02
#       6
#     8   8   8   8   8   8
#     4  11  24  41  60  88 121 158 208 267 309 345
#     4  11  22  35  57  93 128 155 190 240 302 365
#     4  10  20  39  62  85 117 160 205 247 302 371
#     4  11  21  39  64  89 121 165 207 247 300 377
#     4  10  21  38  58  85 123 162 197 240 303 377
#     4  11  22  40  63  88 117 162 207 245 304 379
#
# _framework density 20.977951999999998
#
# number of rings (size 3 to 8) (size 9 to 14) (size 15 to 20)
#    0.000    1.333    0.000   10.000    0.000    4.667 
#    0.000    5.833    0.000    0.000    0.000    0.000 
#    0.000    0.000    0.000    0.000    0.000    0.000 
#
# Total GULP energy -297452.503052 kJ/mol
# GULP energy per Si atom -12393.854294 kJ/mol
# Density = 2.093020 g / cm^3
# Si number density = 20.977952 Si / 1000 Ang^3
#
#
#
# Elastic Constant Matrix: (Units=GPa)
#
#
# Indices 1 2 3 4 5 6 
#
# 1 88.8937 26.5191 27.4221 -0.0073 -19.6832 0.0051
# 2 26.5191 94.9149 26.8074 -0.0106 -11.7020 -0.0037
# 3 27.4221 26.8074 98.1645 -0.0895 -17.4406 0.0182
# 4 -0.0073 -0.0106 -0.0895 46.9147 0.0004 -11.2746
# 5 -19.6832 -11.7020 -17.4406 0.0004 38.4297 0.0042
# 6 0.0051 -0.0037 0.0182 -11.2746 0.0042 16.7591
#
#
#
# Elastic Compliance Matrix: (Units=1/GPa)
#
#
# Indices 1 2 3 4 5 6 
#
# 1 0.013887 -0.002596 -0.002227 -0.000004 0.005312 -0.000007
# 2 -0.002596 0.012082 -0.002346 -0.000001 0.001285 0.000005
# 3 -0.002227 -0.002346 0.012095 0.000022 0.003634 0.000001
# 4 -0.000004 -0.000001 0.000022 0.025426 0.000006 0.017105
# 5 0.005312 0.001285 0.003634 0.000006 0.030783 -0.000009
# 6 -0.000007 0.000005 0.000001 0.017105 -0.000009 0.071177
#
#
# Mechanical properties :
#
#
# Convention : Reuss Voigt Hill
#
# Bulk Modulus (GPa) = 42.14646 49.27448 45.71047
# Shear Modulus (GPa) = 26.63878 33.83567 30.23722
#
# Velocity S-wave (km/s) = 3.56736 4.02047 3.80067
# Velocity P-wave (km/s) = 6.09118 6.71505 6.41071
#
# Compressibility (1/GPa) = 0.02372678
#
# Stress axis : x y z
#
# Youngs Moduli (GPa) = 72.01034 82.76706 82.67623
#
# Poissons Ratio (x) = 0.21488 0.18409
# Poissons Ratio (y) = 0.18696 0.19396
# Poissons Ratio (z) = 0.16034 0.19417
#
# Static dielectric constant tensor:
#      x y z
#    x 3.693080 -0.000190 -0.163010 
#    y -0.000190 3.510220 -0.001400 
#    z -0.163010 -0.001400 3.993340 
# 
# 
# High freq. dielectric constant tensor:
#      x y z
#    x 1.788020 -0.000010 -0.014950 
#    y -0.000010 1.836270 0.000020 
#    z -0.014950 0.000020 1.836340 
# 
# From -- ./inp_files/56428.got.cif
#   From: 2010.06.25/outbox.cif.g09.slc.cpg/sg15_29_cif.got.tgz:56428.got - 2010.06.28 07:06:18.
