data_PCOD8139371
_publ_section_title
;
Structure prediction by ZEFSAII (Michael W. Deem and Ramdas Pophale) SiO2 
 PCOD8139371
Probable space group: C 2/C
;
_chemical_formula_sum "Si O2"
_cell_formula_units_Z 64
_cell_length_a 8.833196
_cell_length_b 14.766210
_cell_length_c 26.238545
_cell_angle_alpha 90.000000
_cell_angle_beta 108.998600
_cell_angle_gamma 90.000000
_cell_volume 3235.939366
_symmetry_space_group_name_H-M "C 2/C"
_symmetry_group_IT_number 15
_symmetry_cell_setting 'monoclinic'
loop_
_space_group_symop_operation_xyz
x,y,z
-x,y,1/2-z
-x,-y,-z
x,-y,1/2+z
1/2+x,1/2+y,z
1/2-x,1/2+y,1/2-z
1/2-x,1/2-y,-z
1/2+x,1/2-y,1/2+z
loop_
_atom_site_type_symbol
_atom_site_label
_atom_site_fract_x
_atom_site_fract_y
_atom_site_fract_z
Si Si1 0.664247 0.963260 0.039612
Si Si2 0.223917 0.181839 0.605612
Si Si3 0.774020 0.115344 0.125541
Si Si4 0.949893 0.100073 0.504434
Si Si5 0.407292 0.836368 0.376767
Si Si6 0.289211 0.982452 0.179672
Si Si7 0.399490 0.641498 0.385596
Si Si8 0.159425 0.489866 0.202421
O O1 0.774893 0.911306 0.010677
O O2 0.636328 0.885815 0.076811
O O3 0.739679 0.052607 0.072976
O O4 0.500000 0.000000 0.000000
O O5 0.186311 0.286655 0.615153
O O6 0.399407 0.172907 0.599930
O O7 0.228455 0.116862 0.655826
O O8 0.080360 0.150803 0.553295
O O9 0.962154 0.131147 0.141484
O O10 0.728030 0.067512 0.173319
O O11 0.947604 0.150757 0.450139
O O12 0.000000 0.000000 0.500000
O O13 0.320890 0.738780 0.364477
O O14 0.329969 0.890661 0.321313
O O15 0.474144 0.003816 0.193134
O O16 0.241231 0.992343 0.233863
O O17 0.215092 0.057055 0.134412
#
# Coordination Sequence:
#
# PCOD8139371 Si02
#       8
#     8   8   8   8   8   8   8   8
#     4  11  23  37  56  82 118 159 193 234 287 340
#     4  10  21  38  61  84 118 154 193 237 287 351
#     4  10  22  38  58  88 115 150 197 237 287 348
#     4  12  22  37  57  86 122 155 193 235 289 347
#     4   9  22  39  57  86 116 150 196 239 285 348
#     4  10  20  39  61  84 110 154 192 237 298 339
#     4  11  23  37  60  88 117 152 195 239 288 349
#     4   9  21  40  61  81 115 148 192 245 290 346
#
# _framework density 19.777874000000001
#
# number of rings (size 3 to 8) (size 9 to 14) (size 15 to 20)
#    0.000    1.750    2.500    0.750    5.250    4.000 
#    0.000    2.500    0.000    0.000    0.000    0.000 
#    0.000    0.000    0.000    0.000    0.000    0.000 
#
# Total GULP energy -396528.828456 kJ/mol
# GULP energy per Si atom -12391.525889 kJ/mol
# Density = 1.973286 g / cm^3
# Si number density = 19.777874 Si / 1000 Ang^3
#
#
#
# Elastic Constant Matrix: (Units=GPa)
#
#
# Indices 1 2 3 4 5 6 
#
# 1 55.8868 32.6491 35.3139 0.0000 -17.4709 0.0000
# 2 32.6491 157.9058 45.3331 0.0000 -9.3905 0.0000
# 3 35.3139 45.3331 112.8094 0.0000 -15.7433 0.0000
# 4 0.0000 0.0000 0.0000 10.2877 0.0000 2.6213
# 5 -17.4709 -9.3905 -15.7433 0.0000 27.3778 0.0000
# 6 0.0000 0.0000 0.0000 2.6213 0.0000 22.8508
#
#
#
# Elastic Compliance Matrix: (Units=1/GPa)
#
#
# Indices 1 2 3 4 5 6 
#
# 1 0.027377 -0.003327 -0.005386 0.000000 0.013232 0.000000
# 2 -0.003327 0.007582 -0.002108 0.000000 -0.000735 0.000000
# 3 -0.005386 -0.002108 0.011761 0.000000 0.002603 0.000000
# 4 0.000000 0.000000 0.000000 0.100130 0.000000 -0.011486
# 5 0.013232 -0.000735 0.002603 0.000000 0.046214 0.000000
# 6 0.000000 0.000000 0.000000 -0.011486 0.000000 0.045080
#
#
# Mechanical properties :
#
#
# Convention : Reuss Voigt Hill
#
# Bulk Modulus (GPa) = 39.87709 61.46600 50.67155
# Shear Modulus (GPa) = 18.64648 26.32366 22.48507
#
# Velocity S-wave (km/s) = 3.07383 3.65220 3.37542
# Velocity P-wave (km/s) = 5.72749 6.99502 6.39275
#
# Compressibility (1/GPa) = 0.02507706
#
# Stress axis : x y z
#
# Youngs Moduli (GPa) = 36.52677 131.88555 85.02671
#
# Poissons Ratio (x) = 0.43882 0.45799
# Poissons Ratio (y) = 0.12154 0.17923
# Poissons Ratio (z) = 0.19675 0.27801
#
# Static dielectric constant tensor:
#      x y z
#    x 3.359420 0.000000 -0.062540 
#    y 0.000000 3.823530 0.000000 
#    z -0.062540 0.000000 3.062370 
# 
# 
# High freq. dielectric constant tensor:
#      x y z
#    x 1.765210 0.000000 -0.011400 
#    y 0.000000 1.787160 0.000000 
#    z -0.011400 0.000000 1.766430 
# 
# From -- ./inp_files/288820.got.cif
#   From: 2010.06.25/outbox.cif.g09.slc.cpg/sg15_145_cif.got.tgz:288820.got - 2010.06.28 07:06:18.
