data_PCOD8139233
_publ_section_title
;
Structure prediction by ZEFSAII (Michael W. Deem and Ramdas Pophale) SiO2 
 PCOD8139233
Probable space group: C 2/C
;
_chemical_formula_sum "Si O2"
_cell_formula_units_Z 64
_cell_length_a 14.794360
_cell_length_b 13.534185
_cell_length_c 17.460974
_cell_angle_alpha 90.000000
_cell_angle_beta 61.251875
_cell_angle_gamma 90.000000
_cell_volume 3065.270559
_symmetry_space_group_name_H-M "C 2/C"
_symmetry_group_IT_number 15
_symmetry_cell_setting 'monoclinic'
loop_
_space_group_symop_operation_xyz
x,y,z
-x,y,1/2-z
-x,-y,-z
x,-y,1/2+z
1/2+x,1/2+y,z
1/2-x,1/2+y,1/2-z
1/2-x,1/2-y,-z
1/2+x,1/2-y,1/2+z
loop_
_atom_site_type_symbol
_atom_site_label
_atom_site_fract_x
_atom_site_fract_y
_atom_site_fract_z
Si Si1 0.875304 0.571740 0.638185
Si Si2 0.893730 0.259082 0.009680
Si Si3 0.941705 0.900091 0.012075
Si Si4 0.291204 0.932681 0.554307
Si Si5 0.710794 0.890767 0.558959
Si Si6 0.426327 0.366179 0.844773
Si Si7 0.572718 0.850949 0.123045
Si Si8 0.722475 0.947401 0.169127
O O1 0.867369 0.674358 0.594632
O O2 0.868555 0.475542 0.586911
O O3 0.781841 0.559518 0.737026
O O4 0.983587 0.570155 0.639137
O O5 0.805403 0.180599 0.032816
O O6 0.888703 0.330758 0.935598
O O7 0.000332 0.199207 0.980019
O O8 0.831588 0.903730 0.098046
O O9 0.932630 0.912025 0.925236
O O10 0.000000 0.000000 0.000000
O O11 0.192294 0.880288 0.633894
O O12 0.350063 0.848934 0.481475
O O13 0.256625 0.022539 0.513171
O O14 0.694356 0.942807 0.648187
O O15 0.500000 0.415728 0.750000
O O16 0.469195 0.256350 0.841065
O O17 0.630862 0.878898 0.176480
#
# Coordination Sequence:
#
# PCOD8139233 Si02
#       8
#     8   8   8   8   8   8   8   8
#     4  11  23  39  65  95 123 167 218 267 308 389
#     4  10  20  38  68  89 121 168 217 246 320 386
#     4  12  23  41  66  96 125 169 208 263 323 388
#     4  10  22  40  64  92 123 167 213 260 317 386
#     4   9  19  40  64  86 124 172 202 255 315 386
#     4  12  24  38  63  96 128 163 207 267 324 379
#     4  11  22  43  60  87 127 171 207 259 326 380
#     4  11  23  40  63  93 135 161 210 271 324 377
#
# _framework density 20.879072000000001
#
# number of rings (size 3 to 8) (size 9 to 14) (size 15 to 20)
#    0.000    1.250    5.000    1.875    1.750    0.000 
#    0.000    0.000    5.500    0.000    0.000    0.000 
#    0.000    0.000    0.000    0.000    0.000    0.000 
#
# Total GULP energy -396431.075710 kJ/mol
# GULP energy per Si atom -12388.471116 kJ/mol
# Density = 2.083155 g / cm^3
# Si number density = 20.879072 Si / 1000 Ang^3
#
#
#
# Elastic Constant Matrix: (Units=GPa)
#
#
# Indices 1 2 3 4 5 6 
#
# 1 93.4598 21.6442 22.0550 0.0000 -0.3249 0.0000
# 2 21.6442 72.0516 21.5264 0.0000 6.5163 0.0000
# 3 22.0550 21.5264 108.9248 0.0000 -1.6329 0.0000
# 4 0.0000 0.0000 0.0000 13.5410 0.0000 -3.7201
# 5 -0.3249 6.5163 -1.6329 0.0000 21.6741 0.0000
# 6 0.0000 0.0000 0.0000 -3.7201 0.0000 38.6156
#
#
#
# Elastic Compliance Matrix: (Units=1/GPa)
#
#
# Indices 1 2 3 4 5 6 
#
# 1 0.011842 -0.003118 -0.001767 0.000000 0.000982 0.000000
# 2 -0.003118 0.016056 -0.002618 0.000000 -0.005071 0.000000
# 3 -0.001767 -0.002618 0.010079 0.000000 0.001520 0.000000
# 4 0.000000 0.000000 0.000000 0.075857 0.000000 0.007308
# 5 0.000982 -0.005071 0.001520 0.000000 0.047792 0.000000
# 6 0.000000 0.000000 0.000000 0.007308 0.000000 0.026600
#
#
# Mechanical properties :
#
#
# Convention : Reuss Voigt Hill
#
# Bulk Modulus (GPa) = 43.53258 44.98751 44.26004
# Shear Modulus (GPa) = 23.70907 28.71352 26.21130
#
# Velocity S-wave (km/s) = 3.37344 3.71243 3.54699
# Velocity P-wave (km/s) = 6.00571 6.32216 6.16596
#
# Compressibility (1/GPa) = 0.02297130
#
# Stress axis : x y z
#
# Youngs Moduli (GPa) = 84.44287 62.28026 99.22082
#
# Poissons Ratio (x) = 0.19421 0.17531
# Poissons Ratio (y) = 0.26332 0.25974
# Poissons Ratio (z) = 0.14920 0.16304
#
# Static dielectric constant tensor:
#      x y z
#    x 4.622160 0.000000 0.719720 
#    y 0.000000 4.005620 0.000000 
#    z 0.719720 0.000000 4.488380 
# 
# 
# High freq. dielectric constant tensor:
#      x y z
#    x 1.829470 0.000000 0.012680 
#    y 0.000000 1.817760 0.000000 
#    z 0.012680 0.000000 1.800770 
# 
# From -- ./inp_files/205394.got.cif
#   From: 2010.06.25/outbox.cif.g09.slc.cpg/sg15_103_cif.got.tgz:205394.got - 2010.06.28 07:06:18.
