data_PCOD8139541
_publ_section_title
;
Structure prediction by ZEFSAII (Michael W. Deem and Ramdas Pophale) SiO2 
 PCOD8139541
Probable space group: C 2/C
;
_chemical_formula_sum "Si O2"
_cell_formula_units_Z 64
_cell_length_a 20.477262
_cell_length_b 16.410097
_cell_length_c 24.969193
_cell_angle_alpha 90.000000
_cell_angle_beta 18.324499
_cell_angle_gamma 90.000000
_cell_volume 2637.957870
_symmetry_space_group_name_H-M "C 2/C"
_symmetry_group_IT_number 15
_symmetry_cell_setting 'monoclinic'
loop_
_space_group_symop_operation_xyz
x,y,z
-x,y,1/2-z
-x,-y,-z
x,-y,1/2+z
1/2+x,1/2+y,z
1/2-x,1/2+y,1/2-z
1/2-x,1/2-y,-z
1/2+x,1/2-y,1/2+z
loop_
_atom_site_type_symbol
_atom_site_label
_atom_site_fract_x
_atom_site_fract_y
_atom_site_fract_z
Si Si1 0.836358 0.864777 0.513489
Si Si2 0.681729 0.021610 0.575850
Si Si3 0.334590 0.357295 0.147670
Si Si4 0.636810 0.748798 0.737448
Si Si5 0.407389 0.699146 0.154275
Si Si6 0.054471 0.138247 0.265452
Si Si7 0.551583 0.031659 0.560236
Si Si8 0.990384 0.639781 0.066471
O O1 0.727410 0.944485 0.577580
O O2 0.659925 0.797780 0.664242
O O3 0.978968 0.878202 0.456206
O O4 0.969093 0.823424 0.362471
O O5 0.500000 0.070446 0.750000
O O6 0.593789 0.998144 0.586671
O O7 0.897286 0.066185 0.400695
O O8 0.194819 0.285440 0.281987
O O9 0.184771 0.435493 0.258616
O O10 0.417872 0.329268 0.024078
O O11 0.578983 0.818744 0.824237
O O12 0.851666 0.701708 0.585520
O O13 0.484489 0.703496 0.156425
O O14 0.222861 0.631830 0.301101
O O15 0.000000 0.178573 0.250000
O O16 0.287927 0.102511 0.081442
O O17 0.580928 0.951486 0.500658
#
# Coordination Sequence:
#
# PCOD8139541 Si02
#       8
#     8   8   8   8   8   8   8   8
#     4  11  21  40  67  97 142 179 228 283 343 414
#     4  11  24  45  65  93 139 184 231 281 345 412
#     4  12  24  43  71 107 140 180 233 290 349 408
#     4  10  20  39  63  98 136 175 223 284 335 412
#     4  12  23  42  72 100 138 179 226 290 345 412
#     4  10  25  47  67  99 136 183 232 285 348 420
#     4  11  26  43  67 101 140 181 234 289 343 418
#     4  11  21  39  65  98 137 173 227 283 346 398
#
# _framework density 24.261191
#
# number of rings (size 3 to 8) (size 9 to 14) (size 15 to 20)
#    0.000    1.000    3.750    3.000    3.500    1.000 
#    0.000   13.125    0.000    0.000    0.000    0.000 
#    0.000    0.000    0.000    0.000    0.000    0.000 
#
# Total GULP energy -396480.896158 kJ/mol
# GULP energy per Si atom -12390.028005 kJ/mol
# Density = 2.420597 g / cm^3
# Si number density = 24.261191 Si / 1000 Ang^3
#
#
#
# Elastic Constant Matrix: (Units=GPa)
#
#
# Indices 1 2 3 4 5 6 
#
# 1 92.1254 28.8897 11.8432 -0.0063 6.1382 0.0148
# 2 28.8897 49.1880 5.2185 0.0897 -0.5527 -0.0336
# 3 11.8432 5.2185 95.2963 0.2191 12.1321 -0.1021
# 4 -0.0063 0.0897 0.2191 28.7643 -0.0258 0.0500
# 5 6.1382 -0.5527 12.1321 -0.0258 28.0722 0.0050
# 6 0.0148 -0.0336 -0.1021 0.0500 0.0050 25.1129
#
#
#
# Elastic Compliance Matrix: (Units=1/GPa)
#
#
# Indices 1 2 3 4 5 6 
#
# 1 0.013648 -0.007950 -0.000911 0.000032 -0.002747 -0.000022
# 2 -0.007950 0.025104 -0.000710 -0.000072 0.002539 0.000035
# 3 -0.000911 -0.000710 0.011241 -0.000088 -0.004673 0.000046
# 4 0.000032 -0.000072 -0.000088 0.034766 0.000061 -0.000070
# 5 -0.002747 0.002539 -0.004673 0.000061 0.038293 -0.000022
# 6 -0.000022 0.000035 0.000046 -0.000070 -0.000022 0.039821
#
#
# Mechanical properties :
#
#
# Convention : Reuss Voigt Hill
#
# Bulk Modulus (GPa) = 32.41469 36.50140 34.45805
# Shear Modulus (GPa) = 26.00135 29.10043 27.55089
#
# Velocity S-wave (km/s) = 3.27727 3.46709 3.37351
# Velocity P-wave (km/s) = 5.26407 5.57722 5.42291
#
# Compressibility (1/GPa) = 0.03085021
#
# Stress axis : x y z
#
# Youngs Moduli (GPa) = 73.27047 39.83499 88.96131
#
# Poissons Ratio (x) = 0.31670 0.08106
# Poissons Ratio (y) = 0.58252 0.06314
# Poissons Ratio (z) = 0.06676 0.02827
#
# Static dielectric constant tensor:
#      x y z
#    x 4.578920 -0.000330 0.005790 
#    y -0.000330 4.034700 0.001160 
#    z 0.005790 0.001160 4.806710 
# 
# 
# High freq. dielectric constant tensor:
#      x y z
#    x 1.960570 -0.000030 0.008480 
#    y -0.000030 1.937760 0.000110 
#    z 0.008480 0.000110 1.988880 
# 
# From -- ./inp_files/280474.got.cif
#   From: 2010.06.25/outbox.cif.g09.slc.cpg/sg15_141_cif.got.tgz:280474.got - 2010.06.28 07:06:18.
