data_PCOD8139066
_publ_section_title
;
Structure prediction by ZEFSAII (Michael W. Deem and Ramdas Pophale) SiO2 
 PCOD8139066
Probable space group: C 2/C
;
_chemical_formula_sum "Si O2"
_cell_formula_units_Z 60
_cell_length_a 18.579313
_cell_length_b 14.449583
_cell_length_c 18.341207
_cell_angle_alpha 90.000000
_cell_angle_beta 142.369166
_cell_angle_gamma 90.000000
_cell_volume 3006.418053
_symmetry_space_group_name_H-M "C 2/C"
_symmetry_group_IT_number 15
_symmetry_cell_setting 'monoclinic'
loop_
_space_group_symop_operation_xyz
x,y,z
-x,y,1/2-z
-x,-y,-z
x,-y,1/2+z
1/2+x,1/2+y,z
1/2-x,1/2+y,1/2-z
1/2-x,1/2-y,-z
1/2+x,1/2-y,1/2+z
loop_
_atom_site_type_symbol
_atom_site_label
_atom_site_fract_x
_atom_site_fract_y
_atom_site_fract_z
Si Si1 0.187453 0.847464 0.727738
Si Si2 0.400042 0.871252 0.725775
Si Si3 0.353044 0.622724 0.465525
Si Si4 0.231596 0.149400 0.689107
Si Si5 0.061571 0.932186 0.940735
Si Si6 0.110804 0.520917 0.139462
Si Si7 0.422411 0.330685 0.289550
Si Si8 0.000000 0.016158 0.750000
O O1 0.180505 0.827249 0.636080
O O2 0.209405 0.747959 0.781076
O O3 0.292594 0.920184 0.828600
O O4 0.067103 0.888959 0.660022
O O5 0.500000 0.901880 0.750000
O O6 0.270474 0.905200 0.594242
O O7 0.435332 0.916501 0.830972
O O8 0.382184 0.760803 0.716175
O O9 0.429362 0.530120 0.509278
O O10 0.437897 0.687489 0.581415
O O11 0.158363 0.132967 0.555747
O O12 0.147306 0.152172 0.691638
O O13 0.331899 0.072658 0.782481
O O14 0.080790 0.953882 0.869406
O O15 0.000000 0.500000 0.000000
O O16 0.411584 0.419430 0.227374
#
# Coordination Sequence:
#
# PCOD8139066 Si02
#       8
#     8   8   8   8   8   8   8   4
#     4  11  22  39  70  98 123 175 221 279 321 388
#     4  11  23  42  59  96 140 170 207 268 349 403
#     4  10  20  38  64  92 128 169 215 265 326 385
#     4  12  23  40  75  95 132 178 221 281 330 397
#     4  11  22  45  67  96 130 170 234 274 328 401
#     4  11  25  42  58 101 139 172 225 271 330 401
#     4  11  21  39  65 102 129 164 220 269 337 399
#     4  10  24  38  66  96 130 172 218 282 324 388
#
# _framework density 19.957305999999999
#
# number of rings (size 3 to 8) (size 9 to 14) (size 15 to 20)
#    0.000    1.067    7.333    2.000    3.733    0.533 
#    9.600    0.667    1.467    0.000    0.000    0.000 
#    0.000    0.000    0.000    0.000    0.000    0.000 
#
# Total GULP energy -371798.615950 kJ/mol
# GULP energy per Si atom -12393.287198 kJ/mol
# Density = 1.991188 g / cm^3
# Si number density = 19.957306 Si / 1000 Ang^3
#
#
#
# Elastic Constant Matrix: (Units=GPa)
#
#
# Indices 1 2 3 4 5 6 
#
# 1 85.7979 32.9061 53.9468 0.0000 5.1515 0.0000
# 2 32.9061 125.3025 60.5517 0.0000 4.5002 0.0000
# 3 53.9468 60.5517 147.6518 0.0000 2.4322 0.0000
# 4 0.0000 0.0000 0.0000 36.9862 0.0000 1.0122
# 5 5.1515 4.5002 2.4322 0.0000 29.4436 0.0000
# 6 0.0000 0.0000 0.0000 1.0122 0.0000 30.8080
#
#
#
# Elastic Compliance Matrix: (Units=1/GPa)
#
#
# Indices 1 2 3 4 5 6 
#
# 1 0.015524 -0.001594 -0.004984 0.000000 -0.002061 0.000000
# 2 -0.001594 0.010158 -0.003567 0.000000 -0.000979 0.000000
# 3 -0.004984 -0.003567 0.010047 0.000000 0.000587 0.000000
# 4 0.000000 0.000000 0.000000 0.027061 0.000000 -0.000889
# 5 -0.002061 -0.000979 0.000587 0.000000 0.034425 0.000000
# 6 0.000000 0.000000 0.000000 -0.000889 0.000000 0.032488
#
#
# Mechanical properties :
#
#
# Convention : Reuss Voigt Hill
#
# Bulk Modulus (GPa) = 64.77489 72.61793 68.69641
# Shear Modulus (GPa) = 32.22843 33.53740 32.88291
#
# Velocity S-wave (km/s) = 4.02290 4.10379 4.06355
# Velocity P-wave (km/s) = 7.35565 7.67596 7.51751
#
# Compressibility (1/GPa) = 0.01543808
#
# Stress axis : x y z
#
# Youngs Moduli (GPa) = 64.41447 98.44053 99.53148
#
# Poissons Ratio (x) = 0.15694 0.49610
# Poissons Ratio (y) = 0.10269 0.35506
# Poissons Ratio (z) = 0.32106 0.35117
#
# Static dielectric constant tensor:
#      x y z
#    x 3.579040 0.000000 0.066590 
#    y 0.000000 3.700950 0.000000 
#    z 0.066590 0.000000 3.831910 
# 
# 
# High freq. dielectric constant tensor:
#      x y z
#    x 1.753390 0.000000 0.004010 
#    y 0.000000 1.776140 0.000000 
#    z 0.004010 0.000000 1.786620 
# 
# From -- ./inp_files/253063.got.cif
#   From: 2010.06.25/outbox.cif.g09.slc.cpg/sg15_127_cif.got.tgz:253063.got - 2010.06.28 07:06:18.
