data_PCOD8139918
_publ_section_title
;
Structure prediction by ZEFSAII (Michael W. Deem and Ramdas Pophale) SiO2 
 PCOD8139918
Probable space group: C 2/C
;
_chemical_formula_sum "Si O2"
_cell_formula_units_Z 56
_cell_length_a 12.096772
_cell_length_b 7.436555
_cell_length_c 30.440866
_cell_angle_alpha 90.000000
_cell_angle_beta 59.119464
_cell_angle_gamma 90.000000
_cell_volume 2350.210143
_symmetry_space_group_name_H-M "C 2/C"
_symmetry_group_IT_number 15
_symmetry_cell_setting 'monoclinic'
loop_
_space_group_symop_operation_xyz
x,y,z
-x,y,1/2-z
-x,-y,-z
x,-y,1/2+z
1/2+x,1/2+y,z
1/2-x,1/2+y,1/2-z
1/2-x,1/2-y,-z
1/2+x,1/2-y,1/2+z
loop_
_atom_site_type_symbol
_atom_site_label
_atom_site_fract_x
_atom_site_fract_y
_atom_site_fract_z
Si Si1 0.052056 0.628982 0.692712
Si Si2 0.855249 0.767071 0.341583
Si Si3 0.378041 0.623304 0.687278
Si Si4 0.806333 0.534544 0.698429
Si Si5 0.680608 0.322812 0.390008
Si Si6 0.451448 0.124545 0.470881
Si Si7 0.767081 0.101716 0.050464
O O1 0.100371 0.422675 0.688060
O O2 0.173372 0.747171 0.650836
O O3 0.000000 0.700473 0.750000
O O4 0.937398 0.645734 0.680910
O O5 0.760488 0.869839 0.328535
O O6 0.791472 0.741736 0.402293
O O7 0.980250 0.893976 0.321675
O O8 0.279971 0.531059 0.740183
O O9 0.364214 0.540864 0.640748
O O10 0.339848 0.828867 0.682756
O O11 0.578394 0.162095 0.415810
O O12 0.680630 0.426129 0.436074
O O13 0.343326 0.035995 0.461322
O O14 0.387869 0.308384 0.501583
O O15 0.500000 0.000000 0.500000
#
# Coordination Sequence:
#
# PCOD8139918 Si02
#       7
#     8   8   8   8   8   8   8
#     4  10  20  40  63  91 135 176 213 270 330 389
#     4  10  21  40  68  95 130 176 225 267 334 397
#     4  11  23  42  65  98 142 178 227 274 327 401
#     4  11  23  40  66  96 139 183 222 270 328 396
#     4  11  23  44  69  99 137 176 223 277 335 405
#     4  11  25  47  71  98 134 170 229 291 342 408
#     4  10  24  44  72  98 128 177 221 280 351 398
#
# _framework density 23.827656999999999
#
# number of rings (size 3 to 8) (size 9 to 14) (size 15 to 20)
#    0.000    1.429    2.857    2.571    4.000    0.571 
#    5.143    7.143    0.000    0.000    0.000    0.000 
#    0.000    0.000    0.000    0.000    0.000    0.000 
#
# Total GULP energy -347133.058609 kJ/mol
# GULP energy per Si atom -12397.609236 kJ/mol
# Density = 2.377342 g / cm^3
# Si number density = 23.827657 Si / 1000 Ang^3
#
#
#
# Elastic Constant Matrix: (Units=GPa)
#
#
# Indices 1 2 3 4 5 6 
#
# 1 205.4364 36.5407 39.6069 0.0000 11.1523 0.0000
# 2 36.5407 15.4427 11.2038 0.0000 4.8085 0.0000
# 3 39.6069 11.2038 109.3248 0.0000 -0.7819 0.0000
# 4 0.0000 0.0000 0.0000 20.7791 0.0000 6.5288
# 5 11.1523 4.8085 -0.7819 0.0000 57.2125 0.0000
# 6 0.0000 0.0000 0.0000 6.5288 0.0000 35.0211
#
#
#
# Elastic Compliance Matrix: (Units=1/GPa)
#
#
# Indices 1 2 3 4 5 6 
#
# 1 0.008527 -0.019359 -0.001106 0.000000 -0.000050 0.000000
# 2 -0.019359 0.116013 -0.004919 0.000000 -0.006044 0.000000
# 3 -0.001106 -0.004919 0.010057 0.000000 0.000766 0.000000
# 4 0.000000 0.000000 0.000000 0.051120 0.000000 -0.009530
# 5 -0.000050 -0.006044 0.000766 0.000000 0.018007 0.000000
# 6 0.000000 0.000000 0.000000 -0.009530 0.000000 0.030331
#
#
# Mechanical properties :
#
#
# Convention : Reuss Voigt Hill
#
# Bulk Modulus (GPa) = 11.92888 56.10076 34.01482
# Shear Modulus (GPa) = 15.98649 38.79271 27.38960
#
# Velocity S-wave (km/s) = 2.59303 4.03929 3.39409
# Velocity P-wave (km/s) = 3.73928 6.73424 5.44666
#
# Compressibility (1/GPa) = 0.08383017
#
# Stress axis : x y z
#
# Youngs Moduli (GPa) = 117.27661 8.61975 99.43114
#
# Poissons Ratio (x) = 0.16687 0.10993
# Poissons Ratio (y) = 2.27030 0.48911
# Poissons Ratio (z) = 0.12966 0.04240
#
# Static dielectric constant tensor:
#      x y z
#    x 4.857170 0.000000 -0.014750 
#    y 0.000000 3.819070 0.000000 
#    z -0.014750 0.000000 4.467140 
# 
# 
# High freq. dielectric constant tensor:
#      x y z
#    x 1.977440 0.000000 0.002260 
#    y 0.000000 1.901320 0.000000 
#    z 0.002260 0.000000 1.955870 
# 
# From -- ./inp_files/310213.got.cif
#   From: 2010.06.25/outbox.cif.g09.slc.cpg/sg15_156_cif.got.tgz:310213.got - 2010.06.28 07:06:18.
