data_PCOD8139033
_publ_section_title
;
Structure prediction by ZEFSAII (Michael W. Deem and Ramdas Pophale) SiO2 
 PCOD8139033
Probable space group: C 2/C
;
_chemical_formula_sum "Si O2"
_cell_formula_units_Z 52
_cell_length_a 7.161541
_cell_length_b 28.232799
_cell_length_c 12.974415
_cell_angle_alpha 90.000000
_cell_angle_beta 52.886325
_cell_angle_gamma 90.000000
_cell_volume 2091.925364
_symmetry_space_group_name_H-M "C 2/C"
_symmetry_group_IT_number 15
_symmetry_cell_setting 'monoclinic'
loop_
_space_group_symop_operation_xyz
x,y,z
-x,y,1/2-z
-x,-y,-z
x,-y,1/2+z
1/2+x,1/2+y,z
1/2-x,1/2+y,1/2-z
1/2-x,1/2-y,-z
1/2+x,1/2-y,1/2+z
loop_
_atom_site_type_symbol
_atom_site_label
_atom_site_fract_x
_atom_site_fract_y
_atom_site_fract_z
Si Si1 0.500000 0.183541 0.750000
Si Si2 0.706192 0.617735 0.961933
Si Si3 0.371148 0.018739 0.895594
Si Si4 0.732418 0.766291 0.354629
Si Si5 0.659218 0.667635 0.296106
Si Si6 0.560958 0.148344 0.020686
Si Si7 0.783909 0.944735 0.399636
O O1 0.267571 0.151219 0.844733
O O2 0.439323 0.217378 0.677499
O O3 0.708480 0.563794 0.920335
O O4 0.905775 0.632182 0.976587
O O5 0.455321 0.626296 0.097848
O O6 0.500000 0.998727 0.750000
O O7 0.553949 0.039963 0.915460
O O8 0.205244 0.979550 0.004447
O O9 0.691370 0.709944 0.368575
O O10 0.650490 0.796659 0.481957
O O11 0.000000 0.779451 0.250000
O O12 0.500000 0.681920 0.250000
O O13 0.910047 0.647781 0.175538
O O14 0.769599 0.109035 0.951228
O O15 0.000000 0.950723 0.250000
#
# Coordination Sequence:
#
# PCOD8139033 Si02
#       7
#     4   8   8   8   8   8   8
#     4  10  20  38  64  88 126 166 214 270 318 396
#     4   9  19  36  64  91 120 164 213 267 329 391
#     4  10  21  40  66  98 126 164 227 274 333 410
#     4  11  23  38  62  91 126 172 222 269 322 390
#     4  10  21  38  62  90 126 169 215 269 329 389
#     4   9  21  39  59  88 128 167 214 265 333 393
#     4  10  22  41  66  92 132 173 212 280 339 396
#
# _framework density 24.857483999999999
#
# number of rings (size 3 to 8) (size 9 to 14) (size 15 to 20)
#    0.000    2.154    1.538    0.462    2.154    7.385 
#    0.000    0.769    0.000    0.000    0.000    0.000 
#    0.000    0.000    0.000    0.000    0.000    0.000 
#
# Total GULP energy -322215.821157 kJ/mol
# GULP energy per Si atom -12392.916198 kJ/mol
# Density = 2.480091 g / cm^3
# Si number density = 24.857484 Si / 1000 Ang^3
#
#
#
# Elastic Constant Matrix: (Units=GPa)
#
#
# Indices 1 2 3 4 5 6 
#
# 1 9.6922 3.0554 4.2736 0.0000 0.2795 0.0000
# 2 3.0554 120.6015 61.4171 0.0000 -10.2470 0.0000
# 3 4.2736 61.4171 188.6911 0.0000 -18.2583 0.0000
# 4 0.0000 0.0000 0.0000 27.1828 0.0000 -14.2822
# 5 0.2795 -10.2470 -18.2583 0.0000 35.8073 0.0000
# 6 0.0000 0.0000 0.0000 -14.2822 0.0000 14.4153
#
#
#
# Elastic Compliance Matrix: (Units=1/GPa)
#
#
# Indices 1 2 3 4 5 6 
#
# 1 0.104705 -0.001833 -0.002003 0.000000 -0.002364 0.000000
# 2 -0.001833 0.010025 -0.003095 0.000000 0.001305 0.000000
# 3 -0.002003 -0.003095 0.006594 0.000000 0.002492 0.000000
# 4 0.000000 0.000000 0.000000 0.076732 0.000000 0.076024
# 5 -0.002364 0.001305 0.002492 0.000000 0.029590 0.000000
# 6 0.000000 0.000000 0.000000 0.076024 0.000000 0.144693
#
#
# Mechanical properties :
#
#
# Convention : Reuss Voigt Hill
#
# Bulk Modulus (GPa) = 9.30576 50.71965 30.01270
# Shear Modulus (GPa) = 11.84770 32.16366 22.00568
#
# Velocity S-wave (km/s) = 2.18554 3.60102 2.97858
# Velocity P-wave (km/s) = 3.18128 6.14314 4.89177
#
# Compressibility (1/GPa) = 0.10746038
#
# Stress axis : x y z
#
# Youngs Moduli (GPa) = 9.55061 99.74626 151.66012
#
# Poissons Ratio (x) = 0.18285 0.30384
# Poissons Ratio (y) = 0.01751 0.46945
# Poissons Ratio (z) = 0.01913 0.30875
#
# Static dielectric constant tensor:
#      x y z
#    x 4.290740 0.000000 0.014360 
#    y 0.000000 4.731230 0.000000 
#    z 0.014360 0.000000 4.533320 
# 
# 
# High freq. dielectric constant tensor:
#      x y z
#    x 1.987040 0.000000 0.002840 
#    y 0.000000 1.985980 0.000000 
#    z 0.002840 0.000000 1.993050 
# 
# From -- ./inp_files/139745.got.cif
#   From: 2010.06.25/outbox.cif.g09.slc.cpg/sg15_70_cif.got.tgz:139745.got - 2010.06.28 07:06:18.
