data_PCOD8139467
_publ_section_title
;
Structure prediction by ZEFSAII (Michael W. Deem and Ramdas Pophale) SiO2 
 PCOD8139467
Probable space group: C 2/C
;
_chemical_formula_sum "Si O2"
_cell_formula_units_Z 44
_cell_length_a 21.036833
_cell_length_b 15.063819
_cell_length_c 8.552201
_cell_angle_alpha 90.000000
_cell_angle_beta 52.492711
_cell_angle_gamma 90.000000
_cell_volume 2149.896744
_symmetry_space_group_name_H-M "C 2/C"
_symmetry_group_IT_number 15
_symmetry_cell_setting 'monoclinic'
loop_
_space_group_symop_operation_xyz
x,y,z
-x,y,1/2-z
-x,-y,-z
x,-y,1/2+z
1/2+x,1/2+y,z
1/2-x,1/2+y,1/2-z
1/2-x,1/2-y,-z
1/2+x,1/2-y,1/2+z
loop_
_atom_site_type_symbol
_atom_site_label
_atom_site_fract_x
_atom_site_fract_y
_atom_site_fract_z
Si Si1 0.816712 0.416174 0.955469
Si Si2 0.427321 0.195147 0.465865
Si Si3 0.411414 0.390602 0.599683
Si Si4 0.000000 0.025411 0.250000
Si Si5 0.583559 0.920366 0.211891
Si Si6 0.264734 0.078041 0.197193
O O1 0.846320 0.323016 0.985324
O O2 0.893480 0.476799 0.787145
O O3 0.762086 0.399240 0.885313
O O4 0.766745 0.471302 0.161559
O O5 0.500000 0.165279 0.250000
O O6 0.440754 0.295656 0.496852
O O7 0.424068 0.130381 0.616197
O O8 0.436170 0.465001 0.437115
O O9 0.451084 0.411073 0.707039
O O10 0.315736 0.384915 0.760987
O O11 0.500000 0.913113 0.250000
O O12 0.656346 0.876993 0.999982
#
# Coordination Sequence:
#
# PCOD8139467 Si02
#       6
#     8   8   8   4   8   8
#     4  10  20  39  62  95 131 179 205 255 328 385
#     4  12  24  38  64 100 132 166 226 271 309 386
#     4  11  24  45  69  97 124 169 228 272 327 379
#     4  10  24  48  70  88 126 178 216 274 338 382
#     4  10  21  39  62  95 132 176 205 251 328 390
#     4  10  21  39  64  94 129 180 208 262 323 389
#
# _framework density 20.466099
#
# number of rings (size 3 to 8) (size 9 to 14) (size 15 to 20)
#    1.091    0.364    2.727    2.727    1.273    3.636 
#    0.000    0.000    0.000    0.000    0.000    0.000 
#    0.000    0.000    0.000    0.000    0.000    0.000 
#
# Total GULP energy -272697.207040 kJ/mol
# GULP energy per Si atom -12395.327593 kJ/mol
# Density = 2.041952 g / cm^3
# Si number density = 20.466099 Si / 1000 Ang^3
#
#
#
# Elastic Constant Matrix: (Units=GPa)
#
#
# Indices 1 2 3 4 5 6 
#
# 1 153.3558 35.7605 47.5196 0.0000 10.9623 0.0000
# 2 35.7605 75.2844 15.7151 0.0000 19.2965 0.0000
# 3 47.5196 15.7151 67.8921 0.0000 7.1425 0.0000
# 4 0.0000 0.0000 0.0000 15.5769 0.0000 5.4062
# 5 10.9623 19.2965 7.1425 0.0000 42.1712 0.0000
# 6 0.0000 0.0000 0.0000 5.4062 0.0000 19.5090
#
#
#
# Elastic Compliance Matrix: (Units=1/GPa)
#
#
# Indices 1 2 3 4 5 6 
#
# 1 0.008966 -0.003107 -0.005560 0.000000 0.000033 0.000000
# 2 -0.003107 0.016669 -0.000984 0.000000 -0.006653 0.000000
# 3 -0.005560 -0.000984 0.018987 0.000000 -0.001320 0.000000
# 4 0.000000 0.000000 0.000000 0.071029 0.000000 -0.019683
# 5 0.000033 -0.006653 -0.001320 0.000000 0.026972 0.000000
# 6 0.000000 0.000000 0.000000 -0.019683 0.000000 0.056713
#
#
# Mechanical properties :
#
#
# Convention : Reuss Voigt Hill
#
# Bulk Modulus (GPa) = 39.49201 54.94697 47.21949
# Shear Modulus (GPa) = 22.01894 28.62058 25.31976
#
# Velocity S-wave (km/s) = 3.28361 3.74363 3.52114
# Velocity P-wave (km/s) = 5.80640 6.75221 6.29709
#
# Compressibility (1/GPa) = 0.02532158
#
# Stress axis : x y z
#
# Youngs Moduli (GPa) = 111.53758 59.99033 52.66679
#
# Poissons Ratio (x) = 0.18636 0.29281
# Poissons Ratio (y) = 0.34649 0.05184
# Poissons Ratio (z) = 0.62011 0.05904
#
# Static dielectric constant tensor:
#      x y z
#    x 3.793110 0.000000 0.101120 
#    y 0.000000 3.412240 0.000000 
#    z 0.101120 0.000000 3.686070 
# 
# 
# High freq. dielectric constant tensor:
#      x y z
#    x 1.809400 0.000000 0.008530 
#    y 0.000000 1.770580 0.000000 
#    z 0.008530 0.000000 1.800440 
# 
# From -- ./inp_files/47412.got.cif
#   From: 2010.06.25/outbox.cif.g09.slc.cpg/sg15_24_cif.got.tgz:47412.got - 2010.06.28 07:06:18.
