data_PCOD8139711
_publ_section_title
;
Structure prediction by ZEFSAII (Michael W. Deem and Ramdas Pophale) SiO2 
 PCOD8139711
Probable space group: C 2/C
;
_chemical_formula_sum "Si O2"
_cell_formula_units_Z 48
_cell_length_a 10.701738
_cell_length_b 14.964730
_cell_length_c 27.675560
_cell_angle_alpha 90.000000
_cell_angle_beta 31.498882
_cell_angle_gamma 90.000000
_cell_volume 2315.745826
_symmetry_space_group_name_H-M "C 2/C"
_symmetry_group_IT_number 15
_symmetry_cell_setting 'monoclinic'
loop_
_space_group_symop_operation_xyz
x,y,z
-x,y,1/2-z
-x,-y,-z
x,-y,1/2+z
1/2+x,1/2+y,z
1/2-x,1/2+y,1/2-z
1/2-x,1/2-y,-z
1/2+x,1/2-y,1/2+z
loop_
_atom_site_type_symbol
_atom_site_label
_atom_site_fract_x
_atom_site_fract_y
_atom_site_fract_z
Si Si1 0.440647 0.456862 0.468889
Si Si2 0.009307 0.949892 0.851577
Si Si3 0.208878 0.067193 0.650857
Si Si4 0.988303 0.236452 0.565796
Si Si5 0.384873 0.906553 0.652302
Si Si6 0.642919 0.192723 0.491224
O O1 0.500000 0.500000 0.500000
O O2 0.522282 0.532525 0.404315
O O3 0.590398 0.367457 0.404722
O O4 0.162234 0.431398 0.561577
O O5 0.848724 0.862657 0.897005
O O6 0.266973 0.924731 0.743795
O O7 0.886096 0.041378 0.871240
O O8 0.443449 0.126055 0.577558
O O9 0.000000 0.117316 0.750000
O O10 0.251204 0.970155 0.659299
O O11 0.250000 0.250000 0.500000
O O12 0.832374 0.305587 0.649656
O O13 0.982044 0.251355 0.509929
O O14 0.750000 0.250000 0.500000
#
# Coordination Sequence:
#
# PCOD8139711 Si02
#       6
#     8   8   8   8   8   8
#     4  11  23  42  64  94 138 176 211 269 349 403
#     4  11  22  41  70  90 124 177 224 273 320 400
#     4  10  20  39  68  91 120 167 226 268 320 388
#     4  10  22  40  63  92 131 171 217 272 327 393
#     4  10  21  41  66  95 122 170 230 268 323 397
#     4  12  23  40  64  98 132 169 217 278 332 390
#
# _framework density 20.727661999999999
#
# number of rings (size 3 to 8) (size 9 to 14) (size 15 to 20)
#    0.000    1.333    3.333    3.500    0.000    0.667 
#   12.000    1.667    0.000    0.000    0.000    0.000 
#    0.000    0.000    0.000    0.000    0.000    0.000 
#
# Total GULP energy -297393.110486 kJ/mol
# GULP energy per Si atom -12391.379604 kJ/mol
# Density = 2.068049 g / cm^3
# Si number density = 20.727662 Si / 1000 Ang^3
#
#
#
# Elastic Constant Matrix: (Units=GPa)
#
#
# Indices 1 2 3 4 5 6 
#
# 1 114.5588 30.9635 36.8826 -0.0081 27.4327 0.0129
# 2 30.9635 91.7517 46.0100 -0.0015 0.9136 0.0002
# 3 36.8826 46.0100 130.4955 -0.0072 9.5638 0.0073
# 4 -0.0081 -0.0015 -0.0072 6.8180 0.0035 -4.6046
# 5 27.4327 0.9136 9.5638 0.0035 25.9134 -0.0130
# 6 0.0129 0.0002 0.0073 -4.6046 -0.0130 31.7861
#
#
#
# Elastic Compliance Matrix: (Units=1/GPa)
#
#
# Indices 1 2 3 4 5 6 
#
# 1 0.013447 -0.003638 -0.001525 0.000015 -0.013544 -0.000008
# 2 -0.003638 0.014266 -0.004365 -0.000006 0.004960 0.000004
# 3 -0.001525 -0.004365 0.009768 0.000008 -0.001837 -0.000001
# 4 0.000015 -0.000006 0.000008 0.162575 -0.000029 0.023551
# 5 -0.013544 0.004960 -0.001837 -0.000029 0.053431 0.000024
# 6 -0.000008 0.000004 -0.000001 0.023551 0.000024 0.034872
#
#
# Mechanical properties :
#
#
# Convention : Reuss Voigt Hill
#
# Bulk Modulus (GPa) = 54.27755 62.72426 58.50091
# Shear Modulus (GPa) = 15.94602 27.76685 21.85643
#
# Velocity S-wave (km/s) = 2.77666 3.66403 3.25076
# Velocity P-wave (km/s) = 6.04340 6.94457 6.50959
#
# Compressibility (1/GPa) = 0.01842382
#
# Stress axis : x y z
#
# Youngs Moduli (GPa) = 74.36688 70.09478 102.37673
#
# Poissons Ratio (x) = 0.25502 0.15614
# Poissons Ratio (y) = 0.27057 0.44690
# Poissons Ratio (z) = 0.11342 0.30598
#
# Static dielectric constant tensor:
#      x y z
#    x 3.601730 0.000150 0.203750 
#    y 0.000150 4.169750 -0.000190 
#    z 0.203750 -0.000190 3.626250 
# 
# 
# High freq. dielectric constant tensor:
#      x y z
#    x 1.814250 0.000000 0.009090 
#    y 0.000000 1.811750 0.000000 
#    z 0.009090 0.000000 1.802900 
# 
# From -- ./inp_files/292989.got.cif
#   From: 2010.06.25/outbox.cif.g09.slc.cpg/sg15_147_cif.got.tgz:292989.got - 2010.06.28 07:06:18.
