data_PCOD8139217
_publ_section_title
;
Structure prediction by ZEFSAII (Michael W. Deem and Ramdas Pophale) SiO2 
 PCOD8139217
Probable space group: C 2/C
;
_chemical_formula_sum "Si O2"
_cell_formula_units_Z 60
_cell_length_a 7.953793
_cell_length_b 17.401041
_cell_length_c 20.618647
_cell_angle_alpha 90.000000
_cell_angle_beta 91.914123
_cell_angle_gamma 90.000000
_cell_volume 2852.116621
_symmetry_space_group_name_H-M "C 2/C"
_symmetry_group_IT_number 15
_symmetry_cell_setting 'monoclinic'
loop_
_space_group_symop_operation_xyz
x,y,z
-x,y,1/2-z
-x,-y,-z
x,-y,1/2+z
1/2+x,1/2+y,z
1/2-x,1/2+y,1/2-z
1/2-x,1/2-y,-z
1/2+x,1/2-y,1/2+z
loop_
_atom_site_type_symbol
_atom_site_label
_atom_site_fract_x
_atom_site_fract_y
_atom_site_fract_z
Si Si1 0.493454 0.053416 0.562748
Si Si2 0.649761 0.973064 0.301022
Si Si3 0.839747 0.711348 0.559921
Si Si4 0.812212 0.132168 0.278710
Si Si5 0.898965 0.846664 0.348490
Si Si6 0.178348 0.143172 0.943360
Si Si7 0.326393 0.698825 0.419479
Si Si8 0.000000 0.265379 0.750000
O O1 0.371644 0.122855 0.541332
O O2 0.674836 0.089240 0.582193
O O3 0.500000 0.000000 0.500000
O O4 0.425620 0.011738 0.627381
O O5 0.500000 0.948471 0.250000
O O6 0.745406 0.045717 0.271759
O O7 0.791850 0.907026 0.304824
O O8 0.750000 0.750000 0.500000
O O9 0.727297 0.714578 0.622038
O O10 0.001537 0.756767 0.581756
O O11 0.807544 0.150863 0.354368
O O12 0.671008 0.185420 0.242471
O O13 0.000000 0.141841 0.250000
O O14 0.025533 0.793736 0.309373
O O15 0.008599 0.888103 0.406773
O O16 0.186567 0.234824 0.927020
O O17 0.175890 0.137182 0.021615
#
# Coordination Sequence:
#
# PCOD8139217 Si02
#       8
#     8   8   8   8   8   8   8   4
#     4  10  23  42  64  94 130 181 228 279 347 417
#     4  11  27  47  66  96 145 187 230 285 364 428
#     4  10  20  39  62  97 131 167 216 282 346 402
#     4  12  26  47  69 104 137 185 235 289 354 417
#     4  11  24  41  68  99 131 179 227 283 347 423
#     4  10  20  38  67  98 128 172 225 279 354 397
#     4  10  20  39  67  96 134 169 222 290 335 420
#     4  12  26  44  74  98 138 178 240 286 342 414
#
# _framework density 21.037008
#
# number of rings (size 3 to 8) (size 9 to 14) (size 15 to 20)
#    0.000    1.333    3.333    1.600    2.800    2.667 
#    4.800    2.000    0.000    0.000    0.000    0.000 
#    0.000    0.000    0.000    0.000    0.000    0.000 
#
# Total GULP energy -371805.545737 kJ/mol
# GULP energy per Si atom -12393.518191 kJ/mol
# Density = 2.098913 g / cm^3
# Si number density = 21.037008 Si / 1000 Ang^3
#
#
#
# Elastic Constant Matrix: (Units=GPa)
#
#
# Indices 1 2 3 4 5 6 
#
# 1 116.9351 34.9222 39.6962 0.0000 5.8067 0.0000
# 2 34.9222 72.9231 32.1211 0.0000 5.9000 0.0000
# 3 39.6962 32.1211 93.2758 0.0000 11.9047 0.0000
# 4 0.0000 0.0000 0.0000 33.3127 0.0000 1.5756
# 5 5.8067 5.9000 11.9047 0.0000 43.3785 0.0000
# 6 0.0000 0.0000 0.0000 1.5756 0.0000 25.1399
#
#
#
# Elastic Compliance Matrix: (Units=1/GPa)
#
#
# Indices 1 2 3 4 5 6 
#
# 1 0.010783 -0.003703 -0.003310 0.000000 -0.000031 0.000000
# 2 -0.003703 0.017457 -0.004348 0.000000 -0.000685 0.000000
# 3 -0.003310 -0.004348 0.013985 0.000000 -0.002803 0.000000
# 4 0.000000 0.000000 0.000000 0.030108 0.000000 -0.001887
# 5 -0.000031 -0.000685 -0.002803 0.000000 0.023920 0.000000
# 6 0.000000 0.000000 0.000000 -0.001887 0.000000 0.039896
#
#
# Mechanical properties :
#
#
# Convention : Reuss Voigt Hill
#
# Bulk Modulus (GPa) = 51.27592 55.17926 53.22759
# Shear Modulus (GPa) = 30.23501 32.12584 31.18042
#
# Velocity S-wave (km/s) = 3.79519 3.91207 3.85407
# Velocity P-wave (km/s) = 6.60543 6.83317 6.72027
#
# Compressibility (1/GPa) = 0.01950233
#
# Stress axis : x y z
#
# Youngs Moduli (GPa) = 92.73987 57.28245 71.50753
#
# Poissons Ratio (x) = 0.21214 0.23666
# Poissons Ratio (y) = 0.34346 0.31093
# Poissons Ratio (z) = 0.30693 0.24907
#
# Static dielectric constant tensor:
#      x y z
#    x 4.355930 0.000000 0.120090 
#    y 0.000000 3.851220 0.000000 
#    z 0.120090 0.000000 4.016390 
# 
# 
# High freq. dielectric constant tensor:
#      x y z
#    x 1.838480 0.000000 -0.000380 
#    y 0.000000 1.808370 0.000000 
#    z -0.000380 0.000000 1.830560 
# 
# From -- ./inp_files/190987.got.cif
#   From: 2010.06.25/outbox.cif.g09.slc.cpg/sg15_96_cif.got.tgz:190987.got - 2010.06.28 07:06:18.
