data_PCOD8139179
_publ_section_title
;
Structure prediction by ZEFSAII (Michael W. Deem and Ramdas Pophale) SiO2 
 PCOD8139179
Probable space group: C 2/C
;
_chemical_formula_sum "Si O2"
_cell_formula_units_Z 64
_cell_length_a 15.336308
_cell_length_b 18.303736
_cell_length_c 14.049528
_cell_angle_alpha 90.000000
_cell_angle_beta 50.699608
_cell_angle_gamma 90.000000
_cell_volume 3051.906047
_symmetry_space_group_name_H-M "C 2/C"
_symmetry_group_IT_number 15
_symmetry_cell_setting 'monoclinic'
loop_
_space_group_symop_operation_xyz
x,y,z
-x,y,1/2-z
-x,-y,-z
x,-y,1/2+z
1/2+x,1/2+y,z
1/2-x,1/2+y,1/2-z
1/2-x,1/2-y,-z
1/2+x,1/2-y,1/2+z
loop_
_atom_site_type_symbol
_atom_site_label
_atom_site_fract_x
_atom_site_fract_y
_atom_site_fract_z
Si Si1 0.644260 0.931279 0.922850
Si Si2 0.736523 0.181306 0.729128
Si Si3 0.711848 0.923545 0.581665
Si Si4 0.368187 0.076767 0.848721
Si Si5 0.096372 0.404085 0.472483
Si Si6 0.939146 0.007681 0.890314
Si Si7 0.043963 0.892919 0.471427
Si Si8 0.800072 0.843847 0.692068
O O1 0.758576 0.906563 0.792497
O O2 0.626301 0.016099 0.912228
O O3 0.667676 0.916569 0.017097
O O4 0.534552 0.886777 0.960285
O O5 0.679126 0.144954 0.677133
O O6 0.678682 0.152872 0.865092
O O7 0.869237 0.165464 0.631123
O O8 0.724636 0.268010 0.739353
O O9 0.617965 0.898237 0.570656
O O10 0.730936 0.856959 0.641643
O O11 0.828631 0.943494 0.446662
O O12 0.670831 0.997318 0.664882
O O13 0.500000 0.080880 0.750000
O O14 0.000000 0.988176 0.750000
O O15 0.024871 0.049774 0.899991
O O16 0.904338 0.933636 0.971110
O O17 0.931801 0.851096 0.580802
#
# Coordination Sequence:
#
# PCOD8139179 Si02
#       8
#     8   8   8   8   8   8   8   8
#     4  10  23  41  65 101 126 167 220 276 328 383
#     4  12  24  43  65  91 135 179 211 267 330 400
#     4  10  22  40  65 102 125 167 219 275 326 384
#     4  11  22  40  68  99 128 166 225 279 323 373
#     4  10  22  39  72  94 127 167 222 275 326 381
#     4  10  20  38  66  94 127 159 208 270 323 384
#     4  10  24  40  62  94 126 168 214 263 321 388
#     4  11  27  41  63  91 141 172 215 265 331 403
#
# _framework density 20.970502
#
# number of rings (size 3 to 8) (size 9 to 14) (size 15 to 20)
#    0.000    1.500    2.500    1.500   12.250    1.000 
#    0.000    0.625    5.500    0.000    0.000    0.000 
#    0.000    0.000    0.000    0.000    0.000    0.000 
#
# Total GULP energy -396833.996433 kJ/mol
# GULP energy per Si atom -12401.062389 kJ/mol
# Density = 2.092277 g / cm^3
# Si number density = 20.970502 Si / 1000 Ang^3
#
#
#
# Elastic Constant Matrix: (Units=GPa)
#
#
# Indices 1 2 3 4 5 6 
#
# 1 82.3942 19.0826 8.4936 0.0000 0.8484 0.0000
# 2 19.0826 70.3341 9.8639 0.0000 -3.2483 0.0000
# 3 8.4936 9.8639 64.9108 0.0000 -7.5825 0.0000
# 4 0.0000 0.0000 0.0000 38.2241 0.0000 -3.1126
# 5 0.8484 -3.2483 -7.5825 0.0000 35.5412 0.0000
# 6 0.0000 0.0000 0.0000 -3.1126 0.0000 26.7181
#
#
#
# Elastic Compliance Matrix: (Units=1/GPa)
#
#
# Indices 1 2 3 4 5 6 
#
# 1 0.013068 -0.003405 -0.001298 0.000000 -0.000900 0.000000
# 2 -0.003405 0.015442 -0.001771 0.000000 0.001115 0.000000
# 3 -0.001298 -0.001771 0.016234 0.000000 0.003333 0.000000
# 4 0.000000 0.000000 0.000000 0.026412 0.000000 0.003077
# 5 -0.000900 0.001115 0.003333 0.000000 0.028971 0.000000
# 6 0.000000 0.000000 0.000000 0.003077 0.000000 0.037786
#
#
# Mechanical properties :
#
#
# Convention : Reuss Voigt Hill
#
# Bulk Modulus (GPa) = 31.44981 32.50215 31.97598
# Shear Modulus (GPa) = 30.96756 32.10993 31.53874
#
# Velocity S-wave (km/s) = 3.84698 3.91729 3.88230
# Velocity P-wave (km/s) = 5.89594 5.99941 5.94790
#
# Compressibility (1/GPa) = 0.03179669
#
# Stress axis : x y z
#
# Youngs Moduli (GPa) = 76.52001 64.76028 61.59934
#
# Poissons Ratio (x) = 0.22052 0.07994
# Poissons Ratio (y) = 0.26057 0.10908
# Poissons Ratio (z) = 0.09930 0.11467
#
# Static dielectric constant tensor:
#      x y z
#    x 5.016780 0.000000 0.153540 
#    y 0.000000 3.482850 0.000000 
#    z 0.153540 0.000000 3.859810 
# 
# 
# High freq. dielectric constant tensor:
#      x y z
#    x 1.830330 0.000000 -0.005950 
#    y 0.000000 1.787560 0.000000 
#    z -0.005950 0.000000 1.834010 
# 
# From -- ./inp_files/155498.got.cif
#   From: 2010.06.25/outbox.cif.g09.slc.cpg/sg15_78_cif.got.tgz:155498.got - 2010.06.28 07:06:18.
