data_PCOD8139940
_publ_section_title
;
Structure prediction by ZEFSAII (Michael W. Deem and Ramdas Pophale) SiO2 
 PCOD8139940
Probable space group: C 2/C
;
_chemical_formula_sum "Si O2"
_cell_formula_units_Z 60
_cell_length_a 12.391303
_cell_length_b 8.600346
_cell_length_c 29.077751
_cell_angle_alpha 90.000000
_cell_angle_beta 61.032159
_cell_angle_gamma 90.000000
_cell_volume 2711.115388
_symmetry_space_group_name_H-M "C 2/C"
_symmetry_group_IT_number 15
_symmetry_cell_setting 'monoclinic'
loop_
_space_group_symop_operation_xyz
x,y,z
-x,y,1/2-z
-x,-y,-z
x,-y,1/2+z
1/2+x,1/2+y,z
1/2-x,1/2+y,1/2-z
1/2-x,1/2-y,-z
1/2+x,1/2-y,1/2+z
loop_
_atom_site_type_symbol
_atom_site_label
_atom_site_fract_x
_atom_site_fract_y
_atom_site_fract_z
Si Si1 0.407399 0.527867 0.607211
Si Si2 0.244335 0.153330 0.287911
Si Si3 0.049352 0.455383 0.142933
Si Si4 0.696237 0.541802 0.544671
Si Si5 0.288682 0.990314 0.682243
Si Si6 0.500000 0.034857 0.250000
Si Si7 0.773613 0.131278 0.061285
Si Si8 0.768150 0.803626 0.890467
O O1 0.348004 0.465348 0.666903
O O2 0.551091 0.560520 0.585911
O O3 0.391497 0.399412 0.569913
O O4 0.338273 0.685106 0.604047
O O5 0.216211 0.330595 0.303328
O O6 0.380785 0.140795 0.279552
O O7 0.243459 0.116491 0.233780
O O8 0.995526 0.431056 0.205471
O O9 0.154903 0.584522 0.115778
O O10 0.105128 0.285034 0.121544
O O11 0.933949 0.521793 0.137572
O O12 0.770356 0.690559 0.547853
O O13 0.717845 0.522731 0.485795
O O14 0.761447 0.396786 0.556615
O O15 0.210422 0.931643 0.654440
#
# Coordination Sequence:
#
# PCOD8139940 Si02
#       8
#     8   8   8   8   8   4   8   8
#     4  11  22  43  65  93 129 167 208 269 314 378
#     4  11  22  41  62  91 127 166 212 258 324 373
#     4  10  22  41  66  86 128 167 207 259 319 371
#     4  11  24  41  67  96 127 168 219 259 316 379
#     4  11  24  40  62  93 127 167 212 263 311 384
#     4  10  20  40  64  84 126 166 194 264 320 368
#     4  10  22  43  66  93 131 168 209 268 317 371
#     4  11  23  41  64  94 127 165 218 257 312 382
#
# _framework density 22.131112000000002
#
# number of rings (size 3 to 8) (size 9 to 14) (size 15 to 20)
#    0.000    1.333    2.667    3.600    1.867    3.200 
#    2.400    7.333    0.000    0.000    0.000    0.000 
#    0.000    0.000    0.000    0.000    0.000    0.000 
#
# Total GULP energy -371756.844294 kJ/mol
# GULP energy per Si atom -12391.894810 kJ/mol
# Density = 2.208074 g / cm^3
# Si number density = 22.131112 Si / 1000 Ang^3
#
#
#
# Elastic Constant Matrix: (Units=GPa)
#
#
# Indices 1 2 3 4 5 6 
#
# 1 52.8185 5.9409 14.5753 0.0000 3.3749 0.0000
# 2 5.9409 56.0097 16.3587 0.0000 6.8380 0.0000
# 3 14.5753 16.3587 74.8181 0.0000 3.8582 0.0000
# 4 0.0000 0.0000 0.0000 31.8507 0.0000 6.9329
# 5 3.3749 6.8380 3.8582 0.0000 30.4909 0.0000
# 6 0.0000 0.0000 0.0000 6.9329 0.0000 29.2028
#
#
#
# Elastic Compliance Matrix: (Units=1/GPa)
#
#
# Indices 1 2 3 4 5 6 
#
# 1 0.020139 -0.000878 -0.003650 0.000000 -0.001570 0.000000
# 2 -0.000878 0.019552 -0.003908 0.000000 -0.003793 0.000000
# 3 -0.003650 -0.003908 0.014963 0.000000 -0.000613 0.000000
# 4 0.000000 0.000000 0.000000 0.033107 0.000000 -0.007860
# 5 -0.001570 -0.003793 -0.000613 0.000000 0.033899 0.000000
# 6 0.000000 0.000000 0.000000 -0.007860 0.000000 0.036109
#
#
# Mechanical properties :
#
#
# Convention : Reuss Voigt Hill
#
# Bulk Modulus (GPa) = 26.46883 28.59956 27.53419
# Shear Modulus (GPa) = 26.70422 28.09363 27.39893
#
# Velocity S-wave (km/s) = 3.47744 3.56675 3.52238
# Velocity P-wave (km/s) = 5.30183 5.46929 5.38621
#
# Compressibility (1/GPa) = 0.03778029
#
# Stress axis : x y z
#
# Youngs Moduli (GPa) = 49.65440 51.14631 66.83155
#
# Poissons Ratio (x) = 0.04492 0.24396
# Poissons Ratio (y) = 0.04361 0.26119
# Poissons Ratio (z) = 0.18125 0.19989
#
# Static dielectric constant tensor:
#      x y z
#    x 4.452330 0.000000 0.151870 
#    y 0.000000 3.893460 0.000000 
#    z 0.151870 0.000000 4.172500 
# 
# 
# High freq. dielectric constant tensor:
#      x y z
#    x 1.868450 0.000000 0.007900 
#    y 0.000000 1.868940 0.000000 
#    z 0.007900 0.000000 1.874050 
# 
# From -- ./inp_files/272744.got.cif
#   From: 2010.06.25/outbox.cif.g09.slc.cpg/sg15_137_cif.got.tgz:272744.got - 2010.06.28 07:06:18.
