data_PCOD8139340
_publ_section_title
;
Structure prediction by ZEFSAII (Michael W. Deem and Ramdas Pophale) SiO2 
 PCOD8139340
Probable space group: C 2/C
;
_chemical_formula_sum "Si O2"
_cell_formula_units_Z 40
_cell_length_a 9.206899
_cell_length_b 14.780884
_cell_length_c 19.007949
_cell_angle_alpha 90.000000
_cell_angle_beta 47.328349
_cell_angle_gamma 90.000000
_cell_volume 1901.884359
_symmetry_space_group_name_H-M "C 2/C"
_symmetry_group_IT_number 15
_symmetry_cell_setting 'monoclinic'
loop_
_space_group_symop_operation_xyz
x,y,z
-x,y,1/2-z
-x,-y,-z
x,-y,1/2+z
1/2+x,1/2+y,z
1/2-x,1/2+y,1/2-z
1/2-x,1/2-y,-z
1/2+x,1/2-y,1/2+z
loop_
_atom_site_type_symbol
_atom_site_label
_atom_site_fract_x
_atom_site_fract_y
_atom_site_fract_z
Si Si1 0.930526 0.244627 0.120593
Si Si2 0.834077 0.070164 0.707913
Si Si3 0.080747 0.945426 0.537367
Si Si4 0.000000 0.676183 0.750000
Si Si5 0.500000 0.711925 0.750000
Si Si6 0.012164 0.559064 0.927322
O O1 0.997678 0.262318 0.179951
O O2 0.695608 0.225420 0.187443
O O3 0.046394 0.162007 0.048388
O O4 0.979147 0.333698 0.058404
O O5 0.695847 0.111952 0.690815
O O6 0.695235 0.033982 0.816977
O O7 0.983778 0.147603 0.686423
O O8 0.970402 0.986131 0.641719
O O9 0.310716 0.963516 0.454390
O O10 0.000000 0.000000 0.500000
O O11 0.000000 0.500000 0.000000
#
# Coordination Sequence:
#
# PCOD8139340 Si02
#       6
#     8   8   8   4   4   8
#     4  10  21  38  61  92 122 157 205 247 298 361
#     4  10  20  39  60  87 120 156 198 250 301 356
#     4  12  24  38  60  89 123 162 201 247 300 356
#     4   8  18  38  62  84 118 160 200 250 298 354
#     4   8  18  38  62  84 116 156 198 248 300 354
#     4  10  22  41  63  89 122 159 202 248 300 361
#
# _framework density 21.031773000000001
#
# number of rings (size 3 to 8) (size 9 to 14) (size 15 to 20)
#    0.000    2.400    0.000    5.400    0.000    4.800 
#    0.000   10.000    0.000    0.000    0.000    0.000 
#    0.000    0.000    0.000    0.000    0.000    0.000 
#
# Total GULP energy -247777.019707 kJ/mol
# GULP energy per Si atom -12388.850985 kJ/mol
# Density = 2.098390 g / cm^3
# Si number density = 21.031773 Si / 1000 Ang^3
#
#
#
# Elastic Constant Matrix: (Units=GPa)
#
#
# Indices 1 2 3 4 5 6 
#
# 1 106.3717 -1.0790 7.5734 0.0005 2.7131 -0.0002
# 2 -1.0790 69.9014 18.9055 0.0014 23.1005 -0.0006
# 3 7.5734 18.9055 86.5001 0.0040 4.4654 -0.0015
# 4 0.0005 0.0014 0.0040 37.6361 -0.0010 5.1925
# 5 2.7131 23.1005 4.4654 -0.0010 31.1578 0.0003
# 6 -0.0002 -0.0006 -0.0015 5.1925 0.0003 23.6958
#
#
#
# Elastic Compliance Matrix: (Units=1/GPa)
#
#
# Indices 1 2 3 4 5 6 
#
# 1 0.009510 0.000837 -0.000948 0.000000 -0.001313 0.000000
# 2 0.000837 0.020097 -0.003720 -0.000001 -0.014440 0.000001
# 3 -0.000948 -0.003720 0.012402 -0.000001 0.001063 0.000001
# 4 0.000000 -0.000001 -0.000001 0.027399 0.000002 -0.006004
# 5 -0.001313 -0.014440 0.001063 0.000002 0.042762 -0.000001
# 6 0.000000 0.000001 0.000001 -0.006004 -0.000001 0.043517
#
#
# Mechanical properties :
#
#
# Convention : Reuss Voigt Hill
#
# Bulk Modulus (GPa) = 29.11458 34.84144 31.97801
# Shear Modulus (GPa) = 28.60439 34.32281 31.46360
#
# Velocity S-wave (km/s) = 3.69189 4.04412 3.87202
# Velocity P-wave (km/s) = 5.66098 6.19747 5.93529
#
# Compressibility (1/GPa) = 0.03434705
#
# Stress axis : x y z
#
# Youngs Moduli (GPa) = 105.14744 49.75909 80.63305
#
# Poissons Ratio (x) = -0.04165 0.07643
# Poissons Ratio (y) = -0.08801 0.29997
# Poissons Ratio (z) = 0.09966 0.18512
#
# Static dielectric constant tensor:
#      x y z
#    x 3.916740 0.000300 -0.035240 
#    y 0.000300 4.393360 -0.000410 
#    z -0.035240 -0.000410 3.842310 
# 
# 
# High freq. dielectric constant tensor:
#      x y z
#    x 1.844940 0.000000 -0.017880 
#    y 0.000000 1.804590 0.000000 
#    z -0.017880 0.000000 1.816480 
# 
# From -- ./inp_files/230976.got.cif
#   From: 2010.06.25/outbox.cif.g09.slc.cpg/sg15_116_cif.got.tgz:230976.got - 2010.06.28 07:06:18.
