data_PCOD8139275
_publ_section_title
;
Structure prediction by ZEFSAII (Michael W. Deem and Ramdas Pophale) SiO2 
 PCOD8139275
Probable space group: C 2/C
;
_chemical_formula_sum "Si O2"
_cell_formula_units_Z 44
_cell_length_a 10.805169
_cell_length_b 19.810556
_cell_length_c 11.192523
_cell_angle_alpha 90.000000
_cell_angle_beta 60.901725
_cell_angle_gamma 90.000000
_cell_volume 2093.445870
_symmetry_space_group_name_H-M "C 2/C"
_symmetry_group_IT_number 15
_symmetry_cell_setting 'monoclinic'
loop_
_space_group_symop_operation_xyz
x,y,z
-x,y,1/2-z
-x,-y,-z
x,-y,1/2+z
1/2+x,1/2+y,z
1/2-x,1/2+y,1/2-z
1/2-x,1/2-y,-z
1/2+x,1/2-y,1/2+z
loop_
_atom_site_type_symbol
_atom_site_label
_atom_site_fract_x
_atom_site_fract_y
_atom_site_fract_z
Si Si1 0.778065 0.624343 0.263296
Si Si2 0.584973 0.501537 0.834330
Si Si3 0.746173 0.365197 0.231360
Si Si4 0.500000 0.725716 0.750000
Si Si5 0.916784 0.648651 0.428601
Si Si6 0.832618 0.248177 0.336565
O O1 0.666875 0.568274 0.276080
O O2 0.783192 0.629996 0.405336
O O3 0.739538 0.695508 0.220391
O O4 0.940182 0.604906 0.155992
O O5 0.500000 0.513101 0.750000
O O6 0.696520 0.561644 0.797163
O O7 0.500000 0.500000 0.000000
O O8 0.624490 0.323239 0.226080
O O9 0.808292 0.325640 0.313751
O O10 0.876793 0.369129 0.080395
O O11 0.544750 0.772726 0.616430
O O12 0.750000 0.250000 0.500000
O O13 0.000000 0.231258 0.250000
#
# Coordination Sequence:
#
# PCOD8139275 Si02
#       6
#     8   8   8   4   8   8
#     4  10  23  44  69  95 141 175 224 284 348 407
#     4  12  28  46  70 102 137 187 232 283 348 417
#     4  12  24  42  69  98 132 171 237 273 336 422
#     4  10  20  38  72 100 130 158 228 294 324 400
#     4  10  21  43  71 101 123 179 224 286 345 395
#     4  12  27  42  66 100 140 184 224 284 352 409
#
# _framework density 21.017976999999998
#
# number of rings (size 3 to 8) (size 9 to 14) (size 15 to 20)
#    0.000    1.091    4.545    3.273    5.091    0.727 
#    3.273    0.000    0.000    0.000    0.000    0.000 
#    0.000    0.000    0.000    0.000    0.000    0.000 
#
# Total GULP energy -272544.439760 kJ/mol
# GULP energy per Si atom -12388.383625 kJ/mol
# Density = 2.097014 g / cm^3
# Si number density = 21.017977 Si / 1000 Ang^3
#
#
#
# Elastic Constant Matrix: (Units=GPa)
#
#
# Indices 1 2 3 4 5 6 
#
# 1 85.8042 8.5800 20.5581 0.0000 2.3184 0.0000
# 2 8.5800 86.3680 7.7845 0.0000 0.7926 0.0000
# 3 20.5581 7.7845 128.6928 0.0000 7.6875 0.0000
# 4 0.0000 0.0000 0.0000 -32.4638 0.0000 59.6250
# 5 2.3184 0.7926 7.6875 0.0000 28.7565 0.0000
# 6 0.0000 0.0000 0.0000 59.6250 0.0000 -26.6270
#
#
#
# Elastic Compliance Matrix: (Units=1/GPa)
#
#
# Indices 1 2 3 4 5 6 
#
# 1 0.012217 -0.001042 -0.001861 0.000000 -0.000459 0.000000
# 2 -0.001042 0.011731 -0.000537 0.000000 -0.000096 0.000000
# 3 -0.001861 -0.000537 0.008222 0.000000 -0.002033 0.000000
# 4 0.000000 0.000000 0.000000 0.009896 0.000000 0.022159
# 5 -0.000459 -0.000096 -0.002033 0.000000 0.035358 0.000000
# 6 0.000000 0.000000 0.000000 0.022159 0.000000 0.012065
#
#
# Mechanical properties :
#
#
# Convention : Reuss Voigt Hill
#
# Bulk Modulus (GPa) = 39.54279 41.63448 40.58863
# Shear Modulus (GPa) = 47.71038 11.52931 29.61985
#
# Velocity S-wave (km/s) = 4.76960 2.34464 3.75809
# Velocity P-wave (km/s) = 7.01333 5.21362 6.17934
#
# Compressibility (1/GPa) = 0.02528906
#
# Stress axis : x y z
#
# Youngs Moduli (GPa) = 81.85360 85.24303 121.62914
#
# Poissons Ratio (x) = 0.08880 0.22638
# Poissons Ratio (y) = 0.08527 0.06537
# Poissons Ratio (z) = 0.15235 0.04582
#
# Static dielectric constant tensor:
#      x y z
#    x 4.220420 0.000000 0.011030 
#    y 0.000000 3.801580 0.000000 
#    z 0.011030 0.000000 3.893490 
# 
# 
# High freq. dielectric constant tensor:
#      x y z
#    x 1.835190 0.000000 -0.005800 
#    y 0.000000 1.813900 0.000000 
#    z -0.005800 0.000000 1.830000 
# 
# From -- ./inp_files/87710.got.cif
#   From: 2010.06.25/outbox.cif.g09.slc.cpg/sg15_44_cif.got.tgz:87710.got - 2010.06.28 07:06:18.
