data_PCOD8139276
_publ_section_title
;
Structure prediction by ZEFSAII (Michael W. Deem and Ramdas Pophale) SiO2 
 PCOD8139276
Probable space group: C 2/C
;
_chemical_formula_sum "Si O2"
_cell_formula_units_Z 56
_cell_length_a 13.446456
_cell_length_b 10.842219
_cell_length_c 17.137757
_cell_angle_alpha 90.000000
_cell_angle_beta 93.428572
_cell_angle_gamma 90.000000
_cell_volume 2494.031667
_symmetry_space_group_name_H-M "C 2/C"
_symmetry_group_IT_number 15
_symmetry_cell_setting 'monoclinic'
loop_
_space_group_symop_operation_xyz
x,y,z
-x,y,1/2-z
-x,-y,-z
x,-y,1/2+z
1/2+x,1/2+y,z
1/2-x,1/2+y,1/2-z
1/2-x,1/2-y,-z
1/2+x,1/2-y,1/2+z
loop_
_atom_site_type_symbol
_atom_site_label
_atom_site_fract_x
_atom_site_fract_y
_atom_site_fract_z
Si Si1 0.404447 0.670239 0.689365
Si Si2 0.312443 0.063976 0.617228
Si Si3 0.982908 0.679977 0.905259
Si Si4 0.602128 0.003159 0.217623
Si Si5 0.570717 0.396932 0.824740
Si Si6 0.659683 0.178198 0.458655
Si Si7 0.776884 0.728432 0.313479
O O1 0.500000 0.689205 0.750000
O O2 0.396884 0.534895 0.648625
O O3 0.399369 0.764354 0.617178
O O4 0.307291 0.698843 0.736585
O O5 0.414354 0.107736 0.582912
O O6 0.226764 0.171837 0.614311
O O7 0.323318 0.028888 0.708961
O O8 0.282928 0.946466 0.564878
O O9 0.916887 0.619944 0.833073
O O10 0.008182 0.823726 0.888219
O O11 0.926352 0.660684 0.982704
O O12 0.500000 0.055009 0.250000
O O13 0.649343 0.113215 0.166844
O O14 0.500000 0.419898 0.750000
O O15 0.663721 0.317288 0.799809
O O16 0.750000 0.250000 0.500000
#
# Coordination Sequence:
#
# PCOD8139276 Si02
#       7
#     8   8   8   8   8   8   8
#     4  11  26  45  70 103 139 186 231 289 344 418
#     4  10  22  42  64  97 133 181 232 282 340 409
#     4  10  23  43  69  98 140 179 227 290 351 415
#     4  10  20  38  72 101 130 180 236 283 340 412
#     4  10  23  41  68 102 138 185 235 283 343 409
#     4  12  28  43  69 102 145 179 229 283 370 404
#     4  11  21  38  73 101 130 173 245 285 331 403
#
# _framework density 22.453603999999999
#
# number of rings (size 3 to 8) (size 9 to 14) (size 15 to 20)
#    0.000    1.429    1.429    3.857    8.000    1.714 
#    0.000    0.714    0.000    0.000    0.000    0.000 
#    0.000    0.000    0.000    0.000    0.000    0.000 
#
# Total GULP energy -346987.244444 kJ/mol
# GULP energy per Si atom -12392.401587 kJ/mol
# Density = 2.240250 g / cm^3
# Si number density = 22.453604 Si / 1000 Ang^3
#
#
#
# Elastic Constant Matrix: (Units=GPa)
#
#
# Indices 1 2 3 4 5 6 
#
# 1 84.0349 38.1470 44.6381 0.0000 -20.6095 0.0000
# 2 38.1470 133.6895 36.4858 0.0000 -21.6080 0.0000
# 3 44.6381 36.4858 95.8695 0.0000 -23.3906 0.0000
# 4 0.0000 0.0000 0.0000 38.0466 0.0000 -8.4235
# 5 -20.6095 -21.6080 -23.3906 0.0000 36.4325 0.0000
# 6 0.0000 0.0000 0.0000 -8.4235 0.0000 32.6928
#
#
#
# Elastic Compliance Matrix: (Units=1/GPa)
#
#
# Indices 1 2 3 4 5 6 
#
# 1 0.017357 -0.002597 -0.006016 0.000000 0.004416 0.000000
# 2 -0.002597 0.009118 -0.001541 0.000000 0.002949 0.000000
# 3 -0.006016 -0.001541 0.015136 0.000000 0.005400 0.000000
# 4 0.000000 0.000000 0.000000 0.027874 0.000000 0.007182
# 5 0.004416 0.002949 0.005400 0.000000 0.035163 0.000000
# 6 0.000000 0.000000 0.000000 0.007182 0.000000 0.032438
#
#
# Mechanical properties :
#
#
# Convention : Reuss Voigt Hill
#
# Bulk Modulus (GPa) = 46.94173 61.34842 54.14507
# Shear Modulus (GPa) = 30.39575 34.38925 32.39250
#
# Velocity S-wave (km/s) = 3.68328 3.91777 3.80233
# Velocity P-wave (km/s) = 6.24821 6.91714 6.59117
#
# Compressibility (1/GPa) = 0.02130301
#
# Stress axis : x y z
#
# Youngs Moduli (GPa) = 57.61220 109.66761 66.06668
#
# Poissons Ratio (x) = 0.28482 0.39745
# Poissons Ratio (y) = 0.14963 0.10184
# Poissons Ratio (z) = 0.34659 0.16905
#
# Static dielectric constant tensor:
#      x y z
#    x 4.094550 0.000000 -0.341880 
#    y 0.000000 4.763440 0.000000 
#    z -0.341880 0.000000 3.841320 
# 
# 
# High freq. dielectric constant tensor:
#      x y z
#    x 1.884660 0.000000 -0.022180 
#    y 0.000000 1.911500 0.000000 
#    z -0.022180 0.000000 1.849870 
# 
# From -- ./inp_files/152629.got.cif
#   From: 2010.06.25/outbox.cif.g09.slc.cpg/sg15_77_cif.got.tgz:152629.got - 2010.06.28 07:06:18.
