data_PCOD8139948
_publ_section_title
;
Structure prediction by ZEFSAII (Michael W. Deem and Ramdas Pophale) SiO2 
 PCOD8139948
Probable space group: C 2/C
;
_chemical_formula_sum "Si O2"
_cell_formula_units_Z 36
_cell_length_a 23.119573
_cell_length_b 7.457523
_cell_length_c 14.321915
_cell_angle_alpha 90.000000
_cell_angle_beta 135.658069
_cell_angle_gamma 90.000000
_cell_volume 1725.896283
_symmetry_space_group_name_H-M "C 2/C"
_symmetry_group_IT_number 15
_symmetry_cell_setting 'monoclinic'
loop_
_space_group_symop_operation_xyz
x,y,z
-x,y,1/2-z
-x,-y,-z
x,-y,1/2+z
1/2+x,1/2+y,z
1/2-x,1/2+y,1/2-z
1/2-x,1/2-y,-z
1/2+x,1/2-y,1/2+z
loop_
_atom_site_type_symbol
_atom_site_label
_atom_site_fract_x
_atom_site_fract_y
_atom_site_fract_z
Si Si1 0.000000 0.995066 0.750000
Si Si2 0.591092 0.943019 0.078282
Si Si3 0.633187 0.221106 0.445924
Si Si4 0.574252 0.572594 0.148343
Si Si5 0.679148 0.224685 0.296300
O O1 0.070193 0.114243 0.880792
O O2 0.040458 0.878601 0.713441
O O3 0.613316 0.750689 0.148975
O O4 0.655097 0.091684 0.185981
O O5 0.599421 0.933976 0.975519
O O6 0.500000 0.000000 0.000000
O O7 0.638257 0.151303 0.345372
O O8 0.722710 0.282961 0.584390
O O9 0.646748 0.425039 0.238620
O O10 0.500000 0.500000 0.000000
#
# Coordination Sequence:
#
# PCOD8139948 Si02
#       5
#     4   8   8   8   8
#     4  10  20  40  64  86 130 162 202 258 312 370
#     4  12  23  39  67  95 123 165 214 252 311 379
#     4  10  22  42  65  88 130 166 201 265 312 361
#     4  11  21  40  62  91 124 164 206 250 315 368
#     4  10  24  43  61  93 128 163 209 257 311 371
#
# _framework density 20.858726000000001
#
# number of rings (size 3 to 8) (size 9 to 14) (size 15 to 20)
#    0.000    1.333    4.444    1.333    3.111    1.778 
#    0.000   10.000    0.000    0.000    0.000    0.000 
#    0.000    0.000    0.000    0.000    0.000    0.000 
#
# Total GULP energy -223214.505791 kJ/mol
# GULP energy per Si atom -12400.805877 kJ/mol
# Density = 2.081125 g / cm^3
# Si number density = 20.858726 Si / 1000 Ang^3
#
#
#
# Elastic Constant Matrix: (Units=GPa)
#
#
# Indices 1 2 3 4 5 6 
#
# 1 94.2611 26.4920 19.5567 0.0000 -8.7392 0.0000
# 2 26.4920 86.3637 24.8313 0.0000 -2.7310 0.0000
# 3 19.5567 24.8313 90.9810 0.0000 12.2837 0.0000
# 4 0.0000 0.0000 0.0000 33.3792 0.0000 -9.7457
# 5 -8.7392 -2.7310 12.2837 0.0000 42.3059 0.0000
# 6 0.0000 0.0000 0.0000 -9.7457 0.0000 25.8518
#
#
#
# Elastic Compliance Matrix: (Units=1/GPa)
#
#
# Indices 1 2 3 4 5 6 
#
# 1 0.012186 -0.003013 -0.002197 0.000000 0.002961 0.000000
# 2 -0.003013 0.013455 -0.003183 0.000000 0.001170 0.000000
# 3 -0.002197 -0.003183 0.012928 0.000000 -0.004413 0.000000
# 4 0.000000 0.000000 0.000000 0.033664 0.000000 0.012691
# 5 0.002961 0.001170 -0.004413 0.000000 0.025606 0.000000
# 6 0.000000 0.000000 0.000000 0.012691 0.000000 0.043466
#
#
# Mechanical properties :
#
#
# Convention : Reuss Voigt Hill
#
# Bulk Modulus (GPa) = 45.90441 45.92955 45.91698
# Shear Modulus (GPa) = 30.23866 33.68910 31.96388
#
# Velocity S-wave (km/s) = 3.81161 4.02320 3.91883
# Velocity P-wave (km/s) = 6.43632 6.60671 6.52207
#
# Compressibility (1/GPa) = 0.02178440
#
# Stress axis : x y z
#
# Youngs Moduli (GPa) = 82.06246 74.32070 77.35155
#
# Poissons Ratio (x) = 0.22391 0.16993
# Poissons Ratio (y) = 0.24723 0.24619
# Poissons Ratio (z) = 0.18028 0.23654
#
# Static dielectric constant tensor:
#      x y z
#    x 4.174200 0.000000 -0.114330 
#    y 0.000000 3.352660 0.000000 
#    z -0.114330 0.000000 4.030730 
# 
# 
# High freq. dielectric constant tensor:
#      x y z
#    x 1.834500 0.000000 -0.006760 
#    y 0.000000 1.784880 0.000000 
#    z -0.006760 0.000000 1.829240 
# 
# From -- ./inp_files/165910.got.cif
#   From: 2010.06.25/outbox.cif.g09.slc.cpg/sg15_83_cif.got.tgz:165910.got - 2010.06.28 07:06:18.
