data_PCOD8139598
_publ_section_title
;
Structure prediction by ZEFSAII (Michael W. Deem and Ramdas Pophale) SiO2 
 PCOD8139598
Probable space group: C 2/C
;
_chemical_formula_sum "Si O2"
_cell_formula_units_Z 60
_cell_length_a 11.898644
_cell_length_b 14.954121
_cell_length_c 17.150906
_cell_angle_alpha 90.000000
_cell_angle_beta 78.667646
_cell_angle_gamma 90.000000
_cell_volume 2992.228349
_symmetry_space_group_name_H-M "C 2/C"
_symmetry_group_IT_number 15
_symmetry_cell_setting 'monoclinic'
loop_
_space_group_symop_operation_xyz
x,y,z
-x,y,1/2-z
-x,-y,-z
x,-y,1/2+z
1/2+x,1/2+y,z
1/2-x,1/2+y,1/2-z
1/2-x,1/2-y,-z
1/2+x,1/2-y,1/2+z
loop_
_atom_site_type_symbol
_atom_site_label
_atom_site_fract_x
_atom_site_fract_y
_atom_site_fract_z
Si Si1 0.205946 0.958407 0.373797
Si Si2 0.500000 0.458844 0.750000
Si Si3 0.815032 0.913584 0.302218
Si Si4 0.686789 0.342731 0.521500
Si Si5 0.225467 0.261246 0.594504
Si Si6 0.400521 0.063093 0.413285
Si Si7 0.931052 0.130951 0.115237
Si Si8 0.151752 0.478941 0.917807
O O1 0.181964 0.913859 0.292656
O O2 0.178390 0.880528 0.436561
O O3 0.338621 0.990572 0.365082
O O4 0.123414 0.040422 0.414286
O O5 0.579196 0.523285 0.685182
O O6 0.573184 0.392344 0.792916
O O7 0.826777 0.820242 0.347441
O O8 0.698343 0.960288 0.342341
O O9 0.750000 0.250000 0.500000
O O10 0.556683 0.338442 0.570532
O O11 0.763167 0.398924 0.571511
O O12 0.250000 0.250000 0.500000
O O13 0.132222 0.339425 0.613770
O O14 0.347739 0.285363 0.615175
O O15 0.536862 0.058639 0.394985
O O16 0.361839 0.045086 0.507248
#
# Coordination Sequence:
#
# PCOD8139598 Si02
#       8
#     8   4   8   8   8   8   8   8
#     4   9  22  41  62  89 123 170 214 251 327 384
#     4  10  22  44  64  92 126 178 212 252 328 382
#     4  11  22  41  64  93 125 166 210 269 317 380
#     4  11  23  38  62  95 124 168 215 268 310 380
#     4  11  23  38  65  98 122 162 214 271 318 371
#     4   9  20  40  61  92 124 162 211 256 322 388
#     4  10  22  41  66  89 129 167 212 260 322 386
#     4  10  20  39  65  86 128 169 207 259 317 391
#
# _framework density 20.051946000000001
#
# number of rings (size 3 to 8) (size 9 to 14) (size 15 to 20)
#    0.000    1.867    2.667    0.400    1.867    4.800 
#    2.400    0.000    0.000    0.000    0.000    0.000 
#    0.000    0.000    0.000    0.000    0.000    0.000 
#
# Total GULP energy -371692.366799 kJ/mol
# GULP energy per Si atom -12389.745560 kJ/mol
# Density = 2.000631 g / cm^3
# Si number density = 20.051946 Si / 1000 Ang^3
#
#
#
# Elastic Constant Matrix: (Units=GPa)
#
#
# Indices 1 2 3 4 5 6 
#
# 1 134.1408 40.2748 26.0046 0.0000 -1.5563 0.0000
# 2 40.2748 95.3972 39.5285 0.0000 -6.9584 0.0000
# 3 26.0046 39.5285 70.2444 0.0000 1.7135 0.0000
# 4 0.0000 0.0000 0.0000 31.0434 0.0000 3.3161
# 5 -1.5563 -6.9584 1.7135 0.0000 30.0089 0.0000
# 6 0.0000 0.0000 0.0000 3.3161 0.0000 29.9595
#
#
#
# Elastic Compliance Matrix: (Units=1/GPa)
#
#
# Indices 1 2 3 4 5 6 
#
# 1 0.008657 -0.003053 -0.001482 0.000000 -0.000174 0.000000
# 2 -0.003053 0.015150 -0.007487 0.000000 0.003782 0.000000
# 3 -0.001482 -0.007487 0.019069 0.000000 -0.002902 0.000000
# 4 0.000000 0.000000 0.000000 0.032598 0.000000 -0.003608
# 5 -0.000174 0.003782 -0.002902 0.000000 0.034357 0.000000
# 6 0.000000 0.000000 0.000000 -0.003608 0.000000 0.033778
#
#
# Mechanical properties :
#
#
# Convention : Reuss Voigt Hill
#
# Bulk Modulus (GPa) = 53.10702 56.82201 54.96451
# Shear Modulus (GPa) = 28.74704 31.13398 29.94051
#
# Velocity S-wave (km/s) = 3.79044 3.94466 3.86832
# Velocity P-wave (km/s) = 6.76009 7.01043 6.88639
#
# Compressibility (1/GPa) = 0.01882990
#
# Stress axis : x y z
#
# Youngs Moduli (GPa) = 115.51442 66.00780 52.44166
#
# Poissons Ratio (x) = 0.20154 0.07774
# Poissons Ratio (y) = 0.35270 0.39264
# Poissons Ratio (z) = 0.17124 0.49421
#
# Static dielectric constant tensor:
#      x y z
#    x 3.878930 0.000000 0.130230 
#    y 0.000000 3.602840 0.000000 
#    z 0.130230 0.000000 3.548220 
# 
# 
# High freq. dielectric constant tensor:
#      x y z
#    x 1.797370 0.000000 0.010090 
#    y 0.000000 1.776030 0.000000 
#    z 0.010090 0.000000 1.774220 
# 
# From -- ./inp_files/197857.got.cif
#   From: 2010.06.25/outbox.cif.g09.slc.cpg/sg15_99_cif.got.tgz:197857.got - 2010.06.28 07:06:18.
