data_PCOD8139539
_publ_section_title
;
Structure prediction by ZEFSAII (Michael W. Deem and Ramdas Pophale) SiO2 
 PCOD8139539
Probable space group: C 2/C
;
_chemical_formula_sum "Si O2"
_cell_formula_units_Z 64
_cell_length_a 29.609159
_cell_length_b 14.406809
_cell_length_c 8.557560
_cell_angle_alpha 90.000000
_cell_angle_beta 124.902727
_cell_angle_gamma 90.000000
_cell_volume 2993.806214
_symmetry_space_group_name_H-M "C 2/C"
_symmetry_group_IT_number 15
_symmetry_cell_setting 'monoclinic'
loop_
_space_group_symop_operation_xyz
x,y,z
-x,y,1/2-z
-x,-y,-z
x,-y,1/2+z
1/2+x,1/2+y,z
1/2-x,1/2+y,1/2-z
1/2-x,1/2-y,-z
1/2+x,1/2-y,1/2+z
loop_
_atom_site_type_symbol
_atom_site_label
_atom_site_fract_x
_atom_site_fract_y
_atom_site_fract_z
Si Si1 0.707865 0.392876 0.946344
Si Si2 0.096824 0.131003 0.713131
Si Si3 0.188943 0.699389 0.812559
Si Si4 0.519847 0.785946 0.464902
Si Si5 0.192922 0.727354 0.468953
Si Si6 0.103786 0.585137 0.254320
Si Si7 0.078145 0.389138 0.058404
Si Si8 0.359684 0.493449 0.945002
O O1 0.697667 0.282668 0.953448
O O2 0.678104 0.426190 0.731684
O O3 0.685255 0.451446 0.044303
O O4 0.775199 0.393718 0.072139
O O5 0.149110 0.197826 0.823694
O O6 0.102545 0.064313 0.575357
O O7 0.039576 0.188659 0.583996
O O8 0.097183 0.067176 0.868728
O O9 0.206327 0.736192 0.676828
O O10 0.124554 0.684335 0.688446
O O11 0.500000 0.766618 0.250000
O O12 0.572487 0.853082 0.562925
O O13 0.476568 0.840990 0.486063
O O14 0.250000 0.750000 0.500000
O O15 0.167003 0.623498 0.385762
O O16 0.097043 0.480375 0.187695
O O17 0.074156 0.594106 0.364985
#
# Coordination Sequence:
#
# PCOD8139539 Si02
#       8
#     8   8   8   8   8   8   8   8
#     4  10  21  39  62  93 130 169 207 257 320 381
#     4  10  22  41  64  95 124 173 214 265 331 375
#     4  10  22  38  61  97 130 171 214 252 328 378
#     4  11  24  43  67  92 125 166 216 270 335 380
#     4  10  20  39  63  96 138 172 214 262 317 385
#     4  10  23  42  65  98 127 174 215 261 328 388
#     4  11  23  42  66  92 133 165 218 269 313 392
#     4  10  21  40  68  89 133 167 217 265 313 389
#
# _framework density 21.377469000000001
#
# number of rings (size 3 to 8) (size 9 to 14) (size 15 to 20)
#    0.000    1.750    1.250    2.250    1.750    4.000 
#    6.750    0.625    0.000    0.000    0.000    0.000 
#    0.000    0.000    0.000    0.000    0.000    0.000 
#
# Total GULP energy -396548.155089 kJ/mol
# GULP energy per Si atom -12392.129847 kJ/mol
# Density = 2.132881 g / cm^3
# Si number density = 21.377469 Si / 1000 Ang^3
#
#
#
# Elastic Constant Matrix: (Units=GPa)
#
#
# Indices 1 2 3 4 5 6 
#
# 1 73.7630 46.3173 36.7378 0.0000 7.7385 0.0000
# 2 46.3173 118.0626 43.9994 0.0000 -2.9788 0.0000
# 3 36.7378 43.9994 105.4412 0.0000 -1.3743 0.0000
# 4 0.0000 0.0000 0.0000 45.6377 0.0000 8.8771
# 5 7.7385 -2.9788 -1.3743 0.0000 21.3683 0.0000
# 6 0.0000 0.0000 0.0000 8.8771 0.0000 32.4287
#
#
#
# Elastic Compliance Matrix: (Units=1/GPa)
#
#
# Indices 1 2 3 4 5 6 
#
# 1 0.021027 -0.006749 -0.004625 0.000000 -0.008853 0.000000
# 2 -0.006749 0.012223 -0.002697 0.000000 0.003975 0.000000
# 3 -0.004625 -0.002697 0.012248 0.000000 0.002087 0.000000
# 4 0.000000 0.000000 0.000000 0.023144 0.000000 -0.006335
# 5 -0.008853 0.003975 0.002087 0.000000 0.050693 0.000000
# 6 0.000000 0.000000 0.000000 -0.006335 0.000000 0.032571
#
#
# Mechanical properties :
#
#
# Convention : Reuss Voigt Hill
#
# Bulk Modulus (GPa) = 57.61877 61.26397 59.44137
# Shear Modulus (GPa) = 26.90557 31.23443 29.07000
#
# Velocity S-wave (km/s) = 3.55152 3.82657 3.69161
# Velocity P-wave (km/s) = 6.62037 6.94578 6.78503
#
# Compressibility (1/GPa) = 0.01735545
#
# Stress axis : x y z
#
# Youngs Moduli (GPa) = 47.55759 81.81133 81.64351
#
# Poissons Ratio (x) = 0.55212 0.37764
# Poissons Ratio (y) = 0.32095 0.22023
# Poissons Ratio (z) = 0.21998 0.22068
#
# Static dielectric constant tensor:
#      x y z
#    x 3.673210 0.000000 -0.035120 
#    y 0.000000 4.045990 0.000000 
#    z -0.035120 0.000000 4.247690 
# 
# 
# High freq. dielectric constant tensor:
#      x y z
#    x 1.815050 0.000000 0.001190 
#    y 0.000000 1.845850 0.000000 
#    z 0.001190 0.000000 1.860250 
# 
# From -- ./inp_files/70163.got.cif
#   From: 2010.06.25/outbox.cif.g09.slc.cpg/sg15_36_cif.got.tgz:70163.got - 2010.06.28 07:06:18.
