data_PCOD8139045
_publ_section_title
;
Structure prediction by ZEFSAII (Michael W. Deem and Ramdas Pophale) SiO2 
 PCOD8139045
Probable space group: C 2/C
;
_chemical_formula_sum "Si O2"
_cell_formula_units_Z 56
_cell_length_a 21.432826
_cell_length_b 17.277531
_cell_length_c 13.289839
_cell_angle_alpha 90.000000
_cell_angle_beta 148.722584
_cell_angle_gamma 90.000000
_cell_volume 2555.057598
_symmetry_space_group_name_H-M "C 2/C"
_symmetry_group_IT_number 15
_symmetry_cell_setting 'monoclinic'
loop_
_space_group_symop_operation_xyz
x,y,z
-x,y,1/2-z
-x,-y,-z
x,-y,1/2+z
1/2+x,1/2+y,z
1/2-x,1/2+y,1/2-z
1/2-x,1/2-y,-z
1/2+x,1/2-y,1/2+z
loop_
_atom_site_type_symbol
_atom_site_label
_atom_site_fract_x
_atom_site_fract_y
_atom_site_fract_z
Si Si1 0.373096 0.106207 0.700254
Si Si2 0.688599 0.753715 0.268299
Si Si3 0.466254 0.308253 0.366197
Si Si4 0.231488 0.996350 0.154972
Si Si5 0.000000 0.937118 0.250000
Si Si6 0.853372 0.618620 0.452194
Si Si7 0.500000 0.178613 0.250000
Si Si8 0.236106 0.363674 0.156916
O O1 0.307892 0.190518 0.627713
O O2 0.332383 0.040405 0.721985
O O3 0.347580 0.075032 0.552334
O O4 0.513832 0.122176 0.909945
O O5 0.809312 0.704942 0.417738
O O6 0.678631 0.813498 0.164787
O O7 0.570292 0.698517 0.095588
O O8 0.484434 0.386244 0.327836
O O9 0.465877 0.233012 0.296549
O O10 0.336897 0.314580 0.239302
O O11 0.208550 0.942288 0.220884
O O12 0.272511 0.078963 0.255251
O O13 0.113126 0.006708 0.924435
O O14 0.616697 0.122753 0.424104
#
# Coordination Sequence:
#
# PCOD8139045 Si02
#       8
#     8   8   8   8   4   8   4   8
#     4  10  24  41  66  99 130 171 219 263 328 384
#     4  10  20  41  64  96 128 163 219 272 318 387
#     4  10  20  38  64  90 123 166 213 269 325 377
#     4  11  25  43  61  95 132 170 219 267 318 396
#     4  11  24  42  60  90 125 168 220 264 323 382
#     4  11  22  43  68  92 132 176 213 266 330 385
#     4   9  20  38  60  94 123 160 216 268 325 386
#     4  10  22  38  61  93 127 165 212 266 326 382
#
# _framework density 21.917313
#
# number of rings (size 3 to 8) (size 9 to 14) (size 15 to 20)
#    0.000    1.714    1.429    2.143    2.000    2.857 
#    7.714    5.714    0.000    0.000    0.000    0.000 
#    0.000    0.000    0.000    0.000    0.000    0.000 
#
# Total GULP energy -347078.171019 kJ/mol
# GULP energy per Si atom -12395.648965 kJ/mol
# Density = 2.186743 g / cm^3
# Si number density = 21.917313 Si / 1000 Ang^3
#
#
#
# Elastic Constant Matrix: (Units=GPa)
#
#
# Indices 1 2 3 4 5 6 
#
# 1 70.5411 32.6873 22.0206 0.0000 14.9467 0.0000
# 2 32.6873 84.4335 34.0459 0.0000 3.0903 0.0000
# 3 22.0206 34.0459 113.9304 0.0000 16.6277 0.0000
# 4 0.0000 0.0000 0.0000 37.4474 0.0000 8.4126
# 5 14.9467 3.0903 16.6277 0.0000 28.2574 0.0000
# 6 0.0000 0.0000 0.0000 8.4126 0.0000 -7.5880
#
#
#
# Elastic Compliance Matrix: (Units=1/GPa)
#
#
# Indices 1 2 3 4 5 6 
#
# 1 0.019550 -0.007111 -0.000282 0.000000 -0.009397 0.000000
# 2 -0.007111 0.016078 -0.004072 0.000000 0.004399 0.000000
# 3 -0.000282 -0.004072 0.010898 0.000000 -0.005818 0.000000
# 4 0.000000 0.000000 0.000000 0.021379 0.000000 0.023703
# 5 -0.009397 0.004399 -0.005818 0.000000 0.043302 0.000000
# 6 0.000000 0.000000 0.000000 0.023703 0.000000 -0.105509
#
#
# Mechanical properties :
#
#
# Convention : Reuss Voigt Hill
#
# Bulk Modulus (GPa) = 42.38145 49.60142 45.99144
# Shear Modulus (GPa) = 137.00855 23.63346 80.32100
#
# Velocity S-wave (km/s) = 7.91500 3.28731 6.06027
# Velocity P-wave (km/s) = 10.14439 6.09006 8.36653
#
# Compressibility (1/GPa) = 0.02359523
#
# Stress axis : x y z
#
# Youngs Moduli (GPa) = 51.14963 62.19864 91.76139
#
# Poissons Ratio (x) = 0.44229 0.02590
# Poissons Ratio (y) = 0.36372 0.37366
# Poissons Ratio (z) = 0.01444 0.25328
#
# Static dielectric constant tensor:
#      x y z
#    x 4.042010 0.000000 -0.146400 
#    y 0.000000 3.827150 0.000000 
#    z -0.146400 0.000000 3.982990 
# 
# 
# High freq. dielectric constant tensor:
#      x y z
#    x 1.865030 0.000000 -0.001890 
#    y 0.000000 1.849000 0.000000 
#    z -0.001890 0.000000 1.866070 
# 
# From -- ./inp_files/98281.got.cif
#   From: 2010.06.25/outbox.cif.g09.slc.cpg/sg15_50_cif.got.tgz:98281.got - 2010.06.28 07:06:18.
