data_PCOD8139605
_publ_section_title
;
Structure prediction by ZEFSAII (Michael W. Deem and Ramdas Pophale) SiO2 
 PCOD8139605
Probable space group: C 2/C
;
_chemical_formula_sum "Si O2"
_cell_formula_units_Z 48
_cell_length_a 11.318511
_cell_length_b 23.122316
_cell_length_c 9.611040
_cell_angle_alpha 90.000000
_cell_angle_beta 122.613434
_cell_angle_gamma 90.000000
_cell_volume 2118.708681
_symmetry_space_group_name_H-M "C 2/C"
_symmetry_group_IT_number 15
_symmetry_cell_setting 'monoclinic'
loop_
_space_group_symop_operation_xyz
x,y,z
-x,y,1/2-z
-x,-y,-z
x,-y,1/2+z
1/2+x,1/2+y,z
1/2-x,1/2+y,1/2-z
1/2-x,1/2-y,-z
1/2+x,1/2-y,1/2+z
loop_
_atom_site_type_symbol
_atom_site_label
_atom_site_fract_x
_atom_site_fract_y
_atom_site_fract_z
Si Si1 0.300507 0.892751 0.356191
Si Si2 0.423759 0.104999 0.338180
Si Si3 0.360152 0.211774 0.731876
Si Si4 0.611051 0.572121 0.489611
Si Si5 0.288477 0.669452 0.120977
Si Si6 0.834315 0.941884 0.969273
O O1 0.451071 0.923083 0.488887
O O2 0.328412 0.823587 0.353809
O O3 0.241766 0.918506 0.176096
O O4 0.190102 0.902705 0.410076
O O5 0.500000 0.131917 0.250000
O O6 0.351080 0.155889 0.379893
O O7 0.305497 0.058146 0.216791
O O8 0.500000 0.187120 0.750000
O O9 0.371284 0.281544 0.763871
O O10 0.235511 0.198052 0.544971
O O11 0.625858 0.610353 0.358200
O O12 0.621251 0.505346 0.450410
O O13 0.462536 0.586987 0.466705
#
# Coordination Sequence:
#
# PCOD8139605 Si02
#       6
#     8   8   8   8   8   8
#     4  10  21  43  63  89 131 170 209 261 321 384
#     4  10  22  41  60  91 132 163 210 263 314 378
#     4  10  20  39  65  90 122 166 215 268 316 374
#     4  10  23  40  66  92 127 173 212 264 313 380
#     4  10  22  39  63  94 121 166 218 264 316 376
#     4  10  23  41  61  97 132 166 211 261 321 386
#
# _framework density 22.655308999999999
#
# number of rings (size 3 to 8) (size 9 to 14) (size 15 to 20)
#    0.000    2.000    1.667    0.500    4.667    0.667 
#    6.000    8.333    0.000    0.000    0.000    0.000 
#    0.000    0.000    0.000    0.000    0.000    0.000 
#
# Total GULP energy -297404.243807 kJ/mol
# GULP energy per Si atom -12391.843492 kJ/mol
# Density = 2.260374 g / cm^3
# Si number density = 22.655309 Si / 1000 Ang^3
#
#
#
# Elastic Constant Matrix: (Units=GPa)
#
#
# Indices 1 2 3 4 5 6 
#
# 1 155.7055 66.9754 42.6237 0.0000 -16.5327 0.0000
# 2 66.9754 120.9809 26.8968 0.0000 -26.3262 0.0000
# 3 42.6237 26.8968 74.7352 0.0000 -0.4295 0.0000
# 4 0.0000 0.0000 0.0000 20.2455 0.0000 -1.1041
# 5 -16.5327 -26.3262 -0.4295 0.0000 37.4305 0.0000
# 6 0.0000 0.0000 0.0000 -1.1041 0.0000 29.7407
#
#
#
# Elastic Compliance Matrix: (Units=1/GPa)
#
#
# Indices 1 2 3 4 5 6 
#
# 1 0.009355 -0.004049 -0.003871 0.000000 0.001240 0.000000
# 2 -0.004049 0.012505 -0.002151 0.000000 0.006982 0.000000
# 3 -0.003871 -0.002151 0.016345 0.000000 -0.003035 0.000000
# 4 0.000000 0.000000 0.000000 0.049494 0.000000 0.001837
# 5 0.001240 0.006982 -0.003035 0.000000 0.032140 0.000000
# 6 0.000000 0.000000 0.000000 0.001837 0.000000 0.033692
#
#
# Mechanical properties :
#
#
# Convention : Reuss Voigt Hill
#
# Bulk Modulus (GPa) = 55.36206 69.37926 62.37066
# Shear Modulus (GPa) = 27.82498 31.81173 29.81835
#
# Velocity S-wave (km/s) = 3.50835 3.75128 3.63185
# Velocity P-wave (km/s) = 6.39540 7.03229 6.72139
#
# Compressibility (1/GPa) = 0.01806291
#
# Stress axis : x y z
#
# Youngs Moduli (GPa) = 106.89133 79.97023 61.17947
#
# Poissons Ratio (x) = 0.32376 0.23685
# Poissons Ratio (y) = 0.43275 0.13161
# Poissons Ratio (z) = 0.41382 0.17203
#
# Static dielectric constant tensor:
#      x y z
#    x 4.170160 0.000000 0.112790 
#    y 0.000000 4.083180 0.000000 
#    z 0.112790 0.000000 4.178990 
# 
# 
# High freq. dielectric constant tensor:
#      x y z
#    x 1.903160 0.000000 0.011880 
#    y 0.000000 1.866200 0.000000 
#    z 0.011880 0.000000 1.893100 
# 
# From -- ./inp_files/32634.got.cif
#   From: 2010.06.25/outbox.cif.g09.slc.cpg/sg15_17_cif.got.tgz:32634.got - 2010.06.28 07:06:18.
