data_PCOD8139873
_publ_section_title
;
Structure prediction by ZEFSAII (Michael W. Deem and Ramdas Pophale) SiO2 
 PCOD8139873
Probable space group: C 2/C
;
_chemical_formula_sum "Si O2"
_cell_formula_units_Z 52
_cell_length_a 14.123205
_cell_length_b 12.364060
_cell_length_c 15.621354
_cell_angle_alpha 90.000000
_cell_angle_beta 116.000953
_cell_angle_gamma 90.000000
_cell_volume 2451.713423
_symmetry_space_group_name_H-M "C 2/C"
_symmetry_group_IT_number 15
_symmetry_cell_setting 'monoclinic'
loop_
_space_group_symop_operation_xyz
x,y,z
-x,y,1/2-z
-x,-y,-z
x,-y,1/2+z
1/2+x,1/2+y,z
1/2-x,1/2+y,1/2-z
1/2-x,1/2-y,-z
1/2+x,1/2-y,1/2+z
loop_
_atom_site_type_symbol
_atom_site_label
_atom_site_fract_x
_atom_site_fract_y
_atom_site_fract_z
Si Si1 0.000000 0.774188 0.750000
Si Si2 0.590850 0.808248 0.982647
Si Si3 0.888313 0.369256 0.811752
Si Si4 0.748995 0.637330 0.095779
Si Si5 0.988935 0.410370 0.380320
Si Si6 0.778914 0.408550 0.069141
Si Si7 0.787179 0.177443 0.129272
O O1 0.983346 0.701013 0.827257
O O2 0.901091 0.855742 0.710396
O O3 0.489097 0.793715 0.878544
O O4 0.690849 0.851658 0.970427
O O5 0.636238 0.699586 0.047063
O O6 0.553161 0.893251 0.039813
O O7 0.826062 0.323172 0.703997
O O8 0.924855 0.492754 0.808480
O O9 0.808329 0.374803 0.858702
O O10 0.724111 0.509399 0.095900
O O11 0.110239 0.447397 0.427684
O O12 0.787566 0.308946 0.138719
O O13 0.706865 0.363253 0.965014
#
# Coordination Sequence:
#
# PCOD8139873 Si02
#       7
#     4   8   8   8   8   8   8
#     4  10  22  38  64  96 118 158 194 268 296 376
#     4  11  23  38  60  92 124 161 194 261 305 361
#     4  12  21  38  65  94 116 164 208 261 291 364
#     4  11  24  38  59  90 130 159 207 247 313 357
#     4  11  20  38  67  92 116 148 223 250 301 345
#     4  10  20  40  62  90 115 163 197 260 297 367
#     4  10  21  36  65  88 123 151 212 245 316 349
#
# _framework density 21.209655999999999
#
# number of rings (size 3 to 8) (size 9 to 14) (size 15 to 20)
#    0.000    1.231    3.077    4.615    0.000    0.000 
#    0.000    0.769   13.538    0.000    0.000    0.000 
#    0.000    0.000    0.000    0.000    0.000    0.000 
#
# Total GULP energy -322197.944127 kJ/mol
# GULP energy per Si atom -12392.228620 kJ/mol
# Density = 2.116138 g / cm^3
# Si number density = 21.209656 Si / 1000 Ang^3
#
#
#
# Elastic Constant Matrix: (Units=GPa)
#
#
# Indices 1 2 3 4 5 6 
#
# 1 86.3250 27.1269 14.5542 0.0000 19.2106 0.0000
# 2 27.1269 69.5604 21.2601 0.0000 19.2067 0.0000
# 3 14.5542 21.2601 75.3414 0.0000 14.1954 0.0000
# 4 0.0000 0.0000 0.0000 25.1852 0.0000 4.4003
# 5 19.2106 19.2067 14.1954 0.0000 42.4994 0.0000
# 6 0.0000 0.0000 0.0000 4.4003 0.0000 28.3582
#
#
#
# Elastic Compliance Matrix: (Units=1/GPa)
#
#
# Indices 1 2 3 4 5 6 
#
# 1 0.013917 -0.004032 -0.000756 0.000000 -0.004216 0.000000
# 2 -0.004032 0.018481 -0.003421 0.000000 -0.005387 0.000000
# 3 -0.000756 -0.003421 0.014971 0.000000 -0.003112 0.000000
# 4 0.000000 0.000000 0.000000 0.040812 0.000000 -0.006333
# 5 -0.004216 -0.005387 -0.003112 0.000000 0.028910 0.000000
# 6 0.000000 0.000000 0.000000 -0.006333 0.000000 0.036246
#
#
# Mechanical properties :
#
#
# Convention : Reuss Voigt Hill
#
# Bulk Modulus (GPa) = 32.31018 39.67878 35.99448
# Shear Modulus (GPa) = 27.76655 30.42760 29.09708
#
# Velocity S-wave (km/s) = 3.62214 3.79173 3.70791
# Velocity P-wave (km/s) = 5.72363 6.15777 5.94467
#
# Compressibility (1/GPa) = 0.03095000
#
# Stress axis : x y z
#
# Youngs Moduli (GPa) = 71.85531 54.10818 66.79641
#
# Poissons Ratio (x) = 0.21816 0.05052
# Poissons Ratio (y) = 0.28972 0.22853
# Poissons Ratio (z) = 0.05434 0.18512
#
# Static dielectric constant tensor:
#      x y z
#    x 3.880950 0.000000 0.232860 
#    y 0.000000 3.718610 0.000000 
#    z 0.232860 0.000000 3.935410 
# 
# 
# High freq. dielectric constant tensor:
#      x y z
#    x 1.823650 0.000000 0.006310 
#    y 0.000000 1.803280 0.000000 
#    z 0.006310 0.000000 1.842290 
# 
# From -- ./inp_files/152697.got.cif
#   From: 2010.06.25/outbox.cif.g09.slc.cpg/sg15_77_cif.got.tgz:152697.got - 2010.06.28 07:06:18.
