data_PCOD8139345
_publ_section_title
;
Structure prediction by ZEFSAII (Michael W. Deem and Ramdas Pophale) SiO2 
 PCOD8139345
Probable space group: C 2/C
;
_chemical_formula_sum "Si O2"
_cell_formula_units_Z 60
_cell_length_a 12.227928
_cell_length_b 22.541230
_cell_length_c 14.144171
_cell_angle_alpha 90.000000
_cell_angle_beta 45.447822
_cell_angle_gamma 90.000000
_cell_volume 2778.184103
_symmetry_space_group_name_H-M "C 2/C"
_symmetry_group_IT_number 15
_symmetry_cell_setting 'monoclinic'
loop_
_space_group_symop_operation_xyz
x,y,z
-x,y,1/2-z
-x,-y,-z
x,-y,1/2+z
1/2+x,1/2+y,z
1/2-x,1/2+y,1/2-z
1/2-x,1/2-y,-z
1/2+x,1/2-y,1/2+z
loop_
_atom_site_type_symbol
_atom_site_label
_atom_site_fract_x
_atom_site_fract_y
_atom_site_fract_z
Si Si1 0.678978 0.674651 0.444168
Si Si2 0.481394 0.507356 0.366620
Si Si3 0.685322 0.283240 0.629882
Si Si4 0.000000 0.527646 0.750000
Si Si5 0.322363 0.680927 0.646463
Si Si6 0.721378 0.550262 0.358359
Si Si7 0.675854 0.699844 0.652199
Si Si8 0.764602 0.606693 0.977434
O O1 0.502487 0.676430 0.520210
O O2 0.756431 0.620964 0.337390
O O3 0.719111 0.663942 0.531273
O O4 0.739312 0.738696 0.381599
O O5 0.500000 0.480538 0.250000
O O6 0.647158 0.526181 0.306704
O O7 0.400039 0.458416 0.481771
O O8 0.383673 0.566687 0.423567
O O9 0.500000 0.283812 0.750000
O O10 0.750000 0.250000 0.500000
O O11 0.759711 0.249042 0.673651
O O12 0.754488 0.349618 0.574264
O O13 0.123611 0.486261 0.725312
O O14 0.079852 0.567823 0.619681
O O15 0.288909 0.660612 0.775252
O O16 0.236388 0.639218 0.624167
O O17 0.500000 0.718162 0.750000
#
# Coordination Sequence:
#
# PCOD8139345 Si02
#       8
#     8   8   8   4   8   8   8   8
#     4  10  20  39  60  88 123 164 215 264 314 390
#     4  10  21  40  67  92 117 162 220 271 319 397
#     4  10  23  36  59  95 133 169 210 256 324 399
#     4  10  24  42  64  90 130 172 218 280 330 380
#     4  10  21  35  62  91 126 170 204 259 327 394
#     4  10  22  42  64  90 124 166 215 271 332 380
#     4   9  21  36  58  90 122 162 211 256 319 391
#     4  10  21  39  62  91 132 167 212 271 323 391
#
# _framework density 21.596841000000001
#
# number of rings (size 3 to 8) (size 9 to 14) (size 15 to 20)
#    0.000    2.133    1.333    0.400    8.400    2.667 
#    0.000    2.667    0.000    0.000    0.000    0.000 
#    0.000    0.000    0.000    0.000    0.000    0.000 
#
# Total GULP energy -371743.584902 kJ/mol
# GULP energy per Si atom -12391.452830 kJ/mol
# Density = 2.154769 g / cm^3
# Si number density = 21.596841 Si / 1000 Ang^3
#
#
#
# Elastic Constant Matrix: (Units=GPa)
#
#
# Indices 1 2 3 4 5 6 
#
# 1 92.5938 20.2372 37.0212 -0.0001 0.0470 0.0001
# 2 20.2372 67.4607 5.1371 0.0000 -22.7295 0.0000
# 3 37.0212 5.1371 74.1069 0.0000 -6.7263 0.0001
# 4 -0.0001 0.0000 0.0000 16.7925 0.0000 0.8122
# 5 0.0470 -22.7295 -6.7263 0.0000 36.6985 -0.0001
# 6 0.0001 0.0000 0.0001 0.8122 -0.0001 20.0474
#
#
#
# Elastic Compliance Matrix: (Units=1/GPa)
#
#
# Indices 1 2 3 4 5 6 
#
# 1 0.015048 -0.005575 -0.007572 0.000000 -0.004860 0.000000
# 2 -0.005575 0.020803 0.002556 0.000000 0.013360 0.000000
# 3 -0.007572 0.002556 0.017536 0.000000 0.004807 0.000000
# 4 0.000000 0.000000 0.000000 0.059667 0.000000 -0.002417
# 5 -0.004860 0.013360 0.004807 0.000000 0.036411 0.000000
# 6 0.000000 0.000000 0.000000 -0.002417 0.000000 0.049980
#
#
# Mechanical properties :
#
#
# Convention : Reuss Voigt Hill
#
# Bulk Modulus (GPa) = 31.05253 39.88361 35.46807
# Shear Modulus (GPa) = 21.61103 26.15873 23.88488
#
# Velocity S-wave (km/s) = 3.16675 3.48405 3.32918
# Velocity P-wave (km/s) = 5.27073 5.89001 5.58895
#
# Compressibility (1/GPa) = 0.03220349
#
# Stress axis : x y z
#
# Youngs Moduli (GPa) = 66.45197 48.07079 57.02543
#
# Poissons Ratio (x) = 0.26801 0.43182
# Poissons Ratio (y) = 0.37049 -0.14575
# Poissons Ratio (z) = 0.50320 -0.12286
#
# Static dielectric constant tensor:
#      x y z
#    x 4.155080 0.000000 0.201730 
#    y 0.000000 4.124990 0.000000 
#    z 0.201730 0.000000 3.990960 
# 
# 
# High freq. dielectric constant tensor:
#      x y z
#    x 1.842880 0.000000 0.001720 
#    y 0.000000 1.847580 0.000000 
#    z 0.001720 0.000000 1.837220 
# 
# From -- ./inp_files/148090.got.cif
#   From: 2010.06.25/outbox.cif.g09.slc.cpg/sg15_75_cif.got.tgz:148090.got - 2010.06.28 07:06:18.
