data_PCOD8139884
_publ_section_title
;
Structure prediction by ZEFSAII (Michael W. Deem and Ramdas Pophale) SiO2 
 PCOD8139884
Probable space group: C 2/C
;
_chemical_formula_sum "Si O2"
_cell_formula_units_Z 64
_cell_length_a 23.172656
_cell_length_b 9.015476
_cell_length_c 30.151136
_cell_angle_alpha 90.000000
_cell_angle_beta 150.386712
_cell_angle_gamma 90.000000
_cell_volume 3112.585200
_symmetry_space_group_name_H-M "C 2/C"
_symmetry_group_IT_number 15
_symmetry_cell_setting 'monoclinic'
loop_
_space_group_symop_operation_xyz
x,y,z
-x,y,1/2-z
-x,-y,-z
x,-y,1/2+z
1/2+x,1/2+y,z
1/2-x,1/2+y,1/2-z
1/2-x,1/2-y,-z
1/2+x,1/2-y,1/2+z
loop_
_atom_site_type_symbol
_atom_site_label
_atom_site_fract_x
_atom_site_fract_y
_atom_site_fract_z
Si Si1 0.540138 0.209898 0.931290
Si Si2 0.571136 0.398175 0.254642
Si Si3 0.277489 0.017301 0.945520
Si Si4 0.790104 0.419574 0.250523
Si Si5 0.122573 0.246604 0.699498
Si Si6 0.377075 0.424446 0.582772
Si Si7 0.131693 0.169429 0.993385
Si Si8 0.383790 0.553434 0.944880
O O1 0.403649 0.186357 0.829640
O O2 0.602069 0.270007 0.928100
O O3 0.569679 0.320081 0.990942
O O4 0.597297 0.052256 0.982745
O O5 0.500000 0.330706 0.250000
O O6 0.690909 0.481803 0.346188
O O7 0.597495 0.271592 0.235495
O O8 0.498245 0.532642 0.186195
O O9 0.224708 0.914357 0.949062
O O10 0.289377 0.189809 0.965735
O O11 0.826500 0.591293 0.276804
O O12 0.712165 0.378417 0.241367
O O13 0.715043 0.388318 0.155451
O O14 0.002914 0.219465 0.593169
O O15 0.338962 0.554991 0.525064
O O16 0.168567 0.089127 0.063959
O O17 0.500000 0.500000 0.000000
#
# Coordination Sequence:
#
# PCOD8139884 Si02
#       8
#     8   8   8   8   8   8   8   8
#     4  11  25  39  63  96 127 168 218 268 326 385
#     4   9  21  40  67  91 124 169 217 261 323 386
#     4  11  20  39  62  94 121 159 220 266 311 384
#     4  12  25  42  67  94 134 174 215 270 328 395
#     4  11  23  41  65  98 130 170 215 272 323 389
#     4   9  21  39  64  85 127 169 202 264 328 376
#     4  10  20  40  62  92 123 164 213 261 323 384
#     4  11  23  43  62  89 132 173 211 262 330 387
#
# _framework density 20.561685000000001
#
# number of rings (size 3 to 8) (size 9 to 14) (size 15 to 20)
#    0.000    1.500    2.500    2.250    5.250    0.000 
#    0.000    1.875    0.000    0.000    0.000    0.000 
#    0.000    0.000    0.000    0.000    0.000    0.000 
#
# Total GULP energy -396571.059373 kJ/mol
# GULP energy per Si atom -12392.845605 kJ/mol
# Density = 2.051489 g / cm^3
# Si number density = 20.561685 Si / 1000 Ang^3
#
#
#
# Elastic Constant Matrix: (Units=GPa)
#
#
# Indices 1 2 3 4 5 6 
#
# 1 83.0195 33.9291 41.8134 0.0000 -9.1664 0.0001
# 2 33.9291 83.4101 29.5443 -0.0002 -6.3720 0.0005
# 3 41.8134 29.5443 117.0729 0.0002 -3.2727 0.0000
# 4 0.0000 -0.0002 0.0002 27.1855 0.0000 7.6160
# 5 -9.1664 -6.3720 -3.2727 0.0000 23.9740 0.0000
# 6 0.0001 0.0005 0.0000 7.6160 0.0000 27.5384
#
#
#
# Elastic Compliance Matrix: (Units=1/GPa)
#
#
# Indices 1 2 3 4 5 6 
#
# 1 0.016890 -0.004868 -0.004678 0.000000 0.004526 0.000000
# 2 -0.004868 0.014796 -0.001945 0.000000 0.001806 0.000000
# 3 -0.004678 -0.001945 0.010679 0.000000 -0.000847 0.000000
# 4 0.000000 0.000000 0.000000 0.039874 0.000000 -0.011027
# 5 0.004526 0.001806 -0.000847 0.000000 0.043806 0.000000
# 6 0.000000 0.000000 0.000000 -0.011027 0.000000 0.039363
#
#
# Mechanical properties :
#
#
# Convention : Reuss Voigt Hill
#
# Bulk Modulus (GPa) = 51.58600 54.89733 53.24167
# Shear Modulus (GPa) = 25.66066 27.62063 26.64064
#
# Velocity S-wave (km/s) = 3.53651 3.66909 3.60341
# Velocity P-wave (km/s) = 6.46674 6.68629 6.57743
#
# Compressibility (1/GPa) = 0.01938510
#
# Stress axis : x y z
#
# Youngs Moduli (GPa) = 59.20506 67.58600 93.63849
#
# Poissons Ratio (x) = 0.32901 0.43800
# Poissons Ratio (y) = 0.28822 0.18210
# Poissons Ratio (z) = 0.27693 0.13144
#
# Static dielectric constant tensor:
#      x y z
#    x 4.806890 0.000100 -0.292700 
#    y 0.000100 2.919330 0.000010 
#    z -0.292700 0.000010 4.117130 
# 
# 
# High freq. dielectric constant tensor:
#      x y z
#    x 1.803280 0.000000 0.002350 
#    y 0.000000 1.796680 0.000000 
#    z 0.002350 0.000000 1.817040 
# 
# From -- ./inp_files/318629.got.cif
#   From: 2010.06.25/outbox.cif.g09.slc.cpg/sg15_160_cif.got.tgz:318629.got - 2010.06.28 07:06:18.
