data_PCOD8139537
_publ_section_title
;
Structure prediction by ZEFSAII (Michael W. Deem and Ramdas Pophale) SiO2 
 PCOD8139537
Probable space group: C 2/C
;
_chemical_formula_sum "Si O2"
_cell_formula_units_Z 60
_cell_length_a 12.405474
_cell_length_b 18.476873
_cell_length_c 27.283387
_cell_angle_alpha 90.000000
_cell_angle_beta 151.013870
_cell_angle_gamma 90.000000
_cell_volume 3030.551232
_symmetry_space_group_name_H-M "C 2/C"
_symmetry_group_IT_number 15
_symmetry_cell_setting 'monoclinic'
loop_
_space_group_symop_operation_xyz
x,y,z
-x,y,1/2-z
-x,-y,-z
x,-y,1/2+z
1/2+x,1/2+y,z
1/2-x,1/2+y,1/2-z
1/2-x,1/2-y,-z
1/2+x,1/2-y,1/2+z
loop_
_atom_site_type_symbol
_atom_site_label
_atom_site_fract_x
_atom_site_fract_y
_atom_site_fract_z
Si Si1 0.876242 0.400061 0.547023
Si Si2 0.753889 0.552148 0.643944
Si Si3 0.315963 0.802531 0.775840
Si Si4 0.577815 0.817814 0.030562
Si Si5 0.960826 0.191283 0.912277
Si Si6 0.179895 0.820087 0.942684
Si Si7 0.352432 0.464356 0.510988
Si Si8 0.500000 0.254033 0.250000
O O1 0.883597 0.382988 0.492220
O O2 0.685472 0.353501 0.496899
O O3 0.835084 0.485447 0.537856
O O4 0.099797 0.376067 0.664489
O O5 0.737465 0.636023 0.654009
O O6 0.592098 0.502490 0.612549
O O7 0.698286 0.545192 0.565522
O O8 0.000000 0.523006 0.750000
O O9 0.410003 0.732520 0.841697
O O10 0.398370 0.796958 0.752300
O O11 0.050538 0.802837 0.676251
O O12 0.801925 0.804823 0.150900
O O13 0.499301 0.745293 0.972366
O O14 0.374863 0.843061 0.983650
O O15 0.250000 0.750000 0.000000
O O16 0.137951 0.885969 0.962239
#
# Coordination Sequence:
#
# PCOD8139537 Si02
#       8
#     8   8   8   8   8   8   8   4
#     4  10  21  44  65  86 131 168 216 261 308 387
#     4  10  23  39  68  89 125 170 207 256 326 381
#     4  11  23  37  66  96 127 171 212 262 314 381
#     4  11  22  39  64  95 128 169 209 261 316 376
#     4  10  20  39  63  96 125 160 215 263 313 368
#     4  12  26  40  60  96 136 157 212 280 320 366
#     4  10  25  44  59  95 128 166 212 266 320 378
#     4  12  20  36  66  98 122 168 220 244 320 376
#
# _framework density 19.798378
#
# number of rings (size 3 to 8) (size 9 to 14) (size 15 to 20)
#    0.000    1.333    4.000    1.600    5.600    3.200 
#    0.000    0.000    0.000    0.000    0.000    0.000 
#    0.000    0.000    0.000    0.000    0.000    0.000 
#
# Total GULP energy -372085.173541 kJ/mol
# GULP energy per Si atom -12402.839118 kJ/mol
# Density = 1.975332 g / cm^3
# Si number density = 19.798378 Si / 1000 Ang^3
#
#
#
# Elastic Constant Matrix: (Units=GPa)
#
#
# Indices 1 2 3 4 5 6 
#
# 1 96.2004 25.3885 27.3236 0.0004 -0.6713 -0.0003
# 2 25.3885 108.3583 20.9947 0.0007 -5.8836 0.0005
# 3 27.3236 20.9947 112.2524 0.0014 6.3834 0.0012
# 4 0.0004 0.0007 0.0014 11.0923 0.0004 6.1159
# 5 -0.6713 -5.8836 6.3834 0.0004 32.5045 0.0008
# 6 -0.0003 0.0005 0.0012 6.1159 0.0008 42.6196
#
#
#
# Elastic Compliance Matrix: (Units=1/GPa)
#
#
# Indices 1 2 3 4 5 6 
#
# 1 0.011684 -0.002247 -0.002441 0.000000 0.000314 0.000000
# 2 -0.002247 0.010153 -0.001470 0.000000 0.002080 0.000000
# 3 -0.002441 -0.001470 0.009906 -0.000001 -0.002262 0.000000
# 4 0.000000 0.000000 -0.000001 0.097899 -0.000001 -0.014049
# 5 0.000314 0.002080 -0.002262 -0.000001 0.031592 0.000000
# 6 0.000000 0.000000 0.000000 -0.014049 0.000000 0.025479
#
#
# Mechanical properties :
#
#
# Convention : Reuss Voigt Hill
#
# Bulk Modulus (GPa) = 51.48010 51.58053 51.53031
# Shear Modulus (GPa) = 24.33011 33.45024 28.89017
#
# Velocity S-wave (km/s) = 3.50936 4.11487 3.82412
# Velocity P-wave (km/s) = 6.51763 6.97751 6.75148
#
# Compressibility (1/GPa) = 0.01942498
#
# Stress axis : x y z
#
# Youngs Moduli (GPa) = 85.58915 98.49300 100.94507
#
# Poissons Ratio (x) = 0.22136 0.24645
# Poissons Ratio (y) = 0.19235 0.14841
# Poissons Ratio (z) = 0.20896 0.14480
#
# Static dielectric constant tensor:
#      x y z
#    x 3.897470 0.000000 0.238950 
#    y 0.000000 3.618270 0.000000 
#    z 0.238950 0.000000 3.776070 
# 
# 
# High freq. dielectric constant tensor:
#      x y z
#    x 1.776960 0.000000 0.003110 
#    y 0.000000 1.760030 0.000000 
#    z 0.003110 0.000000 1.778880 
# 
# From -- ./inp_files/119981.got.cif
#   From: 2010.06.25/outbox.cif.g09.slc.cpg/sg15_60_cif.got.tgz:119981.got - 2010.06.28 07:06:18.
