data_PCOD8139765
_publ_section_title
;
Structure prediction by ZEFSAII (Michael W. Deem and Ramdas Pophale) SiO2 
 PCOD8139765
Probable space group: C 2/C
;
_chemical_formula_sum "Si O2"
_cell_formula_units_Z 60
_cell_length_a 20.253363
_cell_length_b 26.689104
_cell_length_c 8.234518
_cell_angle_alpha 90.000000
_cell_angle_beta 139.974146
_cell_angle_gamma 90.000000
_cell_volume 2862.663242
_symmetry_space_group_name_H-M "C 2/C"
_symmetry_group_IT_number 15
_symmetry_cell_setting 'monoclinic'
loop_
_space_group_symop_operation_xyz
x,y,z
-x,y,1/2-z
-x,-y,-z
x,-y,1/2+z
1/2+x,1/2+y,z
1/2-x,1/2+y,1/2-z
1/2-x,1/2-y,-z
1/2+x,1/2-y,1/2+z
loop_
_atom_site_type_symbol
_atom_site_label
_atom_site_fract_x
_atom_site_fract_y
_atom_site_fract_z
Si Si1 0.412159 0.636096 0.194882
Si Si2 0.051049 0.610358 0.681171
Si Si3 0.734343 0.569078 0.425950
Si Si4 0.939700 0.690782 0.303518
Si Si5 0.274307 0.364150 0.142363
Si Si6 0.221774 0.529314 0.642313
Si Si7 0.000000 0.552791 0.250000
Si Si8 0.949915 0.803990 0.329351
O O1 0.500000 0.608888 0.250000
O O2 0.463069 0.684622 0.372226
O O3 0.372601 0.599154 0.262655
O O4 0.315407 0.651212 0.899541
O O5 0.173212 0.607331 0.942990
O O6 0.022247 0.584668 0.454701
O O7 0.000000 0.587773 0.750000
O O8 0.010616 0.667412 0.580451
O O9 0.758508 0.541953 0.637464
O O10 0.721043 0.523308 0.276704
O O11 0.911116 0.747942 0.292006
O O12 0.000000 0.688510 0.250000
O O13 0.835852 0.659523 0.092265
O O14 0.262611 0.424673 0.106452
O O15 0.354925 0.343062 0.161995
O O16 0.099188 0.519697 0.389428
O O17 0.000000 0.810303 0.250000
#
# Coordination Sequence:
#
# PCOD8139765 Si02
#       8
#     8   8   8   8   8   8   4   8
#     4   9  20  42  62  81 118 163 206 250 309 361
#     4  11  23  36  60  92 127 168 202 244 309 376
#     4  10  23  38  57  91 120 158 207 250 299 375
#     4  11  20  40  61  88 124 159 196 252 315 365
#     4  10  20  40  62  83 118 165 194 248 310 365
#     4  10  21  35  61  84 122 161 196 244 313 351
#     4  10  20  40  54  84 134 162 192 256 298 364
#     4  10  23  38  62  89 117 156 206 257 305 353
#
# _framework density 20.959505
#
# number of rings (size 3 to 8) (size 9 to 14) (size 15 to 20)
#    0.000    1.867    2.000    2.000    2.800    4.800 
#    0.000   12.667    0.000    0.000    0.000    0.000 
#    0.000    0.000    0.000    0.000    0.000    0.000 
#
# Total GULP energy -371761.726794 kJ/mol
# GULP energy per Si atom -12392.057560 kJ/mol
# Density = 2.091180 g / cm^3
# Si number density = 20.959505 Si / 1000 Ang^3
#
#
#
# Elastic Constant Matrix: (Units=GPa)
#
#
# Indices 1 2 3 4 5 6 
#
# 1 104.3707 35.5637 21.1945 0.0000 5.3587 0.0000
# 2 35.5637 71.6032 33.0160 0.0000 9.1283 0.0000
# 3 21.1945 33.0160 59.3389 0.0000 13.2594 0.0000
# 4 0.0000 0.0000 0.0000 49.1189 0.0000 8.3341
# 5 5.3587 9.1283 13.2594 0.0000 24.9302 0.0000
# 6 0.0000 0.0000 0.0000 8.3341 0.0000 24.9920
#
#
#
# Elastic Compliance Matrix: (Units=1/GPa)
#
#
# Indices 1 2 3 4 5 6 
#
# 1 0.011603 -0.005184 -0.001279 0.000000 0.000084 0.000000
# 2 -0.005184 0.021151 -0.009573 0.000000 -0.001539 0.000000
# 3 -0.001279 -0.009573 0.024730 0.000000 -0.009373 0.000000
# 4 0.000000 0.000000 0.000000 0.021580 0.000000 -0.007196
# 5 0.000084 -0.001539 -0.009373 0.000000 0.045642 0.000000
# 6 0.000000 0.000000 0.000000 -0.007196 0.000000 0.042413
#
#
# Mechanical properties :
#
#
# Convention : Reuss Voigt Hill
#
# Bulk Modulus (GPa) = 39.35095 46.09569 42.72332
# Shear Modulus (GPa) = 24.07779 29.51079 26.79429
#
# Velocity S-wave (km/s) = 3.39304 3.75639 3.57933
# Velocity P-wave (km/s) = 5.84515 6.39175 6.12455
#
# Compressibility (1/GPa) = 0.02541234
#
# Stress axis : x y z
#
# Youngs Moduli (GPa) = 86.18450 47.27954 40.43709
#
# Poissons Ratio (x) = 0.24510 0.05171
# Poissons Ratio (y) = 0.44678 0.38710
# Poissons Ratio (z) = 0.11021 0.45260
#
# Static dielectric constant tensor:
#      x y z
#    x 4.222130 0.000000 0.155390 
#    y 0.000000 4.091670 0.000000 
#    z 0.155390 0.000000 3.781400 
# 
# 
# High freq. dielectric constant tensor:
#      x y z
#    x 1.831900 0.000000 0.003630 
#    y 0.000000 1.806110 0.000000 
#    z 0.003630 0.000000 1.808850 
# 
# From -- ./inp_files/59132.got.cif
#   From: 2010.06.25/outbox.cif.g09.slc.cpg/sg15_30_cif.got.tgz:59132.got - 2010.06.28 07:06:18.
