data_PCOD8139517
_publ_section_title
;
Structure prediction by ZEFSAII (Michael W. Deem and Ramdas Pophale) SiO2 
 PCOD8139517
Probable space group: C 2/C
;
_chemical_formula_sum "Si O2"
_cell_formula_units_Z 44
_cell_length_a 17.879630
_cell_length_b 19.082174
_cell_length_c 7.908025
_cell_angle_alpha 90.000000
_cell_angle_beta 126.696190
_cell_angle_gamma 90.000000
_cell_volume 2163.360005
_symmetry_space_group_name_H-M "C 2/C"
_symmetry_group_IT_number 15
_symmetry_cell_setting 'monoclinic'
loop_
_space_group_symop_operation_xyz
x,y,z
-x,y,1/2-z
-x,-y,-z
x,-y,1/2+z
1/2+x,1/2+y,z
1/2-x,1/2+y,1/2-z
1/2-x,1/2-y,-z
1/2+x,1/2-y,1/2+z
loop_
_atom_site_type_symbol
_atom_site_label
_atom_site_fract_x
_atom_site_fract_y
_atom_site_fract_z
Si Si1 0.732202 0.194364 0.331501
Si Si2 0.273892 0.589442 0.959011
Si Si3 0.000000 0.116492 0.750000
Si Si4 0.809169 0.935817 0.117206
Si Si5 0.893793 0.807959 0.814855
Si Si6 0.401017 0.171222 0.626285
O O1 0.750000 0.250000 0.500000
O O2 0.754413 0.115978 0.419704
O O3 0.799654 0.219274 0.274082
O O4 0.630516 0.192188 0.107814
O O5 0.270511 0.512982 0.036383
O O6 0.365632 0.628634 0.152213
O O7 0.286842 0.587217 0.776464
O O8 0.176820 0.626695 0.879154
O O9 0.918472 0.067286 0.714585
O O10 0.967521 0.166489 0.553856
O O11 0.931605 0.742028 0.764219
O O12 0.500000 0.128984 0.750000
#
# Coordination Sequence:
#
# PCOD8139517 Si02
#       6
#     8   8   4   8   8   8
#     4  10  20  39  63  91 126 169 204 258 326 373
#     4  11  23  43  62  89 128 176 202 261 323 383
#     4  10  24  38  62 106 120 162 208 266 318 396
#     4  11  23  41  67  90 131 163 211 255 329 383
#     4  10  22  37  60  91 132 158 210 258 321 372
#     4  11  24  40  62  94 125 169 223 260 303 370
#
# _framework density 20.338732
#
# number of rings (size 3 to 8) (size 9 to 14) (size 15 to 20)
#    0.000    1.455    0.000    7.636    7.636    2.909 
#    0.000    3.636    0.000    0.000    0.000    0.000 
#    0.000    0.000    0.000    0.000    0.000    0.000 
#
# Total GULP energy -272725.684599 kJ/mol
# GULP energy per Si atom -12396.622027 kJ/mol
# Density = 2.029244 g / cm^3
# Si number density = 20.338732 Si / 1000 Ang^3
#
#
#
# Elastic Constant Matrix: (Units=GPa)
#
#
# Indices 1 2 3 4 5 6 
#
# 1 107.4434 44.6360 67.5302 0.0000 -4.6878 0.0000
# 2 44.6360 115.0386 38.0242 0.0000 6.5215 0.0000
# 3 67.5302 38.0242 136.6561 0.0000 5.4238 0.0000
# 4 0.0000 0.0000 0.0000 27.7168 0.0000 -7.3003
# 5 -4.6878 6.5215 5.4238 0.0000 32.5794 0.0000
# 6 0.0000 0.0000 0.0000 -7.3003 0.0000 25.5913
#
#
#
# Elastic Compliance Matrix: (Units=1/GPa)
#
#
# Indices 1 2 3 4 5 6 
#
# 1 0.015297 -0.003982 -0.006614 0.000000 0.004099 0.000000
# 2 -0.003982 0.010681 -0.000903 0.000000 -0.002561 0.000000
# 3 -0.006614 -0.000903 0.010940 0.000000 -0.002592 0.000000
# 4 0.000000 0.000000 0.000000 0.039010 0.000000 0.011128
# 5 0.004099 -0.002561 -0.002592 0.000000 0.032228 0.000000
# 6 0.000000 0.000000 0.000000 0.011128 0.000000 0.042250
#
#
# Mechanical properties :
#
#
# Convention : Reuss Voigt Hill
#
# Bulk Modulus (GPa) = 71.83141 73.27985 72.55563
# Shear Modulus (GPa) = 28.08274 31.10735 29.59504
#
# Velocity S-wave (km/s) = 3.71988 3.91508 3.81873
# Velocity P-wave (km/s) = 7.33786 7.51964 7.42931
#
# Compressibility (1/GPa) = 0.01392149
#
# Stress axis : x y z
#
# Youngs Moduli (GPa) = 65.37083 93.62217 91.40603
#
# Poissons Ratio (x) = 0.37277 0.60457
# Poissons Ratio (y) = 0.26029 0.08252
# Poissons Ratio (z) = 0.43237 0.08452
#
# Static dielectric constant tensor:
#      x y z
#    x 3.771840 0.000000 -0.112130 
#    y 0.000000 3.654360 0.000000 
#    z -0.112130 0.000000 4.256910 
# 
# 
# High freq. dielectric constant tensor:
#      x y z
#    x 1.796800 0.000000 -0.012340 
#    y 0.000000 1.790190 0.000000 
#    z -0.012340 0.000000 1.810870 
# 
# From -- ./inp_files/39760.got.cif
#   From: 2010.06.25/outbox.cif.g09.slc.cpg/sg15_20_cif.got.tgz:39760.got - 2010.06.28 07:06:18.
