data_PCOD8139882
_publ_section_title
;
Structure prediction by ZEFSAII (Michael W. Deem and Ramdas Pophale) SiO2 
 PCOD8139882
Probable space group: C 2/C
;
_chemical_formula_sum "Si O2"
_cell_formula_units_Z 32
_cell_length_a 17.822748
_cell_length_b 13.066109
_cell_length_c 9.057243
_cell_angle_alpha 90.000000
_cell_angle_beta 136.731016
_cell_angle_gamma 90.000000
_cell_volume 1445.694243
_symmetry_space_group_name_H-M "C 2/C"
_symmetry_group_IT_number 15
_symmetry_cell_setting 'monoclinic'
loop_
_space_group_symop_operation_xyz
x,y,z
-x,y,1/2-z
-x,-y,-z
x,-y,1/2+z
1/2+x,1/2+y,z
1/2-x,1/2+y,1/2-z
1/2-x,1/2-y,-z
1/2+x,1/2-y,1/2+z
loop_
_atom_site_type_symbol
_atom_site_label
_atom_site_fract_x
_atom_site_fract_y
_atom_site_fract_z
Si Si1 0.284616 0.924835 0.765365
Si Si2 0.796626 0.094597 0.666760
Si Si3 0.945964 0.250718 0.019735
Si Si4 0.419431 0.109589 0.001169
O O1 0.207491 0.903604 0.515372
O O2 0.208942 0.976182 0.784073
O O3 0.384918 0.003771 0.867034
O O4 0.340816 0.821552 0.903338
O O5 0.691078 0.155601 0.581492
O O6 0.907427 0.148591 0.879846
O O7 0.000000 0.216697 0.250000
O O8 0.034270 0.307627 0.044909
O O9 0.500000 0.082267 0.250000
#
# Coordination Sequence:
#
# PCOD8139882 Si02
#       4
#     8   8   8   8
#     4  10  20  40  62  92 122 149 201 258 292 351
#     4  10  24  38  63  94 119 156 201 250 300 349
#     4  12  22  39  64  90 122 158 203 244 299 356
#     4  10  21  37  65  93 118 152 201 250 303 341
#
# _framework density 22.134692999999999
#
# number of rings (size 3 to 8) (size 9 to 14) (size 15 to 20)
#    1.500    0.000    2.500    3.750    0.000    1.000 
#    0.000    1.250    0.000    0.000    0.000    0.000 
#    0.000    0.000    0.000    0.000    0.000    0.000 
#
# Total GULP energy -198319.747029 kJ/mol
# GULP energy per Si atom -12394.984189 kJ/mol
# Density = 2.208431 g / cm^3
# Si number density = 22.134693 Si / 1000 Ang^3
#
#
#
# Elastic Constant Matrix: (Units=GPa)
#
#
# Indices 1 2 3 4 5 6 
#
# 1 14.0385 -3.5024 10.2463 0.0000 -3.2616 0.0000
# 2 -3.5024 31.5649 24.2758 0.0000 8.0898 0.0000
# 3 10.2463 24.2758 183.9815 0.0000 -9.2562 0.0000
# 4 0.0000 0.0000 0.0000 42.9810 0.0000 9.0338
# 5 -3.2616 8.0898 -9.2562 0.0000 17.2655 0.0000
# 6 0.0000 0.0000 0.0000 9.0338 0.0000 11.6894
#
#
#
# Elastic Compliance Matrix: (Units=1/GPa)
#
#
# Indices 1 2 3 4 5 6 
#
# 1 0.079743 0.011453 -0.005616 0.000000 0.006687 0.000000
# 2 0.011453 0.044746 -0.007696 0.000000 -0.022928 0.000000
# 3 -0.005616 -0.007696 0.007083 0.000000 0.006342 0.000000
# 4 0.000000 0.000000 0.000000 0.027778 0.000000 -0.021467
# 5 0.006687 -0.022928 0.006342 0.000000 0.073325 0.000000
# 6 0.000000 0.000000 0.000000 -0.021467 0.000000 0.102138
#
#
# Mechanical properties :
#
#
# Convention : Reuss Voigt Hill
#
# Bulk Modulus (GPa) = 7.82133 32.40271 20.11202
# Shear Modulus (GPa) = 13.11829 27.62487 20.37158
#
# Velocity S-wave (km/s) = 2.43710 3.53659 3.03701
# Velocity P-wave (km/s) = 3.38533 5.59886 4.62643
#
# Compressibility (1/GPa) = 0.12785547
#
# Stress axis : x y z
#
# Youngs Moduli (GPa) = 12.54033 22.34825 141.19202
#
# Poissons Ratio (x) = -0.25596 0.79291
# Poissons Ratio (y) = -0.14363 1.08655
# Poissons Ratio (z) = 0.07042 0.17198
#
# Static dielectric constant tensor:
#      x y z
#    x 3.687690 0.000000 0.017440 
#    y 0.000000 3.705830 0.000000 
#    z 0.017440 0.000000 3.901950 
# 
# 
# High freq. dielectric constant tensor:
#      x y z
#    x 1.839030 0.000000 -0.003680 
#    y 0.000000 1.851790 0.000000 
#    z -0.003680 0.000000 1.880640 
# 
# From -- ./inp_files/27646.got.cif
#   From: 2010.06.25/outbox.cif.g09.slc.cpg/sg15_14_cif.got.tgz:27646.got - 2010.06.28 07:06:18.
