data_PCOD8139809
_publ_section_title
;
Structure prediction by ZEFSAII (Michael W. Deem and Ramdas Pophale) SiO2 
 PCOD8139809
Probable space group: C 2/C
;
_chemical_formula_sum "Si O2"
_cell_formula_units_Z 56
_cell_length_a 8.037697
_cell_length_b 28.102434
_cell_length_c 13.380519
_cell_angle_alpha 90.000000
_cell_angle_beta 117.054296
_cell_angle_gamma 90.000000
_cell_volume 2691.655446
_symmetry_space_group_name_H-M "C 2/C"
_symmetry_group_IT_number 15
_symmetry_cell_setting 'monoclinic'
loop_
_space_group_symop_operation_xyz
x,y,z
-x,y,1/2-z
-x,-y,-z
x,-y,1/2+z
1/2+x,1/2+y,z
1/2-x,1/2+y,1/2-z
1/2-x,1/2-y,-z
1/2+x,1/2-y,1/2+z
loop_
_atom_site_type_symbol
_atom_site_label
_atom_site_fract_x
_atom_site_fract_y
_atom_site_fract_z
Si Si1 0.000000 0.224793 0.250000
Si Si2 0.426483 0.965118 0.337420
Si Si3 0.661473 0.612766 0.713566
Si Si4 0.828255 0.212640 0.868593
Si Si5 0.500000 0.776346 0.750000
Si Si6 0.728614 0.511131 0.451331
Si Si7 0.857685 0.823269 0.899969
Si Si8 0.057753 0.929810 0.520199
O O1 0.143828 0.258265 0.354159
O O2 0.098705 0.188062 0.202586
O O3 0.500000 0.984291 0.250000
O O4 0.341256 0.912265 0.309873
O O5 0.266764 0.999302 0.344294
O O6 0.595499 0.959231 0.460660
O O7 0.500000 0.623305 0.750000
O O8 0.735062 0.660961 0.684999
O O9 0.591672 0.576982 0.608955
O O10 0.885653 0.242222 0.788956
O O11 0.998014 0.207059 0.992954
O O12 0.642231 0.807632 0.857115
O O13 0.718352 0.462977 0.516343
O O14 0.541981 0.542826 0.414366
O O15 0.862859 0.879436 0.922300
#
# Coordination Sequence:
#
# PCOD8139809 Si02
#       8
#     4   8   8   8   4   8   8   8
#     4  10  22  40  58  94 126 162 198 252 314 380
#     4  11  22  38  59  91 121 151 199 263 306 368
#     4  11  20  36  62  89 116 154 204 259 306 359
#     4  10  21  37  65  91 120 159 205 254 315 361
#     4  10  20  40  60  92 122 162 200 250 308 378
#     4  10  22  40  60  88 123 159 204 254 310 365
#     4  10  22  40  62  87 125 161 208 252 303 370
#     4  10  21  41  60  85 122 163 204 253 301 364
#
# _framework density 20.805040999999999
#
# number of rings (size 3 to 8) (size 9 to 14) (size 15 to 20)
#    0.000    1.714    3.571    0.857    1.000    0.000 
#    3.857    4.286    0.000    0.000    0.000    0.000 
#    0.000    0.000    0.000    0.000    0.000    0.000 
#
# Total GULP energy -347022.777888 kJ/mol
# GULP energy per Si atom -12393.670639 kJ/mol
# Density = 2.075769 g / cm^3
# Si number density = 20.805041 Si / 1000 Ang^3
#
#
#
# Elastic Constant Matrix: (Units=GPa)
#
#
# Indices 1 2 3 4 5 6 
#
# 1 72.1996 11.4622 15.3814 0.0000 -4.5627 0.0000
# 2 11.4622 78.9240 34.0849 0.0000 16.1575 0.0000
# 3 15.3814 34.0849 71.2016 0.0000 11.1596 0.0000
# 4 0.0000 0.0000 0.0000 225.3583 0.0000 -5.4739
# 5 -4.5627 16.1575 11.1596 0.0000 42.1605 0.0000
# 6 0.0000 0.0000 0.0000 -5.4739 0.0000 23.6294
#
#
#
# Elastic Compliance Matrix: (Units=1/GPa)
#
#
# Indices 1 2 3 4 5 6 
#
# 1 0.014908 -0.001489 -0.002973 0.000000 0.002971 0.000000
# 2 -0.001489 0.016896 -0.007017 0.000000 -0.004779 0.000000
# 3 -0.002973 -0.007017 0.018440 0.000000 -0.002513 0.000000
# 4 0.000000 0.000000 0.000000 0.004462 0.000000 0.001034
# 5 0.002971 -0.004779 -0.002513 0.000000 0.026537 0.000000
# 6 0.000000 0.000000 0.000000 0.001034 0.000000 0.042560
#
#
# Mechanical properties :
#
#
# Convention : Reuss Voigt Hill
#
# Bulk Modulus (GPa) = 36.65156 38.24247 37.44702
# Shear Modulus (GPa) = 32.08051 68.98941 50.53496
#
# Velocity S-wave (km/s) = 3.93104 5.76471 4.93381
# Velocity P-wave (km/s) = 6.18539 7.92026 7.10597
#
# Compressibility (1/GPa) = 0.02728397
#
# Stress axis : x y z
#
# Youngs Moduli (GPa) = 67.07755 59.18690 54.22942
#
# Poissons Ratio (x) = 0.08815 0.16124
# Poissons Ratio (y) = 0.09990 0.38055
# Poissons Ratio (z) = 0.19944 0.41534
#
# Static dielectric constant tensor:
#      x y z
#    x 4.288210 0.000000 0.186200 
#    y 0.000000 3.714400 0.000000 
#    z 0.186200 0.000000 3.775300 
# 
# 
# High freq. dielectric constant tensor:
#      x y z
#    x 1.823360 0.000000 0.000650 
#    y 0.000000 1.810210 0.000000 
#    z 0.000650 0.000000 1.800490 
# 
# From -- ./inp_files/138723.got.cif
#   From: 2010.06.25/outbox.cif.g09.slc.cpg/sg15_70_cif.got.tgz:138723.got - 2010.06.28 07:06:18.
