data_PCOD8139888
_publ_section_title
;
Structure prediction by ZEFSAII (Michael W. Deem and Ramdas Pophale) SiO2 
 PCOD8139888
Probable space group: C 2/C
;
_chemical_formula_sum "Si O2"
_cell_formula_units_Z 60
_cell_length_a 14.480775
_cell_length_b 13.703950
_cell_length_c 29.672611
_cell_angle_alpha 90.000000
_cell_angle_beta 31.687435
_cell_angle_gamma 90.000000
_cell_volume 3093.060244
_symmetry_space_group_name_H-M "C 2/C"
_symmetry_group_IT_number 15
_symmetry_cell_setting 'monoclinic'
loop_
_space_group_symop_operation_xyz
x,y,z
-x,y,1/2-z
-x,-y,-z
x,-y,1/2+z
1/2+x,1/2+y,z
1/2-x,1/2+y,1/2-z
1/2-x,1/2-y,-z
1/2+x,1/2-y,1/2+z
loop_
_atom_site_type_symbol
_atom_site_label
_atom_site_fract_x
_atom_site_fract_y
_atom_site_fract_z
Si Si1 0.831623 0.790715 0.682417
Si Si2 0.996916 0.317974 0.463225
Si Si3 0.149040 0.307823 0.103808
Si Si4 0.985039 0.193974 0.637330
Si Si5 0.751812 0.990459 0.217530
Si Si6 0.366463 0.169443 0.495826
Si Si7 0.047794 0.523718 0.587669
Si Si8 0.000000 0.401941 0.250000
O O1 0.850159 0.745346 0.624519
O O2 0.643936 0.763483 0.781179
O O3 0.981778 0.747408 0.652338
O O4 0.848820 0.906737 0.671383
O O5 0.029273 0.342953 0.501401
O O6 0.817200 0.259475 0.529736
O O7 0.986938 0.423283 0.444930
O O8 0.177294 0.410145 0.065064
O O9 0.112119 0.331126 0.171226
O O10 0.901782 0.089749 0.661105
O O11 0.162477 0.185236 0.593098
O O12 0.041093 0.238975 0.566188
O O13 0.636331 0.991323 0.310552
O O14 0.631177 0.969923 0.224035
O O15 0.370802 0.079916 0.458745
#
# Coordination Sequence:
#
# PCOD8139888 Si02
#       8
#     8   8   8   8   8   8   8   4
#     4  11  22  42  65  90 127 171 207 258 326 379
#     4  11  23  40  63  97 122 161 216 273 302 375
#     4  10  22  39  67  91 126 163 213 268 312 372
#     4  11  23  43  62  88 132 174 203 250 333 384
#     4  11  22  39  67  90 125 162 217 257 315 382
#     4  11  25  40  64  90 134 168 208 262 321 386
#     4  10  20  41  62  90 124 167 202 266 320 365
#     4  10  20  40  62  94 120 160 210 270 298 372
#
# _framework density 19.398264000000001
#
# number of rings (size 3 to 8) (size 9 to 14) (size 15 to 20)
#    0.000    1.333    5.333    2.800    3.733    1.600 
#    2.400    1.333    0.000    0.000    0.000    0.000 
#    0.000    0.000    0.000    0.000    0.000    0.000 
#
# Total GULP energy -372003.732120 kJ/mol
# GULP energy per Si atom -12400.124404 kJ/mol
# Density = 1.935411 g / cm^3
# Si number density = 19.398264 Si / 1000 Ang^3
#
#
#
# Elastic Constant Matrix: (Units=GPa)
#
#
# Indices 1 2 3 4 5 6 
#
# 1 66.7480 20.5809 35.7409 0.0000 8.0898 -0.0003
# 2 20.5809 107.9276 34.2190 -0.0006 2.8217 -0.0001
# 3 35.7409 34.2190 105.5187 0.0014 -7.0937 0.0000
# 4 0.0000 -0.0006 0.0014 28.0642 0.0009 0.2124
# 5 8.0898 2.8217 -7.0937 0.0009 22.3840 0.0001
# 6 -0.0003 -0.0001 0.0000 0.2124 0.0001 19.3873
#
#
#
# Elastic Compliance Matrix: (Units=1/GPa)
#
#
# Indices 1 2 3 4 5 6 
#
# 1 0.020338 -0.001390 -0.007071 0.000001 -0.009416 0.000000
# 2 -0.001390 0.010552 -0.003072 0.000000 -0.001801 0.000000
# 3 -0.007071 -0.003072 0.013351 -0.000001 0.007174 0.000000
# 4 0.000001 0.000000 -0.000001 0.035636 -0.000002 -0.000390
# 5 -0.009416 -0.001801 0.007174 -0.000002 0.050578 0.000000
# 6 0.000000 0.000000 0.000000 -0.000390 0.000000 0.051584
#
#
# Mechanical properties :
#
#
# Convention : Reuss Voigt Hill
#
# Bulk Modulus (GPa) = 47.22848 51.25288 49.24068
# Shear Modulus (GPa) = 23.56685 26.61065 25.08875
#
# Velocity S-wave (km/s) = 3.48932 3.70781 3.60022
# Velocity P-wave (km/s) = 6.37443 6.69397 6.53615
#
# Compressibility (1/GPa) = 0.02117366
#
# Stress axis : x y z
#
# Youngs Moduli (GPa) = 49.16965 94.77166 74.90332
#
# Poissons Ratio (x) = 0.13175 0.52963
# Poissons Ratio (y) = 0.06836 0.23011
# Poissons Ratio (z) = 0.34767 0.29114
#
# Static dielectric constant tensor:
#      x y z
#    x 3.378570 0.000000 0.094240 
#    y 0.000000 3.643100 0.000000 
#    z 0.094240 0.000000 3.664980 
# 
# 
# High freq. dielectric constant tensor:
#      x y z
#    x 1.743510 0.000000 0.008320 
#    y 0.000000 1.764910 0.000000 
#    z 0.008320 0.000000 1.766470 
# 
# From -- ./inp_files/313968.got.cif
#   From: 2010.06.25/outbox.cif.g09.slc.cpg/sg15_157_cif.got.tgz:313968.got - 2010.06.28 07:06:18.
