data_PCOD8139647
_publ_section_title
;
Structure prediction by ZEFSAII (Michael W. Deem and Ramdas Pophale) SiO2 
 PCOD8139647
Probable space group: C 2/C
;
_chemical_formula_sum "Si O2"
_cell_formula_units_Z 64
_cell_length_a 17.735787
_cell_length_b 20.929999
_cell_length_c 18.263112
_cell_angle_alpha 90.000000
_cell_angle_beta 150.417141
_cell_angle_gamma 90.000000
_cell_volume 3346.890481
_symmetry_space_group_name_H-M "C 2/C"
_symmetry_group_IT_number 15
_symmetry_cell_setting 'monoclinic'
loop_
_space_group_symop_operation_xyz
x,y,z
-x,y,1/2-z
-x,-y,-z
x,-y,1/2+z
1/2+x,1/2+y,z
1/2-x,1/2+y,1/2-z
1/2-x,1/2-y,-z
1/2+x,1/2-y,1/2+z
loop_
_atom_site_type_symbol
_atom_site_label
_atom_site_fract_x
_atom_site_fract_y
_atom_site_fract_z
Si Si1 0.993838 0.069314 0.528698
Si Si2 0.893288 0.742952 0.454831
Si Si3 0.121588 0.923780 0.409709
Si Si4 0.265484 0.377123 0.360904
Si Si5 0.157274 0.932420 0.922108
Si Si6 0.803698 0.187587 0.335154
Si Si7 0.679774 0.195061 0.390826
Si Si8 0.945404 0.353801 0.123676
O O1 0.975429 0.065379 0.599172
O O2 0.858769 0.113679 0.381118
O O3 0.158159 0.100835 0.650393
O O4 0.000000 0.000000 0.500000
O O5 0.780935 0.800879 0.379759
O O6 0.817770 0.695355 0.332285
O O7 0.914593 0.708086 0.549668
O O8 0.053135 0.765916 0.556335
O O9 0.258927 0.874171 0.533022
O O10 0.000000 0.895548 0.250000
O O11 0.188395 0.991952 0.440971
O O12 0.352789 0.411503 0.501755
O O13 0.086108 0.394753 0.208314
O O14 0.000000 0.912591 0.750000
O O15 0.296728 0.897899 0.999404
O O16 0.724554 0.207599 0.344470
O O17 0.500000 0.194899 0.250000
O O18 0.750000 0.250000 0.500000
O O19 0.000000 0.330936 0.250000
#
# Coordination Sequence:
#
# PCOD8139647 Si02
#       8
#     8   8   8   8   8   8   8   8
#     4  10  20  39  66  88 120 160 210 248 309 366
#     4  11  21  39  59  87 129 156 206 246 307 355
#     4  10  22  41  63  91 121 160 205 255 301 367
#     4  10  21  37  59  89 117 166 194 255 298 358
#     4  10  22  37  62  87 123 163 209 244 296 361
#     4  10  23  38  62  91 118 164 197 255 310 369
#     4  11  23  41  65  92 120 156 203 258 316 370
#     4  10  23  38  56  90 125 161 202 249 300 353
#
# _framework density 19.122228
#
# number of rings (size 3 to 8) (size 9 to 14) (size 15 to 20)
#    0.000    1.750    2.500    1.125    3.500    6.000 
#    2.250    0.000    0.000    3.750    0.000    0.000 
#    0.000    0.000    0.000    0.000    0.000    0.000 
#
# Total GULP energy -396807.815296 kJ/mol
# GULP energy per Si atom -12400.244228 kJ/mol
# Density = 1.907870 g / cm^3
# Si number density = 19.122228 Si / 1000 Ang^3
#
#
#
# Elastic Constant Matrix: (Units=GPa)
#
#
# Indices 1 2 3 4 5 6 
#
# 1 121.5110 54.5330 64.5923 -0.0078 22.3675 -0.0040
# 2 54.5330 106.7605 59.4355 -0.0079 1.9482 -0.0054
# 3 64.5923 59.4355 131.1445 -0.0162 9.4174 -0.0127
# 4 -0.0078 -0.0079 -0.0162 25.3754 -0.0130 -4.0548
# 5 22.3675 1.9482 9.4174 -0.0130 34.6078 -0.0086
# 6 -0.0040 -0.0054 -0.0127 -4.0548 -0.0086 29.7803
#
#
#
# Elastic Compliance Matrix: (Units=1/GPa)
#
#
# Indices 1 2 3 4 5 6 
#
# 1 0.013959 -0.004638 -0.004227 -0.000004 -0.007611 -0.000004
# 2 -0.004638 0.014094 -0.004346 0.000002 0.003387 0.000001
# 3 -0.004227 -0.004346 0.011691 0.000005 -0.000205 0.000004
# 4 -0.000004 0.000002 0.000005 0.040285 0.000018 0.005485
# 5 -0.007611 0.003387 -0.000205 0.000018 0.033679 0.000012
# 6 -0.000004 0.000001 0.000004 0.005485 0.000012 0.034326
#
#
# Mechanical properties :
#
#
# Convention : Reuss Voigt Hill
#
# Bulk Modulus (GPa) = 75.06346 79.61531 77.33938
# Shear Modulus (GPa) = 27.94905 30.00971 28.97938
#
# Velocity S-wave (km/s) = 3.82724 3.96582 3.89714
# Velocity P-wave (km/s) = 7.67268 7.91806 7.79634
#
# Compressibility (1/GPa) = 0.01332206
#
# Stress axis : x y z
#
# Youngs Moduli (GPa) = 71.63793 70.95336 85.53380
#
# Poissons Ratio (x) = 0.32911 0.36152
# Poissons Ratio (y) = 0.33228 0.37174
# Poissons Ratio (z) = 0.30278 0.30837
#
# Static dielectric constant tensor:
#      x y z
#    x 3.596060 -0.000010 0.035340 
#    y -0.000010 3.549680 0.000000 
#    z 0.035340 0.000000 3.496000 
# 
# 
# High freq. dielectric constant tensor:
#      x y z
#    x 1.758220 0.000000 0.003780 
#    y 0.000000 1.744150 0.000000 
#    z 0.003780 0.000000 1.739960 
# 
# From -- ./inp_files/211978.got.cif
#   From: 2010.06.25/outbox.cif.g09.slc.cpg/sg15_106_cif.got.tgz:211978.got - 2010.06.28 07:06:18.
