data_PCOD8139341
_publ_section_title
;
Structure prediction by ZEFSAII (Michael W. Deem and Ramdas Pophale) SiO2 
 PCOD8139341
Probable space group: C 2/C
;
_chemical_formula_sum "Si O2"
_cell_formula_units_Z 60
_cell_length_a 22.813248
_cell_length_b 20.928259
_cell_length_c 11.606711
_cell_angle_alpha 90.000000
_cell_angle_beta 31.580039
_cell_angle_gamma 90.000000
_cell_volume 2902.037139
_symmetry_space_group_name_H-M "C 2/C"
_symmetry_group_IT_number 15
_symmetry_cell_setting 'monoclinic'
loop_
_space_group_symop_operation_xyz
x,y,z
-x,y,1/2-z
-x,-y,-z
x,-y,1/2+z
1/2+x,1/2+y,z
1/2-x,1/2+y,1/2-z
1/2-x,1/2-y,-z
1/2+x,1/2-y,1/2+z
loop_
_atom_site_type_symbol
_atom_site_label
_atom_site_fract_x
_atom_site_fract_y
_atom_site_fract_z
Si Si1 0.633153 0.588562 0.710368
Si Si2 0.693161 0.557866 0.859847
Si Si3 0.201431 0.795859 0.417042
Si Si4 0.836151 0.523839 0.262252
Si Si5 0.850610 0.768569 0.247992
Si Si6 0.582267 0.217016 0.802197
Si Si7 0.954218 0.424659 0.201694
Si Si8 0.500000 0.472758 0.250000
O O1 0.657826 0.550498 0.786592
O O2 0.740338 0.576085 0.449577
O O3 0.614316 0.660950 0.775970
O O4 0.518262 0.569425 0.835621
O O5 0.692880 0.628711 0.911692
O O6 0.809105 0.520987 0.695363
O O7 0.605528 0.518289 0.079809
O O8 0.192207 0.761015 0.310358
O O9 0.322224 0.776276 0.262185
O O10 0.103485 0.770535 0.667056
O O11 0.855722 0.475006 0.336440
O O12 0.946154 0.565771 0.056863
O O13 0.750000 0.750000 0.500000
O O14 0.963616 0.726305 0.065979
O O15 0.590862 0.147481 0.729531
O O16 0.000000 0.440051 0.250000
#
# Coordination Sequence:
#
# PCOD8139341 Si02
#       8
#     8   8   8   8   8   8   8   4
#     4  10  22  38  57  88 119 161 201 252 307 371
#     4  10  20  39  60  87 120 158 206 248 313 370
#     4  10  23  41  64  91 123 167 212 265 312 382
#     4  10  21  38  57  86 123 154 203 253 315 369
#     4  11  24  41  64  90 130 170 209 261 320 382
#     4  11  23  42  64  95 124 167 218 262 319 375
#     4  11  21  36  61  88 118 157 201 260 311 368
#     4  10  22  36  62  88 122 156 208 254 306 366
#
# _framework density 20.675132000000001
#
# number of rings (size 3 to 8) (size 9 to 14) (size 15 to 20)
#    0.000    1.600    1.333    3.200    3.733    1.600 
#    0.000    2.667    0.000    0.000    0.000    0.000 
#    0.000    0.000    0.000    0.000    0.000    0.000 
#
# Total GULP energy -371868.519006 kJ/mol
# GULP energy per Si atom -12395.617300 kJ/mol
# Density = 2.062807 g / cm^3
# Si number density = 20.675132 Si / 1000 Ang^3
#
#
#
# Elastic Constant Matrix: (Units=GPa)
#
#
# Indices 1 2 3 4 5 6 
#
# 1 139.6590 33.4308 23.8401 0.0000 2.5008 0.0000
# 2 33.4308 62.1283 19.4926 0.0000 0.3593 0.0001
# 3 23.8401 19.4926 87.4387 -0.0003 -2.4376 0.0003
# 4 0.0000 0.0000 -0.0003 24.1244 0.0002 -3.2331
# 5 2.5008 0.3593 -2.4376 0.0002 28.3767 -0.0002
# 6 0.0000 0.0001 0.0003 -3.2331 -0.0002 21.8372
#
#
#
# Elastic Compliance Matrix: (Units=1/GPa)
#
#
# Indices 1 2 3 4 5 6 
#
# 1 0.008388 -0.004069 -0.001402 0.000000 -0.000808 0.000000
# 2 -0.004069 0.019289 -0.003195 0.000000 -0.000160 0.000000
# 3 -0.001402 -0.003195 0.012566 0.000000 0.001243 0.000000
# 4 0.000000 0.000000 0.000000 0.042291 0.000000 0.006261
# 5 -0.000808 -0.000160 0.001243 0.000000 0.035420 0.000000
# 6 0.000000 0.000000 0.000000 0.006261 0.000000 0.046720
#
#
# Mechanical properties :
#
#
# Convention : Reuss Voigt Hill
#
# Bulk Modulus (GPa) = 43.64958 49.19477 46.42218
# Shear Modulus (GPa) = 26.36526 29.03184 27.69855
#
# Velocity S-wave (km/s) = 3.57489 3.75132 3.66417
# Velocity P-wave (km/s) = 6.18043 6.52756 6.35637
#
# Compressibility (1/GPa) = 0.02290973
#
# Stress axis : x y z
#
# Youngs Moduli (GPa) = 119.21555 51.84430 79.58041
#
# Poissons Ratio (x) = 0.21095 0.11161
# Poissons Ratio (y) = 0.48508 0.25426
# Poissons Ratio (z) = 0.16720 0.16564
#
# Static dielectric constant tensor:
#      x y z
#    x 4.210420 0.000000 -0.136330 
#    y 0.000000 3.727590 0.000000 
#    z -0.136330 0.000000 3.600960 
# 
# 
# High freq. dielectric constant tensor:
#      x y z
#    x 1.827480 0.000000 -0.009120 
#    y 0.000000 1.812370 0.000000 
#    z -0.009120 0.000000 1.792140 
# 
# From -- ./inp_files/119921.got.cif
#   From: 2010.06.25/outbox.cif.g09.slc.cpg/sg15_60_cif.got.tgz:119921.got - 2010.06.28 07:06:18.
