data_PCOD8139730
_publ_section_title
;
Structure prediction by ZEFSAII (Michael W. Deem and Ramdas Pophale) SiO2 
 PCOD8139730
Probable space group: C 2/C
;
_chemical_formula_sum "Si O2"
_cell_formula_units_Z 32
_cell_length_a 24.790910
_cell_length_b 10.643733
_cell_length_c 9.454409
_cell_angle_alpha 90.000000
_cell_angle_beta 32.510028
_cell_angle_gamma 90.000000
_cell_volume 1340.777276
_symmetry_space_group_name_H-M "C 2/C"
_symmetry_group_IT_number 15
_symmetry_cell_setting 'monoclinic'
loop_
_space_group_symop_operation_xyz
x,y,z
-x,y,1/2-z
-x,-y,-z
x,-y,1/2+z
1/2+x,1/2+y,z
1/2-x,1/2+y,1/2-z
1/2-x,1/2-y,-z
1/2+x,1/2-y,1/2+z
loop_
_atom_site_type_symbol
_atom_site_label
_atom_site_fract_x
_atom_site_fract_y
_atom_site_fract_z
Si Si1 0.218332 0.096663 0.451530
Si Si2 0.569353 0.004208 0.979369
Si Si3 0.391341 0.467592 0.037774
Si Si4 0.833442 0.764078 0.695215
O O1 0.329583 0.074416 0.264154
O O2 0.216138 0.218406 0.352901
O O3 0.182366 0.974466 0.437491
O O4 0.150267 0.118905 0.742066
O O5 0.592933 0.147096 0.969272
O O6 0.500000 0.939553 0.250000
O O7 0.500000 0.000000 0.000000
O O8 0.500000 0.417086 0.750000
O O9 0.399178 0.610488 0.082147
O O10 0.750000 0.750000 0.000000
#
# Coordination Sequence:
#
# PCOD8139730 Si02
#       4
#     8   8   8   8
#     4  10  22  40  69 100 139 180 231 298 338 417
#     4  12  23  43  71  98 135 182 229 282 349 419
#     4  10  20  39  68  97 140 181 229 288 356 401
#     4  10  21  40  69  94 141 179 230 285 353 408
#
# _framework density 23.866752999999999
#
# number of rings (size 3 to 8) (size 9 to 14) (size 15 to 20)
#    1.500    0.000    2.500    4.500    0.000    0.000 
#    0.000    5.000    0.000    0.000    0.000    0.000 
#    0.000    0.000    0.000    0.000    0.000    0.000 
#
# Total GULP energy -198257.703576 kJ/mol
# GULP energy per Si atom -12391.106473 kJ/mol
# Density = 2.381243 g / cm^3
# Si number density = 23.866753 Si / 1000 Ang^3
#
#
#
# Elastic Constant Matrix: (Units=GPa)
#
#
# Indices 1 2 3 4 5 6 
#
# 1 198.9752 25.9426 84.2099 0.0000 -0.6497 0.0000
# 2 25.9426 48.3841 15.8244 0.0000 -3.9684 0.0000
# 3 84.2099 15.8244 232.8187 0.0000 13.0386 0.0000
# 4 0.0000 0.0000 0.0000 21.5698 0.0000 15.2578
# 5 -0.6497 -3.9684 13.0386 0.0000 46.2785 0.0000
# 6 0.0000 0.0000 0.0000 15.2578 0.0000 34.2142
#
#
#
# Elastic Compliance Matrix: (Units=1/GPa)
#
#
# Indices 1 2 3 4 5 6 
#
# 1 0.006264 -0.002630 -0.002113 0.000000 0.000458 0.000000
# 2 -0.002630 0.022476 -0.000693 0.000000 0.002086 0.000000
# 3 -0.002113 -0.000693 0.005193 0.000000 -0.001552 0.000000
# 4 0.000000 0.000000 0.000000 0.067725 0.000000 -0.030202
# 5 0.000458 0.002086 -0.001552 0.000000 0.022231 0.000000
# 6 0.000000 0.000000 0.000000 -0.030202 0.000000 0.042696
#
#
# Mechanical properties :
#
#
# Convention : Reuss Voigt Hill
#
# Bulk Modulus (GPa) = 43.36214 81.34798 62.35506
# Shear Modulus (GPa) = 27.00595 44.02592 35.51593
#
# Velocity S-wave (km/s) = 3.36747 4.29960 3.86177
# Velocity P-wave (km/s) = 5.77301 7.66857 6.78729
#
# Compressibility (1/GPa) = 0.02306159
#
# Stress axis : x y z
#
# Youngs Moduli (GPa) = 159.63503 44.49192 192.55357
#
# Poissons Ratio (x) = 0.11703 0.40679
# Poissons Ratio (y) = 0.41989 0.13346
# Poissons Ratio (z) = 0.33725 0.03084
#
# Static dielectric constant tensor:
#      x y z
#    x 4.223970 0.000000 0.178540 
#    y 0.000000 4.020900 0.000000 
#    z 0.178540 0.000000 4.391290 
# 
# 
# High freq. dielectric constant tensor:
#      x y z
#    x 1.947230 0.000000 0.011680 
#    y 0.000000 1.912320 0.000000 
#    z 0.011680 0.000000 1.961000 
# 
# From -- ./inp_files/37212.got.cif
#   From: 2010.06.25/outbox.cif.g09.slc.cpg/sg15_19_cif.got.tgz:37212.got - 2010.06.28 07:06:18.
