data_PCOD8139007
_publ_section_title
;
Structure prediction by ZEFSAII (Michael W. Deem and Ramdas Pophale) SiO2 
 PCOD8139007
Probable space group: C 2/C
;
_chemical_formula_sum "Si O2"
_cell_formula_units_Z 40
_cell_length_a 7.700744
_cell_length_b 18.562012
_cell_length_c 14.381470
_cell_angle_alpha 90.000000
_cell_angle_beta 82.930110
_cell_angle_gamma 90.000000
_cell_volume 2040.076019
_symmetry_space_group_name_H-M "C 2/C"
_symmetry_group_IT_number 15
_symmetry_cell_setting 'monoclinic'
loop_
_space_group_symop_operation_xyz
x,y,z
-x,y,1/2-z
-x,-y,-z
x,-y,1/2+z
1/2+x,1/2+y,z
1/2-x,1/2+y,1/2-z
1/2-x,1/2-y,-z
1/2+x,1/2-y,1/2+z
loop_
_atom_site_type_symbol
_atom_site_label
_atom_site_fract_x
_atom_site_fract_y
_atom_site_fract_z
Si Si1 0.141809 0.518075 0.159571
Si Si2 0.448405 0.864674 0.963851
Si Si3 0.592704 0.860221 0.146461
Si Si4 0.782165 0.791890 0.855314
Si Si5 0.662675 0.345992 0.847350
O O1 0.052017 0.552789 0.073506
O O2 0.000000 0.519305 0.250000
O O3 0.200288 0.435563 0.137036
O O4 0.309938 0.567872 0.175230
O O5 0.626237 0.827137 0.920761
O O6 0.280580 0.823588 0.929326
O O7 0.442718 0.862957 0.076132
O O8 0.500000 0.846895 0.250000
O O9 0.721984 0.793308 0.121008
O O10 0.764529 0.802252 0.745938
O O11 0.961820 0.828221 0.880227
#
# Coordination Sequence:
#
# PCOD8139007 Si02
#       5
#     8   8   8   8   8
#     4   9  18  37  61  82 111 154 189 225 288 340
#     4  10  20  38  64  81 112 157 193 222 288 349
#     4  11  22  35  59  88 117 148 188 247 282 319
#     4  11  19  38  60  86 114 145 193 237 280 340
#     4   9  19  36  62  81 112 149 192 223 286 345
#
# _framework density 19.607112000000001
#
# number of rings (size 3 to 8) (size 9 to 14) (size 15 to 20)
#    1.200    0.800    4.000    1.800    0.000    0.800 
#    0.000    1.000   13.200    0.000    0.000    0.000 
#    0.000    0.000    0.000    0.000    0.000    0.000 
#
# Total GULP energy -247774.020504 kJ/mol
# GULP energy per Si atom -12388.701025 kJ/mol
# Density = 1.956248 g / cm^3
# Si number density = 19.607112 Si / 1000 Ang^3
#
#
#
# Elastic Constant Matrix: (Units=GPa)
#
#
# Indices 1 2 3 4 5 6 
#
# 1 79.7390 42.7570 34.2137 0.0000 4.8662 0.0000
# 2 42.7570 162.1012 8.5938 0.0000 9.1109 0.0000
# 3 34.2137 8.5938 114.0363 0.0000 24.3178 0.0000
# 4 0.0000 0.0000 0.0000 10.6997 0.0000 9.8221
# 5 4.8662 9.1109 24.3178 0.0000 21.0523 0.0000
# 6 0.0000 0.0000 0.0000 9.8221 0.0000 8.4836
#
#
#
# Elastic Compliance Matrix: (Units=1/GPa)
#
#
# Indices 1 2 3 4 5 6 
#
# 1 0.017147 -0.004478 -0.005805 0.000000 0.004680 0.000000
# 2 -0.004478 0.007494 0.001658 0.000000 -0.004123 0.000000
# 3 -0.005805 0.001658 0.013604 0.000000 -0.015090 0.000000
# 4 0.000000 0.000000 0.000000 -1.487922 0.000000 1.722679
# 5 0.004680 -0.004123 -0.015090 0.000000 0.065634 0.000000
# 6 0.000000 0.000000 0.000000 1.722679 0.000000 -1.876599
#
#
# Mechanical properties :
#
#
# Convention : Reuss Voigt Hill
#
# Bulk Modulus (GPa) = 47.63129 58.55615 53.09372
# Shear Modulus (GPa) = -1.54493 26.06792 12.26149
#
# Velocity S-wave (km/s) = -0.88862 3.65020 2.50343
# Velocity P-wave (km/s) = 4.82625 6.90615 5.95767
#
# Compressibility (1/GPa) = 0.02099460
#
# Stress axis : x y z
#
# Youngs Moduli (GPa) = 58.31787 133.43935 73.50955
#
# Poissons Ratio (x) = 0.59757 0.42674
# Poissons Ratio (y) = 0.26116 -0.12189
# Poissons Ratio (z) = 0.33855 -0.22126
#
# Static dielectric constant tensor:
#      x y z
#    x 3.154020 0.000000 0.169660 
#    y 0.000000 3.882000 0.000000 
#    z 0.169660 0.000000 3.709190 
# 
# 
# High freq. dielectric constant tensor:
#      x y z
#    x 1.721890 0.000000 0.009460 
#    y 0.000000 1.770760 0.000000 
#    z 0.009460 0.000000 1.773510 
# 
# From -- ./inp_files/135190.got.cif
#   From: 2010.06.25/outbox.cif.g09.slc.cpg/sg15_68_cif.got.tgz:135190.got - 2010.06.28 07:06:18.
