data_PCOD8139825
_publ_section_title
;
Structure prediction by ZEFSAII (Michael W. Deem and Ramdas Pophale) SiO2 
 PCOD8139825
Probable space group: C 2/C
;
_chemical_formula_sum "Si O2"
_cell_formula_units_Z 60
_cell_length_a 8.600009
_cell_length_b 26.198486
_cell_length_c 20.640073
_cell_angle_alpha 90.000000
_cell_angle_beta 142.325265
_cell_angle_gamma 90.000000
_cell_volume 2842.196513
_symmetry_space_group_name_H-M "C 2/C"
_symmetry_group_IT_number 15
_symmetry_cell_setting 'monoclinic'
loop_
_space_group_symop_operation_xyz
x,y,z
-x,y,1/2-z
-x,-y,-z
x,-y,1/2+z
1/2+x,1/2+y,z
1/2-x,1/2+y,1/2-z
1/2-x,1/2-y,-z
1/2+x,1/2-y,1/2+z
loop_
_atom_site_type_symbol
_atom_site_label
_atom_site_fract_x
_atom_site_fract_y
_atom_site_fract_z
Si Si1 0.180749 0.567330 0.917991
Si Si2 0.500000 0.418046 0.750000
Si Si3 0.897661 0.887878 0.034638
Si Si4 0.162282 0.345314 0.242990
Si Si5 0.254643 0.183215 0.126277
Si Si6 0.483708 0.973270 0.563948
Si Si7 0.994151 0.280722 0.430043
Si Si8 0.830965 0.863464 0.573919
O O1 0.413981 0.576187 0.945641
O O2 0.108703 0.508205 0.905679
O O3 0.941732 0.599506 0.813439
O O4 0.246844 0.584254 0.012600
O O5 0.486830 0.377886 0.687818
O O6 0.741575 0.454136 0.823384
O O7 0.047992 0.855022 0.138485
O O8 0.737197 0.847807 0.938076
O O9 0.701278 0.924947 0.005562
O O10 0.000000 0.324008 0.250000
O O11 0.138737 0.303110 0.179037
O O12 0.500000 0.170858 0.250000
O O13 0.213629 0.244444 0.102646
O O14 0.005156 0.166639 0.081724
O O15 0.500000 0.000000 0.500000
O O16 0.250000 0.250000 0.500000
O O17 0.080732 0.328025 0.504764
#
# Coordination Sequence:
#
# PCOD8139825 Si02
#       8
#     8   4   8   8   8   8   8   8
#     4   9  19  39  63  90 119 166 212 250 315 374
#     4  12  24  40  58  88 128 166 206 250 332 372
#     4  10  22  41  65  90 129 162 215 268 306 376
#     4   9  18  36  64  93 125 159 208 266 314 374
#     4  10  20  40  61  86 120 162 211 257 313 366
#     4  12  25  40  61  92 128 166 212 262 318 383
#     4   9  18  37  61  88 120 160 203 251 316 375
#     4   9  19  38  59  84 119 163 203 253 306 380
#
# _framework density 21.110431999999999
#
# number of rings (size 3 to 8) (size 9 to 14) (size 15 to 20)
#    0.000    2.133    1.333    3.600    1.867    0.000 
#   12.000    2.667    0.000    0.000    0.000    0.000 
#    0.000    0.000    0.000    0.000    0.000    0.000 
#
# Total GULP energy -371795.124067 kJ/mol
# GULP energy per Si atom -12393.170802 kJ/mol
# Density = 2.106238 g / cm^3
# Si number density = 21.110432 Si / 1000 Ang^3
#
#
#
# Elastic Constant Matrix: (Units=GPa)
#
#
# Indices 1 2 3 4 5 6 
#
# 1 47.2245 45.2679 34.1589 0.0000 -3.1612 0.0001
# 2 45.2679 113.9196 58.7710 -0.0001 -1.7694 0.0001
# 3 34.1589 58.7710 161.2437 -0.0007 -4.3484 -0.0006
# 4 0.0000 -0.0001 -0.0007 27.6742 -0.0001 -6.0351
# 5 -3.1612 -1.7694 -4.3484 -0.0001 32.4521 -0.0002
# 6 0.0001 0.0001 -0.0006 -6.0351 -0.0002 22.8333
#
#
#
# Elastic Compliance Matrix: (Units=1/GPa)
#
#
# Indices 1 2 3 4 5 6 
#
# 1 0.035463 -0.012577 -0.002864 0.000000 0.002385 0.000000
# 2 -0.012577 0.015272 -0.002923 0.000000 -0.000784 0.000000
# 3 -0.002864 -0.002923 0.007891 0.000000 0.000619 0.000000
# 4 0.000000 0.000000 0.000000 0.038345 0.000000 0.010135
# 5 0.002385 -0.000784 0.000619 0.000000 0.031087 0.000000
# 6 0.000000 0.000000 0.000000 0.010135 0.000000 0.046474
#
#
# Mechanical properties :
#
#
# Convention : Reuss Voigt Hill
#
# Bulk Modulus (GPa) = 45.66933 66.53149 56.10041
# Shear Modulus (GPa) = 22.87710 28.87125 25.87418
#
# Velocity S-wave (km/s) = 3.29551 3.70216 3.50474
# Velocity P-wave (km/s) = 6.01340 7.06109 6.55820
#
# Compressibility (1/GPa) = 0.02189653
#
# Stress axis : x y z
#
# Youngs Moduli (GPa) = 28.19851 65.48080 126.73210
#
# Poissons Ratio (x) = 0.82356 0.36299
# Poissons Ratio (y) = 0.35466 0.37044
# Poissons Ratio (z) = 0.08077 0.19140
#
# Static dielectric constant tensor:
#      x y z
#    x 3.508170 0.000000 -0.000680 
#    y 0.000000 4.284130 0.000000 
#    z -0.000680 0.000000 3.666170 
# 
# 
# High freq. dielectric constant tensor:
#      x y z
#    x 1.800100 0.000000 0.003430 
#    y 0.000000 1.834240 0.000000 
#    z 0.003430 0.000000 1.839070 
# 
# From -- ./inp_files/81376.got.cif
#   From: 2010.06.25/outbox.cif.g09.slc.cpg/sg15_41_cif.got.tgz:81376.got - 2010.06.28 07:06:18.
