data_PCOD8139490
_publ_section_title
;
Structure prediction by ZEFSAII (Michael W. Deem and Ramdas Pophale) SiO2 
 PCOD8139490
Probable space group: C 2/C
;
_chemical_formula_sum "Si O2"
_cell_formula_units_Z 52
_cell_length_a 9.185245
_cell_length_b 23.433976
_cell_length_c 19.234734
_cell_angle_alpha 90.000000
_cell_angle_beta 138.996555
_cell_angle_gamma 90.000000
_cell_volume 2716.413402
_symmetry_space_group_name_H-M "C 2/C"
_symmetry_group_IT_number 15
_symmetry_cell_setting 'monoclinic'
loop_
_space_group_symop_operation_xyz
x,y,z
-x,y,1/2-z
-x,-y,-z
x,-y,1/2+z
1/2+x,1/2+y,z
1/2-x,1/2+y,1/2-z
1/2-x,1/2-y,-z
1/2+x,1/2-y,1/2+z
loop_
_atom_site_type_symbol
_atom_site_label
_atom_site_fract_x
_atom_site_fract_y
_atom_site_fract_z
Si Si1 0.843361 0.399978 0.755720
Si Si2 0.918805 0.169593 0.082335
Si Si3 0.357004 0.836774 0.529760
Si Si4 0.500000 0.742474 0.250000
Si Si5 0.542948 0.913262 0.486396
Si Si6 0.747891 0.505993 0.329548
Si Si7 0.047592 0.781832 0.053787
O O1 0.621750 0.373198 0.644332
O O2 0.780402 0.457672 0.772113
O O3 0.000000 0.419119 0.750000
O O4 0.964508 0.352506 0.846741
O O5 0.953651 0.203141 0.166619
O O6 0.688408 0.134862 0.001069
O O7 0.907789 0.211403 0.012367
O O8 0.360696 0.885513 0.472511
O O9 0.424499 0.777914 0.518269
O O10 0.108994 0.831990 0.472152
O O11 0.281577 0.782019 0.180088
O O12 0.705802 0.954447 0.587359
O O13 0.408962 0.951131 0.382520
O O14 0.500000 0.483316 0.250000
#
# Coordination Sequence:
#
# PCOD8139490 Si02
#       7
#     8   8   8   4   8   8   8
#     4  11  20  38  66  90 115 156 205 253 307 364
#     4  12  21  39  63  91 119 168 205 247 301 368
#     4  10  21  39  57  92 126 156 203 254 297 359
#     4  12  22  38  60  86 128 166 212 242 288 360
#     4  10  21  38  63  86 116 156 203 255 300 361
#     4  10  20  39  63  88 112 151 204 255 306 360
#     4  11  23  37  61  90 128 164 205 248 296 361
#
# _framework density 19.142889
#
# number of rings (size 3 to 8) (size 9 to 14) (size 15 to 20)
#    0.000    1.231    6.154    1.385    0.000    0.000 
#    2.769    2.308    0.000    0.000    0.000    0.000 
#    0.000    0.000    0.000    0.000    0.000    0.000 
#
# Total GULP energy -322429.444693 kJ/mol
# GULP energy per Si atom -12401.132488 kJ/mol
# Density = 1.909932 g / cm^3
# Si number density = 19.142889 Si / 1000 Ang^3
#
#
#
# Elastic Constant Matrix: (Units=GPa)
#
#
# Indices 1 2 3 4 5 6 
#
# 1 112.0040 39.8882 47.7849 0.0000 9.7490 0.0000
# 2 39.8882 66.6032 47.3801 0.0000 -0.1943 0.0000
# 3 47.7849 47.3801 84.1060 -0.0001 14.4483 0.0000
# 4 0.0000 0.0000 -0.0001 30.8934 0.0000 9.1609
# 5 9.7490 -0.1943 14.4483 0.0000 32.0368 0.0000
# 6 0.0000 0.0000 0.0000 9.1609 0.0000 20.2912
#
#
#
# Elastic Compliance Matrix: (Units=1/GPa)
#
#
# Indices 1 2 3 4 5 6 
#
# 1 0.012501 -0.004461 -0.004262 0.000000 -0.001909 0.000000
# 2 -0.004461 0.028214 -0.014766 0.000000 0.008188 0.000000
# 3 -0.004262 -0.014766 0.024305 0.000000 -0.009754 0.000000
# 4 0.000000 0.000000 0.000000 0.037373 0.000000 -0.016873
# 5 -0.001909 0.008188 -0.009754 0.000000 0.036244 0.000000
# 6 0.000000 0.000000 0.000000 -0.016873 0.000000 0.056900
#
#
# Mechanical properties :
#
#
# Convention : Reuss Voigt Hill
#
# Bulk Modulus (GPa) = 55.42335 59.20217 57.31276
# Shear Modulus (GPa) = 20.11841 25.15495 22.63668
#
# Velocity S-wave (km/s) = 3.24537 3.62893 3.44250
# Velocity P-wave (km/s) = 6.56190 6.96796 6.76798
#
# Compressibility (1/GPa) = 0.01804294
#
# Stress axis : x y z
#
# Youngs Moduli (GPa) = 79.99188 35.44318 41.14376
#
# Poissons Ratio (x) = 0.15811 0.17534
# Poissons Ratio (y) = 0.35683 0.60754
# Poissons Ratio (z) = 0.34090 0.52336
#
# Static dielectric constant tensor:
#      x y z
#    x 3.649240 0.000000 0.241620 
#    y 0.000000 3.432470 0.000000 
#    z 0.241620 0.000000 3.584380 
# 
# 
# High freq. dielectric constant tensor:
#      x y z
#    x 1.751250 0.000000 0.015540 
#    y 0.000000 1.733030 0.000000 
#    z 0.015540 0.000000 1.736740 
# 
# From -- ./inp_files/80637.got.cif
#   From: 2010.06.25/outbox.cif.g09.slc.cpg/sg15_41_cif.got.tgz:80637.got - 2010.06.28 07:06:18.
