data_PCOD8139859
_publ_section_title
;
Structure prediction by ZEFSAII (Michael W. Deem and Ramdas Pophale) SiO2 
 PCOD8139859
Probable space group: C 2/C
;
_chemical_formula_sum "Si O2"
_cell_formula_units_Z 48
_cell_length_a 21.914831
_cell_length_b 14.183441
_cell_length_c 19.755928
_cell_angle_alpha 90.000000
_cell_angle_beta 157.766053
_cell_angle_gamma 90.000000
_cell_volume 2323.571274
_symmetry_space_group_name_H-M "C 2/C"
_symmetry_group_IT_number 15
_symmetry_cell_setting 'monoclinic'
loop_
_space_group_symop_operation_xyz
x,y,z
-x,y,1/2-z
-x,-y,-z
x,-y,1/2+z
1/2+x,1/2+y,z
1/2-x,1/2+y,1/2-z
1/2-x,1/2-y,-z
1/2+x,1/2-y,1/2+z
loop_
_atom_site_type_symbol
_atom_site_label
_atom_site_fract_x
_atom_site_fract_y
_atom_site_fract_z
Si Si1 0.285042 0.969950 0.905936
Si Si2 0.661386 0.001419 0.300415
Si Si3 0.810433 0.644187 0.561712
Si Si4 0.780331 0.810077 0.965122
Si Si5 0.362000 0.569261 0.379157
Si Si6 0.084283 0.162020 0.700448
O O1 0.242318 0.908537 0.794788
O O2 0.186892 0.066772 0.808880
O O3 0.234841 0.908819 0.919470
O O4 0.473067 0.991375 0.093765
O O5 0.686590 0.091156 0.375522
O O6 0.753669 0.018240 0.324981
O O7 0.734717 0.910233 0.414905
O O8 0.750000 0.750000 0.500000
O O9 0.000000 0.643352 0.750000
O O10 0.704137 0.751506 0.822631
O O11 0.750000 0.750000 0.000000
O O12 0.970501 0.828432 0.150081
O O13 0.500000 0.500000 0.500000
O O14 0.456608 0.660682 0.506374
#
# Coordination Sequence:
#
# PCOD8139859 Si02
#       6
#     8   8   8   8   8   8
#     4  10  20  40  62  86 119 158 202 251 302 361
#     4  10  21  39  62  88 119 157 200 251 304 358
#     4  10  23  40  61  88 117 154 201 250 301 353
#     4  11  21  34  55  87 121 157 193 237 300 366
#     4   9  20  38  60  86 117 158 200 244 299 357
#     4  10  21  35  55  85 119 154 193 239 294 361
#
# _framework density 20.657855000000001
#
# number of rings (size 3 to 8) (size 9 to 14) (size 15 to 20)
#    0.000    2.000    0.000    3.000    0.000    8.000 
#    0.000   15.000    0.000    0.000    0.000    0.000 
#    0.000    0.000    0.000    0.000    0.000    0.000 
#
# Total GULP energy -297417.520289 kJ/mol
# GULP energy per Si atom -12392.396679 kJ/mol
# Density = 2.061084 g / cm^3
# Si number density = 20.657855 Si / 1000 Ang^3
#
#
#
# Elastic Constant Matrix: (Units=GPa)
#
#
# Indices 1 2 3 4 5 6 
#
# 1 103.5771 23.2776 49.6064 -0.0051 -9.1023 -0.0004
# 2 23.2776 115.5109 46.0689 -0.0094 -10.6338 -0.0030
# 3 49.6064 46.0689 99.7128 -0.0246 -7.6103 -0.0113
# 4 -0.0051 -0.0094 -0.0246 42.6705 -0.0082 -1.9216
# 5 -9.1023 -10.6338 -7.6103 -0.0082 29.0409 -0.0019
# 6 -0.0004 -0.0030 -0.0113 -1.9216 -0.0019 30.2031
#
#
#
# Elastic Compliance Matrix: (Units=1/GPa)
#
#
# Indices 1 2 3 4 5 6 
#
# 1 0.012838 0.000135 -0.006263 -0.000002 0.002432 -0.000002
# 2 0.000135 0.010819 -0.004857 0.000000 0.002731 -0.000001
# 3 -0.006263 -0.004857 0.015411 0.000007 0.000297 0.000006
# 4 -0.000002 0.000000 0.000007 0.023503 0.000008 0.001495
# 5 0.002432 0.002731 0.000297 0.000008 0.036274 0.000003
# 6 -0.000002 -0.000001 0.000006 0.001495 0.000003 0.033204
#
#
# Mechanical properties :
#
#
# Convention : Reuss Voigt Hill
#
# Bulk Modulus (GPa) = 58.49091 61.85629 60.17360
# Shear Modulus (GPa) = 31.30496 33.70609 32.50552
#
# Velocity S-wave (km/s) = 3.89704 4.04373 3.97106
# Velocity P-wave (km/s) = 6.97315 7.19796 7.08645
#
# Compressibility (1/GPa) = 0.01709667
#
# Stress axis : x y z
#
# Youngs Moduli (GPa) = 77.89495 92.43407 64.88663
#
# Poissons Ratio (x) = -0.01246 0.40641
# Poissons Ratio (y) = -0.01050 0.31515
# Poissons Ratio (z) = 0.48789 0.44895
#
# Static dielectric constant tensor:
#      x y z
#    x 4.260450 -0.000220 -0.499530 
#    y -0.000220 3.876210 0.000080 
#    z -0.499530 0.000080 4.403700 
# 
# 
# High freq. dielectric constant tensor:
#      x y z
#    x 1.805300 0.000000 0.000620 
#    y 0.000000 1.794460 0.000000 
#    z 0.000620 0.000000 1.831680 
# 
# From -- ./inp_files/255716.got.cif
#   From: 2010.06.25/outbox.cif.g09.slc.cpg/sg15_128_cif.got.tgz:255716.got - 2010.06.28 07:06:18.
