data_PCOD8139057
_publ_section_title
;
Structure prediction by ZEFSAII (Michael W. Deem and Ramdas Pophale) SiO2 
 PCOD8139057
Probable space group: C 2/C
;
_chemical_formula_sum "Si O2"
_cell_formula_units_Z 48
_cell_length_a 8.360689
_cell_length_b 18.489314
_cell_length_c 17.332839
_cell_angle_alpha 90.000000
_cell_angle_beta 119.246033
_cell_angle_gamma 90.000000
_cell_volume 2337.829617
_symmetry_space_group_name_H-M "C 2/C"
_symmetry_group_IT_number 15
_symmetry_cell_setting 'monoclinic'
loop_
_space_group_symop_operation_xyz
x,y,z
-x,y,1/2-z
-x,-y,-z
x,-y,1/2+z
1/2+x,1/2+y,z
1/2-x,1/2+y,1/2-z
1/2-x,1/2-y,-z
1/2+x,1/2-y,1/2+z
loop_
_atom_site_type_symbol
_atom_site_label
_atom_site_fract_x
_atom_site_fract_y
_atom_site_fract_z
Si Si1 0.958372 0.448412 0.886984
Si Si2 0.138926 0.399800 0.076067
Si Si3 0.540181 0.603736 0.674345
Si Si4 0.846491 0.870605 0.776984
Si Si5 0.155617 0.018506 0.097164
Si Si6 0.354751 0.203025 0.782376
O O1 0.847889 0.520653 0.882500
O O2 0.847891 0.399916 0.800200
O O3 0.150242 0.473273 0.897147
O O4 0.992838 0.399906 0.971945
O O5 0.341440 0.382207 0.088439
O O6 0.081554 0.340006 0.125761
O O7 0.500000 0.572484 0.750000
O O8 0.668300 0.547465 0.659998
O O9 0.654108 0.677885 0.707068
O O10 0.899834 0.909655 0.869179
O O11 0.835569 0.787015 0.796630
O O12 0.000000 0.886329 0.750000
O O13 0.000000 0.000000 0.000000
O O14 0.500000 0.187663 0.750000
#
# Coordination Sequence:
#
# PCOD8139057 Si02
#       6
#     8   8   8   8   8   8
#     4  11  23  40  66  95 128 162 212 262 315 370
#     4  10  21  39  64  95 125 163 210 261 312 374
#     4  10  20  38  64  91 124 167 208 256 310 371
#     4  11  25  44  64  92 130 169 210 260 318 376
#     4  12  23  39  65  99 125 162 213 263 309 374
#     4  10  22  43  64  90 127 174 210 256 318 377
#
# _framework density 20.531863999999999
#
# number of rings (size 3 to 8) (size 9 to 14) (size 15 to 20)
#    0.000    1.333    1.667    5.000    2.333    4.000 
#    3.000    3.333    0.000    0.000    0.000    0.000 
#    0.000    0.000    0.000    0.000    0.000    0.000 
#
# Total GULP energy -297632.081306 kJ/mol
# GULP energy per Si atom -12401.336721 kJ/mol
# Density = 2.048513 g / cm^3
# Si number density = 20.531864 Si / 1000 Ang^3
#
#
#
# Elastic Constant Matrix: (Units=GPa)
#
#
# Indices 1 2 3 4 5 6 
#
# 1 117.0413 53.5420 48.5666 0.0000 4.8788 0.0000
# 2 53.5420 124.0274 75.1944 0.0000 -5.5839 0.0000
# 3 48.5666 75.1944 127.9346 0.0000 3.6929 0.0000
# 4 0.0000 0.0000 0.0000 25.6289 0.0000 -4.7668
# 5 4.8788 -5.5839 3.6929 0.0000 29.8259 0.0000
# 6 0.0000 0.0000 0.0000 -4.7668 0.0000 36.2456
#
#
#
# Elastic Compliance Matrix: (Units=1/GPa)
#
#
# Indices 1 2 3 4 5 6 
#
# 1 0.011164 -0.003717 -0.001988 0.000000 -0.002276 0.000000
# 2 -0.003717 0.014090 -0.006989 0.000000 0.004111 0.000000
# 3 -0.001988 -0.006989 0.012753 0.000000 -0.002562 0.000000
# 4 0.000000 0.000000 0.000000 0.039997 0.000000 0.005260
# 5 -0.002276 0.004111 -0.002562 0.000000 0.034987 0.000000
# 6 0.000000 0.000000 0.000000 0.005260 0.000000 0.028281
#
#
# Mechanical properties :
#
#
# Convention : Reuss Voigt Hill
#
# Bulk Modulus (GPa) = 79.24330 80.40103 79.82217
# Shear Modulus (GPa) = 29.26285 31.12009 30.19147
#
# Velocity S-wave (km/s) = 3.77933 3.89742 3.83883
# Velocity P-wave (km/s) = 7.59760 7.71345 7.65574
#
# Compressibility (1/GPa) = 0.01261936
#
# Stress axis : x y z
#
# Youngs Moduli (GPa) = 89.57371 70.97482 78.41371
#
# Poissons Ratio (x) = 0.26379 0.15588
# Poissons Ratio (y) = 0.33292 0.54803
# Poissons Ratio (z) = 0.17806 0.49604
#
# Static dielectric constant tensor:
#      x y z
#    x 4.005690 0.000000 -0.018330 
#    y 0.000000 3.612020 0.000000 
#    z -0.018330 0.000000 3.865870 
# 
# 
# High freq. dielectric constant tensor:
#      x y z
#    x 1.818710 0.000000 -0.001520 
#    y 0.000000 1.791610 0.000000 
#    z -0.001520 0.000000 1.803690 
# 
# From -- ./inp_files/232308.got.cif
#   From: 2010.06.25/outbox.cif.g09.slc.cpg/sg15_117_cif.got.tgz:232308.got - 2010.06.28 07:06:18.
