data_PCOD8139466
_publ_section_title
;
Structure prediction by ZEFSAII (Michael W. Deem and Ramdas Pophale) SiO2 
 PCOD8139466
Probable space group: C 2/C
;
_chemical_formula_sum "Si O2"
_cell_formula_units_Z 40
_cell_length_a 20.860067
_cell_length_b 11.214962
_cell_length_c 12.772113
_cell_angle_alpha 90.000000
_cell_angle_beta 140.956291
_cell_angle_gamma 90.000000
_cell_volume 1882.161452
_symmetry_space_group_name_H-M "C 2/C"
_symmetry_group_IT_number 15
_symmetry_cell_setting 'monoclinic'
loop_
_space_group_symop_operation_xyz
x,y,z
-x,y,1/2-z
-x,-y,-z
x,-y,1/2+z
1/2+x,1/2+y,z
1/2-x,1/2+y,1/2-z
1/2-x,1/2-y,-z
1/2+x,1/2-y,1/2+z
loop_
_atom_site_type_symbol
_atom_site_label
_atom_site_fract_x
_atom_site_fract_y
_atom_site_fract_z
Si Si1 0.721163 0.720166 0.633602
Si Si2 0.500000 0.916833 0.750000
Si Si3 0.500000 0.470857 0.250000
Si Si4 0.634883 0.874969 0.347865
Si Si5 0.998837 0.832411 0.902774
Si Si6 0.598837 0.285594 0.504969
O O1 0.696660 0.833045 0.528626
O O2 0.788546 0.624089 0.654229
O O3 0.620611 0.657984 0.549391
O O4 0.784580 0.767378 0.813691
O O5 0.448676 0.838502 0.594259
O O6 0.412253 0.995146 0.693864
O O7 0.546743 0.553829 0.217305
O O8 0.592061 0.385894 0.406220
O O9 0.541375 0.786092 0.205004
O O10 0.966972 0.836539 0.982199
#
# Coordination Sequence:
#
# PCOD8139466 Si02
#       6
#     8   4   4   8   8   8
#     4  10  20  39  62  95 114 162 215 239 304 374
#     4  11  21  46  58  92 139 155 198 264 320 353
#     4  11  21  44  60  86 127 163 204 262 310 355
#     4  10  20  39  67  89 124 162 200 258 307 364
#     4  11  20  43  64  88 123 165 209 254 307 365
#     4  10  26  39  62  93 126 164 204 258 311 367
#
# _framework density 21.252162999999999
#
# number of rings (size 3 to 8) (size 9 to 14) (size 15 to 20)
#    0.000    1.600    4.000    0.600    0.000    4.800 
#    7.200    2.000    0.000    0.000    0.000    0.000 
#    0.000    0.000    0.000    0.000    0.000    0.000 
#
# Total GULP energy -248021.789523 kJ/mol
# GULP energy per Si atom -12401.089476 kJ/mol
# Density = 2.120379 g / cm^3
# Si number density = 21.252163 Si / 1000 Ang^3
#
#
#
# Elastic Constant Matrix: (Units=GPa)
#
#
# Indices 1 2 3 4 5 6 
#
# 1 101.5021 44.6358 50.6229 0.0000 17.8393 0.0000
# 2 44.6358 126.9413 56.4058 0.0000 -8.7094 0.0000
# 3 50.6229 56.4058 154.4383 0.0000 -3.6190 0.0000
# 4 0.0000 0.0000 0.0000 26.7610 0.0000 -10.4134
# 5 17.8393 -8.7094 -3.6190 0.0000 30.6603 0.0000
# 6 0.0000 0.0000 0.0000 -10.4134 0.0000 19.2704
#
#
#
# Elastic Compliance Matrix: (Units=1/GPa)
#
#
# Indices 1 2 3 4 5 6 
#
# 1 0.015618 -0.004592 -0.003696 0.000000 -0.010828 0.000000
# 2 -0.004592 0.010915 -0.002352 0.000000 0.005495 0.000000
# 3 -0.003696 -0.002352 0.008604 0.000000 0.002498 0.000000
# 4 0.000000 0.000000 0.000000 0.047318 0.000000 0.025570
# 5 -0.010828 0.005495 0.002498 0.000000 0.040771 0.000000
# 6 0.000000 0.000000 0.000000 0.025570 0.000000 0.065710
#
#
# Mechanical properties :
#
#
# Convention : Reuss Voigt Hill
#
# Bulk Modulus (GPa) = 72.17199 76.24564 74.20882
# Shear Modulus (GPa) = 23.27371 30.75283 27.01327
#
# Velocity S-wave (km/s) = 3.31285 3.80813 3.56909
# Velocity P-wave (km/s) = 6.97617 7.43575 7.20962
#
# Compressibility (1/GPa) = 0.01385579
#
# Stress axis : x y z
#
# Youngs Moduli (GPa) = 64.02999 91.62003 116.22258
#
# Poissons Ratio (x) = 0.42074 0.42953
# Poissons Ratio (y) = 0.29404 0.27339
# Poissons Ratio (z) = 0.23664 0.21552
#
# Static dielectric constant tensor:
#      x y z
#    x 3.680600 0.000000 -0.061810 
#    y 0.000000 3.716810 0.000000 
#    z -0.061810 0.000000 4.066450 
# 
# 
# High freq. dielectric constant tensor:
#      x y z
#    x 1.817900 0.000000 -0.005090 
#    y 0.000000 1.821590 0.000000 
#    z -0.005090 0.000000 1.847810 
# 
# From -- ./inp_files/103960.got.cif
#   From: 2010.06.25/outbox.cif.g09.slc.cpg/sg15_52_cif.got.tgz:103960.got - 2010.06.28 07:06:18.
