data_PCOD8139326
_publ_section_title
;
Structure prediction by ZEFSAII (Michael W. Deem and Ramdas Pophale) SiO2 
 PCOD8139326
Probable space group: C 2/C
;
_chemical_formula_sum "Si O2"
_cell_formula_units_Z 40
_cell_length_a 7.697329
_cell_length_b 10.457930
_cell_length_c 30.431244
_cell_angle_alpha 90.000000
_cell_angle_beta 124.484125
_cell_angle_gamma 90.000000
_cell_volume 2019.211811
_symmetry_space_group_name_H-M "C 2/C"
_symmetry_group_IT_number 15
_symmetry_cell_setting 'monoclinic'
loop_
_space_group_symop_operation_xyz
x,y,z
-x,y,1/2-z
-x,-y,-z
x,-y,1/2+z
1/2+x,1/2+y,z
1/2-x,1/2+y,1/2-z
1/2-x,1/2-y,-z
1/2+x,1/2-y,1/2+z
loop_
_atom_site_type_symbol
_atom_site_label
_atom_site_fract_x
_atom_site_fract_y
_atom_site_fract_z
Si Si1 0.532346 0.508985 0.124934
Si Si2 0.569208 0.024496 0.373850
Si Si3 0.982548 0.721429 0.905192
Si Si4 0.863289 0.919817 0.188793
Si Si5 0.287483 0.269647 0.056136
O O1 0.776712 0.520864 0.145898
O O2 0.419194 0.644411 0.096799
O O3 0.515351 0.486322 0.174617
O O4 0.418583 0.399068 0.081089
O O5 0.626663 0.898891 0.412047
O O6 0.324640 0.017082 0.323283
O O7 0.588344 0.148827 0.406572
O O8 0.747562 0.704500 0.848906
O O9 0.939598 0.720793 0.951572
O O10 0.000000 0.878178 0.250000
O O11 0.250000 0.250000 0.000000
#
# Coordination Sequence:
#
# PCOD8139326 Si02
#       5
#     8   8   8   8   8
#     4  10  20  39  60  80 122 147 187 243 280 342
#     4   9  21  37  58  85 115 152 190 233 289 344
#     4   8  20  39  54  86 115 146 194 235 277 349
#     4   9  20  40  57  84 116 149 192 242 287 342
#     4  10  21  38  61  86 119 154 189 242 290 336
#
# _framework density 19.809709999999999
#
# number of rings (size 3 to 8) (size 9 to 14) (size 15 to 20)
#    1.200    1.600    0.000    0.000    2.800    4.800 
#   10.800    2.000    0.000    0.000    0.000    0.000 
#    0.000    0.000    0.000    0.000    0.000    0.000 
#
# Total GULP energy -247776.297942 kJ/mol
# GULP energy per Si atom -12388.814897 kJ/mol
# Density = 1.976462 g / cm^3
# Si number density = 19.809710 Si / 1000 Ang^3
#
#
#
# Elastic Constant Matrix: (Units=GPa)
#
#
# Indices 1 2 3 4 5 6 
#
# 1 87.9759 23.5306 18.5480 0.0000 -17.8917 0.0000
# 2 23.5306 142.8424 11.1906 0.0000 -3.1793 0.0000
# 3 18.5480 11.1906 55.6748 0.0000 -15.7393 0.0000
# 4 0.0000 0.0000 0.0000 17.9299 0.0000 -1.1682
# 5 -17.8917 -3.1793 -15.7393 0.0000 24.6142 0.0000
# 6 0.0000 0.0000 0.0000 -1.1682 0.0000 24.5259
#
#
#
# Elastic Compliance Matrix: (Units=1/GPa)
#
#
# Indices 1 2 3 4 5 6 
#
# 1 0.014069 -0.001981 -0.001795 0.000000 0.008823 0.000000
# 2 -0.001981 0.007392 -0.001175 0.000000 -0.001237 0.000000
# 3 -0.001795 -0.001175 0.022440 0.000000 0.012893 0.000000
# 4 0.000000 0.000000 0.000000 0.055946 0.000000 0.002665
# 5 0.008823 -0.001237 0.012893 0.000000 0.055125 0.000000
# 6 0.000000 0.000000 0.000000 0.002665 0.000000 0.040900
#
#
# Mechanical properties :
#
#
# Convention : Reuss Voigt Hill
#
# Bulk Modulus (GPa) = 29.41201 43.67016 36.54109
# Shear Modulus (GPa) = 23.03005 28.96225 25.99615
#
# Velocity S-wave (km/s) = 3.41334 3.82779 3.62649
# Velocity P-wave (km/s) = 5.51489 6.45203 6.00178
#
# Compressibility (1/GPa) = 0.03399971
#
# Stress axis : x y z
#
# Youngs Moduli (GPa) = 71.07681 135.28943 44.56236
#
# Poissons Ratio (x) = 0.26796 0.07998
# Poissons Ratio (y) = 0.14078 0.05238
# Poissons Ratio (z) = 0.12756 0.15902
#
# Static dielectric constant tensor:
#      x y z
#    x 3.672710 0.000000 -0.210400 
#    y 0.000000 3.733920 0.000000 
#    z -0.210400 0.000000 3.082100 
# 
# 
# High freq. dielectric constant tensor:
#      x y z
#    x 1.778950 0.000000 -0.023120 
#    y 0.000000 1.784780 0.000000 
#    z -0.023120 0.000000 1.727380 
# 
# From -- ./inp_files/287303.got.cif
#   From: 2010.06.25/outbox.cif.g09.slc.cpg/sg15_144_cif.got.tgz:287303.got - 2010.06.28 07:06:18.
