data_PCOD8139300
_publ_section_title
;
Structure prediction by ZEFSAII (Michael W. Deem and Ramdas Pophale) SiO2 
 PCOD8139300
Probable space group: C 2/C
;
_chemical_formula_sum "Si O2"
_cell_formula_units_Z 64
_cell_length_a 26.403320
_cell_length_b 8.559833
_cell_length_c 13.845064
_cell_angle_alpha 90.000000
_cell_angle_beta 71.198315
_cell_angle_gamma 90.000000
_cell_volume 2962.126151
_symmetry_space_group_name_H-M "C 2/C"
_symmetry_group_IT_number 15
_symmetry_cell_setting 'monoclinic'
loop_
_space_group_symop_operation_xyz
x,y,z
-x,y,1/2-z
-x,-y,-z
x,-y,1/2+z
1/2+x,1/2+y,z
1/2-x,1/2+y,1/2-z
1/2-x,1/2-y,-z
1/2+x,1/2-y,1/2+z
loop_
_atom_site_type_symbol
_atom_site_label
_atom_site_fract_x
_atom_site_fract_y
_atom_site_fract_z
Si Si1 0.282786 0.592343 0.005223
Si Si2 0.303764 0.010733 0.306626
Si Si3 0.159090 0.413394 0.920912
Si Si4 0.975168 0.810734 0.369766
Si Si5 0.450088 0.644931 0.351980
Si Si6 0.135477 0.320090 0.573606
Si Si7 0.040584 0.358901 0.978488
Si Si8 0.169452 0.795234 0.596561
O O1 0.344307 0.648385 0.971723
O O2 0.250000 0.750000 0.000000
O O3 0.257337 0.537562 0.121451
O O4 0.287609 0.441131 0.928636
O O5 0.316538 0.831522 0.329517
O O6 0.302474 0.051745 0.193760
O O7 0.346682 0.129649 0.329421
O O8 0.099879 0.408946 0.911232
O O9 0.172060 0.265406 0.982298
O O10 0.165915 0.559405 0.986588
O O11 0.928304 0.679513 0.400362
O O12 0.000000 0.808712 0.250000
O O13 0.020960 0.774241 0.417945
O O14 0.952553 0.981807 0.408349
O O15 0.500000 0.654397 0.250000
O O16 0.457091 0.793682 0.415432
O O17 0.391412 0.654253 0.338769
O O18 0.000000 0.500000 0.000000
#
# Coordination Sequence:
#
# PCOD8139300 Si02
#       8
#     8   8   8   8   8   8   8   8
#     4  10  21  40  65  87 118 158 200 255 309 353
#     4  10  22  38  61  88 114 153 207 244 302 370
#     4  10  22  39  57  90 121 160 198 243 304 361
#     4  11  21  37  59  82 116 158 200 240 298 362
#     4  10  23  38  59  88 119 163 199 240 300 367
#     4  10  20  39  58  83 120 151 193 255 300 352
#     4  11  22  36  57  85 123 155 196 246 296 359
#     4  10  21  40  63  86 128 156 196 257 302 352
#
# _framework density 21.606102
#
# number of rings (size 3 to 8) (size 9 to 14) (size 15 to 20)
#    0.000    1.750    2.500    1.500    1.750    1.500 
#    0.000    2.500    0.000    0.000    0.000    0.000 
#    0.000    0.000    0.000    0.000    0.000    0.000 
#
# Total GULP energy -396417.900035 kJ/mol
# GULP energy per Si atom -12388.059376 kJ/mol
# Density = 2.155693 g / cm^3
# Si number density = 21.606102 Si / 1000 Ang^3
#
#
#
# Elastic Constant Matrix: (Units=GPa)
#
#
# Indices 1 2 3 4 5 6 
#
# 1 25.4901 14.8902 4.9800 0.0000 3.2692 0.0000
# 2 14.8902 102.1201 26.9256 0.0000 -9.9288 0.0000
# 3 4.9800 26.9256 96.6519 0.0000 -6.0729 0.0000
# 4 0.0000 0.0000 0.0000 26.8228 0.0000 -9.6991
# 5 3.2692 -9.9288 -6.0729 0.0000 25.6996 0.0000
# 6 0.0000 0.0000 0.0000 -9.6991 0.0000 39.1659
#
#
#
# Elastic Compliance Matrix: (Units=1/GPa)
#
#
# Indices 1 2 3 4 5 6 
#
# 1 0.044670 -0.007127 -0.000859 0.000000 -0.008639 0.000000
# 2 -0.007127 0.012014 -0.002671 0.000000 0.004917 0.000000
# 3 -0.000859 -0.002671 0.011244 0.000000 0.001734 0.000000
# 4 0.000000 0.000000 0.000000 0.040949 0.000000 0.010141
# 5 -0.008639 0.004917 0.001734 0.000000 0.042320 0.000000
# 6 0.000000 0.000000 0.000000 0.010141 0.000000 0.028044
#
#
# Mechanical properties :
#
#
# Convention : Reuss Voigt Hill
#
# Bulk Modulus (GPa) = 21.45266 35.31710 28.38488
# Shear Modulus (GPa) = 23.13852 30.16874 26.65363
#
# Velocity S-wave (km/s) = 3.27605 3.74077 3.51610
# Velocity P-wave (km/s) = 4.92550 5.91939 5.44517
#
# Compressibility (1/GPa) = 0.04661426
#
# Stress axis : x y z
#
# Youngs Moduli (GPa) = 22.38652 83.23787 88.93902
#
# Poissons Ratio (x) = 0.59321 0.07640
# Poissons Ratio (y) = 0.15954 0.23753
# Poissons Ratio (z) = 0.01923 0.22230
#
# Static dielectric constant tensor:
#      x y z
#    x 3.889250 0.000000 -0.357940 
#    y 0.000000 4.396050 0.000000 
#    z -0.357940 0.000000 3.745400 
# 
# 
# High freq. dielectric constant tensor:
#      x y z
#    x 1.843150 0.000000 -0.026780 
#    y 0.000000 1.865100 0.000000 
#    z -0.026780 0.000000 1.832630 
# 
# From -- ./inp_files/181137.got.cif
#   From: 2010.06.25/outbox.cif.g09.slc.cpg/sg15_91_cif.got.tgz:181137.got - 2010.06.28 07:06:18.
