data_PCOD8139591
_publ_section_title
;
Structure prediction by ZEFSAII (Michael W. Deem and Ramdas Pophale) SiO2 
 PCOD8139591
Probable space group: C 2/C
;
_chemical_formula_sum "Si O2"
_cell_formula_units_Z 52
_cell_length_a 18.902755
_cell_length_b 14.046948
_cell_length_c 11.435377
_cell_angle_alpha 90.000000
_cell_angle_beta 49.461966
_cell_angle_gamma 90.000000
_cell_volume 2307.579604
_symmetry_space_group_name_H-M "C 2/C"
_symmetry_group_IT_number 15
_symmetry_cell_setting 'monoclinic'
loop_
_space_group_symop_operation_xyz
x,y,z
-x,y,1/2-z
-x,-y,-z
x,-y,1/2+z
1/2+x,1/2+y,z
1/2-x,1/2+y,1/2-z
1/2-x,1/2-y,-z
1/2+x,1/2-y,1/2+z
loop_
_atom_site_type_symbol
_atom_site_label
_atom_site_fract_x
_atom_site_fract_y
_atom_site_fract_z
Si Si1 0.278328 0.044510 0.249704
Si Si2 0.885323 0.922112 0.729286
Si Si3 0.000000 0.781947 0.750000
Si Si4 0.445769 0.303250 0.467018
Si Si5 0.164788 0.105830 0.597636
Si Si6 0.723540 0.830865 0.309360
Si Si7 0.603341 0.213670 0.420939
O O1 0.222535 0.082235 0.195302
O O2 0.221271 0.061116 0.429347
O O3 0.373020 0.105694 0.142759
O O4 0.299741 0.932906 0.221274
O O5 0.946758 0.898943 0.547628
O O6 0.914049 0.847909 0.799473
O O7 0.897181 0.029487 0.764029
O O8 0.037870 0.714898 0.605774
O O9 0.415561 0.324723 0.366522
O O10 0.369338 0.230411 0.601846
O O11 0.548031 0.257745 0.368745
O O12 0.240346 0.160001 0.595815
O O13 0.805125 0.776691 0.151668
#
# Coordination Sequence:
#
# PCOD8139591 Si02
#       7
#     8   8   4   8   8   8   8
#     4  10  22  40  64  95 129 173 219 267 320 389
#     4   9  19  38  61  90 125 161 213 270 314 378
#     4  10  22  38  62  98 124 170 214 268 332 380
#     4  10  22  40  64  95 133 168 216 273 323 391
#     4  10  20  39  64  97 126 170 220 263 333 385
#     4  11  22  42  67  90 135 177 214 271 322 391
#     4  11  23  42  64  94 133 168 221 268 329 383
#
# _framework density 22.534433
#
# number of rings (size 3 to 8) (size 9 to 14) (size 15 to 20)
#    0.000    1.846    3.077    1.385    0.000    4.308 
#   11.077    9.231    0.000    0.000    0.000    0.000 
#    0.000    0.000    0.000    0.000    0.000    0.000 
#
# Total GULP energy -322243.567949 kJ/mol
# GULP energy per Si atom -12393.983383 kJ/mol
# Density = 2.248314 g / cm^3
# Si number density = 22.534433 Si / 1000 Ang^3
#
#
#
# Elastic Constant Matrix: (Units=GPa)
#
#
# Indices 1 2 3 4 5 6 
#
# 1 49.9748 7.5346 10.7336 0.0000 0.3064 0.0000
# 2 7.5346 94.5352 29.8113 0.0000 -8.2359 0.0000
# 3 10.7336 29.8113 59.1026 0.0000 3.3629 0.0000
# 4 0.0000 0.0000 0.0000 29.6075 0.0000 4.0670
# 5 0.3064 -8.2359 3.3629 0.0000 39.0958 0.0000
# 6 0.0000 0.0000 0.0000 4.0670 0.0000 27.8467
#
#
#
# Elastic Compliance Matrix: (Units=1/GPa)
#
#
# Indices 1 2 3 4 5 6 
#
# 1 0.020847 -0.000553 -0.003508 0.000000 0.000022 0.000000
# 2 -0.000553 0.013008 -0.006649 0.000000 0.003317 0.000000
# 3 -0.003508 -0.006649 0.021092 0.000000 -0.003188 0.000000
# 4 0.000000 0.000000 0.000000 0.034467 0.000000 -0.005034
# 5 0.000022 0.003317 -0.003188 0.000000 0.026551 0.000000
# 6 0.000000 0.000000 0.000000 -0.005034 0.000000 0.036646
#
#
# Mechanical properties :
#
#
# Convention : Reuss Voigt Hill
#
# Bulk Modulus (GPa) = 29.82830 33.30795 31.56813
# Shear Modulus (GPa) = 26.99674 29.67888 28.33781
#
# Velocity S-wave (km/s) = 3.46500 3.63305 3.55002
# Velocity P-wave (km/s) = 5.41053 5.69313 5.55363
#
# Compressibility (1/GPa) = 0.03352521
#
# Stress axis : x y z
#
# Youngs Moduli (GPa) = 47.96887 76.87583 47.41091
#
# Poissons Ratio (x) = 0.04254 0.16632
# Poissons Ratio (y) = 0.02654 0.31526
# Poissons Ratio (z) = 0.16828 0.51118
#
# Static dielectric constant tensor:
#      x y z
#    x 4.315370 0.000000 0.141880 
#    y 0.000000 4.072710 0.000000 
#    z 0.141880 0.000000 3.814980 
# 
# 
# High freq. dielectric constant tensor:
#      x y z
#    x 1.894890 0.000000 0.008750 
#    y 0.000000 1.879100 0.000000 
#    z 0.008750 0.000000 1.878510 
# 
# From -- ./inp_files/112653.got.cif
#   From: 2010.06.25/outbox.cif.g09.slc.cpg/sg15_57_cif.got.tgz:112653.got - 2010.06.28 07:06:18.
