data_PCOD8139829
_publ_section_title
;
Structure prediction by ZEFSAII (Michael W. Deem and Ramdas Pophale) SiO2 
 PCOD8139829
Probable space group: C 2/C
;
_chemical_formula_sum "Si O2"
_cell_formula_units_Z 48
_cell_length_a 11.673861
_cell_length_b 8.950041
_cell_length_c 26.063799
_cell_angle_alpha 90.000000
_cell_angle_beta 56.542986
_cell_angle_gamma 90.000000
_cell_volume 2271.952962
_symmetry_space_group_name_H-M "C 2/C"
_symmetry_group_IT_number 15
_symmetry_cell_setting 'monoclinic'
loop_
_space_group_symop_operation_xyz
x,y,z
-x,y,1/2-z
-x,-y,-z
x,-y,1/2+z
1/2+x,1/2+y,z
1/2-x,1/2+y,1/2-z
1/2-x,1/2-y,-z
1/2+x,1/2-y,1/2+z
loop_
_atom_site_type_symbol
_atom_site_label
_atom_site_fract_x
_atom_site_fract_y
_atom_site_fract_z
Si Si1 0.630829 0.581857 0.343793
Si Si2 0.838894 0.389544 0.116248
Si Si3 0.629450 0.108135 0.686626
Si Si4 0.354745 0.103653 0.931262
Si Si5 0.820105 0.050486 0.436154
Si Si6 0.357719 0.423936 0.774557
O O1 0.680114 0.712010 0.370315
O O2 0.729945 0.441809 0.322197
O O3 0.481252 0.515077 0.394188
O O4 0.640541 0.643139 0.283263
O O5 0.763109 0.450392 0.084336
O O6 0.773910 0.473961 0.181555
O O7 0.002415 0.413170 0.073037
O O8 0.500000 0.044054 0.750000
O O9 0.622479 0.039240 0.631145
O O10 0.634075 0.287941 0.686609
O O11 0.299958 0.271944 0.934828
O O12 0.241795 0.011649 0.991962
O O13 0.500000 0.516304 0.750000
#
# Coordination Sequence:
#
# PCOD8139829 Si02
#       6
#     8   8   8   8   8   8
#     4  11  23  37  59  91 123 155 200 253 304 367
#     4  11  20  39  62  89 116 157 207 252 299 358
#     4  11  22  41  59  85 125 155 195 250 308 362
#     4  10  21  38  64  87 116 161 203 245 302 365
#     4  10  20  40  61  88 118 158 206 245 297 370
#     4  11  19  38  63  84 116 157 203 247 303 359
#
# _framework density 21.127198
#
# number of rings (size 3 to 8) (size 9 to 14) (size 15 to 20)
#    0.000    1.333    3.333    5.500    0.000    1.333 
#    6.000    0.833    0.000    0.000    0.000    0.000 
#    0.000    0.000    0.000    0.000    0.000    0.000 
#
# Total GULP energy -297438.145529 kJ/mol
# GULP energy per Si atom -12393.256064 kJ/mol
# Density = 2.107911 g / cm^3
# Si number density = 21.127198 Si / 1000 Ang^3
#
#
#
# Elastic Constant Matrix: (Units=GPa)
#
#
# Indices 1 2 3 4 5 6 
#
# 1 104.6839 39.3168 55.8693 0.0000 -3.3875 0.0000
# 2 39.3168 39.4027 25.2546 0.0000 -4.0374 0.0000
# 3 55.8693 25.2546 170.6850 0.0000 -6.6908 0.0000
# 4 0.0000 0.0000 0.0000 10.5757 0.0000 -2.7275
# 5 -3.3875 -4.0374 -6.6908 0.0000 33.7610 0.0000
# 6 0.0000 0.0000 0.0000 -2.7275 0.0000 40.8723
#
#
#
# Elastic Compliance Matrix: (Units=1/GPa)
#
#
# Indices 1 2 3 4 5 6 
#
# 1 0.016863 -0.014744 -0.003367 0.000000 -0.000739 0.000000
# 2 -0.014744 0.041149 -0.001136 0.000000 0.003216 0.000000
# 3 -0.003367 -0.001136 0.007166 0.000000 0.000946 0.000000
# 4 0.000000 0.000000 0.000000 0.096212 0.000000 0.006421
# 5 -0.000739 0.003216 0.000946 0.000000 0.030118 0.000000
# 6 0.000000 0.000000 0.000000 0.006421 0.000000 0.024895
#
#
# Mechanical properties :
#
#
# Convention : Reuss Voigt Hill
#
# Bulk Modulus (GPa) = 37.47673 61.73922 49.60798
# Shear Modulus (GPa) = 18.95434 29.99721 24.47578
#
# Velocity S-wave (km/s) = 2.99850 3.77216 3.40736
# Velocity P-wave (km/s) = 5.45574 6.94682 6.24594
#
# Compressibility (1/GPa) = 0.02668323
#
# Stress axis : x y z
#
# Youngs Moduli (GPa) = 59.30080 24.30216 139.54560
#
# Poissons Ratio (x) = 0.35831 0.46987
# Poissons Ratio (y) = 0.87433 0.15856
# Poissons Ratio (z) = 0.19968 0.02761
#
# Static dielectric constant tensor:
#      x y z
#    x 3.775310 0.000000 -0.151220 
#    y 0.000000 3.356030 0.000000 
#    z -0.151220 0.000000 4.232410 
# 
# 
# High freq. dielectric constant tensor:
#      x y z
#    x 1.828630 0.000000 -0.008710 
#    y 0.000000 1.785250 0.000000 
#    z -0.008710 0.000000 1.851450 
# 
# From -- ./inp_files/291046.got.cif
#   From: 2010.06.25/outbox.cif.g09.slc.cpg/sg15_146_cif.got.tgz:291046.got - 2010.06.28 07:06:18.
