data_PCOD8139091
_publ_section_title
;
Structure prediction by ZEFSAII (Michael W. Deem and Ramdas Pophale) SiO2 
 PCOD8139091
Probable space group: C 2/C
;
_chemical_formula_sum "Si O2"
_cell_formula_units_Z 52
_cell_length_a 12.373272
_cell_length_b 8.108458
_cell_length_c 27.465758
_cell_angle_alpha 90.000000
_cell_angle_beta 53.933915
_cell_angle_gamma 90.000000
_cell_volume 2227.448580
_symmetry_space_group_name_H-M "C 2/C"
_symmetry_group_IT_number 15
_symmetry_cell_setting 'monoclinic'
loop_
_space_group_symop_operation_xyz
x,y,z
-x,y,1/2-z
-x,-y,-z
x,-y,1/2+z
1/2+x,1/2+y,z
1/2-x,1/2+y,1/2-z
1/2-x,1/2-y,-z
1/2+x,1/2-y,1/2+z
loop_
_atom_site_type_symbol
_atom_site_label
_atom_site_fract_x
_atom_site_fract_y
_atom_site_fract_z
Si Si1 0.607140 0.974866 0.842064
Si Si2 0.793046 0.789392 0.728579
Si Si3 0.829785 0.002954 0.628209
Si Si4 0.000000 0.850274 0.750000
Si Si5 0.731656 0.640470 0.123574
Si Si6 0.639956 0.470315 0.053760
Si Si7 0.684044 0.109211 0.081029
O O1 0.660908 0.814757 0.796917
O O2 0.629966 0.941568 0.893970
O O3 0.450603 0.998672 0.874280
O O4 0.705927 0.126913 0.804233
O O5 0.801410 0.952675 0.691773
O O6 0.921673 0.752037 0.728609
O O7 0.768149 0.866532 0.608145
O O8 0.749845 0.165389 0.630843
O O9 0.988229 0.999147 0.578272
O O10 0.885012 0.944179 0.811437
O O11 0.698311 0.605549 0.076255
O O12 0.643813 0.289828 0.075114
O O13 0.729720 0.486978 0.982088
#
# Coordination Sequence:
#
# PCOD8139091 Si02
#       7
#     8   8   8   4   8   8   8
#     4  11  24  43  68 108 137 189 227 295 350 428
#     4  11  23  41  70 101 142 176 238 285 362 414
#     4  12  24  46  71 106 136 189 229 294 345 427
#     4  10  20  38  64  98 128 178 214 290 338 414
#     4  11  23  42  72  96 144 183 235 283 360 404
#     4  11  25  49  67 103 144 191 228 299 336 425
#     4  11  26  45  71 101 145 183 243 279 358 414
#
# _framework density 23.345098
#
# number of rings (size 3 to 8) (size 9 to 14) (size 15 to 20)
#    0.000    0.923    3.077    4.154    0.000    1.846 
#    2.769    0.000    0.000    0.000    0.000    0.000 
#    0.000    0.000    0.000    0.000    0.000    0.000 
#
# Total GULP energy -322090.953664 kJ/mol
# GULP energy per Si atom -12388.113602 kJ/mol
# Density = 2.329196 g / cm^3
# Si number density = 23.345098 Si / 1000 Ang^3
#
#
#
# Elastic Constant Matrix: (Units=GPa)
#
#
# Indices 1 2 3 4 5 6 
#
# 1 172.5181 23.0911 56.6238 0.0000 -3.8313 0.0000
# 2 23.0911 38.4936 10.4276 0.0000 1.4444 0.0000
# 3 56.6238 10.4276 109.0865 0.0000 -11.3115 0.0000
# 4 0.0000 0.0000 0.0000 23.1574 0.0000 4.8453
# 5 -3.8313 1.4444 -11.3115 0.0000 40.3554 0.0000
# 6 0.0000 0.0000 0.0000 4.8453 0.0000 31.5953
#
#
#
# Elastic Compliance Matrix: (Units=1/GPa)
#
#
# Indices 1 2 3 4 5 6 
#
# 1 0.007420 -0.003487 -0.003535 0.000000 -0.000162 0.000000
# 2 -0.003487 0.028424 -0.001078 0.000000 -0.001651 0.000000
# 3 -0.003535 -0.001078 0.011406 0.000000 0.002900 0.000000
# 4 0.000000 0.000000 0.000000 0.044614 0.000000 -0.006842
# 5 -0.000162 -0.001651 0.002900 0.000000 0.025636 0.000000
# 6 0.000000 0.000000 0.000000 -0.006842 0.000000 0.032700
#
#
# Mechanical properties :
#
#
# Convention : Reuss Voigt Hill
#
# Bulk Modulus (GPa) = 32.20687 55.59814 43.90251
# Shear Modulus (GPa) = 28.28849 34.35199 31.32024
#
# Velocity S-wave (km/s) = 3.48480 3.84016 3.66679
# Velocity P-wave (km/s) = 5.47884 6.59772 6.06414
#
# Compressibility (1/GPa) = 0.03104928
#
# Stress axis : x y z
#
# Youngs Moduli (GPa) = 134.77293 35.18123 87.67596
#
# Poissons Ratio (x) = 0.12269 0.30992
# Poissons Ratio (y) = 0.47000 0.09452
# Poissons Ratio (z) = 0.47640 0.03793
#
# Static dielectric constant tensor:
#      x y z
#    x 4.421620 0.000000 0.146960 
#    y 0.000000 3.906780 0.000000 
#    z 0.146960 0.000000 4.245370 
# 
# 
# High freq. dielectric constant tensor:
#      x y z
#    x 1.945130 0.000000 0.008840 
#    y 0.000000 1.903520 0.000000 
#    z 0.008840 0.000000 1.919930 
# 
# From -- ./inp_files/291475.got.cif
#   From: 2010.06.25/outbox.cif.g09.slc.cpg/sg15_146_cif.got.tgz:291475.got - 2010.06.28 07:06:18.
