data_PCOD8139307
_publ_section_title
;
Structure prediction by ZEFSAII (Michael W. Deem and Ramdas Pophale) SiO2 
 PCOD8139307
Probable space group: C 2/C
;
_chemical_formula_sum "Si O2"
_cell_formula_units_Z 40
_cell_length_a 10.444359
_cell_length_b 7.691300
_cell_length_c 35.988133
_cell_angle_alpha 90.000000
_cell_angle_beta 136.253055
_cell_angle_gamma 90.000000
_cell_volume 1999.019601
_symmetry_space_group_name_H-M "C 2/C"
_symmetry_group_IT_number 15
_symmetry_cell_setting 'monoclinic'
loop_
_space_group_symop_operation_xyz
x,y,z
-x,y,1/2-z
-x,-y,-z
x,-y,1/2+z
1/2+x,1/2+y,z
1/2-x,1/2+y,1/2-z
1/2-x,1/2-y,-z
1/2+x,1/2-y,1/2+z
loop_
_atom_site_type_symbol
_atom_site_label
_atom_site_fract_x
_atom_site_fract_y
_atom_site_fract_z
Si Si1 0.513746 0.301084 0.093706
Si Si2 0.909916 0.842009 0.555940
Si Si3 0.677676 0.247134 0.374980
Si Si4 0.340482 0.356882 0.626559
Si Si5 0.391170 0.063613 0.689155
O O1 0.396126 0.448084 0.046870
O O2 0.386291 0.197776 0.096358
O O3 0.618298 0.172143 0.087228
O O4 0.670704 0.412745 0.149805
O O5 0.750000 0.750000 0.500000
O O6 0.885635 0.802102 0.594315
O O7 0.102460 0.769021 0.580889
O O8 0.613796 0.444612 0.353620
O O9 0.574039 0.118719 0.324757
O O10 0.458911 0.227477 0.678028
O O11 0.500000 0.061034 0.750000
#
# Coordination Sequence:
#
# PCOD8139307 Si02
#       5
#     8   8   8   8   8
#     4   8  20  39  53  87 114 144 199 233 281 356
#     4  10  21  38  61  87 119 155 194 241 291 346
#     4  10  20  39  59  81 121 148 190 242 286 341
#     4   9  21  37  59  84 118 152 191 238 285 352
#     4   9  20  40  57  84 116 149 193 243 288 348
#
# _framework density 20.009809000000001
#
# number of rings (size 3 to 8) (size 9 to 14) (size 15 to 20)
#    1.200    1.600    0.000    0.000    2.800    4.800 
#   10.800    2.000    0.000    0.000    0.000    0.000 
#    0.000    0.000    0.000    0.000    0.000    0.000 
#
# Total GULP energy -247783.430128 kJ/mol
# GULP energy per Si atom -12389.171506 kJ/mol
# Density = 1.996427 g / cm^3
# Si number density = 20.009809 Si / 1000 Ang^3
#
#
#
# Elastic Constant Matrix: (Units=GPa)
#
#
# Indices 1 2 3 4 5 6 
#
# 1 122.4356 14.7764 8.6963 0.0000 -26.7379 0.0000
# 2 14.7764 89.2679 14.0250 0.0000 -15.3406 0.0000
# 3 8.6963 14.0250 42.6223 0.0000 -9.3616 0.0000
# 4 0.0000 0.0000 0.0000 21.4280 0.0000 -3.0753
# 5 -26.7379 -15.3406 -9.3616 0.0000 23.3910 0.0000
# 6 0.0000 0.0000 0.0000 -3.0753 0.0000 23.3456
#
#
#
# Elastic Compliance Matrix: (Units=1/GPa)
#
#
# Indices 1 2 3 4 5 6 
#
# 1 0.010905 0.000331 0.000495 0.000000 0.012881 0.000000
# 2 0.000331 0.012895 -0.002599 0.000000 0.007795 0.000000
# 3 0.000495 -0.002599 0.026276 0.000000 0.009378 0.000000
# 4 0.000000 0.000000 0.000000 0.047567 0.000000 0.006266
# 5 0.012881 0.007795 0.009378 0.000000 0.066341 0.000000
# 6 0.000000 0.000000 0.000000 0.006266 0.000000 0.043660
#
#
# Mechanical properties :
#
#
# Convention : Reuss Voigt Hill
#
# Bulk Modulus (GPa) = 21.49096 36.59126 29.04111
# Shear Modulus (GPa) = 22.05550 28.08810 25.07180
#
# Velocity S-wave (km/s) = 3.32359 3.75069 3.54358
# Velocity P-wave (km/s) = 5.04895 6.08960 5.59353
#
# Compressibility (1/GPa) = 0.04653119
#
# Stress axis : x y z
#
# Youngs Moduli (GPa) = 91.69724 77.54735 38.05791
#
# Poissons Ratio (x) = -0.02564 -0.01885
# Poissons Ratio (y) = -0.03031 0.09890
# Poissons Ratio (z) = -0.04542 0.20151
#
# Static dielectric constant tensor:
#      x y z
#    x 3.802720 0.000000 -0.178570 
#    y 0.000000 3.748280 0.000000 
#    z -0.178570 0.000000 3.119600 
# 
# 
# High freq. dielectric constant tensor:
#      x y z
#    x 1.791780 0.000000 -0.016790 
#    y 0.000000 1.789790 0.000000 
#    z -0.016790 0.000000 1.737420 
# 
# From -- ./inp_files/291347.got.cif
#   From: 2010.06.25/outbox.cif.g09.slc.cpg/sg15_146_cif.got.tgz:291347.got - 2010.06.28 07:06:18.
