data_PCOD8139065
_publ_section_title
;
Structure prediction by ZEFSAII (Michael W. Deem and Ramdas Pophale) SiO2 
 PCOD8139065
Probable space group: C 2/C
;
_chemical_formula_sum "Si O2"
_cell_formula_units_Z 36
_cell_length_a 13.251595
_cell_length_b 14.306411
_cell_length_c 9.070315
_cell_angle_alpha 90.000000
_cell_angle_beta 81.978885
_cell_angle_gamma 90.000000
_cell_volume 1702.752292
_symmetry_space_group_name_H-M "C 2/C"
_symmetry_group_IT_number 15
_symmetry_cell_setting 'monoclinic'
loop_
_space_group_symop_operation_xyz
x,y,z
-x,y,1/2-z
-x,-y,-z
x,-y,1/2+z
1/2+x,1/2+y,z
1/2-x,1/2+y,1/2-z
1/2-x,1/2-y,-z
1/2+x,1/2-y,1/2+z
loop_
_atom_site_type_symbol
_atom_site_label
_atom_site_fract_x
_atom_site_fract_y
_atom_site_fract_z
Si Si1 0.980470 0.681134 0.032954
Si Si2 0.361748 0.900994 0.797065
Si Si3 0.635233 0.551691 0.328259
Si Si4 0.069979 0.887927 0.516879
Si Si5 0.000000 0.432162 0.250000
O O1 0.923098 0.777977 0.010722
O O2 0.027439 0.635728 0.877818
O O3 0.888675 0.619265 0.120501
O O4 0.079295 0.680167 0.121801
O O5 0.242222 0.902799 0.853658
O O6 0.405231 0.004320 0.821923
O O7 0.626418 0.440360 0.368184
O O8 0.551440 0.595359 0.454393
O O9 0.617252 0.574881 0.160861
#
# Coordination Sequence:
#
# PCOD8139065 Si02
#       5
#     8   8   8   8   4
#     4  10  22  41  64  92 129 156 217 264 310 364
#     4  10  22  39  64  92 126 169 206 259 317 374
#     4  10  23  41  64  90 128 169 211 248 331 370
#     4  10  23  43  62  91 130 169 204 266 306 378
#     4  10  20  38  64  92 128 166 200 268 312 380
#
# _framework density 21.142239
#
# number of rings (size 3 to 8) (size 9 to 14) (size 15 to 20)
#    0.000    2.222    0.000    4.000    6.222    8.889 
#    4.000    0.000    0.000    0.000    0.000    0.000 
#    0.000    0.000    0.000    0.000    0.000    0.000 
#
# Total GULP energy -222994.582557 kJ/mol
# GULP energy per Si atom -12388.587920 kJ/mol
# Density = 2.109412 g / cm^3
# Si number density = 21.142239 Si / 1000 Ang^3
#
#
#
# Elastic Constant Matrix: (Units=GPa)
#
#
# Indices 1 2 3 4 5 6 
#
# 1 132.7231 27.1281 42.9704 0.0000 -8.9751 0.0000
# 2 27.1281 115.9605 48.2982 0.0000 15.8395 0.0000
# 3 42.9704 48.2982 103.3776 0.0000 11.0717 0.0000
# 4 0.0000 0.0000 0.0000 29.0199 0.0000 1.9427
# 5 -8.9751 15.8395 11.0717 0.0000 21.6651 0.0000
# 6 0.0000 0.0000 0.0000 1.9427 0.0000 13.5015
#
#
#
# Elastic Compliance Matrix: (Units=1/GPa)
#
#
# Indices 1 2 3 4 5 6 
#
# 1 0.009653 -0.001552 -0.004059 0.000000 0.007208 0.000000
# 2 -0.001552 0.011634 -0.004031 0.000000 -0.007089 0.000000
# 3 -0.004059 -0.004031 0.013867 0.000000 -0.005821 0.000000
# 4 0.000000 0.000000 0.000000 0.034794 0.000000 -0.005007
# 5 0.007208 -0.007089 -0.005821 0.000000 0.057301 0.000000
# 6 0.000000 0.000000 0.000000 -0.005007 0.000000 0.074786
#
#
# Mechanical properties :
#
#
# Convention : Reuss Voigt Hill
#
# Bulk Modulus (GPa) = 63.01383 65.42827 64.22105
# Shear Modulus (GPa) = 22.06419 28.41493 25.23956
#
# Velocity S-wave (km/s) = 3.23400 3.67002 3.45889
# Velocity P-wave (km/s) = 6.61924 6.99805 6.81128
#
# Compressibility (1/GPa) = 0.01586953
#
# Stress axis : x y z
#
# Youngs Moduli (GPa) = 103.58950 85.95513 72.11152
#
# Poissons Ratio (x) = 0.13342 0.29273
# Poissons Ratio (y) = 0.16079 0.29068
# Poissons Ratio (z) = 0.42052 0.34649
#
# Static dielectric constant tensor:
#      x y z
#    x 3.682930 0.000000 -0.032850 
#    y 0.000000 3.826270 0.000000 
#    z -0.032850 0.000000 3.846650 
# 
# 
# High freq. dielectric constant tensor:
#      x y z
#    x 1.810270 0.000000 -0.000740 
#    y 0.000000 1.819800 0.000000 
#    z -0.000740 0.000000 1.834080 
# 
# From -- ./inp_files/37511.got.cif
#   From: 2010.06.25/outbox.cif.g09.slc.cpg/sg15_19_cif.got.tgz:37511.got - 2010.06.28 07:06:18.
