data_PCOD8139531
_publ_section_title
;
Structure prediction by ZEFSAII (Michael W. Deem and Ramdas Pophale) SiO2 
 PCOD8139531
Probable space group: C 2/C
;
_chemical_formula_sum "Si O2"
_cell_formula_units_Z 48
_cell_length_a 25.018525
_cell_length_b 10.566716
_cell_length_c 8.625105
_cell_angle_alpha 90.000000
_cell_angle_beta 78.357399
_cell_angle_gamma 90.000000
_cell_volume 2233.250923
_symmetry_space_group_name_H-M "C 2/C"
_symmetry_group_IT_number 15
_symmetry_cell_setting 'monoclinic'
loop_
_space_group_symop_operation_xyz
x,y,z
-x,y,1/2-z
-x,-y,-z
x,-y,1/2+z
1/2+x,1/2+y,z
1/2-x,1/2+y,1/2-z
1/2-x,1/2-y,-z
1/2+x,1/2-y,1/2+z
loop_
_atom_site_type_symbol
_atom_site_label
_atom_site_fract_x
_atom_site_fract_y
_atom_site_fract_z
Si Si1 0.420717 0.064728 0.968223
Si Si2 0.762210 0.115637 0.566440
Si Si3 0.650183 0.914040 0.275423
Si Si4 0.514924 0.194353 0.075151
Si Si5 0.118026 0.167378 0.437572
Si Si6 0.667156 0.543488 0.701555
O O1 0.459877 0.175023 0.008851
O O2 0.370624 0.034284 0.113896
O O3 0.395978 0.118189 0.824686
O O4 0.454843 0.938615 0.914065
O O5 0.750000 0.250000 0.500000
O O6 0.707461 0.050417 0.664036
O O7 0.805801 0.130182 0.680568
O O8 0.784493 0.024740 0.420005
O O9 0.656449 0.787824 0.375698
O O10 0.500000 0.252484 0.250000
O O11 0.554556 0.292675 0.965118
O O12 0.131969 0.128223 0.605559
O O13 0.127572 0.057403 0.307470
#
# Coordination Sequence:
#
# PCOD8139531 Si02
#       6
#     8   8   8   8   8   8
#     4  10  21  36  63  91 138 151 204 259 322 380
#     4  11  22  41  66  95 128 170 215 250 322 376
#     4  11  21  39  62 101 123 171 199 260 326 381
#     4  10  20  39  63  95 120 170 202 259 324 374
#     4  10  23  41  68  85 126 170 217 255 319 364
#     4  10  23  46  62  89 132 168 212 272 296 377
#
# _framework density 21.493331000000001
#
# number of rings (size 3 to 8) (size 9 to 14) (size 15 to 20)
#    0.000    1.667    3.333    1.000    0.000    2.000 
#    6.000    0.833    0.000    0.000    0.000    0.000 
#    0.000    0.000    0.000    0.000    0.000    0.000 
#
# Total GULP energy -297666.187068 kJ/mol
# GULP energy per Si atom -12402.757795 kJ/mol
# Density = 2.144441 g / cm^3
# Si number density = 21.493331 Si / 1000 Ang^3
#
#
#
# Elastic Constant Matrix: (Units=GPa)
#
#
# Indices 1 2 3 4 5 6 
#
# 1 81.0333 50.7330 43.6430 0.0000 -5.5956 0.0000
# 2 50.7330 84.5709 50.4517 0.0000 4.9636 0.0000
# 3 43.6430 50.4517 127.4283 0.0000 -0.1518 0.0000
# 4 0.0000 0.0000 0.0000 28.5398 0.0000 -1.3257
# 5 -5.5956 4.9636 -0.1518 0.0000 46.8776 0.0000
# 6 0.0000 0.0000 0.0000 -1.3257 0.0000 36.3560
#
#
#
# Elastic Compliance Matrix: (Units=1/GPa)
#
#
# Indices 1 2 3 4 5 6 
#
# 1 0.021127 -0.011229 -0.002785 0.000000 0.003702 0.000000
# 2 -0.011229 0.021580 -0.004702 0.000000 -0.003641 0.000000
# 3 -0.002785 -0.004702 0.010663 0.000000 0.000200 0.000000
# 4 0.000000 0.000000 0.000000 0.035098 0.000000 0.001280
# 5 0.003702 -0.003641 0.000200 0.000000 0.022160 0.000000
# 6 0.000000 0.000000 0.000000 0.001280 0.000000 0.027552
#
#
# Mechanical properties :
#
#
# Convention : Reuss Voigt Hill
#
# Bulk Modulus (GPa) = 62.75112 64.74311 63.74711
# Shear Modulus (GPa) = 27.63554 32.23499 29.93527
#
# Velocity S-wave (km/s) = 3.58966 3.87688 3.73603
# Velocity P-wave (km/s) = 6.81468 7.08718 6.95227
#
# Compressibility (1/GPa) = 0.01593597
#
# Stress axis : x y z
#
# Youngs Moduli (GPa) = 47.33335 46.34019 93.77804
#
# Poissons Ratio (x) = 0.52037 0.26121
# Poissons Ratio (y) = 0.53152 0.44097
# Poissons Ratio (z) = 0.13184 0.21790
#
# Static dielectric constant tensor:
#      x y z
#    x 3.941390 0.000000 -0.135250 
#    y 0.000000 3.571310 0.000000 
#    z -0.135250 0.000000 4.205930 
# 
# 
# High freq. dielectric constant tensor:
#      x y z
#    x 1.841710 0.000000 -0.007200 
#    y 0.000000 1.811340 0.000000 
#    z -0.007200 0.000000 1.867090 
# 
# From -- ./inp_files/60518.got.cif
#   From: 2010.06.25/outbox.cif.g09.slc.cpg/sg15_31_cif.got.tgz:60518.got - 2010.06.28 07:06:18.
