data_PCOD8139425
_publ_section_title
;
Structure prediction by ZEFSAII (Michael W. Deem and Ramdas Pophale) SiO2 
 PCOD8139425
Probable space group: C 2/C
;
_chemical_formula_sum "Si O2"
_cell_formula_units_Z 60
_cell_length_a 27.777224
_cell_length_b 18.583171
_cell_length_c 10.630527
_cell_angle_alpha 90.000000
_cell_angle_beta 145.044301
_cell_angle_gamma 90.000000
_cell_volume 3143.943984
_symmetry_space_group_name_H-M "C 2/C"
_symmetry_group_IT_number 15
_symmetry_cell_setting 'monoclinic'
loop_
_space_group_symop_operation_xyz
x,y,z
-x,y,1/2-z
-x,-y,-z
x,-y,1/2+z
1/2+x,1/2+y,z
1/2-x,1/2+y,1/2-z
1/2-x,1/2-y,-z
1/2+x,1/2-y,1/2+z
loop_
_atom_site_type_symbol
_atom_site_label
_atom_site_fract_x
_atom_site_fract_y
_atom_site_fract_z
Si Si1 0.930627 0.062459 0.868569
Si Si2 0.428821 0.662057 0.266552
Si Si3 0.288319 0.799839 0.405200
Si Si4 0.711835 0.411575 0.626676
Si Si5 0.185771 0.211486 0.266545
Si Si6 0.500000 0.220735 0.750000
Si Si7 0.186802 0.935275 0.150588
Si Si8 0.839386 0.312866 0.782721
O O1 0.881266 0.083896 0.635343
O O2 0.865701 0.041707 0.838932
O O3 0.977146 0.134092 0.012947
O O4 0.000000 0.000000 0.000000
O O5 0.394389 0.686104 0.327639
O O6 0.437250 0.731832 0.199133
O O7 0.372029 0.599143 0.083602
O O8 0.338633 0.771300 0.390673
O O9 0.263570 0.882530 0.341671
O O10 0.202268 0.753985 0.232246
O O11 0.346211 0.790311 0.651292
O O12 0.717951 0.360053 0.762395
O O13 0.734451 0.493126 0.708144
O O14 0.780809 0.383208 0.674398
O O15 0.250000 0.250000 0.500000
O O16 0.434891 0.171616 0.531989
#
# Coordination Sequence:
#
# PCOD8139425 Si02
#       8
#     8   8   8   8   8   4   8   8
#     4  12  23  36  56  93 138 169 201 252 325 400
#     4  12  22  35  57  91 127 164 207 261 323 384
#     4  10  20  39  62  86 122 163 214 264 317 385
#     4  11  25  38  61  92 127 176 212 256 324 397
#     4  11  23  39  57  86 128 175 221 269 314 382
#     4  12  22  40  66  88 118 166 214 268 320 378
#     4  12  21  39  61  92 129 169 209 261 325 393
#     4  10  21  40  63  90 118 166 221 263 310 388
#
# _framework density 19.084309000000001
#
# number of rings (size 3 to 8) (size 9 to 14) (size 15 to 20)
#    0.000    0.800    6.667    1.600    3.733    1.600 
#    0.000    0.000    0.000    0.800    0.000    0.000 
#    0.000    0.000    0.000    0.000    0.000    0.000 
#
# Total GULP energy -371876.168051 kJ/mol
# GULP energy per Si atom -12395.872268 kJ/mol
# Density = 1.904087 g / cm^3
# Si number density = 19.084309 Si / 1000 Ang^3
#
#
#
# Elastic Constant Matrix: (Units=GPa)
#
#
# Indices 1 2 3 4 5 6 
#
# 1 100.6484 32.4253 16.2796 0.0000 -18.6235 0.0000
# 2 32.4253 104.7214 32.8187 0.0000 0.1158 0.0000
# 3 16.2796 32.8187 111.7523 0.0000 -8.8949 0.0000
# 4 0.0000 0.0000 0.0000 29.2700 0.0000 -0.0514
# 5 -18.6235 0.1158 -8.8949 0.0000 20.4921 0.0000
# 6 0.0000 0.0000 0.0000 -0.0514 0.0000 27.4934
#
#
#
# Elastic Compliance Matrix: (Units=1/GPa)
#
#
# Indices 1 2 3 4 5 6 
#
# 1 0.013591 -0.004310 0.000281 0.000000 0.012498 0.000000
# 2 -0.004310 0.011926 -0.003306 0.000000 -0.005419 0.000000
# 3 0.000281 -0.003306 0.010254 0.000000 0.004725 0.000000
# 4 0.000000 0.000000 0.000000 0.034165 0.000000 0.000064
# 5 0.012498 -0.005419 0.004725 0.000000 0.062239 0.000000
# 6 0.000000 0.000000 0.000000 0.000064 0.000000 0.036373
#
#
# Mechanical properties :
#
#
# Convention : Reuss Voigt Hill
#
# Bulk Modulus (GPa) = 47.39118 53.35213 50.37166
# Shear Modulus (GPa) = 26.28093 31.15766 28.71929
#
# Velocity S-wave (km/s) = 3.71495 4.04497 3.88347
# Velocity P-wave (km/s) = 6.57933 7.05921 6.82349
#
# Compressibility (1/GPa) = 0.02110097
#
# Stress axis : x y z
#
# Youngs Moduli (GPa) = 73.57612 83.85267 97.51949
#
# Poissons Ratio (x) = 0.36141 -0.02737
# Poissons Ratio (y) = 0.31712 0.32237
# Poissons Ratio (z) = -0.02065 0.27719
#
# Static dielectric constant tensor:
#      x y z
#    x 3.638230 0.000000 -0.263550 
#    y 0.000000 3.511600 0.000000 
#    z -0.263550 0.000000 3.391510 
# 
# 
# High freq. dielectric constant tensor:
#      x y z
#    x 1.739200 0.000000 -0.026530 
#    y 0.000000 1.733630 0.000000 
#    z -0.026530 0.000000 1.729550 
# 
# From -- ./inp_files/127251.got.cif
#   From: 2010.06.25/outbox.cif.g09.slc.cpg/sg15_64_cif.got.tgz:127251.got - 2010.06.28 07:06:18.
