data_PCOD8139011
_publ_section_title
;
Structure prediction by ZEFSAII (Michael W. Deem and Ramdas Pophale) SiO2 
 PCOD8139011
Probable space group: C 2/C
;
_chemical_formula_sum "Si O2"
_cell_formula_units_Z 64
_cell_length_a 32.953837
_cell_length_b 8.622348
_cell_length_c 25.126368
_cell_angle_alpha 90.000000
_cell_angle_beta 154.695712
_cell_angle_gamma 90.000000
_cell_volume 3051.558533
_symmetry_space_group_name_H-M "C 2/C"
_symmetry_group_IT_number 15
_symmetry_cell_setting 'monoclinic'
loop_
_space_group_symop_operation_xyz
x,y,z
-x,y,1/2-z
-x,-y,-z
x,-y,1/2+z
1/2+x,1/2+y,z
1/2-x,1/2+y,1/2-z
1/2-x,1/2-y,-z
1/2+x,1/2-y,1/2+z
loop_
_atom_site_type_symbol
_atom_site_label
_atom_site_fract_x
_atom_site_fract_y
_atom_site_fract_z
Si Si1 0.049746 0.372314 0.863838
Si Si2 0.420976 0.024575 0.798019
Si Si3 0.258038 0.665927 0.954750
Si Si4 0.288521 0.935319 0.727805
Si Si5 0.893657 0.022717 0.559056
Si Si6 0.209312 0.412835 0.592425
Si Si7 0.299459 0.395735 0.284920
Si Si8 0.943121 0.797424 0.533986
O O1 0.061175 0.186805 0.873195
O O2 0.000000 0.429455 0.750000
O O3 0.989495 0.413047 0.845258
O O4 0.151214 0.456308 0.990158
O O5 0.329234 0.046954 0.652226
O O6 0.465116 0.191652 0.866221
O O7 0.389791 0.946178 0.817279
O O8 0.242973 0.793851 0.891142
O O9 0.250000 0.750000 0.000000
O O10 0.361016 0.576617 0.072660
O O11 0.205939 0.968823 0.588727
O O12 0.267621 0.769089 0.726408
O O13 0.280336 0.059029 0.765885
O O14 0.965317 0.921630 0.607330
O O15 0.293934 0.488086 0.727962
O O16 0.140692 0.320366 0.550299
O O17 0.405974 0.388351 0.436825
#
# Coordination Sequence:
#
# PCOD8139011 Si02
#       8
#     8   8   8   8   8   8   8   8
#     4  11  22  40  62  90 124 160 198 261 319 342
#     4  10  23  41  58  92 126 151 209 264 292 355
#     4  10  21  41  64  86 116 165 211 251 295 366
#     4  10  21  38  63  85 118 159 204 241 298 372
#     4   9  20  39  59  86 121 160 202 241 302 381
#     4  10  20  38  64  85 118 167 204 235 299 384
#     4  11  19  37  63  86 114 167 195 234 306 375
#     4   9  20  38  60  87 119 161 197 241 303 365
#
# _framework density 20.97289
#
# number of rings (size 3 to 8) (size 9 to 14) (size 15 to 20)
#    0.000    2.000    2.500    1.500    0.000    1.500 
#    4.500    3.750    0.000    0.000    0.000    0.000 
#    0.000    0.000    0.000    0.000    0.000    0.000 
#
# Total GULP energy -396589.386652 kJ/mol
# GULP energy per Si atom -12393.418333 kJ/mol
# Density = 2.092515 g / cm^3
# Si number density = 20.972890 Si / 1000 Ang^3
#
#
#
# Elastic Constant Matrix: (Units=GPa)
#
#
# Indices 1 2 3 4 5 6 
#
# 1 99.3320 35.7866 23.5847 0.0000 2.8400 0.0000
# 2 35.7866 99.5114 18.7620 0.0000 4.0587 0.0000
# 3 23.5847 18.7620 48.3457 0.0000 -10.3143 0.0000
# 4 0.0000 0.0000 0.0000 32.1740 0.0000 -3.6950
# 5 2.8400 4.0587 -10.3143 0.0000 24.4818 0.0000
# 6 0.0000 0.0000 0.0000 -3.6950 0.0000 30.5774
#
#
#
# Elastic Compliance Matrix: (Units=1/GPa)
#
#
# Indices 1 2 3 4 5 6 
#
# 1 0.012705 -0.003384 -0.005581 0.000000 -0.003264 0.000000
# 2 -0.003384 0.012098 -0.003723 0.000000 -0.003182 0.000000
# 3 -0.005581 -0.003723 0.027603 0.000000 0.012894 0.000000
# 4 0.000000 0.000000 0.000000 0.031518 0.000000 0.003809
# 5 -0.003264 -0.003182 0.012894 0.000000 0.047185 0.000000
# 6 0.000000 0.000000 0.000000 0.003809 0.000000 0.033164
#
#
# Mechanical properties :
#
#
# Convention : Reuss Voigt Hill
#
# Bulk Modulus (GPa) = 36.99638 44.82843 40.91240
# Shear Modulus (GPa) = 25.16890 28.71701 26.94295
#
# Velocity S-wave (km/s) = 3.46796 3.70434 3.58810
# Velocity P-wave (km/s) = 5.80638 6.30215 6.05934
#
# Compressibility (1/GPa) = 0.02702967
#
# Stress axis : x y z
#
# Youngs Moduli (GPa) = 78.71102 82.66102 36.22833
#
# Poissons Ratio (x) = 0.27968 0.20220
# Poissons Ratio (y) = 0.26632 0.13488
# Poissons Ratio (z) = 0.43930 0.30775
#
# Static dielectric constant tensor:
#      x y z
#    x 4.084820 0.000000 -0.107380 
#    y 0.000000 3.770840 0.000000 
#    z -0.107380 0.000000 3.625670 
# 
# 
# High freq. dielectric constant tensor:
#      x y z
#    x 1.815360 0.000000 -0.013940 
#    y 0.000000 1.829420 0.000000 
#    z -0.013940 0.000000 1.801500 
# 
# From -- ./inp_files/284434.got.cif
#   From: 2010.06.25/outbox.cif.g09.slc.cpg/sg15_143_cif.got.tgz:284434.got - 2010.06.28 07:06:18.
