data_PCOD8139986
_publ_section_title
;
Structure prediction by ZEFSAII (Michael W. Deem and Ramdas Pophale) SiO2 
 PCOD8139986
Probable space group: C 2/C
;
_chemical_formula_sum "Si O2"
_cell_formula_units_Z 36
_cell_length_a 13.520615
_cell_length_b 12.392087
_cell_length_c 14.582329
_cell_angle_alpha 90.000000
_cell_angle_beta 39.671376
_cell_angle_gamma 90.000000
_cell_volume 1559.729729
_symmetry_space_group_name_H-M "C 2/C"
_symmetry_group_IT_number 15
_symmetry_cell_setting 'monoclinic'
loop_
_space_group_symop_operation_xyz
x,y,z
-x,y,1/2-z
-x,-y,-z
x,-y,1/2+z
1/2+x,1/2+y,z
1/2-x,1/2+y,1/2-z
1/2-x,1/2-y,-z
1/2+x,1/2-y,1/2+z
loop_
_atom_site_type_symbol
_atom_site_label
_atom_site_fract_x
_atom_site_fract_y
_atom_site_fract_z
Si Si1 0.000000 0.019603 0.750000
Si Si2 0.821357 0.438427 0.469243
Si Si3 0.500000 0.226849 0.750000
Si Si4 0.517115 0.781907 0.433513
Si Si5 0.631692 0.302910 0.283993
Si Si6 0.000000 0.624854 0.250000
O O1 0.050966 0.092773 0.798650
O O2 0.139876 0.940552 0.621931
O O3 0.848286 0.352590 0.367285
O O4 0.917740 0.391739 0.487751
O O5 0.881214 0.555944 0.396430
O O6 0.473748 0.286884 0.670676
O O7 0.436871 0.706889 0.565488
O O8 0.685004 0.819992 0.346925
O O9 0.600385 0.196362 0.247084
#
# Coordination Sequence:
#
# PCOD8139986 Si02
#       6
#     4   8   4   8   8   4
#     4  11  22  39  65  99 126 154 208 263 312 357
#     4   9  20  43  64  86 126 167 206 251 301 371
#     4   7  20  43  61  86 121 166 202 253 292 365
#     4  10  22  44  62  94 123 168 208 253 311 369
#     4  11  23  37  65  99 126 158 202 265 314 365
#     4  10  20  40  64  93 129 160 204 258 312 362
#
# _framework density 23.080921
#
# number of rings (size 3 to 8) (size 9 to 14) (size 15 to 20)
#    1.333    0.889    0.000    2.667    0.000    8.000 
#    4.000    1.111    0.000    0.000    0.000    0.000 
#    0.000    0.000    0.000    0.000    0.000    0.000 
#
# Total GULP energy -223051.697642 kJ/mol
# GULP energy per Si atom -12391.760980 kJ/mol
# Density = 2.302839 g / cm^3
# Si number density = 23.080921 Si / 1000 Ang^3
#
#
#
# Elastic Constant Matrix: (Units=GPa)
#
#
# Indices 1 2 3 4 5 6 
#
# 1 122.5983 40.9915 68.4313 0.0001 1.2218 0.0000
# 2 40.9915 37.8862 35.4285 -0.0001 7.2003 0.0000
# 3 68.4313 35.4285 182.1345 -0.0001 -14.3397 -0.0002
# 4 0.0001 -0.0001 -0.0001 23.6095 0.0001 -3.0397
# 5 1.2218 7.2003 -14.3397 0.0001 46.6086 0.0001
# 6 0.0000 0.0000 -0.0002 -3.0397 0.0001 8.2976
#
#
#
# Elastic Compliance Matrix: (Units=1/GPa)
#
#
# Indices 1 2 3 4 5 6 
#
# 1 0.013881 -0.012642 -0.002697 0.000000 0.000759 0.000000
# 2 -0.012642 0.046234 -0.004899 0.000000 -0.008318 0.000000
# 3 -0.002697 -0.004899 0.007708 0.000000 0.003199 0.000000
# 4 0.000000 0.000000 0.000000 0.044453 0.000000 0.016285
# 5 0.000759 -0.008318 0.003199 0.000000 0.023705 0.000000
# 6 0.000000 0.000000 0.000000 0.016285 0.000000 0.126483
#
#
# Mechanical properties :
#
#
# Convention : Reuss Voigt Hill
#
# Bulk Modulus (GPa) = 36.56284 70.25795 53.41040
# Shear Modulus (GPa) = 16.02286 28.88764 22.45525
#
# Velocity S-wave (km/s) = 2.63763 3.54161 3.12251
# Velocity P-wave (km/s) = 5.01515 6.87240 6.01588
#
# Compressibility (1/GPa) = 0.02735017
#
# Stress axis : x y z
#
# Youngs Moduli (GPa) = 72.04043 21.62899 129.72956
#
# Poissons Ratio (x) = 0.27342 0.34983
# Poissons Ratio (y) = 0.91070 0.63550
# Poissons Ratio (z) = 0.19426 0.10595
#
# Static dielectric constant tensor:
#      x y z
#    x 4.130810 0.000000 0.073520 
#    y 0.000000 3.824960 0.000000 
#    z 0.073520 0.000000 4.360590 
# 
# 
# High freq. dielectric constant tensor:
#      x y z
#    x 1.912360 0.000000 0.001010 
#    y 0.000000 1.894720 0.000000 
#    z 0.001010 0.000000 1.928730 
# 
# From -- ./inp_files/153226.got.cif
#   From: 2010.06.25/outbox.cif.g09.slc.cpg/sg15_77_cif.got.tgz:153226.got - 2010.06.28 07:06:18.
