data_PCOD8139520
_publ_section_title
;
Structure prediction by ZEFSAII (Michael W. Deem and Ramdas Pophale) SiO2 
 PCOD8139520
Probable space group: C 2/C
;
_chemical_formula_sum "Si O2"
_cell_formula_units_Z 52
_cell_length_a 17.396749
_cell_length_b 20.099949
_cell_length_c 15.631365
_cell_angle_alpha 90.000000
_cell_angle_beta 29.067717
_cell_angle_gamma 90.000000
_cell_volume 2655.558604
_symmetry_space_group_name_H-M "C 2/C"
_symmetry_group_IT_number 15
_symmetry_cell_setting 'monoclinic'
loop_
_space_group_symop_operation_xyz
x,y,z
-x,y,1/2-z
-x,-y,-z
x,-y,1/2+z
1/2+x,1/2+y,z
1/2-x,1/2+y,1/2-z
1/2-x,1/2-y,-z
1/2+x,1/2-y,1/2+z
loop_
_atom_site_type_symbol
_atom_site_label
_atom_site_fract_x
_atom_site_fract_y
_atom_site_fract_z
Si Si1 0.000000 0.727856 0.250000
Si Si2 0.482738 0.535656 0.108011
Si Si3 0.297813 0.662413 0.029579
Si Si4 0.500000 0.556026 0.750000
Si Si5 0.163248 0.870072 0.534646
Si Si6 0.181629 0.158675 0.296379
Si Si7 0.568002 0.245976 0.533665
Si Si8 0.000000 0.657674 0.750000
O O1 0.883155 0.680017 0.312216
O O2 0.906535 0.772869 0.409108
O O3 0.438399 0.486029 0.228447
O O4 0.645533 0.573440 0.977896
O O5 0.347249 0.592348 0.231716
O O6 0.500000 0.500000 0.000000
O O7 0.314132 0.636851 0.109794
O O8 0.349887 0.601558 0.918904
O O9 0.178526 0.796631 0.479294
O O10 0.331281 0.883150 0.421114
O O11 0.000000 0.874483 0.750000
O O12 0.043213 0.212021 0.419704
O O13 0.341428 0.194138 0.113927
O O14 0.471132 0.202135 0.694812
#
# Coordination Sequence:
#
# PCOD8139520 Si02
#       8
#     4   8   8   4   8   8   8   4
#     4   9  20  38  65  91 120 155 206 262 332 373
#     4  11  23  42  64  89 122 172 224 253 310 385
#     4  10  20  39  63  92 120 162 205 266 321 375
#     4  11  22  41  66  86 119 173 214 256 308 375
#     4  11  22  38  64  91 129 174 205 262 324 386
#     4  11  22  36  62  91 126 158 203 263 311 389
#     4  11  21  34  56  93 129 160 196 256 322 380
#     4  12  20  37  57  95 135 162 208 254 324 396
#
# _framework density 19.581568000000001
#
# number of rings (size 3 to 8) (size 9 to 14) (size 15 to 20)
#    0.000    1.231    4.615    3.231    0.000    0.000 
#    0.000    0.769    0.000    4.615    0.000    0.000 
#    0.000    0.000    0.000    0.000    0.000    0.000 
#
# Total GULP energy -322193.740751 kJ/mol
# GULP energy per Si atom -12392.066952 kJ/mol
# Density = 1.953700 g / cm^3
# Si number density = 19.581568 Si / 1000 Ang^3
#
#
#
# Elastic Constant Matrix: (Units=GPa)
#
#
# Indices 1 2 3 4 5 6 
#
# 1 127.3186 53.9402 59.4732 0.0083 3.2919 0.0019
# 2 53.9402 107.4158 44.0755 -0.0064 2.8914 0.0051
# 3 59.4732 44.0755 99.6964 -0.0127 -5.6250 -0.0035
# 4 0.0083 -0.0064 -0.0127 18.1798 -0.0026 15.6206
# 5 3.2919 2.8914 -5.6250 -0.0026 38.6178 0.0044
# 6 0.0019 0.0051 -0.0035 15.6206 0.0044 33.1105
#
#
#
# Elastic Compliance Matrix: (Units=1/GPa)
#
#
# Indices 1 2 3 4 5 6 
#
# 1 0.012121 -0.003714 -0.005678 -0.000018 -0.001582 0.000008
# 2 -0.003714 0.012609 -0.003422 0.000009 -0.001126 -0.000006
# 3 -0.005678 -0.003422 0.015096 0.000018 0.002939 -0.000006
# 4 -0.000018 0.000009 0.000018 0.092503 0.000015 -0.043640
# 5 -0.001582 -0.001126 0.002939 0.000015 0.026542 -0.000010
# 6 0.000008 -0.000006 -0.000006 -0.043640 -0.000010 0.050790
#
#
# Mechanical properties :
#
#
# Convention : Reuss Voigt Hill
#
# Bulk Modulus (GPa) = 70.43398 72.15649 71.29524
# Shear Modulus (GPa) = 20.83124 29.77776 25.30450
#
# Velocity S-wave (km/s) = 3.26516 3.90385 3.59870
# Velocity P-wave (km/s) = 7.08962 7.56632 7.33185
#
# Compressibility (1/GPa) = 0.01419769
#
# Stress axis : x y z
#
# Youngs Moduli (GPa) = 82.50043 79.30576 66.24097
#
# Poissons Ratio (x) = 0.29457 0.37611
# Poissons Ratio (y) = 0.30644 0.22670
# Poissons Ratio (z) = 0.46843 0.27141
#
# Static dielectric constant tensor:
#      x y z
#    x 3.637130 -0.000030 0.059830 
#    y -0.000030 3.678760 0.000240 
#    z 0.059830 0.000240 3.212940 
# 
# 
# High freq. dielectric constant tensor:
#      x y z
#    x 1.765700 0.000000 0.007570 
#    y 0.000000 1.758170 0.000010 
#    z 0.007570 0.000010 1.750140 
# 
# From -- ./inp_files/48487.got.cif
#   From: 2010.06.25/outbox.cif.g09.slc.cpg/sg15_25_cif.got.tgz:48487.got - 2010.06.28 07:06:18.
