data_PCOD8139741
_publ_section_title
;
Structure prediction by ZEFSAII (Michael W. Deem and Ramdas Pophale) SiO2 
 PCOD8139741
Probable space group: C 2/C
;
_chemical_formula_sum "Si O2"
_cell_formula_units_Z 40
_cell_length_a 10.347290
_cell_length_b 28.441100
_cell_length_c 7.523410
_cell_angle_alpha 90.000000
_cell_angle_beta 131.240853
_cell_angle_gamma 90.000000
_cell_volume 1664.845170
_symmetry_space_group_name_H-M "C 2/C"
_symmetry_group_IT_number 15
_symmetry_cell_setting 'monoclinic'
loop_
_space_group_symop_operation_xyz
x,y,z
-x,y,1/2-z
-x,-y,-z
x,-y,1/2+z
1/2+x,1/2+y,z
1/2-x,1/2+y,1/2-z
1/2-x,1/2-y,-z
1/2+x,1/2-y,1/2+z
loop_
_atom_site_type_symbol
_atom_site_label
_atom_site_fract_x
_atom_site_fract_y
_atom_site_fract_z
Si Si1 0.695467 0.285557 0.295657
Si Si2 0.690881 0.116038 0.128611
Si Si3 0.626362 0.290756 0.703076
Si Si4 0.806935 0.385194 0.291510
Si Si5 0.496963 0.554443 0.455457
O O1 0.750000 0.250000 0.500000
O O2 0.775165 0.259276 0.189408
O O3 0.775613 0.337416 0.372627
O O4 0.491005 0.289048 0.082811
O O5 0.735899 0.169273 0.223817
O O6 0.818645 0.080110 0.347631
O O7 0.707448 0.119000 0.932131
O O8 0.500899 0.099563 0.018084
O O9 0.500000 0.304478 0.750000
O O10 0.659719 0.423237 0.208867
O O11 0.500000 0.563042 0.250000
O O12 0.500000 0.500000 0.500000
#
# Coordination Sequence:
#
# PCOD8139741 Si02
#       5
#     8   8   8   8   8
#     4  12  25  39  59  96 141 177 222 287 346 397
#     4  10  20  39  69  96 125 175 237 282 320 401
#     4  12  22  40  64  92 131 181 237 272 326 417
#     4  10  21  40  66  95 131 176 229 279 331 410
#     4  10  21  43  69  98 129 168 224 284 349 409
#
# _framework density 24.026259
#
# number of rings (size 3 to 8) (size 9 to 14) (size 15 to 20)
#    0.000    1.200    4.000    3.000    2.800    0.800 
#    3.600    0.000    0.000    0.000    0.000    0.000 
#    0.000    0.000    0.000    0.000    0.000    0.000 
#
# Total GULP energy -247820.693321 kJ/mol
# GULP energy per Si atom -12391.034666 kJ/mol
# Density = 2.397157 g / cm^3
# Si number density = 24.026259 Si / 1000 Ang^3
#
#
#
# Elastic Constant Matrix: (Units=GPa)
#
#
# Indices 1 2 3 4 5 6 
#
# 1 51.9419 45.2857 49.9151 0.0000 37.5417 0.0000
# 2 45.2857 195.8496 55.4332 0.0000 45.0952 0.0000
# 3 49.9151 55.4332 119.5085 0.0000 47.4580 0.0000
# 4 0.0000 0.0000 0.0000 41.1585 0.0000 2.9636
# 5 37.5417 45.0952 47.4580 0.0000 60.8690 0.0000
# 6 0.0000 0.0000 0.0000 2.9636 0.0000 29.2807
#
#
#
# Elastic Compliance Matrix: (Units=1/GPa)
#
#
# Indices 1 2 3 4 5 6 
#
# 1 0.044159 -0.003478 -0.010195 0.000000 -0.016711 0.000000
# 2 -0.003478 0.006625 -0.000758 0.000000 -0.002172 0.000000
# 3 -0.010195 -0.000758 0.014857 0.000000 -0.004735 0.000000
# 4 0.000000 0.000000 0.000000 0.024475 0.000000 -0.002477
# 5 -0.016711 -0.002172 -0.004735 0.000000 0.032036 0.000000
# 6 0.000000 0.000000 0.000000 -0.002477 0.000000 0.034403
#
#
# Mechanical properties :
#
#
# Convention : Reuss Voigt Hill
#
# Bulk Modulus (GPa) = 27.18805 74.28531 50.73668
# Shear Modulus (GPa) = 25.29397 40.70604 33.00001
#
# Velocity S-wave (km/s) = 3.24815 4.12057 3.71009
# Velocity P-wave (km/s) = 5.04062 7.32286 6.28618
#
# Compressibility (1/GPa) = 0.03678086
#
# Stress axis : x y z
#
# Youngs Moduli (GPa) = 22.64538 150.94986 67.30663
#
# Poissons Ratio (x) = 0.52493 0.68619
# Poissons Ratio (y) = 0.07875 0.05100
# Poissons Ratio (z) = 0.23087 0.11437
#
# Static dielectric constant tensor:
#      x y z
#    x 4.729220 0.000000 0.298240 
#    y 0.000000 3.851260 0.000000 
#    z 0.298240 0.000000 4.697870 
# 
# 
# High freq. dielectric constant tensor:
#      x y z
#    x 1.958890 0.000000 0.011980 
#    y 0.000000 1.931810 0.000000 
#    z 0.011980 0.000000 1.971200 
# 
# From -- ./inp_files/35457.got.cif
#   From: 2010.06.25/outbox.cif.g09.slc.cpg/sg15_18_cif.got.tgz:35457.got - 2010.06.28 07:06:18.
