data_PCOD8139183
_publ_section_title
;
Structure prediction by ZEFSAII (Michael W. Deem and Ramdas Pophale) SiO2 
 PCOD8139183
Probable space group: C 2/C
;
_chemical_formula_sum "Si O2"
_cell_formula_units_Z 56
_cell_length_a 8.806799
_cell_length_b 17.869381
_cell_length_c 21.209434
_cell_angle_alpha 90.000000
_cell_angle_beta 57.353556
_cell_angle_gamma 90.000000
_cell_volume 2810.455432
_symmetry_space_group_name_H-M "C 2/C"
_symmetry_group_IT_number 15
_symmetry_cell_setting 'monoclinic'
loop_
_space_group_symop_operation_xyz
x,y,z
-x,y,1/2-z
-x,-y,-z
x,-y,1/2+z
1/2+x,1/2+y,z
1/2-x,1/2+y,1/2-z
1/2-x,1/2-y,-z
1/2+x,1/2-y,1/2+z
loop_
_atom_site_type_symbol
_atom_site_label
_atom_site_fract_x
_atom_site_fract_y
_atom_site_fract_z
Si Si1 0.009100 0.446682 0.057970
Si Si2 0.488801 0.947782 0.826249
Si Si3 0.689412 0.668812 0.360638
Si Si4 0.210377 0.840670 0.714448
Si Si5 0.709191 0.815860 0.430738
Si Si6 0.041812 0.762949 0.419397
Si Si7 0.824714 0.167046 0.493382
O O1 0.047965 0.484322 0.117398
O O2 0.172747 0.391045 0.011229
O O3 0.828964 0.395314 0.094826
O O4 0.000000 0.500000 0.000000
O O5 0.500000 0.974912 0.750000
O O6 0.333631 0.883827 0.864766
O O7 0.675759 0.917278 0.814241
O O8 0.749046 0.685267 0.276675
O O9 0.662586 0.749795 0.394785
O O10 0.486384 0.636779 0.411908
O O11 0.285779 0.777204 0.650843
O O12 0.000000 0.856252 0.750000
O O13 0.582506 0.802050 0.520842
O O14 0.921503 0.809966 0.397362
O O15 0.108680 0.830006 0.449483
O O16 0.750000 0.250000 0.500000
#
# Coordination Sequence:
#
# PCOD8139183 Si02
#       7
#     8   8   8   8   8   8   8
#     4  12  26  41  69  98 137 175 218 276 343 399
#     4  10  24  46  63  93 141 180 214 268 345 411
#     4  10  21  40  69  91 130 174 227 270 327 397
#     4  11  22  36  70  98 125 175 228 268 330 402
#     4  10  21  40  66  96 129 169 220 283 320 389
#     4  10  20  38  66  95 128 161 224 284 321 373
#     4  11  22  40  65  99 128 166 227 285 322 386
#
# _framework density 19.925595000000001
#
# number of rings (size 3 to 8) (size 9 to 14) (size 15 to 20)
#    0.000    1.429    4.286    1.714    6.000    0.571 
#    2.571    0.000    0.000    0.000    0.000    0.000 
#    0.000    0.000    0.000    0.000    0.000    0.000 
#
# Total GULP energy -346914.580065 kJ/mol
# GULP energy per Si atom -12389.806431 kJ/mol
# Density = 1.988024 g / cm^3
# Si number density = 19.925595 Si / 1000 Ang^3
#
#
#
# Elastic Constant Matrix: (Units=GPa)
#
#
# Indices 1 2 3 4 5 6 
#
# 1 100.4622 37.7012 13.1774 0.0001 -15.5781 -0.0001
# 2 37.7012 103.0257 35.2309 0.0000 0.5976 0.0000
# 3 13.1774 35.2309 72.3257 0.0001 -0.2681 -0.0001
# 4 0.0001 0.0000 0.0001 22.0053 -0.0001 1.7150
# 5 -15.5781 0.5976 -0.2681 -0.0001 34.2675 0.0001
# 6 -0.0001 0.0000 -0.0001 1.7150 0.0001 40.4724
#
#
#
# Elastic Compliance Matrix: (Units=1/GPa)
#
#
# Indices 1 2 3 4 5 6 
#
# 1 0.012597 -0.004639 -0.000014 0.000000 0.005808 0.000000
# 2 -0.004639 0.013357 -0.005670 0.000000 -0.002386 0.000000
# 3 -0.000014 -0.005670 0.016592 0.000000 0.000222 0.000000
# 4 0.000000 0.000000 0.000000 0.045594 0.000000 -0.001932
# 5 0.005808 -0.002386 0.000222 0.000000 0.031866 0.000000
# 6 0.000000 0.000000 0.000000 -0.001932 0.000000 0.024790
#
#
# Mechanical properties :
#
#
# Convention : Reuss Voigt Hill
#
# Bulk Modulus (GPa) = 45.66187 49.78140 47.72164
# Shear Modulus (GPa) = 28.94519 31.99598 30.47058
#
# Velocity S-wave (km/s) = 3.81552 4.01156 3.91476
# Velocity P-wave (km/s) = 6.50975 6.81870 6.66601
#
# Compressibility (1/GPa) = 0.02190011
#
# Stress axis : x y z
#
# Youngs Moduli (GPa) = 79.38290 74.86986 60.27151
#
# Poissons Ratio (x) = 0.34730 0.00085
# Poissons Ratio (y) = 0.36823 0.34173
# Poissons Ratio (z) = 0.00111 0.42450
#
# Static dielectric constant tensor:
#      x y z
#    x 5.205010 0.000000 -0.769120 
#    y 0.000000 1.427950 0.000000 
#    z -0.769120 0.000000 4.270040 
# 
# 
# High freq. dielectric constant tensor:
#      x y z
#    x 1.803090 0.000000 0.004860 
#    y 0.000000 1.747020 0.000000 
#    z 0.004860 0.000000 1.773250 
# 
# From -- ./inp_files/232586.got.cif
#   From: 2010.06.25/outbox.cif.g09.slc.cpg/sg15_117_cif.got.tgz:232586.got - 2010.06.28 07:06:18.
