data_PCOD8139699
_publ_section_title
;
Structure prediction by ZEFSAII (Michael W. Deem and Ramdas Pophale) SiO2 
 PCOD8139699
Probable space group: C 2/C
;
_chemical_formula_sum "Si O2"
_cell_formula_units_Z 44
_cell_length_a 23.008703
_cell_length_b 17.930916
_cell_length_c 15.151285
_cell_angle_alpha 90.000000
_cell_angle_beta 160.829027
_cell_angle_gamma 90.000000
_cell_volume 2052.728831
_symmetry_space_group_name_H-M "C 2/C"
_symmetry_group_IT_number 15
_symmetry_cell_setting 'monoclinic'
loop_
_space_group_symop_operation_xyz
x,y,z
-x,y,1/2-z
-x,-y,-z
x,-y,1/2+z
1/2+x,1/2+y,z
1/2-x,1/2+y,1/2-z
1/2-x,1/2-y,-z
1/2+x,1/2-y,1/2+z
loop_
_atom_site_type_symbol
_atom_site_label
_atom_site_fract_x
_atom_site_fract_y
_atom_site_fract_z
Si Si1 0.327150 0.183503 0.441465
Si Si2 0.177629 0.517715 0.375902
Si Si3 0.554947 0.429949 0.638167
Si Si4 0.780987 0.659151 0.775672
Si Si5 0.500000 0.875269 0.750000
Si Si6 0.939636 0.592522 0.449539
O O1 0.177268 0.127274 0.259614
O O2 0.256512 0.267156 0.334848
O O3 0.373848 0.164509 0.407170
O O4 0.500000 0.178915 0.750000
O O5 0.339015 0.462504 0.626310
O O6 0.147603 0.572985 0.415026
O O7 0.995821 0.470352 0.101277
O O8 0.214835 0.563236 0.338122
O O9 0.500000 0.500000 0.500000
O O10 0.394216 0.383675 0.447030
O O11 0.889061 0.607057 0.864932
O O12 0.899351 0.675768 0.033226
#
# Coordination Sequence:
#
# PCOD8139699 Si02
#       6
#     8   8   8   8   4   8
#     4  12  26  47  66  95 141 181 213 276 350 399
#     4  10  20  39  67  95 129 168 218 279 328 384
#     4  12  25  43  71 105 130 172 233 279 324 398
#     4  11  26  43  69  98 136 179 225 272 338 406
#     4  10  20  46  64  90 140 180 210 282 346 388
#     4  10  23  42  68  94 132 175 221 269 346 393
#
# _framework density 21.434882000000002
#
# number of rings (size 3 to 8) (size 9 to 14) (size 15 to 20)
#    0.000    1.091    3.636    2.182    7.636    1.455 
#    3.273    2.727    0.000    0.000    0.000    0.000 
#    0.000    0.000    0.000    0.000    0.000    0.000 
#
# Total GULP energy -272759.661064 kJ/mol
# GULP energy per Si atom -12398.166412 kJ/mol
# Density = 2.138610 g / cm^3
# Si number density = 21.434882 Si / 1000 Ang^3
#
#
#
# Elastic Constant Matrix: (Units=GPa)
#
#
# Indices 1 2 3 4 5 6 
#
# 1 94.3699 39.7791 60.6993 0.0000 -5.2957 0.0000
# 2 39.7791 120.9965 56.8910 0.0000 -1.4576 0.0000
# 3 60.6993 56.8910 112.9660 0.0000 0.3857 0.0000
# 4 0.0000 0.0000 0.0000 40.6439 0.0000 -10.9876
# 5 -5.2957 -1.4576 0.3857 0.0000 31.4498 0.0000
# 6 0.0000 0.0000 0.0000 -10.9876 0.0000 27.9256
#
#
#
# Elastic Compliance Matrix: (Units=1/GPa)
#
#
# Indices 1 2 3 4 5 6 
#
# 1 0.016686 -0.001614 -0.008163 0.000000 0.002835 0.000000
# 2 -0.001614 0.010995 -0.004671 0.000000 0.000295 0.000000
# 3 -0.008163 -0.004671 0.015597 0.000000 -0.001782 0.000000
# 4 0.000000 0.000000 0.000000 0.027532 0.000000 0.010833
# 5 0.002835 0.000295 -0.001782 0.000000 0.032310 0.000000
# 6 0.000000 0.000000 0.000000 0.010833 0.000000 0.040072
#
#
# Mechanical properties :
#
#
# Convention : Reuss Voigt Hill
#
# Bulk Modulus (GPa) = 69.52780 71.45237 70.49009
# Shear Modulus (GPa) = 28.26739 31.40140 29.83439
#
# Velocity S-wave (km/s) = 3.63541 3.83164 3.73481
# Velocity P-wave (km/s) = 7.08017 7.27889 7.18022
#
# Compressibility (1/GPa) = 0.01438274
#
# Stress axis : x y z
#
# Youngs Moduli (GPa) = 59.92925 90.94955 64.11482
#
# Poissons Ratio (x) = 0.14675 0.52337
# Poissons Ratio (y) = 0.09670 0.29950
# Poissons Ratio (z) = 0.48921 0.42485
#
# Static dielectric constant tensor:
#      x y z
#    x 3.894000 0.000000 -0.257850 
#    y 0.000000 3.884390 0.000000 
#    z -0.257850 0.000000 4.025700 
# 
# 
# High freq. dielectric constant tensor:
#      x y z
#    x 1.845860 0.000000 -0.017490 
#    y 0.000000 1.841340 0.000000 
#    z -0.017490 0.000000 1.843270 
# 
# From -- ./inp_files/174169.got.cif
#   From: 2010.06.25/outbox.cif.g09.slc.cpg/sg15_88_cif.got.tgz:174169.got - 2010.06.28 07:06:18.
