data_PCOD8139480
_publ_section_title
;
Structure prediction by ZEFSAII (Michael W. Deem and Ramdas Pophale) SiO2 
 PCOD8139480
Probable space group: C 2/C
;
_chemical_formula_sum "Si O2"
_cell_formula_units_Z 64
_cell_length_a 12.261321
_cell_length_b 12.489418
_cell_length_c 23.622303
_cell_angle_alpha 90.000000
_cell_angle_beta 113.339063
_cell_angle_gamma 90.000000
_cell_volume 3321.451149
_symmetry_space_group_name_H-M "C 2/C"
_symmetry_group_IT_number 15
_symmetry_cell_setting 'monoclinic'
loop_
_space_group_symop_operation_xyz
x,y,z
-x,y,1/2-z
-x,-y,-z
x,-y,1/2+z
1/2+x,1/2+y,z
1/2-x,1/2+y,1/2-z
1/2-x,1/2-y,-z
1/2+x,1/2-y,1/2+z
loop_
_atom_site_type_symbol
_atom_site_label
_atom_site_fract_x
_atom_site_fract_y
_atom_site_fract_z
Si Si1 0.940822 0.709469 0.946198
Si Si2 0.235997 0.944327 0.439321
Si Si3 0.144636 0.865459 0.663359
Si Si4 0.482103 0.604517 0.534875
Si Si5 0.427519 0.541968 0.178776
Si Si6 0.690485 0.137974 0.972251
Si Si7 0.721209 0.576741 0.633022
Si Si8 0.638146 0.256150 0.777380
O O1 0.853070 0.625612 0.957122
O O2 0.864552 0.778619 0.887302
O O3 0.048080 0.647357 0.937730
O O4 0.001582 0.787367 0.004013
O O5 0.149496 0.889537 0.466898
O O6 0.163981 0.954788 0.364831
O O7 0.274233 0.060311 0.469364
O O8 0.185704 0.800492 0.727153
O O9 0.019091 0.924641 0.648406
O O10 0.238208 0.956117 0.661350
O O11 0.500000 0.500000 0.500000
O O12 0.581197 0.604301 0.604267
O O13 0.500000 0.502446 0.250000
O O14 0.347687 0.645994 0.176160
O O15 0.730791 0.088184 0.920792
O O16 0.750000 0.250000 0.000000
O O17 0.784060 0.655520 0.689615
O O18 0.500000 0.221157 0.750000
#
# Coordination Sequence:
#
# PCOD8139480 Si02
#       8
#     8   8   8   8   8   8   8   8
#     4  12  24  38  58  96 128 157 199 259 311 362
#     4  12  23  38  60  92 130 156 197 262 318 358
#     4  10  20  39  63  86 119 161 209 244 306 375
#     4  12  21  40  64  91 120 168 207 239 302 387
#     4   9  19  38  61  86 113 159 215 251 294 368
#     4  12  22  38  63  92 124 163 211 249 303 375
#     4  12  21  37  70  89 117 160 215 247 305 366
#     4   9  21  39  62  89 116 154 211 263 296 349
#
# _framework density 19.268687
#
# number of rings (size 3 to 8) (size 9 to 14) (size 15 to 20)
#    0.000    1.250    5.000    3.750    0.000    2.000 
#    0.000    0.000    2.750    0.000    0.000    0.000 
#    0.000    0.000    0.000    0.000    0.000    0.000 
#
# Total GULP energy -396735.651824 kJ/mol
# GULP energy per Si atom -12397.989119 kJ/mol
# Density = 1.922483 g / cm^3
# Si number density = 19.268687 Si / 1000 Ang^3
#
#
#
# Elastic Constant Matrix: (Units=GPa)
#
#
# Indices 1 2 3 4 5 6 
#
# 1 100.0981 47.3588 31.6686 0.0000 -6.9874 0.0000
# 2 47.3588 98.1164 63.4591 0.0000 -4.3946 0.0000
# 3 31.6686 63.4591 98.5276 0.0000 -3.3016 0.0000
# 4 0.0000 0.0000 0.0000 33.1421 0.0000 6.5621
# 5 -6.9874 -4.3946 -3.3016 0.0000 25.5559 0.0000
# 6 0.0000 0.0000 0.0000 6.5621 0.0000 32.8164
#
#
#
# Elastic Compliance Matrix: (Units=1/GPa)
#
#
# Indices 1 2 3 4 5 6 
#
# 1 0.013108 -0.006074 -0.000217 0.000000 0.002511 0.000000
# 2 -0.006074 0.020346 -0.011138 0.000000 0.000399 0.000000
# 3 -0.000217 -0.011138 0.017402 0.000000 0.000274 0.000000
# 4 0.000000 0.000000 0.000000 0.031417 0.000000 -0.006282
# 5 0.002511 0.000399 0.000274 0.000000 0.039920 0.000000
# 6 0.000000 0.000000 0.000000 -0.006282 0.000000 0.031729
#
#
# Mechanical properties :
#
#
# Convention : Reuss Voigt Hill
#
# Bulk Modulus (GPa) = 62.51120 64.63501 63.57311
# Shear Modulus (GPa) = 25.75811 28.58659 27.17235
#
# Velocity S-wave (km/s) = 3.66017 3.85590 3.75931
# Velocity P-wave (km/s) = 7.09752 7.31033 7.20471
#
# Compressibility (1/GPa) = 0.01599713
#
# Stress axis : x y z
#
# Youngs Moduli (GPa) = 76.28949 49.15003 57.46381
#
# Poissons Ratio (x) = 0.29855 0.01245
# Poissons Ratio (y) = 0.46341 0.64006
# Poissons Ratio (z) = 0.01653 0.54746
#
# Static dielectric constant tensor:
#      x y z
#    x 3.605880 0.000000 -0.096010 
#    y 0.000000 3.489840 0.000000 
#    z -0.096010 0.000000 3.555070 
# 
# 
# High freq. dielectric constant tensor:
#      x y z
#    x 1.742480 0.000000 -0.009270 
#    y 0.000000 1.743990 0.000000 
#    z -0.009270 0.000000 1.751160 
# 
# From -- ./inp_files/268907.got.cif
#   From: 2010.06.25/outbox.cif.g09.slc.cpg/sg15_135_cif.got.tgz:268907.got - 2010.06.28 07:06:18.
