data_PCOD8139029
_publ_section_title
;
Structure prediction by ZEFSAII (Michael W. Deem and Ramdas Pophale) SiO2 
 PCOD8139029
Probable space group: C 2/C
;
_chemical_formula_sum "Si O2"
_cell_formula_units_Z 60
_cell_length_a 9.001909
_cell_length_b 19.992108
_cell_length_c 21.160465
_cell_angle_alpha 90.000000
_cell_angle_beta 127.055258
_cell_angle_gamma 90.000000
_cell_volume 3039.142679
_symmetry_space_group_name_H-M "C 2/C"
_symmetry_group_IT_number 15
_symmetry_cell_setting 'monoclinic'
loop_
_space_group_symop_operation_xyz
x,y,z
-x,y,1/2-z
-x,-y,-z
x,-y,1/2+z
1/2+x,1/2+y,z
1/2-x,1/2+y,1/2-z
1/2-x,1/2-y,-z
1/2+x,1/2-y,1/2+z
loop_
_atom_site_type_symbol
_atom_site_label
_atom_site_fract_x
_atom_site_fract_y
_atom_site_fract_z
Si Si1 0.323554 0.816851 0.901773
Si Si2 0.519764 0.509442 0.350579
Si Si3 0.312214 0.091844 0.876513
Si Si4 0.697308 0.908454 0.271116
Si Si5 0.500000 0.375986 0.750000
Si Si6 0.620630 0.662996 0.577146
Si Si7 0.772455 0.413465 0.999469
Si Si8 0.226440 0.326727 0.011514
O O1 0.352943 0.740788 0.931572
O O2 0.245766 0.853575 0.943260
O O3 0.178742 0.828005 0.807436
O O4 0.524444 0.848603 0.932561
O O5 0.656288 0.465348 0.341644
O O6 0.329912 0.471931 0.317661
O O7 0.463073 0.577556 0.300938
O O8 0.635305 0.526070 0.444271
O O9 0.313182 0.115573 0.804127
O O10 0.269157 0.154877 0.911995
O O11 0.514525 0.060545 0.944567
O O12 0.500000 0.928777 0.250000
O O13 0.784181 0.845620 0.330151
O O14 0.721696 0.614642 0.554600
O O15 0.404220 0.638420 0.524305
O O16 0.250000 0.250000 0.000000
#
# Coordination Sequence:
#
# PCOD8139029 Si02
#       8
#     8   8   8   8   4   8   8   8
#     4   9  21  38  62  86 120 164 203 251 307 370
#     4  11  22  41  59  86 124 163 206 247 309 372
#     4  11  20  40  63  86 122 162 206 252 305 375
#     4  12  24  39  59  93 124 159 202 262 314 364
#     4  10  20  38  64  88 118 164 210 248 306 368
#     4  11  21  39  60  91 125 153 208 259 306 360
#     4  10  22  38  61  91 116 163 204 252 308 364
#     4   9  20  39  62  89 119 162 205 250 303 365
#
# _framework density 19.742408999999999
#
# number of rings (size 3 to 8) (size 9 to 14) (size 15 to 20)
#    0.000    1.600    4.000    0.800    0.933    0.533 
#    2.400    0.000    0.000    1.600    0.000    0.000 
#    0.000    0.000    0.000    0.000    0.000    0.000 
#
# Total GULP energy -371792.882850 kJ/mol
# GULP energy per Si atom -12393.096095 kJ/mol
# Density = 1.969747 g / cm^3
# Si number density = 19.742409 Si / 1000 Ang^3
#
#
#
# Elastic Constant Matrix: (Units=GPa)
#
#
# Indices 1 2 3 4 5 6 
#
# 1 118.9553 33.0301 46.1440 0.0000 21.3124 0.0000
# 2 33.0301 44.5447 21.2096 0.0000 -0.8559 0.0000
# 3 46.1440 21.2096 106.6739 0.0000 12.3211 0.0000
# 4 0.0000 0.0000 0.0000 35.1918 0.0000 3.0585
# 5 21.3124 -0.8559 12.3211 0.0000 36.4098 0.0000
# 6 0.0000 0.0000 0.0000 3.0585 0.0000 22.0103
#
#
#
# Elastic Compliance Matrix: (Units=1/GPa)
#
#
# Indices 1 2 3 4 5 6 
#
# 1 0.013225 -0.008383 -0.003265 0.000000 -0.006834 0.000000
# 2 -0.008383 0.030305 -0.003172 0.000000 0.006693 0.000000
# 3 -0.003265 -0.003172 0.011661 0.000000 -0.002110 0.000000
# 4 0.000000 0.000000 0.000000 0.028763 0.000000 -0.003997
# 5 -0.006834 0.006693 -0.002110 0.000000 0.032336 0.000000
# 6 0.000000 0.000000 0.000000 -0.003997 0.000000 0.045989
#
#
# Mechanical properties :
#
#
# Convention : Reuss Voigt Hill
#
# Bulk Modulus (GPa) = 39.13807 52.32679 45.73243
# Shear Modulus (GPa) = 24.94574 30.04175 27.49374
#
# Velocity S-wave (km/s) = 3.55852 3.90511 3.73584
# Velocity P-wave (km/s) = 6.06230 6.84803 6.46711
#
# Compressibility (1/GPa) = 0.02555057
#
# Stress axis : x y z
#
# Youngs Moduli (GPa) = 75.61457 32.99837 85.75667
#
# Poissons Ratio (x) = 0.27663 0.27996
# Poissons Ratio (y) = 0.63390 0.27202
# Poissons Ratio (z) = 0.24685 0.10467
#
# Static dielectric constant tensor:
#      x y z
#    x 3.806970 0.000000 0.311390 
#    y 0.000000 3.394980 0.000000 
#    z 0.311390 0.000000 3.914130 
# 
# 
# High freq. dielectric constant tensor:
#      x y z
#    x 1.770780 0.000000 0.020130 
#    y 0.000000 1.749590 0.000000 
#    z 0.020130 0.000000 1.781310 
# 
# From -- ./inp_files/234102.got.cif
#   From: 2010.06.25/outbox.cif.g09.slc.cpg/sg15_118_cif.got.tgz:234102.got - 2010.06.28 07:06:18.
