data_PCOD8139104
_publ_section_title
;
Structure prediction by ZEFSAII (Michael W. Deem and Ramdas Pophale) SiO2 
 PCOD8139104
Probable space group: C 2/C
;
_chemical_formula_sum "Si O2"
_cell_formula_units_Z 56
_cell_length_a 10.471360
_cell_length_b 31.347822
_cell_length_c 9.564440
_cell_angle_alpha 90.000000
_cell_angle_beta 113.591652
_cell_angle_gamma 90.000000
_cell_volume 2877.166973
_symmetry_space_group_name_H-M "C 2/C"
_symmetry_group_IT_number 15
_symmetry_cell_setting 'monoclinic'
loop_
_space_group_symop_operation_xyz
x,y,z
-x,y,1/2-z
-x,-y,-z
x,-y,1/2+z
1/2+x,1/2+y,z
1/2-x,1/2+y,1/2-z
1/2-x,1/2-y,-z
1/2+x,1/2-y,1/2+z
loop_
_atom_site_type_symbol
_atom_site_label
_atom_site_fract_x
_atom_site_fract_y
_atom_site_fract_z
Si Si1 0.083900 0.657045 0.424002
Si Si2 0.493432 0.917872 0.407965
Si Si3 0.099038 0.160053 0.033604
Si Si4 0.220945 0.964964 0.277100
Si Si5 0.500000 0.387118 0.750000
Si Si6 0.000000 0.103648 0.750000
Si Si7 0.209811 0.046182 0.450263
Si Si8 0.416796 0.748852 0.570701
O O1 0.050193 0.624318 0.530423
O O2 0.245789 0.656784 0.457404
O O3 0.035428 0.703997 0.458321
O O4 0.000000 0.643508 0.250000
O O5 0.500000 0.904072 0.250000
O O6 0.382079 0.955650 0.382149
O O7 0.639271 0.936040 0.525241
O O8 0.090536 0.142321 0.186650
O O9 0.000989 0.132806 0.888174
O O10 0.044720 0.209286 0.013956
O O11 0.136157 0.925553 0.302322
O O12 0.170803 0.008173 0.328361
O O13 0.199637 0.971363 0.102760
O O14 0.398608 0.415738 0.612819
O O15 0.500000 0.739080 0.750000
O O16 0.250000 0.750000 0.500000
#
# Coordination Sequence:
#
# PCOD8139104 Si02
#       8
#     8   8   8   8   4   4   8   8
#     4  10  20  38  65  89 118 160 203 242 296 362
#     4  10  22  41  60  87 119 154 201 252 301 356
#     4  11  22  39  63  89 125 160 199 244 303 365
#     4  11  24  40  60  86 116 155 201 249 303 358
#     4  12  25  40  58  92 126 154 198 254 303 356
#     4  12  21  38  66  86 114 164 202 236 305 370
#     4  11  25  40  59  85 120 155 199 253 300 362
#     4   9  19  36  62  92 122 157 205 250 295 365
#
# _framework density 19.46359
#
# number of rings (size 3 to 8) (size 9 to 14) (size 15 to 20)
#    0.000    1.429    3.571    1.714    2.000    2.286 
#    1.286    0.000    0.000    3.429    0.000    0.000 
#    0.000    0.000    0.000    0.000    0.000    0.000 
#
# Total GULP energy -347174.613572 kJ/mol
# GULP energy per Si atom -12399.093342 kJ/mol
# Density = 1.941929 g / cm^3
# Si number density = 19.463590 Si / 1000 Ang^3
#
#
#
# Elastic Constant Matrix: (Units=GPa)
#
#
# Indices 1 2 3 4 5 6 
#
# 1 64.7724 33.8869 23.0558 0.0000 -1.1892 0.0000
# 2 33.8869 131.6825 48.2408 0.0000 -20.3772 0.0000
# 3 23.0558 48.2408 79.9429 0.0000 2.4310 0.0000
# 4 0.0000 0.0000 0.0000 37.6061 0.0000 3.7043
# 5 -1.1892 -20.3772 2.4310 0.0000 36.5345 0.0000
# 6 0.0000 0.0000 0.0000 3.7043 0.0000 21.3976
#
#
#
# Elastic Compliance Matrix: (Units=1/GPa)
#
#
# Indices 1 2 3 4 5 6 
#
# 1 0.018499 -0.003895 -0.002943 0.000000 -0.001375 0.000000
# 2 -0.003895 0.011995 -0.006327 0.000000 0.006985 0.000000
# 3 -0.002943 -0.006327 0.017321 0.000000 -0.004777 0.000000
# 4 0.000000 0.000000 0.000000 0.027053 0.000000 -0.004683
# 5 -0.001375 0.006985 -0.004777 0.000000 0.031540 0.000000
# 6 0.000000 0.000000 0.000000 -0.004683 0.000000 0.047545
#
#
# Mechanical properties :
#
#
# Convention : Reuss Voigt Hill
#
# Bulk Modulus (GPa) = 46.54539 54.08497 50.31518
# Shear Modulus (GPa) = 26.67447 30.52193 28.59820
#
# Velocity S-wave (km/s) = 3.70602 3.96429 3.83733
# Velocity P-wave (km/s) = 6.50221 6.98586 6.74837
#
# Compressibility (1/GPa) = 0.02148440
#
# Stress axis : x y z
#
# Youngs Moduli (GPa) = 54.05786 83.36673 57.73275
#
# Poissons Ratio (x) = 0.32471 0.16990
# Poissons Ratio (y) = 0.21056 0.36530
# Poissons Ratio (z) = 0.15909 0.52750
#
# Static dielectric constant tensor:
#      x y z
#    x 3.523000 0.000000 0.171970 
#    y 0.000000 3.823410 0.000000 
#    z 0.171970 0.000000 3.522460 
# 
# 
# High freq. dielectric constant tensor:
#      x y z
#    x 1.749280 0.000000 0.019040 
#    y 0.000000 1.772490 0.000000 
#    z 0.019040 0.000000 1.759810 
# 
# From -- ./inp_files/35175.got.cif
#   From: 2010.06.25/outbox.cif.g09.slc.cpg/sg15_18_cif.got.tgz:35175.got - 2010.06.28 07:06:18.
