data_PCOD8139721
_publ_section_title
;
Structure prediction by ZEFSAII (Michael W. Deem and Ramdas Pophale) SiO2 
 PCOD8139721
Probable space group: C 2/C
;
_chemical_formula_sum "Si O2"
_cell_formula_units_Z 52
_cell_length_a 18.005712
_cell_length_b 16.814197
_cell_length_c 8.903828
_cell_angle_alpha 90.000000
_cell_angle_beta 116.662202
_cell_angle_gamma 90.000000
_cell_volume 2409.013369
_symmetry_space_group_name_H-M "C 2/C"
_symmetry_group_IT_number 15
_symmetry_cell_setting 'monoclinic'
loop_
_space_group_symop_operation_xyz
x,y,z
-x,y,1/2-z
-x,-y,-z
x,-y,1/2+z
1/2+x,1/2+y,z
1/2-x,1/2+y,1/2-z
1/2-x,1/2-y,-z
1/2+x,1/2-y,1/2+z
loop_
_atom_site_type_symbol
_atom_site_label
_atom_site_fract_x
_atom_site_fract_y
_atom_site_fract_z
Si Si1 0.668135 0.745188 0.029804
Si Si2 0.169808 0.481486 0.460434
Si Si3 0.906946 0.074502 0.831109
Si Si4 0.000000 0.697440 0.250000
Si Si5 0.937477 0.436184 0.880854
Si Si6 0.590556 0.411693 0.515129
Si Si7 0.736747 0.890692 0.242337
O O1 0.582601 0.750510 0.854609
O O2 0.655794 0.660808 0.104064
O O3 0.750000 0.750000 0.000000
O O4 0.676822 0.814900 0.161021
O O5 0.130441 0.422833 0.550080
O O6 0.100503 0.531710 0.308908
O O7 0.220339 0.427010 0.390949
O O8 0.225441 0.545950 0.597185
O O9 0.909566 0.064876 0.657147
O O10 0.833816 0.134590 0.818802
O O11 0.994527 0.107158 0.975971
O O12 0.879614 0.987501 0.865336
O O13 0.983626 0.645743 0.385106
O O14 0.000000 0.500000 0.000000
#
# Coordination Sequence:
#
# PCOD8139721 Si02
#       7
#     8   8   8   4   8   8   8
#     4  12  25  40  62  97 127 170 210 274 330 394
#     4  10  21  34  59  95 128 166 217 257 310 395
#     4  10  20  39  68  94 120 168 217 272 312 391
#     4  12  22  38  62  88 128 168 204 260 326 382
#     4  11  18  35  58  89 122 167 208 253 303 384
#     4  10  22  41  68  94 122 164 224 270 326 381
#     4  11  21  38  63  96 132 167 213 266 327 382
#
# _framework density 21.585599999999999
#
# number of rings (size 3 to 8) (size 9 to 14) (size 15 to 20)
#    0.000    1.231    4.615    2.769    0.000    0.000 
#    0.000    0.000   16.923    2.769    0.000    0.000 
#    0.000    0.000    0.000    0.000    0.000    0.000 
#
# Total GULP energy -322289.090260 kJ/mol
# GULP energy per Si atom -12395.734241 kJ/mol
# Density = 2.153647 g / cm^3
# Si number density = 21.585600 Si / 1000 Ang^3
#
#
#
# Elastic Constant Matrix: (Units=GPa)
#
#
# Indices 1 2 3 4 5 6 
#
# 1 120.9256 43.3705 25.3275 0.0000 9.9960 0.0000
# 2 43.3705 91.2720 20.0842 0.0000 -6.6960 0.0000
# 3 25.3275 20.0842 61.8712 0.0000 -9.4718 0.0000
# 4 0.0000 0.0000 0.0000 15.1567 0.0000 -0.0852
# 5 9.9960 -6.6960 -9.4718 0.0000 33.6591 0.0000
# 6 0.0000 0.0000 0.0000 -0.0852 0.0000 37.0018
#
#
#
# Elastic Compliance Matrix: (Units=1/GPa)
#
#
# Indices 1 2 3 4 5 6 
#
# 1 0.011286 -0.004912 -0.003854 0.000000 -0.005413 0.000000
# 2 -0.004912 0.013994 -0.001967 0.000000 0.003689 0.000000
# 3 -0.003854 -0.001967 0.019327 0.000000 0.006192 0.000000
# 4 0.000000 0.000000 0.000000 0.065978 0.000000 0.000152
# 5 -0.005413 0.003689 0.006192 0.000000 0.033794 0.000000
# 6 0.000000 0.000000 0.000000 0.000152 0.000000 0.027026
#
#
# Mechanical properties :
#
#
# Convention : Reuss Voigt Hill
#
# Bulk Modulus (GPa) = 43.21504 50.18148 46.69826
# Shear Modulus (GPa) = 24.92715 29.51596 27.22155
#
# Velocity S-wave (km/s) = 3.40193 3.70184 3.55505
# Velocity P-wave (km/s) = 5.95773 6.44745 6.20742
#
# Compressibility (1/GPa) = 0.02314009
#
# Stress axis : x y z
#
# Youngs Moduli (GPa) = 88.60552 71.46036 51.74147
#
# Poissons Ratio (x) = 0.35100 0.19943
# Poissons Ratio (y) = 0.43522 0.10178
# Poissons Ratio (z) = 0.34151 0.14057
#
# Static dielectric constant tensor:
#      x y z
#    x 4.532450 0.000000 0.003750 
#    y 0.000000 3.822060 0.000000 
#    z 0.003750 0.000000 3.832230 
# 
# 
# High freq. dielectric constant tensor:
#      x y z
#    x 1.873390 0.000000 0.008090 
#    y 0.000000 1.827030 0.000000 
#    z 0.008090 0.000000 1.829960 
# 
# From -- ./inp_files/48659.got.cif
#   From: 2010.06.25/outbox.cif.g09.slc.cpg/sg15_25_cif.got.tgz:48659.got - 2010.06.28 07:06:18.
