data_PCOD8139554
_publ_section_title
;
Structure prediction by ZEFSAII (Michael W. Deem and Ramdas Pophale) SiO2 
 PCOD8139554
Probable space group: C 2/C
;
_chemical_formula_sum "Si O2"
_cell_formula_units_Z 56
_cell_length_a 24.087463
_cell_length_b 8.805013
_cell_length_c 15.464907
_cell_angle_alpha 90.000000
_cell_angle_beta 58.956597
_cell_angle_gamma 90.000000
_cell_volume 2810.192845
_symmetry_space_group_name_H-M "C 2/C"
_symmetry_group_IT_number 15
_symmetry_cell_setting 'monoclinic'
loop_
_space_group_symop_operation_xyz
x,y,z
-x,y,1/2-z
-x,-y,-z
x,-y,1/2+z
1/2+x,1/2+y,z
1/2-x,1/2+y,1/2-z
1/2-x,1/2-y,-z
1/2+x,1/2-y,1/2+z
loop_
_atom_site_type_symbol
_atom_site_label
_atom_site_fract_x
_atom_site_fract_y
_atom_site_fract_z
Si Si1 0.861027 0.858192 0.960205
Si Si2 0.988113 0.990204 0.409968
Si Si3 0.253124 0.014693 0.355274
Si Si4 0.061508 0.713070 0.148431
Si Si5 0.330641 0.012495 0.968701
Si Si6 0.251364 0.364183 0.314648
Si Si7 0.621594 0.537863 0.715051
O O1 0.936323 0.883473 0.922702
O O2 0.841133 0.684998 0.987536
O O3 0.848731 0.908529 0.871178
O O4 0.817379 0.958344 0.059073
O O5 0.054945 0.025580 0.307380
O O6 0.963165 0.821113 0.408844
O O7 0.000000 0.000000 0.500000
O O8 0.303511 0.000314 0.393317
O O9 0.245788 0.184932 0.327609
O O10 0.278925 0.915265 0.252935
O O11 0.100330 0.571039 0.079447
O O12 0.000000 0.648839 0.250000
O O13 0.109317 0.809176 0.170750
O O14 0.282398 0.938402 0.075583
O O15 0.326305 0.420038 0.253550
#
# Coordination Sequence:
#
# PCOD8139554 Si02
#       7
#     8   8   8   8   8   8   8
#     4  11  23  40  64  92 128 172 216 261 317 386
#     4  10  21  40  64  92 125 168 223 263 316 388
#     4  12  25  41  66  98 132 170 217 261 327 383
#     4   9  20  40  65  89 119 173 211 261 326 379
#     4  12  24  43  66  94 138 167 213 270 323 378
#     4  12  24  40  67  98 128 172 214 268 322 386
#     4  10  20  39  64  87 124 171 214 256 322 380
#
# _framework density 19.927457
#
# number of rings (size 3 to 8) (size 9 to 14) (size 15 to 20)
#    0.000    1.143    2.857    5.571    2.000    1.143 
#    0.000    0.714    0.000    0.000    0.000    0.000 
#    0.000    0.000    0.000    0.000    0.000    0.000 
#
# Total GULP energy -347286.080325 kJ/mol
# GULP energy per Si atom -12403.074297 kJ/mol
# Density = 1.988210 g / cm^3
# Si number density = 19.927457 Si / 1000 Ang^3
#
#
#
# Elastic Constant Matrix: (Units=GPa)
#
#
# Indices 1 2 3 4 5 6 
#
# 1 86.7903 45.5578 56.3599 0.0000 1.6229 0.0000
# 2 45.5578 124.4714 50.4742 0.0000 -4.4651 0.0001
# 3 56.3599 50.4742 102.9428 0.0000 14.3055 0.0000
# 4 0.0000 0.0000 0.0000 33.2535 0.0000 -3.3761
# 5 1.6229 -4.4651 14.3055 0.0000 39.4748 0.0000
# 6 0.0000 0.0001 0.0000 -3.3761 0.0000 17.5560
#
#
#
# Elastic Compliance Matrix: (Units=1/GPa)
#
#
# Indices 1 2 3 4 5 6 
#
# 1 0.019143 -0.003188 -0.009223 0.000000 0.002195 0.000000
# 2 -0.003188 0.010925 -0.004003 0.000000 0.002817 0.000000
# 3 -0.009223 -0.004003 0.017624 0.000000 -0.006460 0.000000
# 4 0.000000 0.000000 0.000000 0.030671 0.000000 0.005898
# 5 0.002195 0.002817 -0.006460 0.000000 0.027902 0.000000
# 6 0.000000 0.000000 0.000000 0.005898 0.000000 0.058095
#
#
# Mechanical properties :
#
#
# Convention : Reuss Voigt Hill
#
# Bulk Modulus (GPa) = 67.27069 68.77647 68.02358
# Shear Modulus (GPa) = 24.73503 28.84436 26.78970
#
# Velocity S-wave (km/s) = 3.52697 3.80869 3.67053
# Velocity P-wave (km/s) = 7.10050 7.34369 7.22312
#
# Compressibility (1/GPa) = 0.01486532
#
# Stress axis : x y z
#
# Youngs Moduli (GPa) = 52.23708 91.53243 56.74147
#
# Poissons Ratio (x) = 0.29182 0.52330
# Poissons Ratio (y) = 0.16654 0.22712
# Poissons Ratio (z) = 0.48176 0.36638
#
# Static dielectric constant tensor:
#      x y z
#    x 3.728970 0.000000 -0.002110 
#    y 0.000000 3.518380 0.000000 
#    z -0.002110 0.000000 3.033980 
# 
# 
# High freq. dielectric constant tensor:
#      x y z
#    x 1.778690 0.000000 -0.004290 
#    y 0.000000 1.770330 0.000000 
#    z -0.004290 0.000000 1.787980 
# 
# From -- ./inp_files/172285.got.cif
#   From: 2010.06.25/outbox.cif.g09.slc.cpg/sg15_87_cif.got.tgz:172285.got - 2010.06.28 07:06:18.
