data_PCOD8139839
_publ_section_title
;
Structure prediction by ZEFSAII (Michael W. Deem and Ramdas Pophale) SiO2 
 PCOD8139839
Probable space group: C 2/C
;
_chemical_formula_sum "Si O2"
_cell_formula_units_Z 44
_cell_length_a 11.631909
_cell_length_b 21.206606
_cell_length_c 10.001334
_cell_angle_alpha 90.000000
_cell_angle_beta 58.854987
_cell_angle_gamma 90.000000
_cell_volume 2111.462346
_symmetry_space_group_name_H-M "C 2/C"
_symmetry_group_IT_number 15
_symmetry_cell_setting 'monoclinic'
loop_
_space_group_symop_operation_xyz
x,y,z
-x,y,1/2-z
-x,-y,-z
x,-y,1/2+z
1/2+x,1/2+y,z
1/2-x,1/2+y,1/2-z
1/2-x,1/2-y,-z
1/2+x,1/2-y,1/2+z
loop_
_atom_site_type_symbol
_atom_site_label
_atom_site_fract_x
_atom_site_fract_y
_atom_site_fract_z
Si Si1 0.299822 0.884833 0.207012
Si Si2 0.229012 0.444184 0.551776
Si Si3 0.173597 0.882843 0.756330
Si Si4 0.655736 0.244446 0.687597
Si Si5 0.500000 0.961739 0.250000
Si Si6 0.381373 0.561207 0.472704
O O1 0.293216 0.811249 0.247458
O O2 0.437590 0.917061 0.173262
O O3 0.174419 0.920343 0.349238
O O4 0.282817 0.893112 0.058532
O O5 0.220334 0.406540 0.697353
O O6 0.367435 0.485386 0.460730
O O7 0.109841 0.494520 0.613342
O O8 0.165477 0.807683 0.769388
O O9 0.212874 0.903710 0.582350
O O10 0.032518 0.916359 0.871075
O O11 0.500000 0.232292 0.750000
O O12 0.750000 0.250000 0.500000
#
# Coordination Sequence:
#
# PCOD8139839 Si02
#       6
#     8   8   8   8   4   8
#     4  11  22  39  65  90 121 165 207 251 307 363
#     4  11  24  37  61  95 128 153 203 262 315 359
#     4  11  22  40  63  91 125 161 204 253 309 362
#     4  12  23  43  67  88 122 167 218 253 298 383
#     4  10  22  40  60  90 126 164 202 246 308 386
#     4  10  20  40  61  91 123 167 198 245 308 381
#
# _framework density 20.838639000000001
#
# number of rings (size 3 to 8) (size 9 to 14) (size 15 to 20)
#    0.000    1.091    4.545    3.273    0.000    5.818 
#    0.000    0.000    0.000    2.182    0.000    0.000 
#    0.000    0.000    0.000    0.000    0.000    0.000 
#
# Total GULP energy -272766.457557 kJ/mol
# GULP energy per Si atom -12398.475343 kJ/mol
# Density = 2.079121 g / cm^3
# Si number density = 20.838639 Si / 1000 Ang^3
#
#
#
# Elastic Constant Matrix: (Units=GPa)
#
#
# Indices 1 2 3 4 5 6 
#
# 1 51.7602 29.6211 28.8332 0.0000 -0.9010 0.0000
# 2 29.6211 140.7870 25.7679 0.0000 13.6701 0.0000
# 3 28.8332 25.7679 81.1395 0.0000 13.8307 0.0000
# 4 0.0000 0.0000 0.0000 -6.4979 0.0000 8.3589
# 5 -0.9010 13.6701 13.8307 0.0000 41.7322 0.0000
# 6 0.0000 0.0000 0.0000 8.3589 0.0000 18.2936
#
#
#
# Elastic Compliance Matrix: (Units=1/GPa)
#
#
# Indices 1 2 3 4 5 6 
#
# 1 0.027027 -0.004525 -0.009029 0.000000 0.005058 0.000000
# 2 -0.004525 0.008425 -0.000615 0.000000 -0.002654 0.000000
# 3 -0.009029 -0.000615 0.016669 0.000000 -0.005518 0.000000
# 4 0.000000 0.000000 0.000000 -0.096925 0.000000 0.044288
# 5 0.005058 -0.002654 -0.005518 0.000000 0.026769 0.000000
# 6 0.000000 0.000000 0.000000 0.044288 0.000000 0.034428
#
#
# Mechanical properties :
#
#
# Convention : Reuss Voigt Hill
#
# Bulk Modulus (GPa) = 42.04845 49.12565 45.58705
# Shear Modulus (GPa) = 94.94751 23.33656 59.14204
#
# Velocity S-wave (km/s) = 6.75738 3.35008 5.33316
# Velocity P-wave (km/s) = 9.00582 6.21204 7.73609
#
# Compressibility (1/GPa) = 0.02378209
#
# Stress axis : x y z
#
# Youngs Moduli (GPa) = 36.99966 118.69088 59.99142
#
# Poissons Ratio (x) = 0.53707 0.54169
# Poissons Ratio (y) = 0.16742 0.03692
# Poissons Ratio (z) = 0.33409 0.07304
#
# Static dielectric constant tensor:
#      x y z
#    x 3.753780 0.000000 0.042100 
#    y 0.000000 3.903730 0.000000 
#    z 0.042100 0.000000 3.824580 
# 
# 
# High freq. dielectric constant tensor:
#      x y z
#    x 1.804450 0.000000 -0.003690 
#    y 0.000000 1.821760 0.000000 
#    z -0.003690 0.000000 1.812620 
# 
# From -- ./inp_files/30729.got.cif
#   From: 2010.06.25/outbox.cif.g09.slc.cpg/sg15_16_cif.got.tgz:30729.got - 2010.06.28 07:06:18.
