data_PCOD8139388
_publ_section_title
;
Structure prediction by ZEFSAII (Michael W. Deem and Ramdas Pophale) SiO2 
 PCOD8139388
Probable space group: C 2/C
;
_chemical_formula_sum "Si O2"
_cell_formula_units_Z 56
_cell_length_a 18.761012
_cell_length_b 12.539032
_cell_length_c 17.075649
_cell_angle_alpha 90.000000
_cell_angle_beta 134.630865
_cell_angle_gamma 90.000000
_cell_volume 2858.660222
_symmetry_space_group_name_H-M "C 2/C"
_symmetry_group_IT_number 15
_symmetry_cell_setting 'monoclinic'
loop_
_space_group_symop_operation_xyz
x,y,z
-x,y,1/2-z
-x,-y,-z
x,-y,1/2+z
1/2+x,1/2+y,z
1/2-x,1/2+y,1/2-z
1/2-x,1/2-y,-z
1/2+x,1/2-y,1/2+z
loop_
_atom_site_type_symbol
_atom_site_label
_atom_site_fract_x
_atom_site_fract_y
_atom_site_fract_z
Si Si1 0.118668 0.738294 0.135219
Si Si2 0.720500 0.423285 0.698371
Si Si3 0.208276 0.900569 0.307616
Si Si4 0.112353 0.046348 0.343618
Si Si5 0.901964 0.283602 0.407641
Si Si6 0.288529 0.605517 0.923172
Si Si7 0.596801 0.225782 0.773019
O O1 0.179505 0.628322 0.187847
O O2 0.136297 0.800564 0.231098
O O3 0.161505 0.812341 0.099145
O O4 0.004147 0.707022 0.034472
O O5 0.673972 0.502966 0.725532
O O6 0.639000 0.335164 0.612556
O O7 0.743323 0.492831 0.638899
O O8 0.324366 0.868803 0.384777
O O9 0.186467 0.948258 0.377291
O O10 0.132802 0.084586 0.447434
O O11 0.124036 0.149182 0.296193
O O12 0.000000 0.001945 0.250000
O O13 0.918910 0.309610 0.329225
O O14 0.188229 0.658861 0.880333
O O15 0.500000 0.199202 0.750000
#
# Coordination Sequence:
#
# PCOD8139388 Si02
#       7
#     8   8   8   8   8   8   8
#     4  10  21  37  64  87 119 157 200 253 291 354
#     4  10  20  39  61  87 121 156 206 242 295 364
#     4  10  21  39  60  88 122 155 205 250 288 367
#     4  11  23  37  62  93 120 156 200 251 308 356
#     4  11  21  39  62  92 118 159 203 246 305 352
#     4  11  22  40  61  89 123 160 195 257 302 357
#     4  11  21  38  59  93 127 151 193 252 311 359
#
# _framework density 19.589597000000001
#
# number of rings (size 3 to 8) (size 9 to 14) (size 15 to 20)
#    0.000    1.429    5.714    2.143    2.000    2.857 
#    2.571    2.857    0.000    0.000    0.000    0.000 
#    0.000    0.000    0.000    0.000    0.000    0.000 
#
# Total GULP energy -347146.353720 kJ/mol
# GULP energy per Si atom -12398.084061 kJ/mol
# Density = 1.954501 g / cm^3
# Si number density = 19.589597 Si / 1000 Ang^3
#
#
#
# Elastic Constant Matrix: (Units=GPa)
#
#
# Indices 1 2 3 4 5 6 
#
# 1 96.2538 38.5929 37.4826 0.0000 15.6563 0.0000
# 2 38.5929 65.0596 21.0022 0.0000 3.8662 0.0000
# 3 37.4826 21.0022 112.9470 0.0000 22.3237 0.0000
# 4 0.0000 0.0000 0.0000 19.0912 0.0000 -1.8814
# 5 15.6563 3.8662 22.3237 0.0000 27.8009 0.0000
# 6 0.0000 0.0000 0.0000 -1.8814 0.0000 35.9555
#
#
#
# Elastic Compliance Matrix: (Units=1/GPa)
#
#
# Indices 1 2 3 4 5 6 
#
# 1 0.015516 -0.008049 -0.002552 0.000000 -0.005570 0.000000
# 2 -0.008049 0.020529 -0.001756 0.000000 0.003089 0.000000
# 3 -0.002552 -0.001756 0.011524 0.000000 -0.007572 0.000000
# 4 0.000000 0.000000 0.000000 0.052652 0.000000 0.002755
# 5 -0.005570 0.003089 -0.007572 0.000000 0.044757 0.000000
# 6 0.000000 0.000000 0.000000 0.002755 0.000000 0.027956
#
#
# Mechanical properties :
#
#
# Convention : Reuss Voigt Hill
#
# Bulk Modulus (GPa) = 43.75637 52.04620 47.90128
# Shear Modulus (GPa) = 24.35853 28.38172 26.37013
#
# Velocity S-wave (km/s) = 3.53007 3.81046 3.67294
# Velocity P-wave (km/s) = 6.24502 6.78126 6.51865
#
# Compressibility (1/GPa) = 0.02285382
#
# Stress axis : x y z
#
# Youngs Moduli (GPa) = 64.44879 48.71197 86.77764
#
# Poissons Ratio (x) = 0.39210 0.22142
# Poissons Ratio (y) = 0.51878 0.15242
# Poissons Ratio (z) = 0.16445 0.08556
#
# Static dielectric constant tensor:
#      x y z
#    x 3.442090 0.000000 0.028540 
#    y 0.000000 3.702440 0.000000 
#    z 0.028540 0.000000 3.527220 
# 
# 
# High freq. dielectric constant tensor:
#      x y z
#    x 1.747580 0.000000 0.007560 
#    y 0.000000 1.764990 0.000000 
#    z 0.007560 0.000000 1.757220 
# 
# From -- ./inp_files/210680.got.cif
#   From: 2010.06.25/outbox.cif.g09.slc.cpg/sg15_106_cif.got.tgz:210680.got - 2010.06.28 07:06:18.
