data_PCOD8139568
_publ_section_title
;
Structure prediction by ZEFSAII (Michael W. Deem and Ramdas Pophale) SiO2 
 PCOD8139568
Probable space group: C 2/C
;
_chemical_formula_sum "Si O2"
_cell_formula_units_Z 64
_cell_length_a 9.586241
_cell_length_b 14.947141
_cell_length_c 22.736942
_cell_angle_alpha 90.000000
_cell_angle_beta 99.070194
_cell_angle_gamma 90.000000
_cell_volume 3217.168820
_symmetry_space_group_name_H-M "C 2/C"
_symmetry_group_IT_number 15
_symmetry_cell_setting 'monoclinic'
loop_
_space_group_symop_operation_xyz
x,y,z
-x,y,1/2-z
-x,-y,-z
x,-y,1/2+z
1/2+x,1/2+y,z
1/2-x,1/2+y,1/2-z
1/2-x,1/2-y,-z
1/2+x,1/2-y,1/2+z
loop_
_atom_site_type_symbol
_atom_site_label
_atom_site_fract_x
_atom_site_fract_y
_atom_site_fract_z
Si Si1 0.224211 0.156416 0.230963
Si Si2 0.231349 0.281278 0.563860
Si Si3 0.354984 0.659882 0.709442
Si Si4 0.070985 0.862540 0.839195
Si Si5 0.804508 0.908053 0.403521
Si Si6 0.888885 0.953381 0.105217
Si Si7 0.844923 0.460576 0.985563
Si Si8 0.161788 0.462068 0.272561
O O1 0.325147 0.235622 0.216360
O O2 0.159789 0.176937 0.290676
O O3 0.314107 0.066393 0.237588
O O4 0.095841 0.148628 0.176898
O O5 0.250000 0.250000 0.500000
O O6 0.384531 0.307238 0.600197
O O7 0.166564 0.199564 0.597049
O O8 0.139608 0.372857 0.555744
O O9 0.500000 0.633198 0.750000
O O10 0.363764 0.637765 0.640318
O O11 0.236010 0.598866 0.729544
O O12 0.108223 0.966942 0.847000
O O13 0.713601 0.935105 0.454252
O O14 0.958968 0.952733 0.416999
O O15 0.713743 0.936982 0.341209
O O16 0.763361 0.967567 0.049909
O O17 0.000000 0.500000 0.000000
O O18 0.000000 0.439882 0.250000
#
# Coordination Sequence:
#
# PCOD8139568 Si02
#       8
#     8   8   8   8   8   8   8   8
#     4  11  23  39  61  93 133 168 219 265 332 389
#     4   9  21  39  63  91 127 165 216 265 323 386
#     4  12  24  41  62  92 132 173 216 265 332 397
#     4  10  20  39  64  90 126 178 209 262 332 397
#     4  11  22  43  67  94 127 169 222 262 327 396
#     4  11  22  43  66  89 129 176 214 262 327 399
#     4  10  24  43  68  96 127 167 216 276 331 383
#     4  12  26  41  65 100 134 170 219 277 324 393
#
# _framework density 19.893267999999999
#
# number of rings (size 3 to 8) (size 9 to 14) (size 15 to 20)
#    0.000    1.250    3.750    1.500    5.250    1.000 
#    2.250    0.625    0.000    0.000    0.000    0.000 
#    0.000    0.000    0.000    0.000    0.000    0.000 
#
# Total GULP energy -396744.646765 kJ/mol
# GULP energy per Si atom -12398.270211 kJ/mol
# Density = 1.984799 g / cm^3
# Si number density = 19.893268 Si / 1000 Ang^3
#
#
#
# Elastic Constant Matrix: (Units=GPa)
#
#
# Indices 1 2 3 4 5 6 
#
# 1 151.2969 41.6796 46.1875 0.0000 18.7949 0.0000
# 2 41.6796 102.3069 23.7358 0.0000 2.5220 0.0000
# 3 46.1875 23.7358 75.5681 0.0000 11.1882 0.0000
# 4 0.0000 0.0000 0.0000 28.7443 0.0000 -3.8454
# 5 18.7949 2.5220 11.1882 0.0000 35.8282 0.0000
# 6 0.0000 0.0000 0.0000 -3.8454 0.0000 26.8220
#
#
#
# Elastic Compliance Matrix: (Units=1/GPa)
#
#
# Indices 1 2 3 4 5 6 
#
# 1 0.009017 -0.002617 -0.004211 0.000000 -0.003231 0.000000
# 2 -0.002617 0.011306 -0.002136 0.000000 0.001244 0.000000
# 3 -0.004211 -0.002136 0.016910 0.000000 -0.002921 0.000000
# 4 0.000000 0.000000 0.000000 0.035470 0.000000 0.005085
# 5 -0.003231 0.001244 -0.002921 0.000000 0.030431 0.000000
# 6 0.000000 0.000000 0.000000 0.005085 0.000000 0.038012
#
#
# Mechanical properties :
#
#
# Convention : Reuss Voigt Hill
#
# Bulk Modulus (GPa) = 51.79847 61.37529 56.58688
# Shear Modulus (GPa) = 30.20999 32.78351 31.49675
#
# Velocity S-wave (km/s) = 3.90115 4.06392 3.98337
# Velocity P-wave (km/s) = 6.81078 7.27598 7.04722
#
# Compressibility (1/GPa) = 0.01930559
#
# Stress axis : x y z
#
# Youngs Moduli (GPa) = 110.89669 88.45251 59.13583
#
# Poissons Ratio (x) = 0.23148 0.24903
# Poissons Ratio (y) = 0.29022 0.12629
# Poissons Ratio (z) = 0.46699 0.18891
#
# Static dielectric constant tensor:
#      x y z
#    x 3.477980 0.000000 0.179310 
#    y 0.000000 4.023360 0.000000 
#    z 0.179310 0.000000 3.577240 
# 
# 
# High freq. dielectric constant tensor:
#      x y z
#    x 1.768840 0.000000 0.012810 
#    y 0.000000 1.785870 0.000000 
#    z 0.012810 0.000000 1.779800 
# 
# From -- ./inp_files/264717.got.cif
#   From: 2010.06.25/outbox.cif.g09.slc.cpg/sg15_133_cif.got.tgz:264717.got - 2010.06.28 07:06:18.
