data_PCOD8139593
_publ_section_title
;
Structure prediction by ZEFSAII (Michael W. Deem and Ramdas Pophale) SiO2 
 PCOD8139593
Probable space group: C 2/C
;
_chemical_formula_sum "Si O2"
_cell_formula_units_Z 32
_cell_length_a 22.330619
_cell_length_b 9.141113
_cell_length_c 8.718084
_cell_angle_alpha 90.000000
_cell_angle_beta 49.473048
_cell_angle_gamma 90.000000
_cell_volume 1352.669939
_symmetry_space_group_name_H-M "C 2/C"
_symmetry_group_IT_number 15
_symmetry_cell_setting 'monoclinic'
loop_
_space_group_symop_operation_xyz
x,y,z
-x,y,1/2-z
-x,-y,-z
x,-y,1/2+z
1/2+x,1/2+y,z
1/2-x,1/2+y,1/2-z
1/2-x,1/2-y,-z
1/2+x,1/2-y,1/2+z
loop_
_atom_site_type_symbol
_atom_site_label
_atom_site_fract_x
_atom_site_fract_y
_atom_site_fract_z
Si Si1 0.868558 0.743499 0.300658
Si Si2 0.484614 0.841303 0.096757
Si Si3 0.258231 0.450120 0.623870
Si Si4 0.830430 0.270874 0.196271
O O1 0.826254 0.626274 0.261098
O O2 0.819057 0.896335 0.388866
O O3 0.871619 0.675602 0.468142
O O4 0.955358 0.770810 0.088033
O O5 0.500000 0.842186 0.250000
O O6 0.396294 0.779746 0.218167
O O7 0.500000 0.000000 0.000000
O O8 0.244889 0.623856 0.642115
O O9 0.293296 0.391377 0.730149
#
# Coordination Sequence:
#
# PCOD8139593 Si02
#       4
#     8   8   8   8
#     4   9  20  38  61  94 128 166 202 273 315 371
#     4  12  23  35  65  95 128 160 228 268 307 366
#     4   9  20  36  66  90 138 160 210 261 329 372
#     4  10  20  39  65 100 122 171 206 269 317 386
#
# _framework density 23.656917
#
# number of rings (size 3 to 8) (size 9 to 14) (size 15 to 20)
#    1.500    0.500    2.500    2.250    0.000    0.000 
#    0.000    5.000    0.000    1.500   13.000    1.750 
#    0.000    0.000    0.000    0.000    0.000    0.000 
#
# Total GULP energy -198223.280137 kJ/mol
# GULP energy per Si atom -12388.955009 kJ/mol
# Density = 2.360307 g / cm^3
# Si number density = 23.656917 Si / 1000 Ang^3
#
#
#
# Elastic Constant Matrix: (Units=GPa)
#
#
# Indices 1 2 3 4 5 6 
#
# 1 156.5478 18.8976 19.6609 0.0000 -2.6285 0.0000
# 2 18.8976 52.9535 12.6498 0.0000 -20.2551 0.0000
# 3 19.6609 12.6498 96.4167 0.0000 -10.4844 0.0000
# 4 0.0000 0.0000 0.0000 15.5389 0.0000 -9.0573
# 5 -2.6285 -20.2551 -10.4844 0.0000 41.6368 0.0000
# 6 0.0000 0.0000 0.0000 -9.0573 0.0000 22.5802
#
#
#
# Elastic Compliance Matrix: (Units=1/GPa)
#
#
# Indices 1 2 3 4 5 6 
#
# 1 0.006829 -0.002586 -0.001175 0.000000 -0.001123 0.000000
# 2 -0.002586 0.024513 -0.001450 0.000000 0.011396 0.000000
# 3 -0.001175 -0.001450 0.011018 0.000000 0.001995 0.000000
# 4 0.000000 0.000000 0.000000 0.083992 0.000000 0.033691
# 5 -0.001123 0.011396 0.001995 0.000000 0.029993 0.000000
# 6 0.000000 0.000000 0.000000 0.033691 0.000000 0.057800
#
#
# Mechanical properties :
#
#
# Convention : Reuss Voigt Hill
#
# Bulk Modulus (GPa) = 31.30983 45.37051 38.34017
# Shear Modulus (GPa) = 21.25737 32.93183 27.09460
#
# Velocity S-wave (km/s) = 3.00087 3.73508 3.38792
# Velocity P-wave (km/s) = 5.02699 6.14990 5.61658
#
# Compressibility (1/GPa) = 0.03193885
#
# Stress axis : x y z
#
# Youngs Moduli (GPa) = 146.44055 40.79509 90.75684
#
# Poissons Ratio (x) = 0.10548 0.10667
# Poissons Ratio (y) = 0.37864 0.13156
# Poissons Ratio (z) = 0.17212 0.05913
#
# Static dielectric constant tensor:
#      x y z
#    x 4.328300 0.000000 -0.082800 
#    y 0.000000 3.769890 0.000000 
#    z -0.082800 0.000000 4.114020 
# 
# 
# High freq. dielectric constant tensor:
#      x y z
#    x 1.946160 0.000000 0.001980 
#    y 0.000000 1.896040 0.000000 
#    z 0.001980 0.000000 1.928570 
# 
# From -- ./inp_files/60422.got.cif
#   From: 2010.06.25/outbox.cif.g09.slc.cpg/sg15_31_cif.got.tgz:60422.got - 2010.06.28 07:06:18.
