data_PCOD8139682
_publ_section_title
;
Structure prediction by ZEFSAII (Michael W. Deem and Ramdas Pophale) SiO2 
 PCOD8139682
Probable space group: C 2/C
;
_chemical_formula_sum "Si O2"
_cell_formula_units_Z 48
_cell_length_a 16.288205
_cell_length_b 9.664949
_cell_length_c 19.492652
_cell_angle_alpha 90.000000
_cell_angle_beta 127.975498
_cell_angle_gamma 90.000000
_cell_volume 2418.916655
_symmetry_space_group_name_H-M "C 2/C"
_symmetry_group_IT_number 15
_symmetry_cell_setting 'monoclinic'
loop_
_space_group_symop_operation_xyz
x,y,z
-x,y,1/2-z
-x,-y,-z
x,-y,1/2+z
1/2+x,1/2+y,z
1/2-x,1/2+y,1/2-z
1/2-x,1/2-y,-z
1/2+x,1/2-y,1/2+z
loop_
_atom_site_type_symbol
_atom_site_label
_atom_site_fract_x
_atom_site_fract_y
_atom_site_fract_z
Si Si1 0.307840 0.638910 0.827323
Si Si2 0.275710 0.616470 0.467674
Si Si3 0.486612 0.552762 0.634932
Si Si4 0.705315 0.133631 0.290454
Si Si5 0.795260 0.670571 0.588286
Si Si6 0.000000 0.278151 0.750000
Si Si7 0.500000 0.321790 0.750000
O O1 0.426143 0.592445 0.875447
O O2 0.276033 0.757381 0.758894
O O3 0.227587 0.515480 0.769716
O O4 0.293257 0.686640 0.898264
O O5 0.250000 0.750000 0.500000
O O6 0.379268 0.530174 0.539797
O O7 0.285202 0.668580 0.393864
O O8 0.188380 0.492516 0.423846
O O9 0.454999 0.680061 0.667620
O O10 0.526911 0.420188 0.698780
O O11 0.589787 0.129223 0.263041
O O12 0.750000 0.750000 0.500000
O O13 0.902633 0.729086 0.675617
#
# Coordination Sequence:
#
# PCOD8139682 Si02
#       7
#     8   8   8   8   8   4   4
#     4  10  23  39  61  93 127 165 216 264 325 379
#     4  11  22  39  66  97 128 169 221 265 318 394
#     4  10  20  39  67  91 124 176 213 256 331 396
#     4  10  21  38  63  90 126 167 213 265 317 386
#     4  11  24  43  66  97 129 168 220 272 321 389
#     4   9  18  35  62  88 123 169 212 250 325 391
#     4  11  22  43  70  94 131 177 214 270 335 381
#
# _framework density 19.843594
#
# number of rings (size 3 to 8) (size 9 to 14) (size 15 to 20)
#    0.000    1.667    3.333    1.000    0.000    6.667 
#    3.000    0.000    0.000    3.000    0.000    0.000 
#    0.000    0.000    0.000    0.000    0.000    0.000 
#
# Total GULP energy -297362.258463 kJ/mol
# GULP energy per Si atom -12390.094103 kJ/mol
# Density = 1.979843 g / cm^3
# Si number density = 19.843594 Si / 1000 Ang^3
#
#
#
# Elastic Constant Matrix: (Units=GPa)
#
#
# Indices 1 2 3 4 5 6 
#
# 1 115.5278 61.4192 52.5776 0.0000 -11.7716 0.0000
# 2 61.4192 132.1736 67.2609 0.0000 -11.2530 0.0000
# 3 52.5776 67.2609 140.1008 0.0000 -1.3620 0.0000
# 4 0.0000 0.0000 0.0000 41.8364 0.0000 -2.2800
# 5 -11.7716 -11.2530 -1.3620 0.0000 36.3839 0.0000
# 6 0.0000 0.0000 0.0000 -2.2800 0.0000 34.7120
#
#
#
# Elastic Compliance Matrix: (Units=1/GPa)
#
#
# Indices 1 2 3 4 5 6 
#
# 1 0.012326 -0.004189 -0.002589 0.000000 0.002595 0.000000
# 2 -0.004189 0.011755 -0.004051 0.000000 0.002129 0.000000
# 3 -0.002589 -0.004051 0.010037 0.000000 -0.001715 0.000000
# 4 0.000000 0.000000 0.000000 0.023989 0.000000 0.001576
# 5 0.002595 0.002129 -0.001715 0.000000 0.028919 0.000000
# 6 0.000000 0.000000 0.000000 0.001576 0.000000 0.028912
#
#
# Mechanical properties :
#
#
# Convention : Reuss Voigt Hill
#
# Bulk Modulus (GPa) = 80.25553 83.36862 81.81207
# Shear Modulus (GPa) = 35.27367 36.35608 35.81487
#
# Velocity S-wave (km/s) = 4.22071 4.28498 4.25297
# Velocity P-wave (km/s) = 8.01776 8.16000 8.08919
#
# Compressibility (1/GPa) = 0.01246020
#
# Stress axis : x y z
#
# Youngs Moduli (GPa) = 81.13018 85.07077 99.62674
#
# Poissons Ratio (x) = 0.35636 0.25797
# Poissons Ratio (y) = 0.33986 0.40355
# Poissons Ratio (z) = 0.21008 0.34459
#
# Static dielectric constant tensor:
#      x y z
#    x 3.556320 0.000000 -0.114390 
#    y 0.000000 3.764740 0.000000 
#    z -0.114390 0.000000 3.827990 
# 
# 
# High freq. dielectric constant tensor:
#      x y z
#    x 1.762320 0.000000 -0.008790 
#    y 0.000000 1.780700 0.000000 
#    z -0.008790 0.000000 1.784060 
# 
# From -- ./inp_files/247670.got.cif
#   From: 2010.06.25/outbox.cif.g09.slc.cpg/sg15_124_cif.got.tgz:247670.got - 2010.06.28 07:06:18.
