data_PCOD8139982
_publ_section_title
;
Structure prediction by ZEFSAII (Michael W. Deem and Ramdas Pophale) SiO2 
 PCOD8139982
Probable space group: C 2/C
;
_chemical_formula_sum "Si O2"
_cell_formula_units_Z 56
_cell_length_a 9.984811
_cell_length_b 12.213736
_cell_length_c 25.769839
_cell_angle_alpha 90.000000
_cell_angle_beta 127.828382
_cell_angle_gamma 90.000000
_cell_volume 2482.249450
_symmetry_space_group_name_H-M "C 2/C"
_symmetry_group_IT_number 15
_symmetry_cell_setting 'monoclinic'
loop_
_space_group_symop_operation_xyz
x,y,z
-x,y,1/2-z
-x,-y,-z
x,-y,1/2+z
1/2+x,1/2+y,z
1/2-x,1/2+y,1/2-z
1/2-x,1/2-y,-z
1/2+x,1/2-y,1/2+z
loop_
_atom_site_type_symbol
_atom_site_label
_atom_site_fract_x
_atom_site_fract_y
_atom_site_fract_z
Si Si1 0.170659 0.241746 0.766172
Si Si2 0.395630 0.055987 0.849605
Si Si3 0.429800 0.663492 0.863273
Si Si4 0.319629 0.015310 0.224345
Si Si5 0.691025 0.098053 0.561254
Si Si6 0.252124 0.011450 0.529114
Si Si7 0.502594 0.682281 0.994569
O O1 0.341316 0.180592 0.824063
O O2 0.155869 0.243190 0.699685
O O3 0.191329 0.360279 0.796596
O O4 0.000000 0.186771 0.750000
O O5 0.330839 0.026671 0.891794
O O6 0.598001 0.038200 0.894771
O O7 0.305081 0.984336 0.783661
O O8 0.336148 0.546325 0.839319
O O9 0.624923 0.650660 0.895659
O O10 0.414551 0.708734 0.918028
O O11 0.500000 0.962510 0.250000
O O12 0.558497 0.200450 0.530521
O O13 0.667191 0.011213 0.508660
O O14 0.127866 0.117248 0.498746
O O15 0.162095 0.898929 0.524725
#
# Coordination Sequence:
#
# PCOD8139982 Si02
#       7
#     8   8   8   8   8   8   8
#     4  10  21  40  65  91 117 170 214 263 319 384
#     4  11  23  38  66  92 135 161 215 271 328 394
#     4  10  20  40  64  92 129 154 224 270 313 401
#     4  10  23  39  67  93 120 172 217 273 327 378
#     4  11  23  40  66  95 129 176 212 268 338 397
#     4  10  22  41  61  97 130 164 216 273 323 398
#     4  10  23  40  68  93 126 175 218 268 335 394
#
# _framework density 22.560182999999999
#
# number of rings (size 3 to 8) (size 9 to 14) (size 15 to 20)
#    0.000    1.714    1.429    3.000    4.000    4.000 
#    0.000    1.429   18.857    0.000    0.000    0.000 
#    0.000    0.000    0.000    0.000    0.000    0.000 
#
# Total GULP energy -347086.843936 kJ/mol
# GULP energy per Si atom -12395.958712 kJ/mol
# Density = 2.250884 g / cm^3
# Si number density = 22.560183 Si / 1000 Ang^3
#
#
#
# Elastic Constant Matrix: (Units=GPa)
#
#
# Indices 1 2 3 4 5 6 
#
# 1 51.3557 26.8757 21.8566 0.0000 -11.7478 0.0000
# 2 26.8757 65.4972 17.8361 0.0000 8.6108 0.0000
# 3 21.8566 17.8361 100.7644 0.0000 0.4611 0.0000
# 4 0.0000 0.0000 0.0000 21.7560 0.0000 6.7677
# 5 -11.7478 8.6108 0.4611 0.0000 35.9168 0.0000
# 6 0.0000 0.0000 0.0000 6.7677 0.0000 29.5183
#
#
#
# Elastic Compliance Matrix: (Units=1/GPa)
#
#
# Indices 1 2 3 4 5 6 
#
# 1 0.031593 -0.013525 -0.004521 0.000000 0.013634 0.000000
# 2 -0.013525 0.022370 -0.000981 0.000000 -0.009774 0.000000
# 3 -0.004521 -0.000981 0.011085 0.000000 -0.001386 0.000000
# 4 0.000000 0.000000 0.000000 0.049494 0.000000 -0.011348
# 5 0.013634 -0.009774 -0.001386 0.000000 0.034663 0.000000
# 6 0.000000 0.000000 0.000000 -0.011348 0.000000 0.036479
#
#
# Mechanical properties :
#
#
# Convention : Reuss Voigt Hill
#
# Bulk Modulus (GPa) = 37.04664 38.97266 38.00965
# Shear Modulus (GPa) = 21.48360 27.50814 24.49587
#
# Velocity S-wave (km/s) = 3.08925 3.49567 3.29872
# Velocity P-wave (km/s) = 5.40199 5.79702 5.60299
#
# Compressibility (1/GPa) = 0.02699300
#
# Stress axis : x y z
#
# Youngs Moduli (GPa) = 31.65261 44.70319 90.21329
#
# Poissons Ratio (x) = 0.60461 0.40787
# Poissons Ratio (y) = 0.42810 0.08852
# Poissons Ratio (z) = 0.14311 0.04386
#
# Static dielectric constant tensor:
#      x y z
#    x 4.166450 0.000000 -0.102870 
#    y 0.000000 3.750150 0.000000 
#    z -0.102870 0.000000 4.276170 
# 
# 
# High freq. dielectric constant tensor:
#      x y z
#    x 1.884480 0.000000 -0.004160 
#    y 0.000000 1.864580 0.000000 
#    z -0.004160 0.000000 1.904770 
# 
# From -- ./inp_files/292311.got.cif
#   From: 2010.06.25/outbox.cif.g09.slc.cpg/sg15_147_cif.got.tgz:292311.got - 2010.06.28 07:06:18.
