data_PCOD8139354
_publ_section_title
;
Structure prediction by ZEFSAII (Michael W. Deem and Ramdas Pophale) SiO2 
 PCOD8139354
Probable space group: C 2/C
;
_chemical_formula_sum "Si O2"
_cell_formula_units_Z 48
_cell_length_a 6.336161
_cell_length_b 25.786667
_cell_length_c 13.187040
_cell_angle_alpha 90.000000
_cell_angle_beta 129.185583
_cell_angle_gamma 90.000000
_cell_volume 1670.046011
_symmetry_space_group_name_H-M "C 2/C"
_symmetry_group_IT_number 15
_symmetry_cell_setting 'monoclinic'
loop_
_space_group_symop_operation_xyz
x,y,z
-x,y,1/2-z
-x,-y,-z
x,-y,1/2+z
1/2+x,1/2+y,z
1/2-x,1/2+y,1/2-z
1/2-x,1/2-y,-z
1/2+x,1/2-y,1/2+z
loop_
_atom_site_type_symbol
_atom_site_label
_atom_site_fract_x
_atom_site_fract_y
_atom_site_fract_z
Si Si1 0.226328 0.424003 0.714531
Si Si2 0.949937 0.097451 0.484957
Si Si3 0.186745 0.277920 0.191989
Si Si4 0.488398 0.114468 0.949180
Si Si5 0.017688 0.213618 0.974867
Si Si6 0.736248 0.458480 0.232038
O O1 0.500000 0.398941 0.750000
O O2 0.203812 0.413767 0.830310
O O3 0.981251 0.397505 0.571170
O O4 0.249163 0.485880 0.710950
O O5 0.913836 0.153826 0.525866
O O6 0.220399 0.094048 0.498420
O O7 0.978224 0.052628 0.579661
O O8 0.500000 0.279228 0.250000
O O9 0.023401 0.227503 0.097359
O O10 0.222477 0.276296 0.328091
O O11 0.030180 0.326416 0.094267
O O12 0.237597 0.082106 0.825948
O O13 0.250000 0.250000 0.000000
O O14 0.000000 0.444218 0.250000
#
# Coordination Sequence:
#
# PCOD8139354 Si02
#       6
#     8   8   8   8   8   8
#     4  10  22  39  61  95 127 163 213 263 306 375
#     4  10  21  40  63  86 126 169 204 259 314 376
#     4  10  22  40  60  90 121 160 204 260 315 373
#     4  10  21  39  63  88 126 164 210 252 317 375
#     4  10  22  41  61  87 125 157 206 258 312 375
#     4  10  20  39  60  90 126 168 213 254 316 377
#
# _framework density 28.741724999999999
#
# number of rings (size 3 to 8) (size 9 to 14) (size 15 to 20)
#    0.000    2.000    1.667    1.000    2.333    1.333 
#    6.000    0.000    0.000    0.000    0.000    0.000 
#    0.000    0.000    0.000    0.000    0.000    0.000 
#
# Total GULP energy -297449.793964 kJ/mol
# GULP energy per Si atom -12393.741415 kJ/mol
# Density = 2.867631 g / cm^3
# Si number density = 28.741725 Si / 1000 Ang^3
#
#
#
# Elastic Constant Matrix: (Units=GPa)
#
#
# Indices 1 2 3 4 5 6 
#
# 1 65.9326 -6.5114 56.4982 0.0000 -15.9085 0.0000
# 2 -6.5114 129.4324 78.8849 0.0000 -5.4273 0.0000
# 3 56.4982 78.8849 277.9717 0.0000 1.1338 0.0000
# 4 0.0000 0.0000 0.0000 65.7218 0.0000 -7.9266
# 5 -15.9085 -5.4273 1.1338 0.0000 53.3304 0.0000
# 6 0.0000 0.0000 0.0000 -7.9266 0.0000 18.2179
#
#
#
# Elastic Compliance Matrix: (Units=1/GPa)
#
#
# Indices 1 2 3 4 5 6 
#
# 1 0.022715 0.005183 -0.006118 0.000000 0.007434 0.000000
# 2 0.005183 0.010579 -0.004067 0.000000 0.002709 0.000000
# 3 -0.006118 -0.004067 0.006005 0.000000 -0.002367 0.000000
# 4 0.000000 0.000000 0.000000 0.016058 0.000000 0.006987
# 5 0.007434 0.002709 -0.002367 0.000000 0.021294 0.000000
# 6 0.000000 0.000000 0.000000 0.006987 0.000000 0.057931
#
#
# Mechanical properties :
#
#
# Convention : Reuss Voigt Hill
#
# Bulk Modulus (GPa) = 34.13477 81.23113 57.68295
# Shear Modulus (GPa) = 32.39366 50.41836 41.40601
#
# Velocity S-wave (km/s) = 3.36081 4.19285 3.79967
# Velocity P-wave (km/s) = 5.19252 7.19470 6.27399
#
# Compressibility (1/GPa) = 0.02929565
#
# Stress axis : x y z
#
# Youngs Moduli (GPa) = 44.02336 94.52743 166.53464
#
# Poissons Ratio (x) = -0.48996 1.01889
# Poissons Ratio (y) = -0.22818 0.67725
# Poissons Ratio (z) = 0.26934 0.38442
#
# Static dielectric constant tensor:
#      x y z
#    x 6.208990 0.000000 -0.762960 
#    y 0.000000 4.776490 0.000000 
#    z -0.762960 0.000000 7.385430 
# 
# 
# High freq. dielectric constant tensor:
#      x y z
#    x 2.230790 0.000000 0.005500 
#    y 0.000000 2.127730 0.000000 
#    z 0.005500 0.000000 2.210450 
# 
# From -- ./inp_files/139012.got.cif
#   From: 2010.06.25/outbox.cif.g09.slc.cpg/sg15_70_cif.got.tgz:139012.got - 2010.06.28 07:06:18.
