data_PCOD8139422
_publ_section_title
;
Structure prediction by ZEFSAII (Michael W. Deem and Ramdas Pophale) SiO2 
 PCOD8139422
Probable space group: C 2/C
;
_chemical_formula_sum "Si O2"
_cell_formula_units_Z 48
_cell_length_a 17.913325
_cell_length_b 14.252032
_cell_length_c 14.778512
_cell_angle_alpha 90.000000
_cell_angle_beta 36.153105
_cell_angle_gamma 90.000000
_cell_volume 2225.846566
_symmetry_space_group_name_H-M "C 2/C"
_symmetry_group_IT_number 15
_symmetry_cell_setting 'monoclinic'
loop_
_space_group_symop_operation_xyz
x,y,z
-x,y,1/2-z
-x,-y,-z
x,-y,1/2+z
1/2+x,1/2+y,z
1/2-x,1/2+y,1/2-z
1/2-x,1/2-y,-z
1/2+x,1/2-y,1/2+z
loop_
_atom_site_type_symbol
_atom_site_label
_atom_site_fract_x
_atom_site_fract_y
_atom_site_fract_z
Si Si1 0.197483 0.521531 0.860655
Si Si2 0.819972 0.572298 0.823259
Si Si3 0.085237 0.765150 0.819132
Si Si4 0.973418 0.609848 0.179289
Si Si5 0.653089 0.185720 0.356753
Si Si6 0.377781 0.549910 0.326596
O O1 0.238340 0.553812 0.720176
O O2 0.135142 0.417540 0.919346
O O3 0.318228 0.518726 0.809206
O O4 0.097893 0.597487 0.995348
O O5 0.891627 0.671064 0.760285
O O6 0.917806 0.492160 0.754381
O O7 0.713565 0.573896 0.002317
O O8 0.204037 0.777634 0.771732
O O9 0.076706 0.852590 0.761147
O O10 0.949747 0.757588 0.001593
O O11 0.874208 0.676018 0.223683
O O12 0.000000 0.658380 0.250000
O O13 0.500000 0.498481 0.250000
#
# Coordination Sequence:
#
# PCOD8139422 Si02
#       6
#     8   8   8   8   8   8
#     4  10  20  39  62  86 114 161 210 246 283 349
#     4  11  20  36  63  85 117 159 203 250 289 351
#     4  11  21  37  58  86 130 156 191 245 308 368
#     4  11  19  37  67  86 107 155 220 255 273 344
#     4  10  21  37  60  88 120 161 197 243 309 352
#     4  11  24  36  53  94 126 155 193 241 318 365
#
# _framework density 21.564827999999999
#
# number of rings (size 3 to 8) (size 9 to 14) (size 15 to 20)
#    0.000    1.333    5.000    2.500    0.000    2.667 
#    0.000    2.500    0.000    0.000    0.000    0.000 
#    0.000    0.000    0.000    0.000    0.000    0.000 
#
# Total GULP energy -297583.792206 kJ/mol
# GULP energy per Si atom -12399.324675 kJ/mol
# Density = 2.151575 g / cm^3
# Si number density = 21.564828 Si / 1000 Ang^3
#
#
#
# Elastic Constant Matrix: (Units=GPa)
#
#
# Indices 1 2 3 4 5 6 
#
# 1 146.5400 -4.9549 29.0000 0.0000 2.3092 0.0000
# 2 -4.9549 29.3859 -0.4372 0.0000 0.0350 0.0000
# 3 29.0000 -0.4372 18.4415 0.0000 5.0068 0.0000
# 4 0.0000 0.0000 0.0000 20.8772 0.0000 -6.0406
# 5 2.3092 0.0350 5.0068 0.0000 36.8244 0.0000
# 6 0.0000 0.0000 0.0000 -6.0406 0.0000 16.1942
#
#
#
# Elastic Compliance Matrix: (Units=1/GPa)
#
#
# Indices 1 2 3 4 5 6 
#
# 1 0.010055 0.001453 -0.016204 0.000000 0.001571 0.000000
# 2 0.001453 0.034253 -0.001494 0.000000 0.000079 0.000000
# 3 -0.016204 -0.001494 0.082439 0.000000 -0.010191 0.000000
# 4 0.000000 0.000000 0.000000 0.053694 0.000000 0.020028
# 5 0.001571 0.000079 -0.010191 0.000000 0.028443 0.000000
# 6 0.000000 0.000000 0.000000 0.020028 0.000000 0.069221
#
#
# Mechanical properties :
#
#
# Convention : Reuss Voigt Hill
#
# Bulk Modulus (GPa) = 10.60945 26.84258 18.72602
# Shear Modulus (GPa) = 14.61924 26.16313 20.39119
#
# Velocity S-wave (km/s) = 2.60652 3.48693 3.07836
# Velocity P-wave (km/s) = 3.74019 5.35593 4.61925
#
# Compressibility (1/GPa) = 0.09425559
#
# Stress axis : x y z
#
# Youngs Moduli (GPa) = 99.45035 29.19492 12.13014
#
# Poissons Ratio (x) = -0.04241 0.19656
# Poissons Ratio (y) = -0.14446 0.01812
# Poissons Ratio (z) = 1.61154 0.04361
#
# Static dielectric constant tensor:
#      x y z
#    x 4.253530 0.000000 -0.036220 
#    y 0.000000 3.667590 0.000000 
#    z -0.036220 0.000000 3.737340 
# 
# 
# High freq. dielectric constant tensor:
#      x y z
#    x 1.863660 0.000000 0.001380 
#    y 0.000000 1.817210 0.000000 
#    z 0.001380 0.000000 1.835260 
# 
# From -- ./inp_files/162141.got.cif
#   From: 2010.06.25/outbox.cif.g09.slc.cpg/sg15_82_cif.got.tgz:162141.got - 2010.06.28 07:06:18.
