data_PCOD8139577
_publ_section_title
;
Structure prediction by ZEFSAII (Michael W. Deem and Ramdas Pophale) SiO2 
 PCOD8139577
Probable space group: C 2/C
;
_chemical_formula_sum "Si O2"
_cell_formula_units_Z 52
_cell_length_a 7.844010
_cell_length_b 11.779267
_cell_length_c 27.899872
_cell_angle_alpha 90.000000
_cell_angle_beta 113.412611
_cell_angle_gamma 90.000000
_cell_volume 2365.613662
_symmetry_space_group_name_H-M "C 2/C"
_symmetry_group_IT_number 15
_symmetry_cell_setting 'monoclinic'
loop_
_space_group_symop_operation_xyz
x,y,z
-x,y,1/2-z
-x,-y,-z
x,-y,1/2+z
1/2+x,1/2+y,z
1/2-x,1/2+y,1/2-z
1/2-x,1/2-y,-z
1/2+x,1/2-y,1/2+z
loop_
_atom_site_type_symbol
_atom_site_label
_atom_site_fract_x
_atom_site_fract_y
_atom_site_fract_z
Si Si1 0.500000 0.398091 0.250000
Si Si2 0.192524 0.603497 0.130317
Si Si3 0.687618 0.858802 0.366429
Si Si4 0.956760 0.900049 0.144882
Si Si5 0.890241 0.499728 0.785541
Si Si6 0.392216 0.961618 0.044318
Si Si7 0.213330 0.646570 0.530866
O O1 0.449060 0.329679 0.195188
O O2 0.324342 0.472670 0.248804
O O3 0.270165 0.726237 0.126729
O O4 0.368631 0.521042 0.147062
O O5 0.105290 0.601612 0.174426
O O6 0.037338 0.560821 0.075836
O O7 0.486853 0.888967 0.321418
O O8 0.712160 0.905870 0.422924
O O9 0.834696 0.921851 0.349112
O O10 0.849128 0.833275 0.091129
O O11 0.000000 0.461990 0.750000
O O12 0.502871 0.862147 0.028115
O O13 0.247004 0.027406 0.993178
O O14 0.250000 0.750000 0.500000
#
# Coordination Sequence:
#
# PCOD8139577 Si02
#       7
#     4   8   8   8   8   8   8
#     4  10  20  42  66  90 136 168 210 272 318 384
#     4   9  21  40  61  91 129 166 213 263 322 389
#     4  11  21  40  66  94 127 172 217 262 333 388
#     4  10  21  38  63  90 130 165 212 271 313 386
#     4  10  20  41  64  91 132 169 213 276 320 377
#     4   9  21  39  62  91 130 165 209 276 317 383
#     4  10  20  39  64  92 127 171 215 267 331 387
#
# _framework density 21.98161
#
# number of rings (size 3 to 8) (size 9 to 14) (size 15 to 20)
#    0.000    2.154    1.538    1.846    0.000    1.846 
#    6.923   18.462    0.000    0.000    0.000    0.000 
#    0.000    0.000    0.000    0.000    0.000    0.000 
#
# Total GULP energy -322095.039457 kJ/mol
# GULP energy per Si atom -12388.270748 kJ/mol
# Density = 2.193158 g / cm^3
# Si number density = 21.981610 Si / 1000 Ang^3
#
#
#
# Elastic Constant Matrix: (Units=GPa)
#
#
# Indices 1 2 3 4 5 6 
#
# 1 119.8167 33.0562 49.6230 0.0000 -26.9776 0.0000
# 2 33.0562 84.3567 39.8502 0.0000 -15.4816 0.0000
# 3 49.6230 39.8502 159.9839 0.0000 -32.4531 0.0000
# 4 0.0000 0.0000 0.0000 11.0071 0.0000 -1.5439
# 5 -26.9776 -15.4816 -32.4531 0.0000 49.9032 0.0000
# 6 0.0000 0.0000 0.0000 -1.5439 0.0000 29.1013
#
#
#
# Elastic Compliance Matrix: (Units=1/GPa)
#
#
# Indices 1 2 3 4 5 6 
#
# 1 0.010696 -0.002603 -0.001912 0.000000 0.003731 0.000000
# 2 -0.002603 0.014301 -0.002465 0.000000 0.001426 0.000000
# 3 -0.001912 -0.002465 0.008171 0.000000 0.003515 0.000000
# 4 0.000000 0.000000 0.000000 0.091531 0.000000 0.004856
# 5 0.003731 0.001426 0.003515 0.000000 0.024784 0.000000
# 6 0.000000 0.000000 0.000000 0.004856 0.000000 0.034620
#
#
# Mechanical properties :
#
#
# Convention : Reuss Voigt Hill
#
# Bulk Modulus (GPa) = 52.06735 67.69069 59.87902
# Shear Modulus (GPa) = 24.45361 34.11085 29.28223
#
# Velocity S-wave (km/s) = 3.33897 3.94355 3.65379
# Velocity P-wave (km/s) = 6.21315 7.18307 6.71564
#
# Compressibility (1/GPa) = 0.01920589
#
# Stress axis : x y z
#
# Youngs Moduli (GPa) = 93.48889 69.92543 122.38448
#
# Poissons Ratio (x) = 0.18204 0.23405
# Poissons Ratio (y) = 0.24338 0.30173
# Poissons Ratio (z) = 0.17879 0.17240
#
# Static dielectric constant tensor:
#      x y z
#    x 4.169730 0.000000 -0.181540 
#    y 0.000000 3.389270 0.000000 
#    z -0.181540 0.000000 4.506500 
# 
# 
# High freq. dielectric constant tensor:
#      x y z
#    x 1.871470 0.000000 -0.018500 
#    y 0.000000 1.814560 0.000000 
#    z -0.018500 0.000000 1.895220 
# 
# From -- ./inp_files/307290.got.cif
#   From: 2010.06.25/outbox.cif.g09.slc.cpg/sg15_154_cif.got.tgz:307290.got - 2010.06.28 07:06:18.
