data_PCOD8139608
_publ_section_title
;
Structure prediction by ZEFSAII (Michael W. Deem and Ramdas Pophale) SiO2 
 PCOD8139608
Probable space group: C 2/C
;
_chemical_formula_sum "Si O2"
_cell_formula_units_Z 64
_cell_length_a 14.578000
_cell_length_b 29.321736
_cell_length_c 9.885011
_cell_angle_alpha 90.000000
_cell_angle_beta 134.215145
_cell_angle_gamma 90.000000
_cell_volume 3028.434072
_symmetry_space_group_name_H-M "C 2/C"
_symmetry_group_IT_number 15
_symmetry_cell_setting 'monoclinic'
loop_
_space_group_symop_operation_xyz
x,y,z
-x,y,1/2-z
-x,-y,-z
x,-y,1/2+z
1/2+x,1/2+y,z
1/2-x,1/2+y,1/2-z
1/2-x,1/2-y,-z
1/2+x,1/2-y,1/2+z
loop_
_atom_site_type_symbol
_atom_site_label
_atom_site_fract_x
_atom_site_fract_y
_atom_site_fract_z
Si Si1 0.692654 0.703251 0.890757
Si Si2 0.797722 0.514909 0.331786
Si Si3 0.024360 0.569164 0.435737
Si Si4 0.658305 0.843435 0.178585
Si Si5 0.133919 0.980831 0.928283
Si Si6 0.446235 0.683293 0.500534
Si Si7 0.081285 0.881079 0.958536
Si Si8 0.120168 0.252406 0.283984
O O1 0.798949 0.674162 0.924047
O O2 0.570700 0.713640 0.669538
O O3 0.750000 0.750000 0.000000
O O4 0.645776 0.672460 0.968263
O O5 0.858652 0.465751 0.425441
O O6 0.722294 0.530747 0.388842
O O7 0.903882 0.551653 0.398643
O O8 0.704611 0.512864 0.107367
O O9 0.058751 0.616341 0.545249
O O10 0.000000 0.574905 0.250000
O O11 0.777461 0.859865 0.392037
O O12 0.592989 0.802289 0.193018
O O13 0.093308 0.935137 0.965300
O O14 0.000000 0.005306 0.750000
O O15 0.497215 0.634333 0.501223
O O16 0.365051 0.713749 0.314164
O O17 0.000000 0.861209 0.750000
O O18 0.250000 0.250000 0.500000
O O19 0.000000 0.238601 0.250000
#
# Coordination Sequence:
#
# PCOD8139608 Si02
#       8
#     8   8   8   8   8   8   8   8
#     4  10  20  39  65  90 128 177 227 276 340 408
#     4  11  23  46  73 100 139 185 227 288 372 423
#     4  11  24  44  68  98 143 182 225 291 358 431
#     4  11  23  41  64 101 133 174 236 287 333 422
#     4  11  23  43  75 103 134 179 234 289 347 436
#     4  10  21  39  64  91 131 183 217 281 347 394
#     4  10  21  41  63  94 137 169 222 284 338 403
#     4  12  25  42  66  94 133 183 230 283 342 411
#
# _framework density 21.133033000000001
#
# number of rings (size 3 to 8) (size 9 to 14) (size 15 to 20)
#    0.000    1.250    3.750    3.000    0.000    2.000 
#    4.500    0.000    0.000    0.000    0.000    0.000 
#    0.000    0.000    0.000    0.000    0.000    0.000 
#
# Total GULP energy -396761.879167 kJ/mol
# GULP energy per Si atom -12398.808724 kJ/mol
# Density = 2.108493 g / cm^3
# Si number density = 21.133033 Si / 1000 Ang^3
#
#
#
# Elastic Constant Matrix: (Units=GPa)
#
#
# Indices 1 2 3 4 5 6 
#
# 1 106.1062 37.5553 46.8523 0.0000 -5.9641 0.0000
# 2 37.5553 97.2916 40.5176 0.0000 -0.2227 0.0000
# 3 46.8523 40.5176 131.3330 0.0000 1.7104 0.0000
# 4 0.0000 0.0000 0.0000 31.1399 0.0000 -3.1722
# 5 -5.9641 -0.2227 1.7104 0.0000 31.3150 0.0000
# 6 0.0000 0.0000 0.0000 -3.1722 0.0000 31.1797
#
#
#
# Elastic Compliance Matrix: (Units=1/GPa)
#
#
# Indices 1 2 3 4 5 6 
#
# 1 0.012225 -0.003309 -0.003373 0.000000 0.002489 0.000000
# 2 -0.003309 0.012692 -0.002730 0.000000 -0.000391 0.000000
# 3 -0.003373 -0.002730 0.009675 0.000000 -0.001190 0.000000
# 4 0.000000 0.000000 0.000000 0.032449 0.000000 0.003301
# 5 0.002489 -0.000391 -0.001190 0.000000 0.032470 0.000000
# 6 0.000000 0.000000 0.000000 0.003301 0.000000 0.032408
#
#
# Mechanical properties :
#
#
# Convention : Reuss Voigt Hill
#
# Bulk Modulus (GPa) = 63.41685 64.95347 64.18516
# Shear Modulus (GPa) = 32.05172 32.71397 32.38284
#
# Velocity S-wave (km/s) = 3.89866 3.93873 3.91875
# Velocity P-wave (km/s) = 7.09504 7.17545 7.13536
#
# Compressibility (1/GPa) = 0.01576868
#
# Stress axis : x y z
#
# Youngs Moduli (GPa) = 81.80136 78.79256 103.35677
#
# Poissons Ratio (x) = 0.26069 0.34860
# Poissons Ratio (y) = 0.27064 0.28217
# Poissons Ratio (z) = 0.27590 0.21511
#
# Static dielectric constant tensor:
#      x y z
#    x 4.566890 0.000000 0.077090 
#    y 0.000000 3.724480 0.000000 
#    z 0.077090 0.000000 4.206330 
# 
# 
# High freq. dielectric constant tensor:
#      x y z
#    x 1.831120 0.000000 -0.002370 
#    y 0.000000 1.813160 0.000000 
#    z -0.002370 0.000000 1.846760 
# 
# From -- ./inp_files/44879.got.cif
#   From: 2010.06.25/outbox.cif.g09.slc.cpg/sg15_23_cif.got.tgz:44879.got - 2010.06.28 07:06:18.
