data_PCOD8139926
_publ_section_title
;
Structure prediction by ZEFSAII (Michael W. Deem and Ramdas Pophale) SiO2 
 PCOD8139926
Probable space group: C 2/C
;
_chemical_formula_sum "Si O2"
_cell_formula_units_Z 44
_cell_length_a 13.811599
_cell_length_b 30.808259
_cell_length_c 7.474802
_cell_angle_alpha 90.000000
_cell_angle_beta 144.746541
_cell_angle_gamma 90.000000
_cell_volume 1835.832219
_symmetry_space_group_name_H-M "C 2/C"
_symmetry_group_IT_number 15
_symmetry_cell_setting 'monoclinic'
loop_
_space_group_symop_operation_xyz
x,y,z
-x,y,1/2-z
-x,-y,-z
x,-y,1/2+z
1/2+x,1/2+y,z
1/2-x,1/2+y,1/2-z
1/2-x,1/2-y,-z
1/2+x,1/2-y,1/2+z
loop_
_atom_site_type_symbol
_atom_site_label
_atom_site_fract_x
_atom_site_fract_y
_atom_site_fract_z
Si Si1 0.000000 0.742830 0.750000
Si Si2 0.681088 0.041677 0.460868
Si Si3 0.349683 0.535970 0.382176
Si Si4 0.773647 0.137153 0.584066
Si Si5 0.197445 0.307319 0.277942
Si Si6 0.844498 0.129820 0.288718
O O1 0.033272 0.713802 0.621689
O O2 0.837010 0.770688 0.462257
O O3 0.500000 0.025722 0.250000
O O4 0.679668 0.038527 0.244231
O O5 0.721881 0.090258 0.585174
O O6 0.836711 0.009847 0.759536
O O7 0.348442 0.578046 0.251469
O O8 0.500000 0.541853 0.750000
O O9 0.662463 0.172111 0.528283
O O10 0.746970 0.139711 0.329351
O O11 0.966942 0.147524 0.917622
O O12 0.254927 0.346388 0.492511
#
# Coordination Sequence:
#
# PCOD8139926 Si02
#       6
#     4   8   8   8   8   8
#     4  10  24  42  64 102 126 154 224 268 330 412
#     4  11  24  39  58  92 134 169 217 278 323 377
#     4  11  22  39  61  90 126 171 228 266 309 392
#     4  10  21  39  65  91 125 172 220 258 327 389
#     4  11  22  43  68  92 131 169 204 279 335 385
#     4  10  20  40  63  94 124 167 224 265 311 398
#
# _framework density 23.967334000000001
#
# number of rings (size 3 to 8) (size 9 to 14) (size 15 to 20)
#    0.000    1.455    5.455    1.091    2.545    2.909 
#    1.636    5.455    0.000    0.000    0.000    0.000 
#    0.000    0.000    0.000    0.000    0.000    0.000 
#
# Total GULP energy -272654.171182 kJ/mol
# GULP energy per Si atom -12393.371417 kJ/mol
# Density = 2.391278 g / cm^3
# Si number density = 23.967334 Si / 1000 Ang^3
#
#
#
# Elastic Constant Matrix: (Units=GPa)
#
#
# Indices 1 2 3 4 5 6 
#
# 1 118.6675 57.3645 5.2472 0.0000 -2.6133 0.0000
# 2 57.3645 134.7333 16.9174 0.0000 -3.0281 0.0000
# 3 5.2472 16.9174 38.7772 0.0000 5.2703 0.0000
# 4 0.0000 0.0000 0.0000 14.6139 0.0000 -1.6365
# 5 -2.6133 -3.0281 5.2703 0.0000 23.6916 0.0000
# 6 0.0000 0.0000 0.0000 -1.6365 0.0000 63.3480
#
#
#
# Elastic Compliance Matrix: (Units=1/GPa)
#
#
# Indices 1 2 3 4 5 6 
#
# 1 0.010628 -0.004576 0.000493 0.000000 0.000478 0.000000
# 2 -0.004576 0.009900 -0.003922 0.000000 0.001633 0.000000
# 3 0.000493 -0.003922 0.028350 0.000000 -0.006754 0.000000
# 4 0.000000 0.000000 0.000000 0.068627 0.000000 0.001773
# 5 0.000478 0.001633 -0.006754 0.000000 0.043973 0.000000
# 6 0.000000 0.000000 0.000000 0.001773 0.000000 0.015832
#
#
# Mechanical properties :
#
#
# Convention : Reuss Voigt Hill
#
# Bulk Modulus (GPa) = 30.42384 50.13737 40.28060
# Shear Modulus (GPa) = 24.47697 34.50729 29.49213
#
# Velocity S-wave (km/s) = 3.19919 3.79854 3.51167
# Velocity P-wave (km/s) = 5.13496 6.34058 5.76935
#
# Compressibility (1/GPa) = 0.03286897
#
# Stress axis : x y z
#
# Youngs Moduli (GPa) = 94.09350 101.01508 35.27296
#
# Poissons Ratio (x) = 0.46226 -0.01740
# Poissons Ratio (y) = 0.43058 0.13833
# Poissons Ratio (z) = -0.04643 0.39614
#
# Static dielectric constant tensor:
#      x y z
#    x 5.018770 0.000000 0.156420 
#    y 0.000000 4.442550 0.000000 
#    z 0.156420 0.000000 3.659270 
# 
# 
# High freq. dielectric constant tensor:
#      x y z
#    x 1.980100 0.000000 0.013570 
#    y 0.000000 1.955360 0.000000 
#    z 0.013570 0.000000 1.903840 
# 
# From -- ./inp_files/43714.got.cif
#   From: 2010.06.25/outbox.cif.g09.slc.cpg/sg15_22_cif.got.tgz:43714.got - 2010.06.28 07:06:18.
