data_PCOD8139866
_publ_section_title
;
Structure prediction by ZEFSAII (Michael W. Deem and Ramdas Pophale) SiO2 
 PCOD8139866
Probable space group: C 2/C
;
_chemical_formula_sum "Si O2"
_cell_formula_units_Z 52
_cell_length_a 26.501608
_cell_length_b 8.452092
_cell_length_c 19.325148
_cell_angle_alpha 90.000000
_cell_angle_beta 34.433350
_cell_angle_gamma 90.000000
_cell_volume 2447.661248
_symmetry_space_group_name_H-M "C 2/C"
_symmetry_group_IT_number 15
_symmetry_cell_setting 'monoclinic'
loop_
_space_group_symop_operation_xyz
x,y,z
-x,y,1/2-z
-x,-y,-z
x,-y,1/2+z
1/2+x,1/2+y,z
1/2-x,1/2+y,1/2-z
1/2-x,1/2-y,-z
1/2+x,1/2-y,1/2+z
loop_
_atom_site_type_symbol
_atom_site_label
_atom_site_fract_x
_atom_site_fract_y
_atom_site_fract_z
Si Si1 0.643853 0.593642 0.136798
Si Si2 0.750595 0.451931 0.645455
Si Si3 0.500000 0.355864 0.250000
Si Si4 0.518903 0.136491 0.804079
Si Si5 0.853821 0.845879 0.016665
Si Si6 0.925892 0.652491 0.457873
Si Si7 0.410230 0.431127 0.570290
O O1 0.723243 0.535895 0.096034
O O2 0.564174 0.465493 0.224343
O O3 0.612787 0.769322 0.200442
O O4 0.686469 0.604804 0.012099
O O5 0.789648 0.282432 0.623827
O O6 0.825167 0.585475 0.571171
O O7 0.661638 0.466939 0.790006
O O8 0.442964 0.253589 0.369094
O O9 0.500000 0.062444 0.750000
O O10 0.450695 0.276532 0.894442
O O11 0.501038 0.989312 0.876722
O O12 0.867713 0.994224 0.049872
O O13 0.932155 0.751084 0.522544
O O14 0.500000 0.500000 0.500000
#
# Coordination Sequence:
#
# PCOD8139866 Si02
#       7
#     8   8   4   8   8   8   8
#     4  11  20  41  67  95 128 181 214 267 341 403
#     4  11  25  40  64  96 134 171 223 274 336 395
#     4  12  20  38  68  94 136 166 218 268 334 384
#     4   9  17  35  63  89 126 165 214 266 318 384
#     4  10  20  40  62  88 128 171 217 266 328 399
#     4  11  23  40  64 100 133 167 219 288 318 390
#     4  12  24  45  66  91 130 184 223 270 341 400
#
# _framework density 21.244769999999999
#
# number of rings (size 3 to 8) (size 9 to 14) (size 15 to 20)
#    0.000    1.231    4.615    3.231    0.000    0.615 
#    0.000   10.000    0.000    0.000    0.000    0.000 
#    0.000    0.000    0.000    0.000    0.000    0.000 
#
# Total GULP energy -322161.897862 kJ/mol
# GULP energy per Si atom -12390.842225 kJ/mol
# Density = 2.119642 g / cm^3
# Si number density = 21.244770 Si / 1000 Ang^3
#
#
#
# Elastic Constant Matrix: (Units=GPa)
#
#
# Indices 1 2 3 4 5 6 
#
# 1 91.1808 37.6000 25.8315 -0.0024 0.9757 -0.0001
# 2 37.6000 93.7657 36.1098 -0.0083 2.2004 -0.0001
# 3 25.8315 36.1098 109.4136 -0.0135 -1.6320 0.0118
# 4 -0.0024 -0.0083 -0.0135 36.0300 0.0036 7.5547
# 5 0.9757 2.2004 -1.6320 0.0036 26.6898 0.0012
# 6 -0.0001 -0.0001 0.0118 7.5547 0.0012 37.5548
#
#
#
# Elastic Compliance Matrix: (Units=1/GPa)
#
#
# Indices 1 2 3 4 5 6 
#
# 1 0.013378 -0.004746 -0.001595 -0.000001 -0.000195 0.000001
# 2 -0.004746 0.013943 -0.003499 0.000002 -0.001190 0.000001
# 3 -0.001595 -0.003499 0.010686 0.000004 0.001000 -0.000004
# 4 -0.000001 0.000002 0.000004 0.028977 -0.000003 -0.005829
# 5 -0.000195 -0.001190 0.001000 -0.000003 0.037634 -0.000001
# 6 0.000001 0.000001 -0.000004 -0.005829 -0.000001 0.027800
#
#
# Mechanical properties :
#
#
# Convention : Reuss Voigt Hill
#
# Bulk Modulus (GPa) = 54.56249 54.82695 54.69472
# Shear Modulus (GPa) = 31.60401 33.04285 32.32343
#
# Velocity S-wave (km/s) = 3.86114 3.94806 3.90484
# Velocity P-wave (km/s) = 6.75400 6.82980 6.79200
#
# Compressibility (1/GPa) = 0.01832761
#
# Stress axis : x y z
#
# Youngs Moduli (GPa) = 74.74840 71.71869 93.58097
#
# Poissons Ratio (x) = 0.34036 0.14927
# Poissons Ratio (y) = 0.35474 0.32744
# Poissons Ratio (z) = 0.11923 0.25095
#
# Static dielectric constant tensor:
#      x y z
#    x 3.239950 -0.000010 -0.380660 
#    y -0.000010 4.022840 0.000010 
#    z -0.380660 0.000010 3.348460 
# 
# 
# High freq. dielectric constant tensor:
#      x y z
#    x 1.807570 0.000000 0.001450 
#    y 0.000000 1.838250 0.000000 
#    z 0.001450 0.000000 1.844550 
# 
# From -- ./inp_files/221865.got.cif
#   From: 2010.06.25/outbox.cif.g09.slc.cpg/sg15_111_cif.got.tgz:221865.got - 2010.06.28 07:06:18.
