data_PCOD8139060
_publ_section_title
;
Structure prediction by ZEFSAII (Michael W. Deem and Ramdas Pophale) SiO2 
 PCOD8139060
Probable space group: C 2/C
;
_chemical_formula_sum "Si O2"
_cell_formula_units_Z 52
_cell_length_a 9.746160
_cell_length_b 16.003387
_cell_length_c 22.496095
_cell_angle_alpha 90.000000
_cell_angle_beta 140.021558
_cell_angle_gamma 90.000000
_cell_volume 2254.370348
_symmetry_space_group_name_H-M "C 2/C"
_symmetry_group_IT_number 15
_symmetry_cell_setting 'monoclinic'
loop_
_space_group_symop_operation_xyz
x,y,z
-x,y,1/2-z
-x,-y,-z
x,-y,1/2+z
1/2+x,1/2+y,z
1/2-x,1/2+y,1/2-z
1/2-x,1/2-y,-z
1/2+x,1/2-y,1/2+z
loop_
_atom_site_type_symbol
_atom_site_label
_atom_site_fract_x
_atom_site_fract_y
_atom_site_fract_z
Si Si1 0.982232 0.767606 0.475723
Si Si2 0.805856 0.603717 0.444012
Si Si3 0.949324 0.187205 0.628745
Si Si4 0.000000 0.290966 0.750000
Si Si5 0.186098 0.083826 0.092888
Si Si6 0.492468 0.986577 0.895152
Si Si7 0.910190 0.996099 0.325349
O O1 0.928365 0.784157 0.389416
O O2 0.209470 0.720578 0.555086
O O3 0.980900 0.860308 0.505205
O O4 0.809293 0.705213 0.448029
O O5 0.925991 0.579998 0.422759
O O6 0.562037 0.572960 0.357360
O O7 0.924238 0.568503 0.542348
O O8 0.082630 0.231758 0.724691
O O9 0.952889 0.087510 0.638559
O O10 0.193097 0.351234 0.826528
O O11 0.312043 0.054078 0.076340
O O12 0.135330 0.005119 0.118617
O O13 0.301705 0.006988 0.785584
#
# Coordination Sequence:
#
# PCOD8139060 Si02
#       7
#     8   8   8   4   8   8   8
#     4  10  22  42  65  93 131 181 221 272 328 410
#     4  11  24  39  67 102 137 167 223 286 334 383
#     4  10  22  38  66  94 128 176 228 260 331 403
#     4  10  20  38  64  92 122 178 218 266 308 420
#     4  11  23  44  68  91 135 179 227 262 336 403
#     4  11  23  43  66  98 135 180 222 272 333 411
#     4  12  25  41  69 104 130 176 221 292 329 389
#
# _framework density 23.066307999999999
#
# number of rings (size 3 to 8) (size 9 to 14) (size 15 to 20)
#    0.000    1.231    1.538    6.000    6.462    3.077 
#    0.000    0.000    3.385    0.000    0.000    0.000 
#    0.000    0.000    0.000    0.000    0.000    0.000 
#
# Total GULP energy -322243.973341 kJ/mol
# GULP energy per Si atom -12393.998975 kJ/mol
# Density = 2.301381 g / cm^3
# Si number density = 23.066308 Si / 1000 Ang^3
#
#
#
# Elastic Constant Matrix: (Units=GPa)
#
#
# Indices 1 2 3 4 5 6 
#
# 1 65.3512 20.2092 27.3309 0.0000 -14.8363 0.0000
# 2 20.2092 98.2650 48.2138 0.0000 -6.7715 0.0000
# 3 27.3309 48.2138 88.0542 0.0001 -18.2922 0.0001
# 4 0.0000 0.0000 0.0001 33.6195 0.0000 -3.5050
# 5 -14.8363 -6.7715 -18.2922 0.0000 34.3983 0.0000
# 6 0.0000 0.0000 0.0001 -3.5050 0.0000 44.8503
#
#
#
# Elastic Compliance Matrix: (Units=1/GPa)
#
#
# Indices 1 2 3 4 5 6 
#
# 1 0.018661 -0.001622 -0.003708 0.000000 0.005758 0.000000
# 2 -0.001622 0.014123 -0.007641 0.000000 -0.001983 0.000000
# 3 -0.003708 -0.007641 0.018040 0.000000 0.006489 0.000000
# 4 0.000000 0.000000 0.000000 0.029989 0.000000 0.002344
# 5 0.005758 -0.001983 0.006489 0.000000 0.034615 0.000000
# 6 0.000000 0.000000 0.000000 0.002344 0.000000 0.022480
#
#
# Mechanical properties :
#
#
# Convention : Reuss Voigt Hill
#
# Bulk Modulus (GPa) = 40.19091 49.24200 44.71646
# Shear Modulus (GPa) = 29.04548 32.96806 31.00677
#
# Velocity S-wave (km/s) = 3.55239 3.78467 3.67037
# Velocity P-wave (km/s) = 5.85559 6.36339 6.11476
#
# Compressibility (1/GPa) = 0.02488125
#
# Stress axis : x y z
#
# Youngs Moduli (GPa) = 53.58655 70.80803 55.43318
#
# Poissons Ratio (x) = 0.11483 0.20556
# Poissons Ratio (y) = 0.08690 0.42359
# Poissons Ratio (z) = 0.19871 0.54107
#
# Static dielectric constant tensor:
#      x y z
#    x 4.569410 0.000000 -1.143540 
#    y 0.000000 4.411140 0.000000 
#    z -1.143540 0.000000 5.536580 
# 
# 
# High freq. dielectric constant tensor:
#      x y z
#    x 1.892810 0.000000 -0.027560 
#    y 0.000000 1.918560 0.000000 
#    z -0.027560 0.000000 1.916760 
# 
# From -- ./inp_files/233116.got.cif
#   From: 2010.06.25/outbox.cif.g09.slc.cpg/sg15_117_cif.got.tgz:233116.got - 2010.06.28 07:06:18.
