data_PCOD8139581
_publ_section_title
;
Structure prediction by ZEFSAII (Michael W. Deem and Ramdas Pophale) SiO2 
 PCOD8139581
Probable space group: C 2/C
;
_chemical_formula_sum "Si O2"
_cell_formula_units_Z 48
_cell_length_a 10.231846
_cell_length_b 9.749252
_cell_length_c 23.307413
_cell_angle_alpha 90.000000
_cell_angle_beta 106.507996
_cell_angle_gamma 90.000000
_cell_volume 2229.145259
_symmetry_space_group_name_H-M "C 2/C"
_symmetry_group_IT_number 15
_symmetry_cell_setting 'monoclinic'
loop_
_space_group_symop_operation_xyz
x,y,z
-x,y,1/2-z
-x,-y,-z
x,-y,1/2+z
1/2+x,1/2+y,z
1/2-x,1/2+y,1/2-z
1/2-x,1/2-y,-z
1/2+x,1/2-y,1/2+z
loop_
_atom_site_type_symbol
_atom_site_label
_atom_site_fract_x
_atom_site_fract_y
_atom_site_fract_z
Si Si1 0.247684 0.195921 0.815076
Si Si2 0.575131 0.149149 0.557177
Si Si3 0.469614 0.246724 0.130080
Si Si4 0.420245 0.628199 0.967865
Si Si5 0.366364 0.936078 0.769359
Si Si6 0.662424 0.963363 0.958256
O O1 0.363494 0.214652 0.878000
O O2 0.101020 0.165239 0.827565
O O3 0.235827 0.339550 0.779782
O O4 0.282947 0.071511 0.776795
O O5 0.462668 0.246020 0.513165
O O6 0.691509 0.101322 0.525474
O O7 0.493394 0.013491 0.564408
O O8 0.543276 0.344192 0.093586
O O9 0.586925 0.147860 0.169017
O O10 0.339818 0.161312 0.087572
O O11 0.261741 0.587881 0.953769
O O12 0.500000 0.500000 0.000000
O O13 0.500000 0.980580 0.750000
#
# Coordination Sequence:
#
# PCOD8139581 Si02
#       6
#     8   8   8   8   8   8
#     4  11  22  44  69  89 128 171 217 271 323 380
#     4  10  21  38  63  94 126 171 207 255 323 385
#     4  10  22  42  67  88 128 170 205 261 328 377
#     4  11  22  36  60 101 131 164 209 257 318 393
#     4  10  24  45  66  91 123 171 220 272 321 375
#     4  10  20  39  64  93 132 164 206 255 321 388
#
# _framework density 21.532917000000001
#
# number of rings (size 3 to 8) (size 9 to 14) (size 15 to 20)
#    0.000    1.667    1.667    2.500    0.000    6.667 
#    3.000    5.833    0.000    0.000    0.000    0.000 
#    0.000    0.000    0.000    0.000    0.000    0.000 
#
# Total GULP energy -297488.462037 kJ/mol
# GULP energy per Si atom -12395.352585 kJ/mol
# Density = 2.148391 g / cm^3
# Si number density = 21.532917 Si / 1000 Ang^3
#
#
#
# Elastic Constant Matrix: (Units=GPa)
#
#
# Indices 1 2 3 4 5 6 
#
# 1 88.3755 58.8914 51.6275 0.0000 -16.4303 0.0000
# 2 58.8914 102.4321 49.0336 0.0000 -21.3724 0.0000
# 3 51.6275 49.0336 119.1875 0.0000 -12.8634 0.0000
# 4 0.0000 0.0000 0.0000 32.2645 0.0000 -4.6792
# 5 -16.4303 -21.3724 -12.8634 0.0000 29.8221 0.0000
# 6 0.0000 0.0000 0.0000 -4.6792 0.0000 49.1392
#
#
#
# Elastic Compliance Matrix: (Units=1/GPa)
#
#
# Indices 1 2 3 4 5 6 
#
# 1 0.020706 -0.008918 -0.004991 0.000000 0.002864 0.000000
# 2 -0.008918 0.017508 -0.002639 0.000000 0.006496 0.000000
# 3 -0.004991 -0.002639 0.011681 0.000000 0.000397 0.000000
# 4 0.000000 0.000000 0.000000 0.031428 0.000000 0.002993
# 5 0.002864 0.006496 0.000397 0.000000 0.039937 0.000000
# 6 0.000000 0.000000 0.000000 0.002993 0.000000 0.020635
#
#
# Mechanical properties :
#
#
# Convention : Reuss Voigt Hill
#
# Bulk Modulus (GPa) = 59.52669 69.90002 64.71335
# Shear Modulus (GPa) = 27.68684 32.27467 29.98075
#
# Velocity S-wave (km/s) = 3.58968 3.87570 3.73543
# Velocity P-wave (km/s) = 6.69967 7.24986 6.98019
#
# Compressibility (1/GPa) = 0.01679919
#
# Stress axis : x y z
#
# Youngs Moduli (GPa) = 48.29457 57.11565 85.61115
#
# Poissons Ratio (x) = 0.50935 0.42731
# Poissons Ratio (y) = 0.43068 0.22593
# Poissons Ratio (z) = 0.24105 0.15073
#
# Static dielectric constant tensor:
#      x y z
#    x 3.780960 0.000000 -0.326040 
#    y 0.000000 3.258680 0.000000 
#    z -0.326040 0.000000 4.168580 
# 
# 
# High freq. dielectric constant tensor:
#      x y z
#    x 1.835200 0.000000 -0.007370 
#    y 0.000000 1.842730 0.000000 
#    z -0.007370 0.000000 1.856270 
# 
# From -- ./inp_files/267777.got.cif
#   From: 2010.06.25/outbox.cif.g09.slc.cpg/sg15_134_cif.got.tgz:267777.got - 2010.06.28 07:06:18.
