data_PCOD8139619
_publ_section_title
;
Structure prediction by ZEFSAII (Michael W. Deem and Ramdas Pophale) SiO2 
 PCOD8139619
Probable space group: C 2/C
;
_chemical_formula_sum "Si O2"
_cell_formula_units_Z 36
_cell_length_a 16.920873
_cell_length_b 11.585291
_cell_length_c 24.215398
_cell_angle_alpha 90.000000
_cell_angle_beta 158.479467
_cell_angle_gamma 90.000000
_cell_volume 1741.372405
_symmetry_space_group_name_H-M "C 2/C"
_symmetry_group_IT_number 15
_symmetry_cell_setting 'monoclinic'
loop_
_space_group_symop_operation_xyz
x,y,z
-x,y,1/2-z
-x,-y,-z
x,-y,1/2+z
1/2+x,1/2+y,z
1/2-x,1/2+y,1/2-z
1/2-x,1/2-y,-z
1/2+x,1/2-y,1/2+z
loop_
_atom_site_type_symbol
_atom_site_label
_atom_site_fract_x
_atom_site_fract_y
_atom_site_fract_z
Si Si1 0.725673 0.213798 0.421435
Si Si2 0.210680 0.519364 0.956159
Si Si3 0.481965 0.080440 0.064816
Si Si4 0.329244 0.582018 0.206171
Si Si5 0.000000 0.716059 0.750000
O O1 0.500000 0.254511 0.250000
O O2 0.750000 0.250000 0.500000
O O3 0.909020 0.286165 0.509331
O O4 0.752956 0.074890 0.435018
O O5 0.140334 0.638666 0.882903
O O6 0.026490 0.467345 0.877601
O O7 0.427054 0.536695 0.132170
O O8 0.320515 0.001905 0.925513
O O9 0.726108 0.083986 0.200625
O O10 0.337037 0.706268 0.180674
#
# Coordination Sequence:
#
# PCOD8139619 Si02
#       5
#     8   8   8   8   4
#     4  10  20  39  65  92 126 167 213 266 318 376
#     4  11  22  43  65  91 130 168 211 265 317 381
#     4  10  22  41  66  95 124 167 217 255 323 386
#     4  11  23  41  66  93 128 171 208 262 321 391
#     4  12  24  42  64  92 134 170 212 258 328 376
#
# _framework density 20.673349000000002
#
# number of rings (size 3 to 8) (size 9 to 14) (size 15 to 20)
#    0.000    1.333    3.333    3.333    0.000    1.778 
#   12.000    2.222    0.000    0.000    0.000    0.000 
#    0.000    0.000    0.000    0.000    0.000    0.000 
#
# Total GULP energy -223079.387012 kJ/mol
# GULP energy per Si atom -12393.299278 kJ/mol
# Density = 2.062630 g / cm^3
# Si number density = 20.673349 Si / 1000 Ang^3
#
#
#
# Elastic Constant Matrix: (Units=GPa)
#
#
# Indices 1 2 3 4 5 6 
#
# 1 89.6185 57.4546 37.9313 0.0270 22.9866 -0.1205
# 2 57.4546 136.9168 16.8755 0.0042 11.7817 0.0722
# 3 37.9313 16.8755 59.5925 -0.0447 -0.8488 0.0506
# 4 0.0270 0.0042 -0.0447 22.8261 -0.0233 -19.9235
# 5 22.9866 11.7817 -0.8488 -0.0233 34.8378 0.0367
# 6 -0.1205 0.0722 0.0506 -19.9235 0.0367 16.0604
#
#
#
# Elastic Compliance Matrix: (Units=1/GPa)
#
#
# Indices 1 2 3 4 5 6 
#
# 1 0.026345 -0.007942 -0.014734 -0.002419 -0.015055 -0.002687
# 2 -0.007942 0.010207 0.002191 0.001064 0.001841 0.001203
# 3 -0.014734 0.002191 0.025675 0.001422 0.009605 0.001541
# 4 -0.002419 0.001064 0.001422 -0.528921 0.001610 -0.656178
# 5 -0.015055 0.001841 0.009605 0.001610 0.038248 0.001758
# 6 -0.002687 0.001203 0.001541 -0.656178 0.001758 -0.751785
#
#
# Mechanical properties :
#
#
# Convention : Reuss Voigt Hill
#
# Bulk Modulus (GPa) = 47.04339 56.73896 51.89118
# Shear Modulus (GPa) = -4.41628 26.33596 10.95984
#
# Velocity S-wave (km/s) = -1.46317 3.57306 2.30498
# Velocity P-wave (km/s) = 4.46660 6.67288 5.67793
#
# Compressibility (1/GPa) = 0.02125697
#
# Stress axis : x y z
#
# Youngs Moduli (GPa) = 37.95826 97.96838 38.94849
#
# Poissons Ratio (x) = 0.77808 0.57385
# Poissons Ratio (y) = 0.30147 -0.08533
# Poissons Ratio (z) = 0.55926 -0.21462
#
# Static dielectric constant tensor:
#      x y z
#    x 4.071210 -0.000040 0.143780 
#    y -0.000040 4.447650 -0.000190 
#    z 0.143780 -0.000190 3.551430 
# 
# 
# High freq. dielectric constant tensor:
#      x y z
#    x 1.802230 0.000000 -0.009730 
#    y 0.000000 1.826850 -0.000010 
#    z -0.009730 -0.000010 1.791830 
# 
# From -- ./inp_files/103993.got.cif
#   From: 2010.06.25/outbox.cif.g09.slc.cpg/sg15_52_cif.got.tgz:103993.got - 2010.06.28 07:06:18.
