data_PCOD8139799
_publ_section_title
;
Structure prediction by ZEFSAII (Michael W. Deem and Ramdas Pophale) SiO2 
 PCOD8139799
Probable space group: C 2/C
;
_chemical_formula_sum "Si O2"
_cell_formula_units_Z 44
_cell_length_a 7.272522
_cell_length_b 17.150715
_cell_length_c 20.465621
_cell_angle_alpha 90.000000
_cell_angle_beta 122.512560
_cell_angle_gamma 90.000000
_cell_volume 2152.587069
_symmetry_space_group_name_H-M "C 2/C"
_symmetry_group_IT_number 15
_symmetry_cell_setting 'monoclinic'
loop_
_space_group_symop_operation_xyz
x,y,z
-x,y,1/2-z
-x,-y,-z
x,-y,1/2+z
1/2+x,1/2+y,z
1/2-x,1/2+y,1/2-z
1/2-x,1/2-y,-z
1/2+x,1/2-y,1/2+z
loop_
_atom_site_type_symbol
_atom_site_label
_atom_site_fract_x
_atom_site_fract_y
_atom_site_fract_z
Si Si1 0.762893 0.567953 0.437618
Si Si2 0.696506 0.323563 0.336479
Si Si3 0.000000 0.429048 0.750000
Si Si4 0.159525 0.841759 0.601201
Si Si5 0.250625 0.979576 0.303604
Si Si6 0.258071 0.897666 0.476996
O O1 0.559597 0.624191 0.409639
O O2 0.789868 0.541496 0.367943
O O3 0.727910 0.491700 0.476843
O O4 0.986062 0.615771 0.493080
O O5 0.500000 0.299478 0.250000
O O6 0.844188 0.249013 0.380971
O O7 0.851120 0.392851 0.335711
O O8 0.614473 0.359768 0.390842
O O9 0.876193 0.378021 0.673421
O O10 0.827554 0.485274 0.750836
O O11 0.175991 0.856062 0.526999
O O12 0.000000 0.958684 0.250000
#
# Coordination Sequence:
#
# PCOD8139799 Si02
#       6
#     8   8   4   8   8   8
#     4  10  21  38  65  93 123 162 211 256 300 368
#     4  10  23  42  61  88 132 164 202 258 322 363
#     4  12  22  36  66  94 120 162 216 254 300 372
#     4  12  22  39  66  96 122 163 212 256 306 368
#     4  10  20  40  60  87 126 169 202 256 310 366
#     4  10  22  41  63  90 128 165 204 258 310 366
#
# _framework density 20.440521
#
# number of rings (size 3 to 8) (size 9 to 14) (size 15 to 20)
#    0.000    1.455    4.545    1.091    0.000    0.727 
#    0.000    5.455    0.000    0.000    0.000    0.000 
#    0.000    0.000    0.000    0.000    0.000    0.000 
#
# Total GULP energy -272646.077768 kJ/mol
# GULP energy per Si atom -12393.003535 kJ/mol
# Density = 2.039400 g / cm^3
# Si number density = 20.440521 Si / 1000 Ang^3
#
#
#
# Elastic Constant Matrix: (Units=GPa)
#
#
# Indices 1 2 3 4 5 6 
#
# 1 71.3734 43.9144 24.9135 0.0000 -0.1400 0.0000
# 2 43.9144 120.6256 29.5795 0.0000 -6.2566 0.0000
# 3 24.9135 29.5795 99.2330 0.0000 -16.3701 0.0000
# 4 0.0000 0.0000 0.0000 36.0946 0.0000 -3.0912
# 5 -0.1400 -6.2566 -16.3701 0.0000 29.8464 0.0000
# 6 0.0000 0.0000 0.0000 -3.0912 0.0000 1.8038
#
#
#
# Elastic Compliance Matrix: (Units=1/GPa)
#
#
# Indices 1 2 3 4 5 6 
#
# 1 0.019051 -0.006255 -0.003430 0.000000 -0.003103 0.000000
# 2 -0.006255 0.011003 -0.001466 0.000000 0.001473 0.000000
# 3 -0.003430 -0.001466 0.012449 0.000000 0.006504 0.000000
# 4 0.000000 0.000000 0.000000 0.032470 0.000000 0.055644
# 5 -0.003103 0.001473 0.006504 0.000000 0.037367 -0.000001
# 6 0.000000 0.000000 0.000000 0.055644 -0.000001 0.649739
#
#
# Mechanical properties :
#
#
# Convention : Reuss Voigt Hill
#
# Bulk Modulus (GPa) = 49.50805 54.22741 51.86773
# Shear Modulus (GPa) = 6.32019 26.40395 16.36207
#
# Velocity S-wave (km/s) = 1.76031 3.59799 2.83233
# Velocity P-wave (km/s) = 5.32961 6.62175 6.01051
#
# Compressibility (1/GPa) = 0.02019873
#
# Stress axis : x y z
#
# Youngs Moduli (GPa) = 52.49106 90.88093 80.33028
#
# Poissons Ratio (x) = 0.56849 0.27555
# Poissons Ratio (y) = 0.32835 0.11780
# Poissons Ratio (z) = 0.18006 0.13327
#
# Static dielectric constant tensor:
#      x y z
#    x 3.317520 0.000000 -0.074130 
#    y 0.000000 3.799510 0.000000 
#    z -0.074130 0.000000 4.178750 
# 
# 
# High freq. dielectric constant tensor:
#      x y z
#    x 1.763560 0.000000 -0.011010 
#    y 0.000000 1.804770 0.000000 
#    z -0.011010 0.000000 1.819380 
# 
# From -- ./inp_files/260926.got.cif
#   From: 2010.06.25/outbox.cif.g09.slc.cpg/sg15_131_cif.got.tgz:260926.got - 2010.06.28 07:06:18.
