data_PCOD8139443
_publ_section_title
;
Structure prediction by ZEFSAII (Michael W. Deem and Ramdas Pophale) SiO2 
 PCOD8139443
Probable space group: C 2/C
;
_chemical_formula_sum "Si O2"
_cell_formula_units_Z 40
_cell_length_a 16.748252
_cell_length_b 8.563499
_cell_length_c 19.322007
_cell_angle_alpha 90.000000
_cell_angle_beta 45.204525
_cell_angle_gamma 90.000000
_cell_volume 1966.539741
_symmetry_space_group_name_H-M "C 2/C"
_symmetry_group_IT_number 15
_symmetry_cell_setting 'monoclinic'
loop_
_space_group_symop_operation_xyz
x,y,z
-x,y,1/2-z
-x,-y,-z
x,-y,1/2+z
1/2+x,1/2+y,z
1/2-x,1/2+y,1/2-z
1/2-x,1/2-y,-z
1/2+x,1/2-y,1/2+z
loop_
_atom_site_type_symbol
_atom_site_label
_atom_site_fract_x
_atom_site_fract_y
_atom_site_fract_z
Si Si1 0.115833 0.618494 0.359878
Si Si2 0.566562 0.826322 0.638919
Si Si3 0.303639 0.586347 0.026765
Si Si4 0.316909 0.772276 0.162090
Si Si5 0.961500 0.148445 0.480414
O O1 0.207994 0.735487 0.273034
O O2 0.174037 0.458730 0.347386
O O3 0.065401 0.699918 0.457830
O O4 0.016919 0.591474 0.364487
O O5 0.500000 0.791412 0.750000
O O6 0.618704 0.663807 0.579705
O O7 0.673774 0.939948 0.584955
O O8 0.307351 0.698054 0.091683
O O9 0.352533 0.410448 0.005181
O O10 0.429334 0.701908 0.130858
O O11 0.000000 0.000000 0.500000
#
# Coordination Sequence:
#
# PCOD8139443 Si02
#       5
#     8   8   8   8   8
#     4  12  23  37  65  92 119 159 205 249 301 353
#     4  11  22  37  62  88 124 160 201 237 303 369
#     4  10  22  40  64  89 117 163 201 246 301 358
#     4  11  22  37  63  92 119 157 205 253 297 353
#     4  10  20  39  62  90 119 153 203 255 290 356
#
# _framework density 20.340295999999999
#
# number of rings (size 3 to 8) (size 9 to 14) (size 15 to 20)
#    0.000    1.200    6.000    3.000    0.000    0.000 
#    0.000    1.000    0.000    1.200    0.000    0.000 
#    0.000    0.000    0.000    0.000    0.000    0.000 
#
# Total GULP energy -247879.784887 kJ/mol
# GULP energy per Si atom -12393.989244 kJ/mol
# Density = 2.029400 g / cm^3
# Si number density = 20.340296 Si / 1000 Ang^3
#
#
#
# Elastic Constant Matrix: (Units=GPa)
#
#
# Indices 1 2 3 4 5 6 
#
# 1 113.5024 33.5516 37.2852 0.0000 -26.4736 0.0000
# 2 33.5516 76.0117 -6.1223 0.0000 -19.5943 0.0000
# 3 37.2852 -6.1223 82.4946 0.0000 -24.2834 0.0000
# 4 0.0000 0.0000 0.0000 30.0916 0.0000 -9.3031
# 5 -26.4736 -19.5943 -24.2834 0.0000 33.7160 0.0000
# 6 0.0000 0.0000 0.0000 -9.3031 0.0000 29.5103
#
#
#
# Elastic Compliance Matrix: (Units=1/GPa)
#
#
# Indices 1 2 3 4 5 6 
#
# 1 0.012842 -0.005249 -0.005233 0.000000 0.003265 0.000000
# 2 -0.005249 0.019290 0.007476 0.000000 0.012474 0.000000
# 3 -0.005233 0.007476 0.019177 0.000000 0.014048 0.000000
# 4 0.000000 0.000000 0.000000 0.036821 0.000000 0.011608
# 5 0.003265 0.012474 0.014048 0.000000 0.049590 0.000000
# 6 0.000000 0.000000 0.000000 0.011608 0.000000 0.037546
#
#
# Mechanical properties :
#
#
# Convention : Reuss Voigt Hill
#
# Bulk Modulus (GPa) = 22.07616 44.60420 33.34018
# Shear Modulus (GPa) = 25.46133 32.48319 28.97226
#
# Velocity S-wave (km/s) = 3.54187 4.00057 3.77819
# Velocity P-wave (km/s) = 5.25390 6.58149 5.95481
#
# Compressibility (1/GPa) = 0.04529774
#
# Stress axis : x y z
#
# Youngs Moduli (GPa) = 77.86775 51.83999 52.14577
#
# Poissons Ratio (x) = 0.27208 0.27287
# Poissons Ratio (y) = 0.40869 -0.38982
# Poissons Ratio (z) = 0.40747 -0.38753
#
# Static dielectric constant tensor:
#      x y z
#    x 4.304400 0.000000 -0.399900 
#    y 0.000000 3.750620 0.000000 
#    z -0.399900 0.000000 3.999030 
# 
# 
# High freq. dielectric constant tensor:
#      x y z
#    x 1.784410 0.000000 -0.030410 
#    y 0.000000 1.778540 0.000000 
#    z -0.030410 0.000000 1.811030 
# 
# From -- ./inp_files/125448.got.cif
#   From: 2010.06.25/outbox.cif.g09.slc.cpg/sg15_63_cif.got.tgz:125448.got - 2010.06.28 07:06:18.
