data_PCOD8139367
_publ_section_title
;
Structure prediction by ZEFSAII (Michael W. Deem and Ramdas Pophale) SiO2 
 PCOD8139367
Probable space group: C 2/C
;
_chemical_formula_sum "Si O2"
_cell_formula_units_Z 44
_cell_length_a 11.667018
_cell_length_b 14.175083
_cell_length_c 15.025997
_cell_angle_alpha 90.000000
_cell_angle_beta 114.355887
_cell_angle_gamma 90.000000
_cell_volume 2263.851018
_symmetry_space_group_name_H-M "C 2/C"
_symmetry_group_IT_number 15
_symmetry_cell_setting 'monoclinic'
loop_
_space_group_symop_operation_xyz
x,y,z
-x,y,1/2-z
-x,-y,-z
x,-y,1/2+z
1/2+x,1/2+y,z
1/2-x,1/2+y,1/2-z
1/2-x,1/2-y,-z
1/2+x,1/2-y,1/2+z
loop_
_atom_site_type_symbol
_atom_site_label
_atom_site_fract_x
_atom_site_fract_y
_atom_site_fract_z
Si Si1 0.351738 0.389571 0.803237
Si Si2 0.500000 0.235772 0.750000
Si Si3 0.365936 0.294686 0.984629
Si Si4 0.951182 0.944028 0.141633
Si Si5 0.810672 0.478690 0.889862
Si Si6 0.984108 0.364874 0.065193
O O1 0.390744 0.301865 0.753676
O O2 0.306604 0.354606 0.884854
O O3 0.465830 0.463759 0.853926
O O4 0.231938 0.434657 0.717398
O O5 0.552635 0.171386 0.847772
O O6 0.458357 0.216418 0.976863
O O7 0.250000 0.250000 0.000000
O O8 0.458228 0.361324 0.071799
O O9 0.000000 0.900540 0.250000
O O10 0.805282 0.971329 0.099153
O O11 0.916777 0.551322 0.894767
O O12 0.859650 0.401200 0.975611
#
# Coordination Sequence:
#
# PCOD8139367 Si02
#       6
#     8   4   8   8   8   8
#     4  10  21  40  61  83 116 155 195 235 285 347
#     4  10  20  40  58  86 112 148 198 238 278 338
#     4  11  22  38  59  89 119 149 193 241 287 339
#     4  10  20  39  61  83 116 154 193 234 285 349
#     4  10  20  41  59  84 118 154 189 235 294 344
#     4  10  23  38  59  86 119 150 190 242 290 341
#
# _framework density 19.435908999999999
#
# number of rings (size 3 to 8) (size 9 to 14) (size 15 to 20)
#    0.000    1.818    4.545    0.545    0.000    3.636 
#    3.273    0.000    0.000    0.000    0.000    0.000 
#    0.000    0.000    0.000    0.000    0.000    0.000 
#
# Total GULP energy -272782.968932 kJ/mol
# GULP energy per Si atom -12399.225861 kJ/mol
# Density = 1.939167 g / cm^3
# Si number density = 19.435909 Si / 1000 Ang^3
#
#
#
# Elastic Constant Matrix: (Units=GPa)
#
#
# Indices 1 2 3 4 5 6 
#
# 1 59.5339 17.7070 51.7309 0.0000 -8.6890 0.0000
# 2 17.7070 90.0196 72.1222 0.0000 -11.7069 0.0000
# 3 51.7309 72.1222 145.8987 0.0000 -12.3856 0.0000
# 4 0.0000 0.0000 0.0000 48.4145 0.0000 -7.6570
# 5 -8.6890 -11.7069 -12.3856 0.0000 38.0136 0.0000
# 6 0.0000 0.0000 0.0000 -7.6570 0.0000 8.7539
#
#
#
# Elastic Compliance Matrix: (Units=1/GPa)
#
#
# Indices 1 2 3 4 5 6 
#
# 1 0.025421 0.004044 -0.010710 0.000000 0.003567 0.000000
# 2 0.004044 0.019327 -0.010700 0.000000 0.003390 0.000000
# 3 -0.010710 -0.010700 0.015893 0.000000 -0.000565 0.000000
# 4 0.000000 0.000000 0.000000 0.023971 0.000000 0.020967
# 5 0.003567 0.003390 -0.000565 0.000000 0.027982 0.000000
# 6 0.000000 0.000000 0.000000 0.020967 0.000000 0.132575
#
#
# Mechanical properties :
#
#
# Convention : Reuss Voigt Hill
#
# Bulk Modulus (GPa) = 38.59657 64.28581 51.44119
# Shear Modulus (GPa) = 17.32892 29.29587 23.31239
#
# Velocity S-wave (km/s) = 2.98919 3.88662 3.46706
# Velocity P-wave (km/s) = 5.64050 7.29991 6.52318
#
# Compressibility (1/GPa) = 0.02590904
#
# Stress axis : x y z
#
# Youngs Moduli (GPa) = 39.33771 51.74219 62.92235
#
# Poissons Ratio (x) = -0.20924 0.67388
# Poissons Ratio (y) = -0.15908 0.67325
# Poissons Ratio (z) = 0.42129 0.55363
#
# Static dielectric constant tensor:
#      x y z
#    x 3.400750 0.000000 -0.188990 
#    y 0.000000 3.780830 0.000000 
#    z -0.188990 0.000000 3.825160 
# 
# 
# High freq. dielectric constant tensor:
#      x y z
#    x 1.738030 0.000000 -0.006280 
#    y 0.000000 1.769380 0.000000 
#    z -0.006280 0.000000 1.770300 
# 
# From -- ./inp_files/143908.got.cif
#   From: 2010.06.25/outbox.cif.g09.slc.cpg/sg15_72_cif.got.tgz:143908.got - 2010.06.28 07:06:18.
