data_PCOD8139038
_publ_section_title
;
Structure prediction by ZEFSAII (Michael W. Deem and Ramdas Pophale) SiO2 
 PCOD8139038
Probable space group: C 2/C
;
_chemical_formula_sum "Si O2"
_cell_formula_units_Z 56
_cell_length_a 16.699040
_cell_length_b 15.427511
_cell_length_c 19.466538
_cell_angle_alpha 90.000000
_cell_angle_beta 146.645354
_cell_angle_gamma 90.000000
_cell_volume 2757.378629
_symmetry_space_group_name_H-M "C 2/C"
_symmetry_group_IT_number 15
_symmetry_cell_setting 'monoclinic'
loop_
_space_group_symop_operation_xyz
x,y,z
-x,y,1/2-z
-x,-y,-z
x,-y,1/2+z
1/2+x,1/2+y,z
1/2-x,1/2+y,1/2-z
1/2-x,1/2-y,-z
1/2+x,1/2-y,1/2+z
loop_
_atom_site_type_symbol
_atom_site_label
_atom_site_fract_x
_atom_site_fract_y
_atom_site_fract_z
Si Si1 0.688617 0.052024 0.167439
Si Si2 0.649322 0.455750 0.583755
Si Si3 0.598943 0.256321 0.556185
Si Si4 0.740736 0.242012 0.190304
Si Si5 0.648588 0.002624 0.889899
Si Si6 0.842923 0.300419 0.122338
Si Si7 0.640904 0.917271 0.029590
O O1 0.737987 0.018274 0.276779
O O2 0.769549 0.139518 0.199751
O O3 0.736956 0.978882 0.147524
O O4 0.518863 0.070057 0.053632
O O5 0.500000 0.500000 0.500000
O O6 0.651555 0.352244 0.577115
O O7 0.707979 0.492214 0.554044
O O8 0.428844 0.255507 0.415597
O O9 0.648409 0.229053 0.669309
O O10 0.678694 0.185022 0.564277
O O11 0.764941 0.300378 0.140216
O O12 0.500000 0.966593 0.750000
O O13 0.632945 0.104734 0.892830
O O14 0.669710 0.947307 0.973359
O O15 0.000000 0.256486 0.250000
O O16 0.750000 0.250000 0.000000
#
# Coordination Sequence:
#
# PCOD8139038 Si02
#       7
#     8   8   8   8   8   8   8
#     4   9  20  37  62  87 118 161 202 257 300 370
#     4  11  23  40  61  92 126 161 204 258 323 363
#     4  10  23  37  66  89 119 165 209 263 306 372
#     4  10  20  39  58  92 121 158 214 252 316 377
#     4  11  23  40  63  90 124 168 213 255 310 379
#     4  11  23  36  60  90 127 164 202 257 323 383
#     4  10  20  38  64  89 118 158 219 251 299 371
#
# _framework density 20.309144
#
# number of rings (size 3 to 8) (size 9 to 14) (size 15 to 20)
#    0.000    1.714    1.429    2.571    4.000    4.000 
#    0.000    0.714    0.000    0.000    0.000    0.000 
#    0.000    0.000    0.000    0.000    0.000    0.000 
#
# Total GULP energy -347016.642582 kJ/mol
# GULP energy per Si atom -12393.451521 kJ/mol
# Density = 2.026292 g / cm^3
# Si number density = 20.309144 Si / 1000 Ang^3
#
#
#
# Elastic Constant Matrix: (Units=GPa)
#
#
# Indices 1 2 3 4 5 6 
#
# 1 100.0784 47.9041 23.8318 -0.0005 -14.8656 -0.0002
# 2 47.9041 105.0678 41.9845 0.0009 -17.6369 0.0006
# 3 23.8318 41.9845 91.6712 -0.0003 -15.0959 0.0004
# 4 -0.0005 0.0009 -0.0003 23.0620 0.0004 -4.7690
# 5 -14.8656 -17.6369 -15.0959 0.0004 31.7352 0.0004
# 6 -0.0002 0.0006 0.0004 -4.7690 0.0004 30.0561
#
#
#
# Elastic Compliance Matrix: (Units=1/GPa)
#
#
# Indices 1 2 3 4 5 6 
#
# 1 0.013070 -0.005262 -0.000500 0.000000 0.002960 0.000000
# 2 -0.005262 0.014327 -0.004653 -0.000001 0.003284 0.000000
# 3 -0.000500 -0.004653 0.013785 0.000000 0.003737 0.000000
# 4 0.000000 -0.000001 0.000000 0.044832 -0.000001 0.007114
# 5 0.002960 0.003284 0.003737 -0.000001 0.036500 -0.000001
# 6 0.000000 0.000000 0.000000 0.007114 -0.000001 0.034400
#
#
# Mechanical properties :
#
#
# Convention : Reuss Voigt Hill
#
# Bulk Modulus (GPa) = 49.13703 58.25091 53.69397
# Shear Modulus (GPa) = 27.09594 29.17711 28.13653
#
# Velocity S-wave (km/s) = 3.65660 3.79443 3.72615
# Velocity P-wave (km/s) = 6.48650 6.92396 6.70880
#
# Compressibility (1/GPa) = 0.02035125
#
# Stress axis : x y z
#
# Youngs Moduli (GPa) = 76.51227 69.79588 72.54238
#
# Poissons Ratio (x) = 0.36728 0.03629
# Poissons Ratio (y) = 0.40262 0.33754
# Poissons Ratio (z) = 0.03828 0.32476
#
# Static dielectric constant tensor:
#      x y z
#    x 3.426580 0.000000 -0.089940 
#    y 0.000000 4.061790 -0.000030 
#    z -0.089940 -0.000030 3.953250 
# 
# 
# High freq. dielectric constant tensor:
#      x y z
#    x 1.767790 0.000000 -0.012890 
#    y 0.000000 1.803910 0.000000 
#    z -0.012890 0.000000 1.798760 
# 
# From -- ./inp_files/105286.got.cif
#   From: 2010.06.25/outbox.cif.g09.slc.cpg/sg15_53_cif.got.tgz:105286.got - 2010.06.28 07:06:18.
