data_PCOD8139998
_publ_section_title
;
Structure prediction by ZEFSAII (Michael W. Deem and Ramdas Pophale) SiO2 
 PCOD8139998
Probable space group: C 2/C
;
_chemical_formula_sum "Si O2"
_cell_formula_units_Z 44
_cell_length_a 17.773860
_cell_length_b 8.635217
_cell_length_c 14.217162
_cell_angle_alpha 90.000000
_cell_angle_beta 64.308099
_cell_angle_gamma 90.000000
_cell_volume 1966.343455
_symmetry_space_group_name_H-M "C 2/C"
_symmetry_group_IT_number 15
_symmetry_cell_setting 'monoclinic'
loop_
_space_group_symop_operation_xyz
x,y,z
-x,y,1/2-z
-x,-y,-z
x,-y,1/2+z
1/2+x,1/2+y,z
1/2-x,1/2+y,1/2-z
1/2-x,1/2-y,-z
1/2+x,1/2-y,1/2+z
loop_
_atom_site_type_symbol
_atom_site_label
_atom_site_fract_x
_atom_site_fract_y
_atom_site_fract_z
Si Si1 0.605271 0.331021 0.816382
Si Si2 0.357091 0.074544 0.349189
Si Si3 0.106843 0.805290 0.333062
Si Si4 0.247637 0.699203 0.608672
Si Si5 0.000000 0.664507 0.750000
Si Si6 0.446439 0.144225 0.487515
O O1 0.609439 0.512270 0.825831
O O2 0.675246 0.290071 0.702342
O O3 0.511575 0.280585 0.832118
O O4 0.613960 0.233451 0.907373
O O5 0.362102 0.226759 0.281316
O O6 0.377566 0.101813 0.446999
O O7 0.267805 0.988424 0.382854
O O8 0.421327 0.944716 0.281697
O O9 0.166031 0.755431 0.387347
O O10 0.012269 0.758986 0.404265
O O11 0.250000 0.750000 0.500000
O O12 0.500000 0.000000 0.500000
#
# Coordination Sequence:
#
# PCOD8139998 Si02
#       6
#     8   8   8   8   4   8
#     4  11  26  41  68 101 142 172 238 288 346 409
#     4  11  22  44  71 100 136 187 229 281 355 426
#     4  12  25  43  69 105 140 178 235 292 349 420
#     4  11  26  47  68  96 141 188 231 287 361 415
#     4  10  20  40  64  96 132 178 220 280 338 406
#     4  12  22  43  72 103 136 187 236 284 348 425
#
# _framework density 22.376559
#
# number of rings (size 3 to 8) (size 9 to 14) (size 15 to 20)
#    0.000    0.727    3.636    3.818    5.091    2.909 
#    0.000    2.727    0.000    0.000    0.000    0.000 
#    0.000    0.000    0.000    0.000    0.000    0.000 
#
# Total GULP energy -272575.551207 kJ/mol
# GULP energy per Si atom -12389.797782 kJ/mol
# Density = 2.232563 g / cm^3
# Si number density = 22.376559 Si / 1000 Ang^3
#
#
#
# Elastic Constant Matrix: (Units=GPa)
#
#
# Indices 1 2 3 4 5 6 
#
# 1 74.4569 14.2508 3.6530 0.0000 26.0696 0.0000
# 2 14.2508 118.0145 50.0374 0.0000 11.9481 0.0000
# 3 3.6530 50.0374 119.2200 0.0000 16.9413 0.0000
# 4 0.0000 0.0000 0.0000 27.3514 0.0000 6.9210
# 5 26.0696 11.9481 16.9413 0.0000 43.1200 0.0000
# 6 0.0000 0.0000 0.0000 6.9210 0.0000 35.1189
#
#
#
# Elastic Compliance Matrix: (Units=1/GPa)
#
#
# Indices 1 2 3 4 5 6 
#
# 1 0.017440 -0.001751 0.001726 0.000000 -0.010737 0.000000
# 2 -0.001751 0.010545 -0.004350 0.000000 -0.000154 0.000000
# 3 0.001726 -0.004350 0.010737 0.000000 -0.004057 0.000000
# 4 0.000000 0.000000 0.000000 0.038480 0.000000 -0.007583
# 5 -0.010737 -0.000154 -0.004057 0.000000 0.031319 0.000000
# 6 0.000000 0.000000 0.000000 -0.007583 0.000000 0.029969
#
#
# Mechanical properties :
#
#
# Convention : Reuss Voigt Hill
#
# Bulk Modulus (GPa) = 33.36333 49.73041 41.54687
# Shear Modulus (GPa) = 31.80012 37.36807 34.58410
#
# Velocity S-wave (km/s) = 3.77388 4.09095 3.93561
# Velocity P-wave (km/s) = 5.82511 6.67736 6.26574
#
# Compressibility (1/GPa) = 0.02997303
#
# Stress axis : x y z
#
# Youngs Moduli (GPa) = 57.33789 94.83114 93.13353
#
# Poissons Ratio (x) = 0.16604 -0.16077
# Poissons Ratio (y) = 0.10039 0.40516
# Poissons Ratio (z) = -0.09898 0.41254
#
# Static dielectric constant tensor:
#      x y z
#    x 5.186240 0.000000 -0.237360 
#    y 0.000000 4.398440 0.000000 
#    z -0.237360 0.000000 4.301700 
# 
# 
# High freq. dielectric constant tensor:
#      x y z
#    x 1.889580 0.000000 0.019010 
#    y 0.000000 1.890920 0.000000 
#    z 0.019010 0.000000 1.877380 
# 
# From -- ./inp_files/159638.got.cif
#   From: 2010.06.25/outbox.cif.g09.slc.cpg/sg15_80_cif.got.tgz:159638.got - 2010.06.28 07:06:18.
