data_PCOD8139974
_publ_section_title
;
Structure prediction by ZEFSAII (Michael W. Deem and Ramdas Pophale) SiO2 
 PCOD8139974
Probable space group: C 2/C
;
_chemical_formula_sum "Si O2"
_cell_formula_units_Z 40
_cell_length_a 13.356900
_cell_length_b 18.356450
_cell_length_c 8.229023
_cell_angle_alpha 90.000000
_cell_angle_beta 119.320157
_cell_angle_gamma 90.000000
_cell_volume 1759.170182
_symmetry_space_group_name_H-M "C 2/C"
_symmetry_group_IT_number 15
_symmetry_cell_setting 'monoclinic'
loop_
_space_group_symop_operation_xyz
x,y,z
-x,y,1/2-z
-x,-y,-z
x,-y,1/2+z
1/2+x,1/2+y,z
1/2-x,1/2+y,1/2-z
1/2-x,1/2-y,-z
1/2+x,1/2-y,1/2+z
loop_
_atom_site_type_symbol
_atom_site_label
_atom_site_fract_x
_atom_site_fract_y
_atom_site_fract_z
Si Si1 0.466915 0.346951 0.038239
Si Si2 0.368489 0.836798 0.691220
Si Si3 0.302330 0.601944 0.934505
Si Si4 0.278787 0.550993 0.281658
Si Si5 0.708891 0.226340 0.687589
O O1 0.500000 0.327255 0.250000
O O2 0.574046 0.366415 0.011942
O O3 0.382766 0.416863 0.972502
O O4 0.402447 0.278387 0.901430
O O5 0.500000 0.830338 0.750000
O O6 0.341323 0.915379 0.748240
O O7 0.288821 0.824937 0.470074
O O8 0.327391 0.773668 0.784573
O O9 0.299721 0.573352 0.113635
O O10 0.211931 0.669138 0.840241
O O11 0.271337 0.535676 0.789169
#
# Coordination Sequence:
#
# PCOD8139974 Si02
#       5
#     8   8   8   8   8
#     4  11  22  40  68  97 127 169 210 259 323 380
#     4  10  20  40  64  91 127 168 213 260 317 380
#     4  12  23  43  65  95 135 165 214 268 316 377
#     4  11  25  41  66  97 128 170 214 265 319 377
#     4  10  21  38  65  96 127 170 212 256 318 384
#
# _framework density 22.737991999999998
#
# number of rings (size 3 to 8) (size 9 to 14) (size 15 to 20)
#    0.000    1.200    0.000    9.000    0.000    3.200 
#    0.000   13.000    0.000    0.000    0.000    0.000 
#    0.000    0.000    0.000    0.000    0.000    0.000 
#
# Total GULP energy -247950.291403 kJ/mol
# GULP energy per Si atom -12397.514570 kJ/mol
# Density = 2.268624 g / cm^3
# Si number density = 22.737992 Si / 1000 Ang^3
#
#
#
# Elastic Constant Matrix: (Units=GPa)
#
#
# Indices 1 2 3 4 5 6 
#
# 1 131.0475 77.0779 53.8577 0.0000 3.2169 0.0000
# 2 77.0779 173.7297 54.4172 0.0000 11.5664 0.0000
# 3 53.8577 54.4172 79.3745 0.0000 4.8972 0.0000
# 4 0.0000 0.0000 0.0000 44.6791 0.0000 -6.5303
# 5 3.2169 11.5664 4.8972 0.0000 28.1409 0.0000
# 6 0.0000 0.0000 0.0000 -6.5303 0.0000 19.8041
#
#
#
# Elastic Compliance Matrix: (Units=1/GPa)
#
#
# Indices 1 2 3 4 5 6 
#
# 1 0.012128 -0.003637 -0.005805 0.000000 0.001119 0.000000
# 2 -0.003637 0.008553 -0.003240 0.000000 -0.002536 0.000000
# 3 -0.005805 -0.003240 0.018837 0.000000 -0.001283 0.000000
# 4 0.000000 0.000000 0.000000 0.023515 0.000000 0.007754
# 5 0.001119 -0.002536 -0.001283 0.000000 0.036673 0.000000
# 6 0.000000 0.000000 0.000000 0.007754 0.000000 0.053051
#
#
# Mechanical properties :
#
#
# Convention : Reuss Voigt Hill
#
# Bulk Modulus (GPa) = 70.64218 83.87303 77.25761
# Shear Modulus (GPa) = 27.34624 31.77807 29.56215
#
# Velocity S-wave (km/s) = 3.47171 3.74247 3.60963
# Velocity P-wave (km/s) = 6.87064 7.45933 7.17103
#
# Compressibility (1/GPa) = 0.01415585
#
# Stress axis : x y z
#
# Youngs Moduli (GPa) = 82.45197 116.91380 53.08583
#
# Poissons Ratio (x) = 0.42523 0.30816
# Poissons Ratio (y) = 0.29989 0.17198
# Poissons Ratio (z) = 0.47862 0.37875
#
# Static dielectric constant tensor:
#      x y z
#    x 3.904910 0.000000 0.014630 
#    y 0.000000 4.495780 0.000000 
#    z 0.014630 0.000000 4.044090 
# 
# 
# High freq. dielectric constant tensor:
#      x y z
#    x 1.884080 0.000000 -0.002240 
#    y 0.000000 1.912000 0.000000 
#    z -0.002240 0.000000 1.883910 
# 
# From -- ./inp_files/30504.got.cif
#   From: 2010.06.25/outbox.cif.g09.slc.cpg/sg15_16_cif.got.tgz:30504.got - 2010.06.28 07:06:18.
