data_PCOD8139984
_publ_section_title
;
Structure prediction by ZEFSAII (Michael W. Deem and Ramdas Pophale) SiO2 
 PCOD8139984
Probable space group: C 2/C
;
_chemical_formula_sum "Si O2"
_cell_formula_units_Z 56
_cell_length_a 29.025292
_cell_length_b 21.798241
_cell_length_c 8.588129
_cell_angle_alpha 90.000000
_cell_angle_beta 30.901668
_cell_angle_gamma 90.000000
_cell_volume 2790.570936
_symmetry_space_group_name_H-M "C 2/C"
_symmetry_group_IT_number 15
_symmetry_cell_setting 'monoclinic'
loop_
_space_group_symop_operation_xyz
x,y,z
-x,y,1/2-z
-x,-y,-z
x,-y,1/2+z
1/2+x,1/2+y,z
1/2-x,1/2+y,1/2-z
1/2-x,1/2-y,-z
1/2+x,1/2-y,1/2+z
loop_
_atom_site_type_symbol
_atom_site_label
_atom_site_fract_x
_atom_site_fract_y
_atom_site_fract_z
Si Si1 0.324753 0.414908 0.817726
Si Si2 0.819198 0.414644 0.783880
Si Si3 0.500000 0.161408 0.750000
Si Si4 0.260499 0.200608 0.834637
Si Si5 0.751571 0.003001 0.269291
Si Si6 0.189373 0.805802 0.222107
Si Si7 0.068008 0.753328 0.328549
Si Si8 0.500000 0.337791 0.250000
O O1 0.312210 0.452933 0.697545
O O2 0.418714 0.380300 0.537986
O O3 0.242981 0.365829 0.072498
O O4 0.322643 0.462090 0.967301
O O5 0.812134 0.455554 0.651328
O O6 0.912002 0.379337 0.506531
O O7 0.816740 0.459781 0.938401
O O8 0.734448 0.369418 0.040723
O O9 0.497519 0.204317 0.602664
O O10 0.179024 0.198813 0.941376
O O11 0.351994 0.212364 0.476876
O O12 0.250000 0.250000 0.000000
O O13 0.098732 0.797112 0.384415
O O14 0.250000 0.750000 0.000000
O O15 0.024335 0.794811 0.324018
#
# Coordination Sequence:
#
# PCOD8139984 Si02
#       8
#     8   8   4   8   8   8   8   4
#     4  11  23  42  65  90 124 164 217 265 307 379
#     4  11  22  41  65  91 123 166 218 260 310 374
#     4  12  24  38  62  96 136 160 200 276 322 384
#     4  11  21  40  68  92 126 166 214 258 307 399
#     4  10  24  43  66  84 117 181 225 247 300 385
#     4  10  20  40  64  93 121 172 211 245 316 398
#     4  11  25  37  62 101 133 168 202 253 343 381
#     4  12  26  40  60 102 132 158 204 280 330 366
#
# _framework density 20.067578999999999
#
# number of rings (size 3 to 8) (size 9 to 14) (size 15 to 20)
#    0.000    1.143    5.714    0.857    4.000    2.286 
#    0.000    0.000    0.000    0.000    0.000    0.000 
#    0.000    0.000    0.000    0.000    0.000    0.000 
#
# Total GULP energy -347072.476124 kJ/mol
# GULP energy per Si atom -12395.445576 kJ/mol
# Density = 2.002190 g / cm^3
# Si number density = 20.067579 Si / 1000 Ang^3
#
#
#
# Elastic Constant Matrix: (Units=GPa)
#
#
# Indices 1 2 3 4 5 6 
#
# 1 151.4562 86.4925 66.5562 0.0000 17.5848 0.0000
# 2 86.4925 151.2833 61.3838 0.0000 10.0545 0.0000
# 3 66.5562 61.3838 103.7010 0.0000 7.9475 0.0000
# 4 0.0000 0.0000 0.0000 99.3487 0.0000 84.5994
# 5 17.5848 10.0545 7.9475 0.0000 30.1126 0.0000
# 6 0.0000 0.0000 0.0000 84.5994 0.0000 142.9673
#
#
#
# Elastic Compliance Matrix: (Units=1/GPa)
#
#
# Indices 1 2 3 4 5 6 
#
# 1 0.011652 -0.004583 -0.004451 0.000000 -0.004099 0.000000
# 2 -0.004583 0.010576 -0.003321 0.000000 0.000021 0.000000
# 3 -0.004451 -0.003321 0.014474 0.000000 -0.000112 0.000000
# 4 0.000000 0.000000 0.000000 0.020289 0.000000 -0.012006
# 5 -0.004099 0.000021 -0.000112 0.000000 0.035625 0.000000
# 6 0.000000 0.000000 0.000000 -0.012006 0.000000 0.014099
#
#
# Mechanical properties :
#
#
# Convention : Reuss Voigt Hill
#
# Bulk Modulus (GPa) = 83.38626 92.81174 88.09900
# Shear Modulus (GPa) = 36.92150 67.28624 52.10387
#
# Velocity S-wave (km/s) = 4.29401 5.79678 5.10104
# Velocity P-wave (km/s) = 8.13804 9.54743 8.87077
#
# Compressibility (1/GPa) = 0.01199238
#
# Stress axis : x y z
#
# Youngs Moduli (GPa) = 85.82328 94.55070 69.08901
#
# Poissons Ratio (x) = 0.43334 0.30753
# Poissons Ratio (y) = 0.39334 0.22942
# Poissons Ratio (z) = 0.38202 0.31397
#
# Static dielectric constant tensor:
#      x y z
#    x 4.412290 0.000000 0.448640 
#    y 0.000000 3.957970 0.000000 
#    z 0.448640 0.000000 3.711020 
# 
# 
# High freq. dielectric constant tensor:
#      x y z
#    x 1.784650 0.000000 0.028340 
#    y 0.000000 1.801830 0.000000 
#    z 0.028340 0.000000 1.775860 
# 
# From -- ./inp_files/50163.got.cif
#   From: 2010.06.25/outbox.cif.g09.slc.cpg/sg15_26_cif.got.tgz:50163.got - 2010.06.28 07:06:18.
