data_PCOD8139700
_publ_section_title
;
Structure prediction by ZEFSAII (Michael W. Deem and Ramdas Pophale) SiO2 
 PCOD8139700
Probable space group: C 2/C
;
_chemical_formula_sum "Si O2"
_cell_formula_units_Z 52
_cell_length_a 30.121752
_cell_length_b 7.764530
_cell_length_c 30.118920
_cell_angle_alpha 90.000000
_cell_angle_beta 19.130407
_cell_angle_gamma 90.000000
_cell_volume 2308.537143
_symmetry_space_group_name_H-M "C 2/C"
_symmetry_group_IT_number 15
_symmetry_cell_setting 'monoclinic'
loop_
_space_group_symop_operation_xyz
x,y,z
-x,y,1/2-z
-x,-y,-z
x,-y,1/2+z
1/2+x,1/2+y,z
1/2-x,1/2+y,1/2-z
1/2-x,1/2-y,-z
1/2+x,1/2-y,1/2+z
loop_
_atom_site_type_symbol
_atom_site_label
_atom_site_fract_x
_atom_site_fract_y
_atom_site_fract_z
Si Si1 0.423150 0.796698 0.232913
Si Si2 0.138954 0.556937 0.890248
Si Si3 0.151811 0.265077 0.948610
Si Si4 0.500000 0.641104 0.250000
Si Si5 0.289143 0.622109 0.924364
Si Si6 0.140926 0.038167 0.389508
Si Si7 0.992272 0.378491 0.705233
O O1 0.275513 0.712964 0.366764
O O2 0.506777 0.745024 0.197866
O O3 0.399277 0.999480 0.262870
O O4 0.509026 0.753042 0.108223
O O5 0.161362 0.439371 0.911780
O O6 0.146496 0.758849 0.897081
O O7 0.249510 0.511945 0.749821
O O8 0.000000 0.500000 0.000000
O O9 0.165965 0.086888 0.907879
O O10 0.644158 0.542146 0.115316
O O11 0.412436 0.695790 0.776881
O O12 0.250000 0.750000 0.000000
O O13 0.141880 0.602132 0.040252
O O14 0.000000 0.000000 0.500000
O O15 0.000000 0.432335 0.750000
#
# Coordination Sequence:
#
# PCOD8139700 Si02
#       7
#     8   8   8   4   8   8   8
#     4  12  28  45  68  99 149 189 243 304 348 423
#     4  12  23  46  80 109 144 191 230 285 375 452
#     4  12  27  47  69 115 150 178 251 303 347 433
#     4  12  24  44  72  92 136 208 234 286 384 404
#     4  10  20  39  67  96 118 165 263 287 337 430
#     4  12  23  46  81 108 143 193 228 285 378 450
#     4  10  21  42  66  92 130 182 242 288 355 408
#
# _framework density 22.525088
#
# number of rings (size 3 to 8) (size 9 to 14) (size 15 to 20)
#    0.000    0.615    6.154    2.769    4.308    1.231 
#    8.308    0.000    0.000    0.000    0.000    0.000 
#    0.000    0.000    0.000    0.000    0.000    0.000 
#
# Total GULP energy -322123.628614 kJ/mol
# GULP energy per Si atom -12389.370331 kJ/mol
# Density = 2.247382 g / cm^3
# Si number density = 22.525088 Si / 1000 Ang^3
#
#
#
# Elastic Constant Matrix: (Units=GPa)
#
#
# Indices 1 2 3 4 5 6 
#
# 1 86.4948 39.7767 23.8060 0.0380 -7.4904 -0.0148
# 2 39.7767 141.4788 20.9650 0.5222 -0.3368 -0.2092
# 3 23.8060 20.9650 125.1447 0.1845 -12.8471 -0.1164
# 4 0.0380 0.5222 0.1845 31.1527 0.0542 -6.5409
# 5 -7.4904 -0.3368 -12.8471 0.0542 40.7274 -0.0538
# 6 -0.0148 -0.2092 -0.1164 -6.5409 -0.0538 35.4821
#
#
#
# Elastic Compliance Matrix: (Units=1/GPa)
#
#
# Indices 1 2 3 4 5 6 
#
# 1 0.013906 -0.003633 -0.001837 0.000049 0.001948 -0.000010
# 2 -0.003633 0.008202 -0.000769 -0.000123 -0.000843 0.000020
# 3 -0.001837 -0.000769 0.008716 -0.000036 0.002405 0.000020
# 4 0.000049 -0.000123 -0.000036 0.033395 -0.000040 0.006155
# 5 0.001948 -0.000843 0.002405 -0.000040 0.025664 0.000035
# 6 -0.000010 0.000020 0.000020 0.006155 0.000035 0.029318
#
#
# Mechanical properties :
#
#
# Convention : Reuss Voigt Hill
#
# Bulk Modulus (GPa) = 54.50762 58.02376 56.26569
# Shear Modulus (GPa) = 36.28583 39.37714 37.83148
#
# Velocity S-wave (km/s) = 4.01797 4.18562 4.10265
# Velocity P-wave (km/s) = 6.76584 7.01247 6.89026
#
# Compressibility (1/GPa) = 0.01834606
#
# Stress axis : x y z
#
# Youngs Moduli (GPa) = 71.90929 121.91957 114.73111
#
# Poissons Ratio (x) = 0.44295 0.21074
# Poissons Ratio (y) = 0.26126 0.08826
# Poissons Ratio (z) = 0.13209 0.09379
#
# Static dielectric constant tensor:
#      x y z
#    x 3.900750 -0.000130 -0.260060 
#    y -0.000130 4.605390 0.000590 
#    z -0.260060 0.000590 4.520490 
# 
# 
# High freq. dielectric constant tensor:
#      x y z
#    x 1.868810 0.000000 -0.013740 
#    y 0.000000 1.901450 0.000010 
#    z -0.013740 0.000010 1.906970 
# 
# From -- ./inp_files/320155.got.cif
#   From: 2010.06.25/outbox.cif.g09.slc.cpg/sg15_161_cif.got.tgz:320155.got - 2010.06.28 07:06:18.
