data_PCOD8139277
_publ_section_title
;
Structure prediction by ZEFSAII (Michael W. Deem and Ramdas Pophale) SiO2 
 PCOD8139277
Probable space group: C 2/C
;
_chemical_formula_sum "Si O2"
_cell_formula_units_Z 44
_cell_length_a 9.683551
_cell_length_b 27.825293
_cell_length_c 11.174430
_cell_angle_alpha 90.000000
_cell_angle_beta 129.359163
_cell_angle_gamma 90.000000
_cell_volume 2328.003479
_symmetry_space_group_name_H-M "C 2/C"
_symmetry_group_IT_number 15
_symmetry_cell_setting 'monoclinic'
loop_
_space_group_symop_operation_xyz
x,y,z
-x,y,1/2-z
-x,-y,-z
x,-y,1/2+z
1/2+x,1/2+y,z
1/2-x,1/2+y,1/2-z
1/2-x,1/2-y,-z
1/2+x,1/2-y,1/2+z
loop_
_atom_site_type_symbol
_atom_site_label
_atom_site_fract_x
_atom_site_fract_y
_atom_site_fract_z
Si Si1 0.676195 0.314733 0.536743
Si Si2 0.190713 0.568995 0.803636
Si Si3 0.000000 0.750933 0.250000
Si Si4 0.798396 0.900657 0.109783
Si Si5 0.703487 0.042697 0.344371
Si Si6 0.027425 0.889999 0.626245
O O1 0.532349 0.283393 0.384643
O O2 0.772689 0.354420 0.503584
O O3 0.569590 0.339741 0.585656
O O4 0.826737 0.281566 0.678600
O O5 0.187811 0.590621 0.668787
O O6 0.215717 0.511987 0.810878
O O7 0.000000 0.583864 0.750000
O O8 0.346704 0.589480 0.970772
O O9 0.000000 0.888453 0.250000
O O10 0.795993 0.948133 0.024245
O O11 0.500000 0.060070 0.250000
O O12 0.806326 0.073483 0.300126
O O13 0.000000 0.880452 0.750000
#
# Coordination Sequence:
#
# PCOD8139277 Si02
#       6
#     8   8   4   8   8   8
#     4  10  21  40  62  96 112 153 196 243 304 358
#     4  11  24  37  56  87 121 169 207 248 290 337
#     4  10  20  38  72  88 114 144 202 244 294 382
#     4  11  21  39  61  82 129 153 204 249 288 355
#     4  10  24  37  58  86 117 168 216 243 284 342
#     4  11  24  39  59  88 128 153 198 248 306 349
#
# _framework density 18.900316
#
# number of rings (size 3 to 8) (size 9 to 14) (size 15 to 20)
#    0.000    1.455    4.545    0.545   10.182    1.455 
#    0.000    0.909    0.000    4.364    0.000    0.000 
#    0.000    0.000    0.000    0.000    0.000    0.000 
#
# Total GULP energy -272802.410937 kJ/mol
# GULP energy per Si atom -12400.109588 kJ/mol
# Density = 1.885730 g / cm^3
# Si number density = 18.900316 Si / 1000 Ang^3
#
#
#
# Elastic Constant Matrix: (Units=GPa)
#
#
# Indices 1 2 3 4 5 6 
#
# 1 156.7410 75.4261 65.0100 0.0000 -15.1831 0.0000
# 2 75.4261 105.1509 57.2046 0.0000 -2.4943 0.0000
# 3 65.0100 57.2046 99.8610 0.0000 -7.2860 0.0000
# 4 0.0000 0.0000 0.0000 17.9101 0.0000 14.1433
# 5 -15.1831 -2.4943 -7.2860 0.0000 38.5916 0.0000
# 6 0.0000 0.0000 0.0000 14.1433 0.0000 111.4146
#
#
#
# Elastic Compliance Matrix: (Units=1/GPa)
#
#
# Indices 1 2 3 4 5 6 
#
# 1 0.011001 -0.005880 -0.003554 0.000000 0.003277 0.000000
# 2 -0.005880 0.016972 -0.006067 0.000000 -0.002362 0.000000
# 3 -0.003554 -0.006067 0.015892 0.000000 0.001210 0.000000
# 4 0.000000 0.000000 0.000000 0.062055 0.000000 -0.007877
# 5 0.003277 -0.002362 0.001210 0.000000 0.027277 0.000000
# 6 0.000000 0.000000 0.000000 -0.007877 0.000000 0.009975
#
#
# Mechanical properties :
#
#
# Convention : Reuss Voigt Hill
#
# Bulk Modulus (GPa) = 77.74544 84.11492 80.93018
# Shear Modulus (GPa) = 28.01697 44.52407 36.27052
#
# Velocity S-wave (km/s) = 3.85431 4.85885 4.38544
# Velocity P-wave (km/s) = 7.81226 8.72233 8.27981
#
# Compressibility (1/GPa) = 0.01286249
#
# Stress axis : x y z
#
# Youngs Moduli (GPa) = 90.90019 58.91933 62.92617
#
# Poissons Ratio (x) = 0.34643 0.22367
# Poissons Ratio (y) = 0.53447 0.38178
# Poissons Ratio (z) = 0.32310 0.35747
#
# Static dielectric constant tensor:
#      x y z
#    x 3.455350 0.000000 0.136660 
#    y 0.000000 3.528950 0.000000 
#    z 0.136660 0.000000 3.218070 
# 
# 
# High freq. dielectric constant tensor:
#      x y z
#    x 1.725740 0.000000 0.003140 
#    y 0.000000 1.733610 0.000000 
#    z 0.003140 0.000000 1.746800 
# 
# From -- ./inp_files/25483.got.cif
#   From: 2010.06.25/outbox.cif.g09.slc.cpg/sg15_13_cif.got.tgz:25483.got - 2010.06.28 07:06:18.
