data_PCOD8139291
_publ_section_title
;
Structure prediction by ZEFSAII (Michael W. Deem and Ramdas Pophale) SiO2 
 PCOD8139291
Probable space group: C 2/C
;
_chemical_formula_sum "Si O2"
_cell_formula_units_Z 60
_cell_length_a 13.897334
_cell_length_b 25.845136
_cell_length_c 9.009666
_cell_angle_alpha 90.000000
_cell_angle_beta 112.761913
_cell_angle_gamma 90.000000
_cell_volume 2984.054202
_symmetry_space_group_name_H-M "C 2/C"
_symmetry_group_IT_number 15
_symmetry_cell_setting 'monoclinic'
loop_
_space_group_symop_operation_xyz
x,y,z
-x,y,1/2-z
-x,-y,-z
x,-y,1/2+z
1/2+x,1/2+y,z
1/2-x,1/2+y,1/2-z
1/2-x,1/2-y,-z
1/2+x,1/2-y,1/2+z
loop_
_atom_site_type_symbol
_atom_site_label
_atom_site_fract_x
_atom_site_fract_y
_atom_site_fract_z
Si Si1 0.883169 0.339639 0.715753
Si Si2 0.399975 0.605968 0.905273
Si Si3 0.234652 0.433043 0.794946
Si Si4 0.500000 0.468671 0.250000
Si Si5 0.288396 0.320737 0.125034
Si Si6 0.400118 0.340498 0.910926
Si Si7 0.296859 0.475182 0.539993
Si Si8 0.250031 0.229377 0.331072
O O1 0.871138 0.401183 0.735955
O O2 0.817973 0.326458 0.529410
O O3 0.842244 0.310822 0.841603
O O4 0.000000 0.323532 0.750000
O O5 0.482916 0.566294 0.884260
O O6 0.322368 0.628602 0.735882
O O7 0.322006 0.577368 0.968167
O O8 0.475493 0.648217 0.031996
O O9 0.333079 0.393704 0.864342
O O10 0.220334 0.458458 0.625547
O O11 0.243445 0.479792 0.915463
O O12 0.597293 0.505667 0.323778
O O13 0.270254 0.275556 0.229883
O O14 0.380544 0.312054 0.058728
O O15 0.360761 0.300085 0.761377
O O16 0.250000 0.250000 0.500000
#
# Coordination Sequence:
#
# PCOD8139291 Si02
#       8
#     8   8   8   4   8   8   8   8
#     4  10  23  46  69  85 121 170 219 257 317 380
#     4  12  21  33  61  92 129 162 209 250 310 388
#     4  10  22  38  59  87 121 165 211 251 311 371
#     4  12  18  36  48  96 128 170 204 238 302 412
#     4  10  21  38  64  87 123 163 208 253 321 378
#     4  10  20  39  56  89 129 167 207 248 314 389
#     4  12  22  34  59  87 134 170 198 254 321 372
#     4  10  23  42  66  94 127 158 209 268 317 368
#
# _framework density 20.106873
#
# number of rings (size 3 to 8) (size 9 to 14) (size 15 to 20)
#    0.000    1.600    4.000    3.600    3.733    2.133 
#    0.000    2.667    0.000    0.000    0.000    0.000 
#    0.000    0.000    0.000    0.000    0.000    0.000 
#
# Total GULP energy -371762.681013 kJ/mol
# GULP energy per Si atom -12392.089367 kJ/mol
# Density = 2.006111 g / cm^3
# Si number density = 20.106873 Si / 1000 Ang^3
#
#
#
# Elastic Constant Matrix: (Units=GPa)
#
#
# Indices 1 2 3 4 5 6 
#
# 1 60.7898 38.0435 37.3816 0.0000 -0.5678 0.0000
# 2 38.0435 99.7012 68.6319 0.0000 -13.9428 0.0000
# 3 37.3816 68.6319 120.3428 0.0000 -17.4647 0.0000
# 4 0.0000 0.0000 0.0000 -0.8102 0.0000 6.1777
# 5 -0.5678 -13.9428 -17.4647 0.0000 27.8958 0.0000
# 6 0.0000 0.0000 0.0000 6.1777 0.0000 23.6681
#
#
#
# Elastic Compliance Matrix: (Units=1/GPa)
#
#
# Indices 1 2 3 4 5 6 
#
# 1 0.023177 -0.006763 -0.004141 0.000000 -0.005501 0.000000
# 2 -0.006763 0.018658 -0.007927 0.000000 0.004225 0.000000
# 3 -0.004141 -0.007927 0.014882 0.000000 0.005271 0.000000
# 4 0.000000 0.000000 0.000000 -0.412762 0.000000 0.107736
# 5 -0.005501 0.004225 0.005271 0.000000 0.041147 0.000000
# 6 0.000000 0.000000 0.000000 0.107736 0.000000 0.014130
#
#
# Mechanical properties :
#
#
# Convention : Reuss Voigt Hill
#
# Bulk Modulus (GPa) = 52.47754 63.21644 57.84699
# Shear Modulus (GPa) = -19.47389 19.26919 -0.10235
#
# Velocity S-wave (km/s) = -3.11548 3.09906 -0.22586
# Velocity P-wave (km/s) = 3.63515 6.65688 5.36323
#
# Compressibility (1/GPa) = 0.01905577
#
# Stress axis : x y z
#
# Youngs Moduli (GPa) = 43.14551 53.59642 67.19723
#
# Poissons Ratio (x) = 0.36245 0.27827
# Poissons Ratio (y) = 0.29177 0.53267
# Poissons Ratio (z) = 0.17867 0.42485
#
# Static dielectric constant tensor:
#      x y z
#    x 3.370200 0.000000 -0.121640 
#    y 0.000000 3.968180 0.000000 
#    z -0.121640 0.000000 3.719310 
# 
# 
# High freq. dielectric constant tensor:
#      x y z
#    x 1.744450 0.000000 -0.015000 
#    y 0.000000 1.797950 0.000000 
#    z -0.015000 0.000000 1.786380 
# 
# From -- ./inp_files/42703.got.cif
#   From: 2010.06.25/outbox.cif.g09.slc.cpg/sg15_22_cif.got.tgz:42703.got - 2010.06.28 07:06:18.
