data_PCOD8139871
_publ_section_title
;
Structure prediction by ZEFSAII (Michael W. Deem and Ramdas Pophale) SiO2 
 PCOD8139871
Probable space group: C 2/C
;
_chemical_formula_sum "Si O2"
_cell_formula_units_Z 36
_cell_length_a 13.439311
_cell_length_b 8.228228
_cell_length_c 17.328006
_cell_angle_alpha 90.000000
_cell_angle_beta 109.160496
_cell_angle_gamma 90.000000
_cell_volume 1810.010863
_symmetry_space_group_name_H-M "C 2/C"
_symmetry_group_IT_number 15
_symmetry_cell_setting 'monoclinic'
loop_
_space_group_symop_operation_xyz
x,y,z
-x,y,1/2-z
-x,-y,-z
x,-y,1/2+z
1/2+x,1/2+y,z
1/2-x,1/2+y,1/2-z
1/2-x,1/2-y,-z
1/2+x,1/2-y,1/2+z
loop_
_atom_site_type_symbol
_atom_site_label
_atom_site_fract_x
_atom_site_fract_y
_atom_site_fract_z
Si Si1 0.929759 0.487370 0.601344
Si Si2 0.348411 0.016080 0.420296
Si Si3 0.500000 0.779726 0.250000
Si Si4 0.814630 0.940758 0.737314
Si Si5 0.787865 0.263977 0.659432
O O1 0.861019 0.562642 0.513407
O O2 0.937735 0.614779 0.672148
O O3 0.872694 0.324682 0.618360
O O4 0.044678 0.444317 0.598499
O O5 0.255949 0.119043 0.354700
O O6 0.313793 0.824204 0.406113
O O7 0.582269 0.666894 0.226795
O O8 0.748878 0.919127 0.799609
O O9 0.841982 0.131326 0.731326
#
# Coordination Sequence:
#
# PCOD8139871 Si02
#       5
#     8   8   4   8   8
#     4  11  20  39  67  87 122 166 210 258 321 362
#     4   9  22  38  62  92 121 162 212 257 315 376
#     4  12  22  38  58  90 122 170 210 256 312 390
#     4  10  22  38  58  91 125 160 213 253 311 380
#     4  10  20  40  62  89 123 163 202 261 309 370
#
# _framework density 19.889382000000001
#
# number of rings (size 3 to 8) (size 9 to 14) (size 15 to 20)
#    1.333    0.444    2.222    3.333    0.000    3.556 
#    0.000    0.000    0.000    5.333    0.000    0.000 
#    0.000    0.000    0.000    0.000    0.000    0.000 
#
# Total GULP energy -222992.382545 kJ/mol
# GULP energy per Si atom -12388.465697 kJ/mol
# Density = 1.984411 g / cm^3
# Si number density = 19.889382 Si / 1000 Ang^3
#
#
#
# Elastic Constant Matrix: (Units=GPa)
#
#
# Indices 1 2 3 4 5 6 
#
# 1 109.9767 48.3581 41.0217 0.0000 -11.9319 0.0000
# 2 48.3581 57.0614 24.8368 0.0000 -17.7047 0.0000
# 3 41.0217 24.8368 74.1092 0.0000 -6.2329 0.0000
# 4 0.0000 0.0000 0.0000 11.4573 0.0000 3.9535
# 5 -11.9319 -17.7047 -6.2329 0.0000 31.9497 0.0000
# 6 0.0000 0.0000 0.0000 3.9535 0.0000 35.2769
#
#
#
# Elastic Compliance Matrix: (Units=1/GPa)
#
#
# Indices 1 2 3 4 5 6 
#
# 1 0.016017 -0.011880 -0.005017 0.000000 -0.001581 0.000000
# 2 -0.011880 0.033216 -0.003437 0.000000 0.013299 0.000000
# 3 -0.005017 -0.003437 0.017390 0.000000 -0.000386 0.000000
# 4 0.000000 0.000000 0.000000 0.090792 0.000000 -0.010175
# 5 -0.001581 0.013299 -0.000386 0.000000 0.038003 0.000000
# 6 0.000000 0.000000 0.000000 -0.010175 0.000000 0.029487
#
#
# Mechanical properties :
#
#
# Convention : Reuss Voigt Hill
#
# Bulk Modulus (GPa) = 38.53088 52.17563 45.35326
# Shear Modulus (GPa) = 18.23318 24.19882 21.21600
#
# Velocity S-wave (km/s) = 3.03104 3.49186 3.26958
# Velocity P-wave (km/s) = 5.62710 6.52283 6.09145
#
# Compressibility (1/GPa) = 0.02595321
#
# Stress axis : x y z
#
# Youngs Moduli (GPa) = 62.43476 30.10626 57.50366
#
# Poissons Ratio (x) = 0.35767 0.28850
# Poissons Ratio (y) = 0.74175 0.19765
# Poissons Ratio (z) = 0.31324 0.10348
#
# Static dielectric constant tensor:
#      x y z
#    x 3.525620 0.000000 0.021510 
#    y 0.000000 3.262910 0.000000 
#    z 0.021510 0.000000 3.658510 
# 
# 
# High freq. dielectric constant tensor:
#      x y z
#    x 1.779250 0.000000 -0.005000 
#    y 0.000000 1.745270 0.000000 
#    z -0.005000 0.000000 1.775120 
# 
# From -- ./inp_files/176820.got.cif
#   From: 2010.06.25/outbox.cif.g09.slc.cpg/sg15_89_cif.got.tgz:176820.got - 2010.06.28 07:06:18.
