data_PCOD8139977
_publ_section_title
;
Structure prediction by ZEFSAII (Michael W. Deem and Ramdas Pophale) SiO2 
 PCOD8139977
Probable space group: C 2/C
;
_chemical_formula_sum "Si O2"
_cell_formula_units_Z 64
_cell_length_a 15.547617
_cell_length_b 29.244430
_cell_length_c 12.111882
_cell_angle_alpha 90.000000
_cell_angle_beta 36.308794
_cell_angle_gamma 90.000000
_cell_volume 3260.924388
_symmetry_space_group_name_H-M "C 2/C"
_symmetry_group_IT_number 15
_symmetry_cell_setting 'monoclinic'
loop_
_space_group_symop_operation_xyz
x,y,z
-x,y,1/2-z
-x,-y,-z
x,-y,1/2+z
1/2+x,1/2+y,z
1/2-x,1/2+y,1/2-z
1/2-x,1/2-y,-z
1/2+x,1/2-y,1/2+z
loop_
_atom_site_type_symbol
_atom_site_label
_atom_site_fract_x
_atom_site_fract_y
_atom_site_fract_z
Si Si1 0.401297 0.650281 0.580710
Si Si2 0.367941 0.109546 0.237109
Si Si3 0.101082 0.016654 0.750173
Si Si4 0.863416 0.229922 0.466522
Si Si5 0.127218 0.709217 0.330717
Si Si6 0.559575 0.279415 0.072413
Si Si7 0.686692 0.904017 0.462114
Si Si8 0.605790 0.569056 0.373204
O O1 0.325632 0.680186 0.561056
O O2 0.498234 0.685892 0.546635
O O3 0.277895 0.626881 0.782852
O O4 0.520855 0.613536 0.413897
O O5 0.385466 0.155095 0.146599
O O6 0.317799 0.121504 0.414257
O O7 0.248218 0.079037 0.299089
O O8 0.526526 0.085953 0.078046
O O9 0.245501 0.046425 0.582528
O O10 0.000000 0.014450 0.750000
O O11 0.151694 0.964935 0.726820
O O12 0.011772 0.041420 0.936781
O O13 0.750000 0.250000 0.500000
O O14 0.880824 0.269193 0.539920
O O15 0.000000 0.221116 0.250000
O O16 0.993807 0.727990 0.396433
O O17 0.268360 0.723038 0.114362
O O18 0.500000 0.297472 0.250000
#
# Coordination Sequence:
#
# PCOD8139977 Si02
#       8
#     8   8   8   8   8   8   8   8
#     4  10  22  39  61  90 119 160 220 250 317 362
#     4  11  22  38  63  94 129 161 203 247 326 380
#     4  10  20  40  64  92 122 159 204 254 326 370
#     4  11  25  43  62  80 120 176 217 268 307 356
#     4  11  24  38  58  89 123 163 214 255 307 367
#     4  11  22  35  58  89 128 163 197 257 313 375
#     4  10  23  37  64  95 127 162 191 263 318 397
#     4  10  21  38  65  92 120 158 209 265 303 392
#
# _framework density 19.626335999999998
#
# number of rings (size 3 to 8) (size 9 to 14) (size 15 to 20)
#    0.000    1.500    2.500    2.625    7.000    1.000 
#    0.000    0.000    0.000    0.000    0.000    0.000 
#    0.000    0.000    0.000    0.000    0.000    0.000 
#
# Total GULP energy -396611.204422 kJ/mol
# GULP energy per Si atom -12394.100138 kJ/mol
# Density = 1.958167 g / cm^3
# Si number density = 19.626336 Si / 1000 Ang^3
#
#
#
# Elastic Constant Matrix: (Units=GPa)
#
#
# Indices 1 2 3 4 5 6 
#
# 1 107.9497 59.2585 33.8216 -0.0001 -11.2794 0.0000
# 2 59.2585 114.2934 34.6862 0.0000 1.2261 0.0000
# 3 33.8216 34.6862 82.2917 -0.0001 -1.2855 0.0000
# 4 -0.0001 0.0000 -0.0001 -6.3109 0.0001 -13.1812
# 5 -11.2794 1.2261 -1.2855 0.0001 35.3564 0.0000
# 6 0.0000 0.0000 0.0000 -13.1812 0.0000 28.3197
#
#
#
# Elastic Compliance Matrix: (Units=1/GPa)
#
#
# Indices 1 2 3 4 5 6 
#
# 1 0.014295 -0.006537 -0.003047 0.000000 0.004676 0.000000
# 2 -0.006537 0.013031 -0.002847 0.000000 -0.002641 0.000000
# 3 -0.003047 -0.002847 0.014599 0.000000 -0.000342 0.000000
# 4 0.000000 0.000000 0.000000 -0.080347 0.000000 -0.037397
# 5 0.004676 -0.002641 -0.000342 0.000000 0.029854 0.000000
# 6 0.000000 0.000000 0.000000 -0.037397 0.000000 0.017905
#
#
# Mechanical properties :
#
#
# Convention : Reuss Voigt Hill
#
# Bulk Modulus (GPa) = 58.60656 62.22973 60.41815
# Shear Modulus (GPa) = 125.35012 23.25761 74.30387
#
# Velocity S-wave (km/s) = 8.00044 3.44615 6.15966
# Velocity P-wave (km/s) = 10.73632 6.90005 9.02439
#
# Compressibility (1/GPa) = 0.01706294
#
# Stress axis : x y z
#
# Youngs Moduli (GPa) = 69.95227 76.73836 68.49858
#
# Poissons Ratio (x) = 0.50167 0.20870
# Poissons Ratio (y) = 0.45730 0.19503
# Poissons Ratio (z) = 0.21313 0.21849
#
# Static dielectric constant tensor:
#      x y z
#    x 3.786060 0.000000 0.004530 
#    y 0.000000 3.916230 0.000000 
#    z 0.004530 0.000000 3.686490 
# 
# 
# High freq. dielectric constant tensor:
#      x y z
#    x 1.765010 0.000000 -0.007920 
#    y 0.000000 1.764550 0.000000 
#    z -0.007920 0.000000 1.760450 
# 
# From -- ./inp_files/101637.got.cif
#   From: 2010.06.25/outbox.cif.g09.slc.cpg/sg15_51_cif.got.tgz:101637.got - 2010.06.28 07:06:18.
