data_PCOD8139248
_publ_section_title
;
Structure prediction by ZEFSAII (Michael W. Deem and Ramdas Pophale) SiO2 
 PCOD8139248
Probable space group: C 2/C
;
_chemical_formula_sum "Si O2"
_cell_formula_units_Z 56
_cell_length_a 18.391101
_cell_length_b 18.938053
_cell_length_c 14.904943
_cell_angle_alpha 90.000000
_cell_angle_beta 149.541196
_cell_angle_gamma 90.000000
_cell_volume 2631.550461
_symmetry_space_group_name_H-M "C 2/C"
_symmetry_group_IT_number 15
_symmetry_cell_setting 'monoclinic'
loop_
_space_group_symop_operation_xyz
x,y,z
-x,y,1/2-z
-x,-y,-z
x,-y,1/2+z
1/2+x,1/2+y,z
1/2-x,1/2+y,1/2-z
1/2-x,1/2-y,-z
1/2+x,1/2-y,1/2+z
loop_
_atom_site_type_symbol
_atom_site_label
_atom_site_fract_x
_atom_site_fract_y
_atom_site_fract_z
Si Si1 0.716795 0.993440 0.191130
Si Si2 0.713466 0.734373 0.169067
Si Si3 0.811263 0.858114 0.381113
Si Si4 0.071565 0.470366 0.711571
Si Si5 0.957963 0.307483 0.801979
Si Si6 0.154079 0.394552 0.390691
Si Si7 0.632594 0.616527 0.223226
O O1 0.761579 0.912195 0.250162
O O2 0.687182 0.029578 0.255309
O O3 0.847733 0.035395 0.285660
O O4 0.577219 0.004496 0.980760
O O5 0.811556 0.780505 0.339642
O O6 0.802219 0.716121 0.173077
O O7 0.668487 0.664977 0.175694
O O8 0.575013 0.781018 0.997505
O O9 0.702148 0.861795 0.347458
O O10 0.970806 0.874886 0.584760
O O11 0.043762 0.391421 0.714067
O O12 0.135225 0.519655 0.859547
O O13 0.000000 0.273801 0.750000
O O14 0.264658 0.369211 0.583417
O O15 0.000000 0.360541 0.250000
#
# Coordination Sequence:
#
# PCOD8139248 Si02
#       7
#     8   8   8   8   8   8   8
#     4  10  20  38  68  97 128 178 228 280 338 405
#     4  12  26  45  69  99 135 189 229 274 348 420
#     4  11  25  43  67  99 143 183 227 280 350 407
#     4  10  20  39  70 104 127 169 233 288 333 389
#     4  12  25  45  70  99 139 176 229 290 340 411
#     4  11  24  40  69 105 134 175 236 285 334 402
#     4  12  24  43  67  98 147 178 229 281 349 408
#
# _framework density 21.28023
#
# number of rings (size 3 to 8) (size 9 to 14) (size 15 to 20)
#    0.000    0.857    5.714    1.714    2.000    0.571 
#    0.000    0.000    0.000    0.000    0.000    0.000 
#    0.000    0.000    0.000    0.000    0.000    0.000 
#
# Total GULP energy -347228.675791 kJ/mol
# GULP energy per Si atom -12401.024135 kJ/mol
# Density = 2.123179 g / cm^3
# Si number density = 21.280230 Si / 1000 Ang^3
#
#
#
# Elastic Constant Matrix: (Units=GPa)
#
#
# Indices 1 2 3 4 5 6 
#
# 1 116.5604 32.8508 21.3760 0.0000 9.2867 0.0000
# 2 32.8508 74.7403 8.8530 0.0000 2.9626 0.0000
# 3 21.3760 8.8530 87.6749 0.0000 8.6600 0.0000
# 4 0.0000 0.0000 0.0000 27.6591 0.0000 1.8620
# 5 9.2867 2.9626 8.6600 0.0000 36.5547 0.0000
# 6 0.0000 0.0000 0.0000 1.8620 0.0000 12.9024
#
#
#
# Elastic Compliance Matrix: (Units=1/GPa)
#
#
# Indices 1 2 3 4 5 6 
#
# 1 0.010259 -0.004213 -0.001897 0.000000 -0.001816 0.000000
# 2 -0.004213 0.015294 -0.000513 0.000000 -0.000048 0.000000
# 3 -0.001897 -0.000513 0.012153 0.000000 -0.002356 0.000000
# 4 0.000000 0.000000 0.000000 0.036509 0.000000 -0.005269
# 5 -0.001816 -0.000048 -0.002356 0.000000 0.028379 0.000000
# 6 0.000000 0.000000 0.000000 -0.005269 0.000000 0.078265
#
#
# Mechanical properties :
#
#
# Convention : Reuss Voigt Hill
#
# Bulk Modulus (GPa) = 40.87939 45.01500 42.94720
# Shear Modulus (GPa) = 24.72111 29.81630 27.26871
#
# Velocity S-wave (km/s) = 3.41206 3.74722 3.58356
# Velocity P-wave (km/s) = 5.89700 6.31835 6.11131
#
# Compressibility (1/GPa) = 0.02446220
#
# Stress axis : x y z
#
# Youngs Moduli (GPa) = 97.47594 65.38595 82.28698
#
# Poissons Ratio (x) = 0.27544 0.15606
# Poissons Ratio (y) = 0.41062 0.04217
# Poissons Ratio (z) = 0.18487 0.03351
#
# Static dielectric constant tensor:
#      x y z
#    x 3.962340 0.000000 0.064640 
#    y 0.000000 3.678390 0.000000 
#    z 0.064640 0.000000 3.691380 
# 
# 
# High freq. dielectric constant tensor:
#      x y z
#    x 1.850810 0.000000 0.003850 
#    y 0.000000 1.825120 0.000000 
#    z 0.003850 0.000000 1.825270 
# 
# From -- ./inp_files/163803.got.cif
#   From: 2010.06.25/outbox.cif.g09.slc.cpg/sg15_82_cif.got.tgz:163803.got - 2010.06.28 07:06:18.
