data_PCOD8139086
_publ_section_title
;
Structure prediction by ZEFSAII (Michael W. Deem and Ramdas Pophale) SiO2 
 PCOD8139086
Probable space group: C 2/C
;
_chemical_formula_sum "Si O2"
_cell_formula_units_Z 52
_cell_length_a 23.819106
_cell_length_b 20.136009
_cell_length_c 13.364589
_cell_angle_alpha 90.000000
_cell_angle_beta 22.587122
_cell_angle_gamma 90.000000
_cell_volume 2461.982627
_symmetry_space_group_name_H-M "C 2/C"
_symmetry_group_IT_number 15
_symmetry_cell_setting 'monoclinic'
loop_
_space_group_symop_operation_xyz
x,y,z
-x,y,1/2-z
-x,-y,-z
x,-y,1/2+z
1/2+x,1/2+y,z
1/2-x,1/2+y,1/2-z
1/2-x,1/2-y,-z
1/2+x,1/2-y,1/2+z
loop_
_atom_site_type_symbol
_atom_site_label
_atom_site_fract_x
_atom_site_fract_y
_atom_site_fract_z
Si Si1 0.299254 0.532951 0.348456
Si Si2 0.518036 0.568212 0.835403
Si Si3 0.918384 0.738403 0.691692
Si Si4 0.157710 0.187794 0.694181
Si Si5 0.779780 0.379177 0.341239
Si Si6 0.164746 0.409467 0.465917
Si Si7 0.500000 0.709023 0.250000
O O1 0.422534 0.498746 0.212865
O O2 0.216421 0.579750 0.562496
O O3 0.191019 0.477639 0.481726
O O4 0.366911 0.577854 0.146762
O O5 0.500000 0.551546 0.750000
O O6 0.628790 0.630914 0.658890
O O7 0.919308 0.669383 0.629197
O O8 0.993186 0.791439 0.494947
O O9 0.023076 0.740893 0.618025
O O10 0.750000 0.750000 0.000000
O O11 0.250000 0.250000 0.500000
O O12 0.236843 0.152265 0.657867
O O13 0.632356 0.337962 0.565034
O O14 0.805250 0.423373 0.200870
O O15 0.000000 0.386197 0.750000
#
# Coordination Sequence:
#
# PCOD8139086 Si02
#       7
#     8   8   8   8   8   8   4
#     4  10  23  39  65  95 123 170 228 262 326 391
#     4  10  21  39  64  94 127 163 219 275 321 393
#     4  10  21  39  64  97 129 168 223 265 325 398
#     4  11  23  42  64  97 132 174 219 268 339 405
#     4  11  22  39  67  94 133 173 214 274 328 391
#     4  11  24  43  66  94 133 178 217 275 338 391
#     4  10  20  38  64  96 130 170 216 266 332 384
#
# _framework density 21.121189000000001
#
# number of rings (size 3 to 8) (size 9 to 14) (size 15 to 20)
#    0.000    1.538    1.538    3.692    5.385    2.462 
#    4.154    0.000    0.000    0.000    0.000    0.000 
#    0.000    0.000    0.000    0.000    0.000    0.000 
#
# Total GULP energy -322098.703795 kJ/mol
# GULP energy per Si atom -12388.411684 kJ/mol
# Density = 2.107312 g / cm^3
# Si number density = 21.121189 Si / 1000 Ang^3
#
#
#
# Elastic Constant Matrix: (Units=GPa)
#
#
# Indices 1 2 3 4 5 6 
#
# 1 132.7179 62.2401 42.6274 -0.0007 30.3519 0.0016
# 2 62.2401 101.4014 37.0543 -0.0038 -2.3584 0.0034
# 3 42.6274 37.0543 101.3676 -0.0037 7.4285 0.0041
# 4 -0.0007 -0.0038 -0.0037 37.0693 0.0006 6.8272
# 5 30.3519 -2.3584 7.4285 0.0006 32.3069 -0.0014
# 6 0.0016 0.0034 0.0041 6.8272 -0.0014 23.8259
#
#
#
# Elastic Compliance Matrix: (Units=1/GPa)
#
#
# Indices 1 2 3 4 5 6 
#
# 1 0.016244 -0.009519 -0.002220 -0.000001 -0.015445 0.000000
# 2 -0.009519 0.017066 -0.003033 0.000001 0.010886 -0.000001
# 3 -0.002220 -0.003033 0.011972 0.000001 -0.000889 -0.000002
# 4 -0.000001 0.000001 0.000001 0.028479 -0.000001 -0.008161
# 5 -0.015445 0.010886 -0.000889 -0.000001 0.046463 0.000003
# 6 0.000000 -0.000001 -0.000002 -0.008161 0.000003 0.044310
#
#
# Mechanical properties :
#
#
# Convention : Reuss Voigt Hill
#
# Bulk Modulus (GPa) = 63.53542 68.81450 66.17496
# Shear Modulus (GPa) = 25.08487 31.54476 28.31481
#
# Velocity S-wave (km/s) = 3.44999 3.86879 3.66538
# Velocity P-wave (km/s) = 6.78355 7.25315 7.02228
#
# Compressibility (1/GPa) = 0.01573925
#
# Stress axis : x y z
#
# Youngs Moduli (GPa) = 61.56186 58.59633 83.52530
#
# Poissons Ratio (x) = 0.55775 0.18539
# Poissons Ratio (y) = 0.58598 0.25336
# Poissons Ratio (z) = 0.13664 0.17774
#
# Static dielectric constant tensor:
#      x y z
#    x 4.478690 -0.000010 0.274500 
#    y -0.000010 3.835830 0.000010 
#    z 0.274500 0.000010 3.857970 
# 
# 
# High freq. dielectric constant tensor:
#      x y z
#    x 1.835540 0.000000 0.012270 
#    y 0.000000 1.823010 0.000000 
#    z 0.012270 0.000000 1.814640 
# 
# From -- ./inp_files/114378.got.cif
#   From: 2010.06.25/outbox.cif.g09.slc.cpg/sg15_58_cif.got.tgz:114378.got - 2010.06.28 07:06:18.
