data_PCOD8139414
_publ_section_title
;
Structure prediction by ZEFSAII (Michael W. Deem and Ramdas Pophale) SiO2 
 PCOD8139414
Probable space group: C 2/C
;
_chemical_formula_sum "Si O2"
_cell_formula_units_Z 64
_cell_length_a 18.896104
_cell_length_b 29.476115
_cell_length_c 9.412203
_cell_angle_alpha 90.000000
_cell_angle_beta 140.287480
_cell_angle_gamma 90.000000
_cell_volume 3349.585806
_symmetry_space_group_name_H-M "C 2/C"
_symmetry_group_IT_number 15
_symmetry_cell_setting 'monoclinic'
loop_
_space_group_symop_operation_xyz
x,y,z
-x,y,1/2-z
-x,-y,-z
x,-y,1/2+z
1/2+x,1/2+y,z
1/2-x,1/2+y,1/2-z
1/2-x,1/2-y,-z
1/2+x,1/2-y,1/2+z
loop_
_atom_site_type_symbol
_atom_site_label
_atom_site_fract_x
_atom_site_fract_y
_atom_site_fract_z
Si Si1 0.325788 0.869411 0.369153
Si Si2 0.090352 0.209092 0.769598
Si Si3 0.097126 0.468685 0.599152
Si Si4 0.300706 0.035345 0.948377
Si Si5 0.509998 0.130561 0.925575
Si Si6 0.842031 0.308702 0.661542
Si Si7 0.549809 0.538716 0.480969
Si Si8 0.930643 0.860884 0.508250
O O1 0.359790 0.918153 0.488049
O O2 0.394562 0.862088 0.331079
O O3 0.356965 0.829633 0.527512
O O4 0.195657 0.867273 0.135028
O O5 0.091570 0.261638 0.727727
O O6 0.054226 0.178239 0.582617
O O7 0.000000 0.199727 0.750000
O O8 0.213889 0.195981 0.009586
O O9 0.142237 0.490391 0.524138
O O10 0.047745 0.420914 0.481735
O O11 0.000000 0.500000 0.500000
O O12 0.191944 0.465763 0.868662
O O13 0.180062 0.033572 0.695346
O O14 0.500000 0.148473 0.750000
O O15 0.608447 0.158474 0.146143
O O16 0.500000 0.529214 0.250000
O O17 0.500000 0.500000 0.500000
O O18 0.522201 0.591071 0.480987
O O19 0.000000 0.844807 0.750000
#
# Coordination Sequence:
#
# PCOD8139414 Si02
#       8
#     8   8   8   8   8   8   8   8
#     4  10  20  39  62  80 115 166 198 238 303 366
#     4  10  21  40  66  94 118 152 206 253 298 360
#     4  12  23  36  54  85 118 157 200 247 297 356
#     4  11  22  37  58  80 118 158 199 247 300 351
#     4  12  24  37  56  89 121 153 202 251 300 356
#     4  10  22  41  64  89 120 161 199 243 307 370
#     4  10  21  40  59  85 116 158 204 244 292 358
#     4   9  21  39  61  88 120 158 198 245 307 360
#
# _framework density 19.106839000000001
#
# number of rings (size 3 to 8) (size 9 to 14) (size 15 to 20)
#    0.000    1.500    2.500    3.000    0.000    2.000 
#    2.250    0.000    0.000    6.000    0.000    0.000 
#    0.000    0.000    0.000    0.000    0.000    0.000 
#
# Total GULP energy -396751.964057 kJ/mol
# GULP energy per Si atom -12398.498877 kJ/mol
# Density = 1.906335 g / cm^3
# Si number density = 19.106839 Si / 1000 Ang^3
#
#
#
# Elastic Constant Matrix: (Units=GPa)
#
#
# Indices 1 2 3 4 5 6 
#
# 1 111.5436 52.1479 30.0330 0.0000 -5.5613 0.0000
# 2 52.1479 131.5793 36.4839 0.0000 -2.9454 0.0000
# 3 30.0330 36.4839 93.9103 0.0000 -8.4155 0.0000
# 4 0.0000 0.0000 0.0000 31.4498 0.0000 -1.0545
# 5 -5.5613 -2.9454 -8.4155 0.0000 22.8526 0.0000
# 6 0.0000 0.0000 0.0000 -1.0545 0.0000 28.2212
#
#
#
# Elastic Compliance Matrix: (Units=1/GPa)
#
#
# Indices 1 2 3 4 5 6 
#
# 1 0.011418 -0.003941 -0.001982 0.000000 0.001541 0.000000
# 2 -0.003941 0.009878 -0.002636 0.000000 -0.000657 0.000000
# 3 -0.001982 -0.002636 0.012650 0.000000 0.003836 0.000000
# 4 0.000000 0.000000 0.000000 0.031837 0.000000 0.001190
# 5 0.001541 -0.000657 0.003836 0.000000 0.045462 0.000000
# 6 0.000000 0.000000 0.000000 0.001190 0.000000 0.035479
#
#
# Mechanical properties :
#
#
# Convention : Reuss Voigt Hill
#
# Bulk Modulus (GPa) = 59.42674 63.81808 61.62241
# Shear Modulus (GPa) = 29.50682 31.06260 30.28471
#
# Velocity S-wave (km/s) = 3.93403 4.03641 3.98555
# Velocity P-wave (km/s) = 7.19759 7.42944 7.31444
#
# Compressibility (1/GPa) = 0.01682744
#
# Stress axis : x y z
#
# Youngs Moduli (GPa) = 87.57937 101.23329 79.04924
#
# Poissons Ratio (x) = 0.39897 0.15671
# Poissons Ratio (y) = 0.34516 0.20838
# Poissons Ratio (z) = 0.17362 0.26686
#
# Static dielectric constant tensor:
#      x y z
#    x 3.461610 0.000000 -0.004550 
#    y 0.000000 3.961610 0.000000 
#    z -0.004550 0.000000 3.614790 
# 
# 
# High freq. dielectric constant tensor:
#      x y z
#    x 1.726600 0.000000 0.004910 
#    y 0.000000 1.757060 0.000000 
#    z 0.004910 0.000000 1.754080 
# 
# From -- ./inp_files/52858.got.cif
#   From: 2010.06.25/outbox.cif.g09.slc.cpg/sg15_27_cif.got.tgz:52858.got - 2010.06.28 07:06:18.
