data_PCOD8139705
_publ_section_title
;
Structure prediction by ZEFSAII (Michael W. Deem and Ramdas Pophale) SiO2 
 PCOD8139705
Probable space group: C 2/C
;
_chemical_formula_sum "Si O2"
_cell_formula_units_Z 44
_cell_length_a 7.778528
_cell_length_b 19.984010
_cell_length_c 12.841469
_cell_angle_alpha 90.000000
_cell_angle_beta 104.996499
_cell_angle_gamma 90.000000
_cell_volume 1928.171473
_symmetry_space_group_name_H-M "C 2/C"
_symmetry_group_IT_number 15
_symmetry_cell_setting 'monoclinic'
loop_
_space_group_symop_operation_xyz
x,y,z
-x,y,1/2-z
-x,-y,-z
x,-y,1/2+z
1/2+x,1/2+y,z
1/2-x,1/2+y,1/2-z
1/2-x,1/2-y,-z
1/2+x,1/2-y,1/2+z
loop_
_atom_site_type_symbol
_atom_site_label
_atom_site_fract_x
_atom_site_fract_y
_atom_site_fract_z
Si Si1 0.282283 0.935160 0.814632
Si Si2 0.421641 0.165697 0.486637
Si Si3 0.616872 0.924786 0.169900
Si Si4 0.552590 0.315345 0.040910
Si Si5 0.049493 0.940253 0.587977
Si Si6 0.500000 0.629613 0.750000
O O1 0.377041 0.865346 0.864713
O O2 0.108706 0.938236 0.856591
O O3 0.232620 0.943799 0.683866
O O4 0.415508 0.996813 0.860078
O O5 0.567493 0.118665 0.562265
O O6 0.504463 0.239670 0.494035
O O7 0.252011 0.168499 0.535864
O O8 0.500000 0.900884 0.250000
O O9 0.828856 0.918587 0.220646
O O10 0.529175 0.320572 0.159760
O O11 0.425133 0.370135 0.968104
O O12 0.000000 0.000000 0.500000
#
# Coordination Sequence:
#
# PCOD8139705 Si02
#       6
#     8   8   8   8   8   4
#     4  10  22  39  64  96 135 178 228 281 345 408
#     4  10  23  44  66 100 140 183 226 286 345 416
#     4  12  24  43  69 100 136 181 226 289 346 407
#     4  10  22  43  70  98 139 181 228 282 349 413
#     4  10  20  39  67  99 133 179 230 282 342 410
#     4  12  24  44  70 100 132 180 232 280 350 418
#
# _framework density 22.819547
#
# number of rings (size 3 to 8) (size 9 to 14) (size 15 to 20)
#    0.000    1.455    1.818    3.818    2.545    2.182 
#    8.182    0.000    0.000    0.000    0.000    0.000 
#    0.000    0.000    0.000    0.000    0.000    0.000 
#
# Total GULP energy -272651.588447 kJ/mol
# GULP energy per Si atom -12393.254020 kJ/mol
# Density = 2.276761 g / cm^3
# Si number density = 22.819547 Si / 1000 Ang^3
#
#
#
# Elastic Constant Matrix: (Units=GPa)
#
#
# Indices 1 2 3 4 5 6 
#
# 1 57.1003 31.1265 25.7521 0.0000 8.3238 0.0000
# 2 31.1265 207.3182 88.8646 0.0000 19.2184 0.0000
# 3 25.7521 88.8646 156.3739 0.0000 8.1487 0.0000
# 4 0.0000 0.0000 0.0000 31.4098 0.0000 4.3674
# 5 8.3238 19.2184 8.1487 0.0000 28.9750 0.0000
# 6 0.0000 0.0000 0.0000 4.3674 0.0000 30.2713
#
#
#
# Elastic Compliance Matrix: (Units=1/GPa)
#
#
# Indices 1 2 3 4 5 6 
#
# 1 0.019987 -0.001729 -0.002100 0.000000 -0.004004 0.000000
# 2 -0.001729 0.006845 -0.003445 0.000000 -0.003074 0.000000
# 3 -0.002100 -0.003445 0.008675 0.000000 0.000448 0.000000
# 4 0.000000 0.000000 0.000000 0.032489 0.000000 -0.004687
# 5 -0.004004 -0.003074 0.000448 0.000000 0.037576 0.000000
# 6 0.000000 0.000000 0.000000 -0.004687 0.000000 0.033711
#
#
# Mechanical properties :
#
#
# Convention : Reuss Voigt Hill
#
# Bulk Modulus (GPa) = 47.71464 79.14208 63.42836
# Shear Modulus (GPa) = 31.09143 36.46783 33.77963
#
# Velocity S-wave (km/s) = 3.69520 4.00196 3.85163
# Velocity P-wave (km/s) = 6.25787 7.49074 6.90189
#
# Compressibility (1/GPa) = 0.02095793
#
# Stress axis : x y z
#
# Youngs Moduli (GPa) = 50.03364 146.09879 115.27432
#
# Poissons Ratio (x) = 0.25267 0.24207
# Poissons Ratio (y) = 0.08653 0.39709
# Poissons Ratio (z) = 0.10507 0.50327
#
# Static dielectric constant tensor:
#      x y z
#    x 3.954660 0.000000 0.082850 
#    y 0.000000 4.248880 0.000000 
#    z 0.082850 0.000000 4.506720 
# 
# 
# High freq. dielectric constant tensor:
#      x y z
#    x 1.891060 0.000000 -0.007240 
#    y 0.000000 1.904440 0.000000 
#    z -0.007240 0.000000 1.903290 
# 
# From -- ./inp_files/78297.got.cif
#   From: 2010.06.25/outbox.cif.g09.slc.cpg/sg15_40_cif.got.tgz:78297.got - 2010.06.28 07:06:18.
