data_PCOD8139870
_publ_section_title
;
Structure prediction by ZEFSAII (Michael W. Deem and Ramdas Pophale) SiO2 
 PCOD8139870
Probable space group: C 2/C
;
_chemical_formula_sum "Si O2"
_cell_formula_units_Z 44
_cell_length_a 7.172103
_cell_length_b 18.714312
_cell_length_c 17.813287
_cell_angle_alpha 90.000000
_cell_angle_beta 57.656711
_cell_angle_gamma 90.000000
_cell_volume 2019.984805
_symmetry_space_group_name_H-M "C 2/C"
_symmetry_group_IT_number 15
_symmetry_cell_setting 'monoclinic'
loop_
_space_group_symop_operation_xyz
x,y,z
-x,y,1/2-z
-x,-y,-z
x,-y,1/2+z
1/2+x,1/2+y,z
1/2-x,1/2+y,1/2-z
1/2-x,1/2-y,-z
1/2+x,1/2-y,1/2+z
loop_
_atom_site_type_symbol
_atom_site_label
_atom_site_fract_x
_atom_site_fract_y
_atom_site_fract_z
Si Si1 0.799899 0.088663 0.517263
Si Si2 0.673732 0.757947 0.314025
Si Si3 0.000000 0.633176 0.250000
Si Si4 0.698708 0.291763 0.369994
Si Si5 0.551266 0.824342 0.491227
Si Si6 0.709322 0.933850 0.572087
O O1 0.799826 0.128487 0.597701
O O2 0.680373 0.138700 0.482100
O O3 0.051866 0.072903 0.439089
O O4 0.667915 0.014469 0.553203
O O5 0.777474 0.679681 0.298822
O O6 0.419093 0.749477 0.347041
O O7 0.811080 0.798179 0.218385
O O8 0.693276 0.801048 0.387993
O O9 0.985862 0.584047 0.327116
O O10 0.496152 0.245158 0.446767
O O11 0.701509 0.880128 0.503473
#
# Coordination Sequence:
#
# PCOD8139870 Si02
#       6
#     8   8   4   8   8   8
#     4  10  23  42  60  90 124 168 205 247 318 382
#     4  10  22  34  61  93 118 156 209 259 315 362
#     4  12  22  38  58  96 122 154 208 264 304 368
#     4  10  20  40  62  89 123 158 206 267 307 365
#     4  11  21  41  65  87 123 163 206 263 308 364
#     4  11  24  39  63  89 128 166 204 252 317 382
#
# _framework density 21.782340999999999
#
# number of rings (size 3 to 8) (size 9 to 14) (size 15 to 20)
#    0.000    1.455    1.818    4.909    2.545    4.364 
#    0.000    0.000    0.000    0.000    0.000    0.000 
#    0.000    0.000    0.000    0.000    0.000    0.000 
#
# Total GULP energy -272835.288370 kJ/mol
# GULP energy per Si atom -12401.604017 kJ/mol
# Density = 2.173276 g / cm^3
# Si number density = 21.782341 Si / 1000 Ang^3
#
#
#
# Elastic Constant Matrix: (Units=GPa)
#
#
# Indices 1 2 3 4 5 6 
#
# 1 37.2727 15.5348 31.1823 0.0000 -0.6027 0.0000
# 2 15.5348 134.7507 65.6155 0.0000 8.5798 0.0000
# 3 31.1823 65.6155 141.1898 0.0000 19.1718 0.0000
# 4 0.0000 0.0000 0.0000 24.6048 0.0000 1.4053
# 5 -0.6027 8.5798 19.1718 0.0000 34.1231 0.0000
# 6 0.0000 0.0000 0.0000 1.4053 0.0000 27.5898
#
#
#
# Elastic Compliance Matrix: (Units=1/GPa)
#
#
# Indices 1 2 3 4 5 6 
#
# 1 0.033745 -0.000321 -0.008006 0.000000 0.005175 0.000000
# 2 -0.000321 0.009595 -0.004395 0.000000 0.000051 0.000000
# 3 -0.008006 -0.004395 0.011651 0.000000 -0.005583 0.000000
# 4 0.000000 0.000000 0.000000 0.040761 0.000000 -0.002076
# 5 0.005175 0.000051 -0.005583 0.000000 0.032521 0.000000
# 6 0.000000 0.000000 0.000000 -0.002076 0.000000 0.036351
#
#
# Mechanical properties :
#
#
# Convention : Reuss Voigt Hill
#
# Bulk Modulus (GPa) = 33.84523 59.76428 46.80476
# Shear Modulus (GPa) = 25.01030 30.65558 27.83294
#
# Velocity S-wave (km/s) = 3.39217 3.75555 3.57848
# Velocity P-wave (km/s) = 5.56005 6.80457 6.21354
#
# Compressibility (1/GPa) = 0.02954626
#
# Stress axis : x y z
#
# Youngs Moduli (GPa) = 29.63430 104.22029 85.82646
#
# Poissons Ratio (x) = 0.03349 0.68713
# Poissons Ratio (y) = 0.00952 0.37722
# Poissons Ratio (z) = 0.23725 0.45806
#
# Static dielectric constant tensor:
#      x y z
#    x 3.876630 0.000000 0.086230 
#    y 0.000000 3.824930 0.000000 
#    z 0.086230 0.000000 4.064300 
# 
# 
# High freq. dielectric constant tensor:
#      x y z
#    x 1.856970 0.000000 -0.002520 
#    y 0.000000 1.844170 0.000000 
#    z -0.002520 0.000000 1.858610 
# 
# From -- ./inp_files/134277.got.cif
#   From: 2010.06.25/outbox.cif.g09.slc.cpg/sg15_68_cif.got.tgz:134277.got - 2010.06.28 07:06:18.
