data_PCOD8139955
_publ_section_title
;
Structure prediction by ZEFSAII (Michael W. Deem and Ramdas Pophale) SiO2 
 PCOD8139955
Probable space group: C 2/C
;
_chemical_formula_sum "Si O2"
_cell_formula_units_Z 48
_cell_length_a 15.738401
_cell_length_b 9.796794
_cell_length_c 17.234678
_cell_angle_alpha 90.000000
_cell_angle_beta 65.390709
_cell_angle_gamma 90.000000
_cell_volume 2415.973584
_symmetry_space_group_name_H-M "C 2/C"
_symmetry_group_IT_number 15
_symmetry_cell_setting 'monoclinic'
loop_
_space_group_symop_operation_xyz
x,y,z
-x,y,1/2-z
-x,-y,-z
x,-y,1/2+z
1/2+x,1/2+y,z
1/2-x,1/2+y,1/2-z
1/2-x,1/2-y,-z
1/2+x,1/2-y,1/2+z
loop_
_atom_site_type_symbol
_atom_site_label
_atom_site_fract_x
_atom_site_fract_y
_atom_site_fract_z
Si Si1 0.263299 0.178141 0.077538
Si Si2 0.593406 0.061546 0.998456
Si Si3 0.596706 0.580238 0.248991
Si Si4 0.833274 0.186947 0.700439
Si Si5 0.032464 0.577081 0.320282
Si Si6 0.632710 0.812465 0.338802
O O1 0.166451 0.128971 0.153910
O O2 0.318388 0.283007 0.114078
O O3 0.322350 0.044045 0.037355
O O4 0.250000 0.250000 0.000000
O O5 0.619147 0.196132 0.937447
O O6 0.565554 0.099706 0.096538
O O7 0.500000 0.000000 0.000000
O O8 0.500000 0.525097 0.250000
O O9 0.642124 0.468863 0.289218
O O10 0.568757 0.706879 0.315627
O O11 0.915161 0.279312 0.704138
O O12 0.738700 0.225174 0.780309
O O13 0.105236 0.467548 0.327190
O O14 0.000000 0.523547 0.250000
#
# Coordination Sequence:
#
# PCOD8139955 Si02
#       6
#     8   8   8   8   8   8
#     4  11  24  42  68  95 128 171 224 266 317 389
#     4  10  20  41  65  93 122 162 224 262 303 383
#     4  11  24  39  66  96 132 166 210 263 333 382
#     4  11  21  43  60  92 132 164 204 266 327 372
#     4  11  23  38  68  90 121 168 216 258 317 384
#     4  10  20  40  64  88 123 167 213 260 308 382
#
# _framework density 19.867767000000001
#
# number of rings (size 3 to 8) (size 9 to 14) (size 15 to 20)
#    0.000    1.333    5.000    2.000    9.333    0.000 
#    0.000    5.833    0.000    0.000    0.000    0.000 
#    0.000    0.000    0.000    0.000    0.000    0.000 
#
# Total GULP energy -297461.455890 kJ/mol
# GULP energy per Si atom -12394.227329 kJ/mol
# Density = 1.982255 g / cm^3
# Si number density = 19.867767 Si / 1000 Ang^3
#
#
#
# Elastic Constant Matrix: (Units=GPa)
#
#
# Indices 1 2 3 4 5 6 
#
# 1 85.3367 19.5761 45.5745 0.0000 -0.1903 0.0000
# 2 19.5761 72.0540 34.6503 0.0000 -1.5644 0.0000
# 3 45.5745 34.6503 149.4609 0.0000 -1.0633 0.0000
# 4 0.0000 0.0000 0.0000 34.6159 0.0000 -3.6508
# 5 -0.1903 -1.5644 -1.0633 0.0000 27.1693 0.0000
# 6 0.0000 0.0000 0.0000 -3.6508 0.0000 27.8111
#
#
#
# Elastic Compliance Matrix: (Units=1/GPa)
#
#
# Indices 1 2 3 4 5 6 
#
# 1 0.014252 -0.002009 -0.003881 0.000000 -0.000168 0.000000
# 2 -0.002009 0.015919 -0.003072 0.000000 0.000782 0.000000
# 3 -0.003881 -0.003072 0.008587 0.000000 0.000132 0.000000
# 4 0.000000 0.000000 0.000000 0.029294 0.000000 0.003845
# 5 -0.000168 0.000782 0.000132 0.000000 0.036855 0.000000
# 6 0.000000 0.000000 0.000000 0.003845 0.000000 0.036462
#
#
# Mechanical properties :
#
#
# Convention : Reuss Voigt Hill
#
# Bulk Modulus (GPa) = 48.00187 56.27260 52.13724
# Shear Modulus (GPa) = 30.07738 31.72265 30.90002
#
# Velocity S-wave (km/s) = 3.89508 4.00019 3.94799
# Velocity P-wave (km/s) = 6.66648 7.05127 6.86158
#
# Compressibility (1/GPa) = 0.02083252
#
# Stress axis : x y z
#
# Youngs Moduli (GPa) = 70.16799 62.81884 116.45037
#
# Poissons Ratio (x) = 0.12622 0.45195
# Poissons Ratio (y) = 0.14098 0.35777
# Poissons Ratio (z) = 0.27232 0.19300
#
# Static dielectric constant tensor:
#      x y z
#    x 3.551040 0.000000 -0.049760 
#    y 0.000000 3.703780 0.000000 
#    z -0.049760 0.000000 4.499390 
# 
# 
# High freq. dielectric constant tensor:
#      x y z
#    x 1.773170 0.000000 -0.003950 
#    y 0.000000 1.760460 0.000000 
#    z -0.003950 0.000000 1.787600 
# 
# From -- ./inp_files/208926.got.cif
#   From: 2010.06.25/outbox.cif.g09.slc.cpg/sg15_105_cif.got.tgz:208926.got - 2010.06.28 07:06:18.
