data_PCOD8139379
_publ_section_title
;
Structure prediction by ZEFSAII (Michael W. Deem and Ramdas Pophale) SiO2 
 PCOD8139379
Probable space group: C 2/C
;
_chemical_formula_sum "Si O2"
_cell_formula_units_Z 56
_cell_length_a 10.031742
_cell_length_b 15.691262
_cell_length_c 18.528487
_cell_angle_alpha 90.000000
_cell_angle_beta 67.981963
_cell_angle_gamma 90.000000
_cell_volume 2703.863624
_symmetry_space_group_name_H-M "C 2/C"
_symmetry_group_IT_number 15
_symmetry_cell_setting 'monoclinic'
loop_
_space_group_symop_operation_xyz
x,y,z
-x,y,1/2-z
-x,-y,-z
x,-y,1/2+z
1/2+x,1/2+y,z
1/2-x,1/2+y,1/2-z
1/2-x,1/2-y,-z
1/2+x,1/2-y,1/2+z
loop_
_atom_site_type_symbol
_atom_site_label
_atom_site_fract_x
_atom_site_fract_y
_atom_site_fract_z
Si Si1 0.849662 0.995201 0.412330
Si Si2 0.855603 0.750392 0.585107
Si Si3 0.158160 0.929801 0.372080
Si Si4 0.459339 0.012576 0.334657
Si Si5 0.656314 0.867927 0.539174
Si Si6 0.773107 0.401139 0.195625
Si Si7 0.646086 0.330332 0.518257
O O1 0.774060 0.929268 0.480628
O O2 0.810861 0.969243 0.337966
O O3 0.019983 0.990425 0.392464
O O4 0.798299 0.090959 0.443279
O O5 0.729354 0.812324 0.586390
O O6 0.912524 0.691246 0.507932
O O7 0.784889 0.693159 0.661488
O O8 0.993401 0.802783 0.583535
O O9 0.189736 0.888735 0.287604
O O10 0.128821 0.857581 0.437913
O O11 0.293114 0.985526 0.369600
O O12 0.500000 0.055802 0.250000
O O13 0.474310 0.080188 0.396775
O O14 0.563710 0.932962 0.326310
O O15 0.750000 0.250000 0.500000
#
# Coordination Sequence:
#
# PCOD8139379 Si02
#       7
#     8   8   8   8   8   8   8
#     4  11  22  41  69  90 122 171 221 258 305 390
#     4  10  22  38  58  93 125 157 205 258 321 366
#     4  11  21  43  65  92 127 173 210 259 324 376
#     4  10  21  38  62  87 120 165 210 252 318 374
#     4  10  20  39  61  86 118 164 211 256 303 380
#     4  10  24  41  64  93 128 169 211 266 317 378
#     4  12  24  38  65  98 127 167 209 268 321 379
#
# _framework density 20.711103999999999
#
# number of rings (size 3 to 8) (size 9 to 14) (size 15 to 20)
#    0.000    1.429    2.857    2.571    2.000    1.143 
#    2.571    2.857    0.000    0.000    0.000    0.000 
#    0.000    0.000    0.000    0.000    0.000    0.000 
#
# Total GULP energy -347191.934899 kJ/mol
# GULP energy per Si atom -12399.711961 kJ/mol
# Density = 2.066396 g / cm^3
# Si number density = 20.711104 Si / 1000 Ang^3
#
#
#
# Elastic Constant Matrix: (Units=GPa)
#
#
# Indices 1 2 3 4 5 6 
#
# 1 64.1493 11.3232 17.5639 0.0000 1.0690 0.0000
# 2 11.3232 97.0616 35.0911 0.0000 3.7300 0.0000
# 3 17.5639 35.0911 62.5106 0.0000 10.8711 0.0000
# 4 0.0000 0.0000 0.0000 28.7577 0.0000 0.4036
# 5 1.0690 3.7300 10.8711 0.0000 28.7080 0.0000
# 6 0.0000 0.0000 0.0000 0.4036 0.0000 26.3366
#
#
#
# Elastic Compliance Matrix: (Units=1/GPa)
#
#
# Indices 1 2 3 4 5 6 
#
# 1 0.016936 -0.000283 -0.004814 0.000000 0.001229 0.000000
# 2 -0.000283 0.012966 -0.007395 0.000000 0.001126 0.000000
# 3 -0.004814 -0.007395 0.022805 0.000000 -0.007496 0.000000
# 4 0.000000 0.000000 0.000000 0.034781 0.000000 -0.000533
# 5 0.001229 0.001126 -0.007496 0.000000 0.037480 0.000000
# 6 0.000000 0.000000 0.000000 -0.000533 0.000000 0.037978
#
#
# Mechanical properties :
#
#
# Convention : Reuss Voigt Hill
#
# Bulk Modulus (GPa) = 36.06993 39.07533 37.57263
# Shear Modulus (GPa) = 25.35890 27.41001 26.38446
#
# Velocity S-wave (km/s) = 3.50295 3.64187 3.57308
# Velocity P-wave (km/s) = 5.81502 6.04914 5.93323
#
# Compressibility (1/GPa) = 0.02772393
#
# Stress axis : x y z
#
# Youngs Moduli (GPa) = 59.04579 77.12484 43.85075
#
# Poissons Ratio (x) = 0.02180 0.21108
# Poissons Ratio (y) = 0.01669 0.32428
# Poissons Ratio (z) = 0.28422 0.57034
#
# Static dielectric constant tensor:
#      x y z
#    x 3.785730 0.000000 0.112160 
#    y 0.000000 3.759220 0.000000 
#    z 0.112160 0.000000 3.922960 
# 
# 
# High freq. dielectric constant tensor:
#      x y z
#    x 1.808560 0.000000 0.000280 
#    y 0.000000 1.805480 0.000000 
#    z 0.000280 0.000000 1.814180 
# 
# From -- ./inp_files/190939.got.cif
#   From: 2010.06.25/outbox.cif.g09.slc.cpg/sg15_96_cif.got.tgz:190939.got - 2010.06.28 07:06:18.
