data_PCOD8139957
_publ_section_title
;
Structure prediction by ZEFSAII (Michael W. Deem and Ramdas Pophale) SiO2 
 PCOD8139957
Probable space group: C 2/C
;
_chemical_formula_sum "Si O2"
_cell_formula_units_Z 56
_cell_length_a 8.757540
_cell_length_b 15.630297
_cell_length_c 20.210705
_cell_angle_alpha 90.000000
_cell_angle_beta 90.732247
_cell_angle_gamma 90.000000
_cell_volume 2766.275021
_symmetry_space_group_name_H-M "C 2/C"
_symmetry_group_IT_number 15
_symmetry_cell_setting 'monoclinic'
loop_
_space_group_symop_operation_xyz
x,y,z
-x,y,1/2-z
-x,-y,-z
x,-y,1/2+z
1/2+x,1/2+y,z
1/2-x,1/2+y,1/2-z
1/2-x,1/2-y,-z
1/2+x,1/2-y,1/2+z
loop_
_atom_site_type_symbol
_atom_site_label
_atom_site_fract_x
_atom_site_fract_y
_atom_site_fract_z
Si Si1 0.733320 0.293844 0.331728
Si Si2 0.000000 0.689499 0.250000
Si Si3 0.814256 0.161960 0.025137
Si Si4 0.554849 0.453844 0.323090
Si Si5 0.219176 0.127676 0.326418
Si Si6 0.000000 0.747918 0.750000
Si Si7 0.169151 0.815866 0.548189
Si Si8 0.361796 0.505105 0.947976
O O1 0.585290 0.248776 0.302089
O O2 0.665870 0.383204 0.358512
O O3 0.810635 0.227665 0.381596
O O4 0.871216 0.312956 0.281497
O O5 0.122253 0.632437 0.211822
O O6 0.746102 0.139462 0.096068
O O7 0.994598 0.173778 0.028108
O O8 0.750000 0.250000 0.000000
O O9 0.763380 0.086303 0.973492
O O10 0.500000 0.421280 0.250000
O O11 0.657067 0.535106 0.309953
O O12 0.418396 0.476463 0.373160
O O13 0.090234 0.194587 0.303573
O O14 0.250000 0.750000 0.500000
O O15 0.232698 0.914707 0.550681
O O16 0.500000 0.500000 0.000000
#
# Coordination Sequence:
#
# PCOD8139957 Si02
#       8
#     8   4   8   8   8   4   8   8
#     4  11  22  41  63  96 128 172 215 271 328 395
#     4  10  26  38  64  96 132 166 222 272 328 400
#     4  11  24  42  68  97 130 171 224 274 326 397
#     4  12  23  39  68  98 129 173 223 269 335 404
#     4  11  22  42  65  93 129 176 211 277 333 389
#     4  10  20  40  64  88 132 168 220 256 338 392
#     4  11  23  41  68  93 128 174 218 270 325 394
#     4  10  21  42  64  98 126 177 219 265 324 410
#
# _framework density 20.243829999999999
#
# number of rings (size 3 to 8) (size 9 to 14) (size 15 to 20)
#    0.000    1.143    5.714    1.714    6.000    0.571 
#    0.000    2.143    0.000    0.000    0.000    0.000 
#    0.000    0.000    0.000    0.000    0.000    0.000 
#
# Total GULP energy -346986.485251 kJ/mol
# GULP energy per Si atom -12392.374473 kJ/mol
# Density = 2.019775 g / cm^3
# Si number density = 20.243830 Si / 1000 Ang^3
#
#
#
# Elastic Constant Matrix: (Units=GPa)
#
#
# Indices 1 2 3 4 5 6 
#
# 1 71.5362 41.0544 24.8331 0.0000 -14.4221 0.0000
# 2 41.0544 145.6961 39.5295 0.0000 -21.2863 0.0000
# 3 24.8331 39.5295 100.8297 0.0000 -17.5068 0.0000
# 4 0.0000 0.0000 0.0000 46.4698 0.0000 9.2587
# 5 -14.4221 -21.2863 -17.5068 0.0000 28.4674 0.0000
# 6 0.0000 0.0000 0.0000 9.2587 0.0000 54.5380
#
#
#
# Elastic Compliance Matrix: (Units=1/GPa)
#
#
# Indices 1 2 3 4 5 6 
#
# 1 0.017846 -0.003742 -0.002065 0.000000 0.004973 0.000000
# 2 -0.003742 0.008980 -0.001973 0.000000 0.003606 0.000000
# 3 -0.002065 -0.001973 0.012048 0.000000 0.004888 0.000000
# 4 0.000000 0.000000 0.000000 0.022273 0.000000 -0.003781
# 5 0.004973 0.003606 0.004888 0.000000 0.043350 0.000000
# 6 0.000000 0.000000 0.000000 -0.003781 0.000000 0.018978
#
#
# Mechanical properties :
#
#
# Convention : Reuss Voigt Hill
#
# Bulk Modulus (GPa) = 42.89027 58.76619 50.82823
# Shear Modulus (GPa) = 34.05872 40.07137 37.06504
#
# Velocity S-wave (km/s) = 4.10619 4.45391 4.28358
# Velocity P-wave (km/s) = 6.61165 7.45265 7.04471
#
# Compressibility (1/GPa) = 0.02331531
#
# Stress axis : x y z
#
# Youngs Moduli (GPa) = 56.03573 111.35771 82.99833
#
# Poissons Ratio (x) = 0.41668 0.17137
# Poissons Ratio (y) = 0.20967 0.16375
# Poissons Ratio (z) = 0.11570 0.21970
#
# Static dielectric constant tensor:
#      x y z
#    x 3.482790 0.000000 -0.097960 
#    y 0.000000 4.023890 0.000000 
#    z -0.097960 0.000000 2.945220 
# 
# 
# High freq. dielectric constant tensor:
#      x y z
#    x 1.766220 0.000000 -0.008260 
#    y 0.000000 1.803400 0.000000 
#    z -0.008260 0.000000 1.801550 
# 
# From -- ./inp_files/231616.got.cif
#   From: 2010.06.25/outbox.cif.g09.slc.cpg/sg15_116_cif.got.tgz:231616.got - 2010.06.28 07:06:18.
