data_PCOD8139405
_publ_section_title
;
Structure prediction by ZEFSAII (Michael W. Deem and Ramdas Pophale) SiO2 
 PCOD8139405
Probable space group: C 2/C
;
_chemical_formula_sum "Si O2"
_cell_formula_units_Z 36
_cell_length_a 18.671720
_cell_length_b 8.955468
_cell_length_c 22.386984
_cell_angle_alpha 90.000000
_cell_angle_beta 153.858927
_cell_angle_gamma 90.000000
_cell_volume 1649.285177
_symmetry_space_group_name_H-M "C 2/C"
_symmetry_group_IT_number 15
_symmetry_cell_setting 'monoclinic'
loop_
_space_group_symop_operation_xyz
x,y,z
-x,y,1/2-z
-x,-y,-z
x,-y,1/2+z
1/2+x,1/2+y,z
1/2-x,1/2+y,1/2-z
1/2-x,1/2-y,-z
1/2+x,1/2-y,1/2+z
loop_
_atom_site_type_symbol
_atom_site_label
_atom_site_fract_x
_atom_site_fract_y
_atom_site_fract_z
Si Si1 0.464084 0.867982 0.114693
Si Si2 0.096122 0.371997 0.642801
Si Si3 0.500000 0.925605 0.750000
Si Si4 0.206143 0.883021 0.828843
Si Si5 0.766827 0.216292 0.645719
O O1 0.549604 0.716541 0.199537
O O2 0.579053 0.959198 0.154790
O O3 0.424700 0.972622 0.141557
O O4 0.296130 0.823654 0.956060
O O5 0.164875 0.378226 0.628154
O O6 0.217545 0.279119 0.775565
O O7 0.921812 0.291047 0.512831
O O8 0.352992 0.824638 0.663279
O O9 0.149745 0.053356 0.795699
#
# Coordination Sequence:
#
# PCOD8139405 Si02
#       5
#     8   8   4   8   8
#     4  10  23  38  60  85 123 151 189 245 283 347
#     4  10  20  39  61  91 119 148 190 242 293 342
#     4  10  24  44  56  84 116 158 202 234 288 338
#     4  11  21  38  62  92 115 151 192 240 297 339
#     4  10  22  38  64  84 118 157 192 238 283 351
#
# _framework density 21.827636999999999
#
# number of rings (size 3 to 8) (size 9 to 14) (size 15 to 20)
#    0.000    1.778    0.000    5.333    0.000   13.333 
#    0.000    7.778    0.000    0.000    0.000    0.000 
#    0.000    0.000    0.000    0.000    0.000    0.000 
#
# Total GULP energy -223266.594754 kJ/mol
# GULP energy per Si atom -12403.699709 kJ/mol
# Density = 2.177796 g / cm^3
# Si number density = 21.827637 Si / 1000 Ang^3
#
#
#
# Elastic Constant Matrix: (Units=GPa)
#
#
# Indices 1 2 3 4 5 6 
#
# 1 98.9363 20.9324 13.3950 -0.0019 -19.4010 -0.0012
# 2 20.9324 88.6537 26.0869 -0.0024 -13.4721 -0.0016
# 3 13.3950 26.0869 65.4670 -0.0035 -30.0933 -0.0028
# 4 -0.0019 -0.0024 -0.0035 40.3248 -0.0017 -6.4870
# 5 -19.4010 -13.4721 -30.0933 -0.0017 30.7445 -0.0010
# 6 -0.0012 -0.0016 -0.0028 -6.4870 -0.0010 24.5941
#
#
#
# Elastic Compliance Matrix: (Units=1/GPa)
#
#
# Indices 1 2 3 4 5 6 
#
# 1 0.012025 -0.002222 0.002664 0.000001 0.009223 0.000001
# 2 -0.002222 0.013210 -0.005077 0.000000 -0.000583 0.000000
# 3 0.002664 -0.005077 0.030002 0.000005 0.028823 0.000006
# 4 0.000001 0.000000 0.000005 0.025898 0.000007 0.006831
# 5 0.009223 -0.000583 0.028823 0.000007 0.066303 0.000008
# 6 0.000001 0.000000 0.000006 0.006831 0.000008 0.042462
#
#
# Mechanical properties :
#
#
# Convention : Reuss Voigt Hill
#
# Bulk Modulus (GPa) = 21.75442 41.54283 31.64863
# Shear Modulus (GPa) = 23.31089 31.97551 27.64320
#
# Velocity S-wave (km/s) = 3.27150 3.83157 3.56256
# Velocity P-wave (km/s) = 4.92528 6.21676 5.60832
#
# Compressibility (1/GPa) = 0.04596767
#
# Stress axis : x y z
#
# Youngs Moduli (GPa) = 83.15705 75.70117 33.33108
#
# Poissons Ratio (x) = 0.16820 -0.08881
# Poissons Ratio (y) = 0.18476 0.16923
# Poissons Ratio (z) = -0.22156 0.38436
#
# Static dielectric constant tensor:
#      x y z
#    x 3.912040 0.000000 -0.396810 
#    y 0.000000 4.088210 0.000000 
#    z -0.396810 0.000000 3.883400 
# 
# 
# High freq. dielectric constant tensor:
#      x y z
#    x 1.860300 0.000000 -0.024540 
#    y 0.000000 1.863910 0.000000 
#    z -0.024540 0.000000 1.858030 
# 
# From -- ./inp_files/53613.got.cif
#   From: 2010.06.25/outbox.cif.g09.slc.cpg/sg15_27_cif.got.tgz:53613.got - 2010.06.28 07:06:18.
