data_PCOD8139691
_publ_section_title
;
Structure prediction by ZEFSAII (Michael W. Deem and Ramdas Pophale) SiO2 
 PCOD8139691
Probable space group: C 2/C
;
_chemical_formula_sum "Si O2"
_cell_formula_units_Z 56
_cell_length_a 12.043708
_cell_length_b 10.805574
_cell_length_c 25.397617
_cell_angle_alpha 90.000000
_cell_angle_beta 130.546377
_cell_angle_gamma 90.000000
_cell_volume 2511.574482
_symmetry_space_group_name_H-M "C 2/C"
_symmetry_group_IT_number 15
_symmetry_cell_setting 'monoclinic'
loop_
_space_group_symop_operation_xyz
x,y,z
-x,y,1/2-z
-x,-y,-z
x,-y,1/2+z
1/2+x,1/2+y,z
1/2-x,1/2+y,1/2-z
1/2-x,1/2-y,-z
1/2+x,1/2-y,1/2+z
loop_
_atom_site_type_symbol
_atom_site_label
_atom_site_fract_x
_atom_site_fract_y
_atom_site_fract_z
Si Si1 0.372531 0.050983 0.561249
Si Si2 0.040221 0.579092 0.204652
Si Si3 0.605570 0.387517 0.045518
Si Si4 0.355651 0.189088 0.989547
Si Si5 0.084455 0.142378 0.727606
Si Si6 0.142116 0.286671 0.125628
Si Si7 0.334475 0.485899 0.835001
O O1 0.434284 0.979988 0.630386
O O2 0.369063 0.953623 0.511816
O O3 0.220161 0.117636 0.531626
O O4 0.481853 0.156623 0.576885
O O5 0.016560 0.725286 0.192121
O O6 0.207510 0.537373 0.252601
O O7 0.000000 0.532561 0.250000
O O8 0.511702 0.262539 0.029271
O O9 0.698313 0.420797 0.126818
O O10 0.500000 0.500000 0.000000
O O11 0.250000 0.250000 0.000000
O O12 0.283471 0.190820 0.908866
O O13 0.254766 0.160291 0.796733
O O14 0.000000 0.080738 0.750000
O O15 0.050631 0.055143 0.667326
O O16 0.109798 0.141662 0.123452
#
# Coordination Sequence:
#
# PCOD8139691 Si02
#       7
#     8   8   8   8   8   8   8
#     4  12  24  45  68  99 141 178 229 290 347 412
#     4  10  20  39  67  93 123 171 219 275 335 396
#     4  12  24  42  70 103 126 185 234 278 344 407
#     4  12  26  45  70  97 135 181 235 282 339 421
#     4  10  23  38  67  96 132 175 225 278 339 405
#     4  11  25  44  64 101 136 178 224 283 350 409
#     4  11  21  43  65  94 135 164 228 276 332 422
#
# _framework density 22.296769999999999
#
# number of rings (size 3 to 8) (size 9 to 14) (size 15 to 20)
#    0.000    0.857    5.714    1.286    6.000    0.571 
#    2.571    0.714    0.000    0.000    0.000    0.000 
#    0.000    0.000    0.000    0.000    0.000    0.000 
#
# Total GULP energy -346894.558513 kJ/mol
# GULP energy per Si atom -12389.091375 kJ/mol
# Density = 2.224602 g / cm^3
# Si number density = 22.296770 Si / 1000 Ang^3
#
#
#
# Elastic Constant Matrix: (Units=GPa)
#
#
# Indices 1 2 3 4 5 6 
#
# 1 123.9675 43.1606 12.8299 0.0000 -12.2153 0.0000
# 2 43.1606 74.8737 24.3382 0.0000 -15.0164 0.0000
# 3 12.8299 24.3382 67.5256 0.0000 -20.0327 0.0000
# 4 0.0000 0.0000 0.0000 41.0949 0.0000 -6.1913
# 5 -12.2153 -15.0164 -20.0327 0.0000 41.6313 0.0000
# 6 0.0000 0.0000 0.0000 -6.1913 0.0000 40.5548
#
#
#
# Elastic Compliance Matrix: (Units=1/GPa)
#
#
# Indices 1 2 3 4 5 6 
#
# 1 0.010138 -0.005778 0.000490 0.000000 0.001127 0.000000
# 2 -0.005778 0.018821 -0.004870 0.000000 0.002750 0.000000
# 3 0.000490 -0.004870 0.018656 0.000000 0.007365 0.000000
# 4 0.000000 0.000000 0.000000 0.024907 0.000000 0.003802
# 5 0.001127 0.002750 0.007365 0.000000 0.028887 0.000000
# 6 0.000000 0.000000 0.000000 0.003802 0.000000 0.025238
#
#
# Mechanical properties :
#
#
# Convention : Reuss Voigt Hill
#
# Bulk Modulus (GPa) = 36.62876 47.44713 42.03795
# Shear Modulus (GPa) = 32.03849 37.05875 34.54862
#
# Velocity S-wave (km/s) = 3.79477 4.08127 3.94063
# Velocity P-wave (km/s) = 5.97193 6.59811 6.29281
#
# Compressibility (1/GPa) = 0.02730095
#
# Stress axis : x y z
#
# Youngs Moduli (GPa) = 98.63423 53.13239 53.60171
#
# Poissons Ratio (x) = 0.30698 -0.02629
# Poissons Ratio (y) = 0.56988 0.26104
# Poissons Ratio (z) = -0.04837 0.25875
#
# Static dielectric constant tensor:
#      x y z
#    x 4.795800 0.000000 0.321810 
#    y 0.000000 4.006070 0.000000 
#    z 0.321810 0.000000 4.690730 
# 
# 
# High freq. dielectric constant tensor:
#      x y z
#    x 1.877560 0.000000 -0.007610 
#    y 0.000000 1.868240 0.000000 
#    z -0.007610 0.000000 1.890580 
# 
# From -- ./inp_files/268993.got.cif
#   From: 2010.06.25/outbox.cif.g09.slc.cpg/sg15_135_cif.got.tgz:268993.got - 2010.06.28 07:06:18.
