data_PCOD8139720
_publ_section_title
;
Structure prediction by ZEFSAII (Michael W. Deem and Ramdas Pophale) SiO2 
 PCOD8139720
Probable space group: C 2/C
;
_chemical_formula_sum "Si O2"
_cell_formula_units_Z 36
_cell_length_a 7.577426
_cell_length_b 17.000278
_cell_length_c 16.424417
_cell_angle_alpha 90.000000
_cell_angle_beta 55.373630
_cell_angle_gamma 90.000000
_cell_volume 1741.011035
_symmetry_space_group_name_H-M "C 2/C"
_symmetry_group_IT_number 15
_symmetry_cell_setting 'monoclinic'
loop_
_space_group_symop_operation_xyz
x,y,z
-x,y,1/2-z
-x,-y,-z
x,-y,1/2+z
1/2+x,1/2+y,z
1/2-x,1/2+y,1/2-z
1/2-x,1/2-y,-z
1/2+x,1/2-y,1/2+z
loop_
_atom_site_type_symbol
_atom_site_label
_atom_site_fract_x
_atom_site_fract_y
_atom_site_fract_z
Si Si1 0.174140 0.834534 0.768632
Si Si2 0.901585 0.969064 0.608703
Si Si3 0.499038 0.962530 0.875537
Si Si4 0.000000 0.210331 0.750000
Si Si5 0.223921 0.075629 0.599307
O O1 0.063264 0.875813 0.877671
O O2 0.307914 0.905007 0.694138
O O3 0.327664 0.762655 0.748240
O O4 0.000000 0.803198 0.750000
O O5 0.644876 0.982561 0.666835
O O6 0.000000 0.000000 0.500000
O O7 0.012014 0.019943 0.651278
O O8 0.599410 0.042912 0.883784
O O9 0.341527 0.918946 0.981353
O O10 0.862723 0.160091 0.850373
#
# Coordination Sequence:
#
# PCOD8139720 Si02
#       5
#     8   8   8   4   8
#     4  12  23  40  61  90 131 173 205 257 319 376
#     4  10  20  39  68  94 117 163 218 257 306 376
#     4  10  20  40  69  90 119 165 217 257 309 374
#     4  12  26  40  58  96 136 162 202 266 330 364
#     4  10  22  39  66  96 121 159 216 267 305 376
#
# _framework density 20.677641000000001
#
# number of rings (size 3 to 8) (size 9 to 14) (size 15 to 20)
#    0.000    1.333    4.444    1.333    0.000    2.667 
#    0.000    1.111    0.000    0.000    0.000    0.000 
#    0.000    0.000    0.000    0.000    0.000    0.000 
#
# Total GULP energy -223028.888156 kJ/mol
# GULP energy per Si atom -12390.493786 kJ/mol
# Density = 2.063058 g / cm^3
# Si number density = 20.677641 Si / 1000 Ang^3
#
#
#
# Elastic Constant Matrix: (Units=GPa)
#
#
# Indices 1 2 3 4 5 6 
#
# 1 184.1260 48.5731 5.0709 0.0000 -5.0651 0.0000
# 2 48.5731 106.4544 32.3290 0.0000 0.0826 0.0000
# 3 5.0709 32.3290 76.6749 0.0000 -16.0009 0.0000
# 4 0.0000 0.0000 0.0000 27.6636 0.0000 -14.3786
# 5 -5.0651 0.0826 -16.0009 0.0000 18.5449 0.0000
# 6 0.0000 0.0000 0.0000 -14.3786 0.0000 39.2007
#
#
#
# Elastic Compliance Matrix: (Units=1/GPa)
#
#
# Indices 1 2 3 4 5 6 
#
# 1 0.006377 -0.003427 0.001695 0.000000 0.003220 0.000000
# 2 -0.003427 0.012983 -0.006653 0.000000 -0.006734 0.000000
# 3 0.001695 -0.006653 0.019316 0.000000 0.017159 0.000000
# 4 0.000000 0.000000 0.000000 0.044664 0.000000 0.016382
# 5 0.003220 -0.006734 0.017159 0.000000 0.069637 0.000000
# 6 0.000000 0.000000 0.000000 0.016382 0.000000 0.031519
#
#
# Mechanical properties :
#
#
# Convention : Reuss Voigt Hill
#
# Bulk Modulus (GPa) = 45.64863 59.91124 52.77993
# Shear Modulus (GPa) = 23.97311 35.83398 29.90355
#
# Velocity S-wave (km/s) = 3.40865 4.16743 3.80699
# Velocity P-wave (km/s) = 6.13320 7.22450 6.70110
#
# Compressibility (1/GPa) = 0.02190646
#
# Stress axis : x y z
#
# Youngs Moduli (GPa) = 156.81364 77.02412 51.77110
#
# Poissons Ratio (x) = 0.26396 -0.08776
# Poissons Ratio (y) = 0.53740 0.34442
# Poissons Ratio (z) = -0.26581 0.51242
#
# Static dielectric constant tensor:
#      x y z
#    x 4.530930 0.000000 -0.150910 
#    y 0.000000 3.550300 0.000000 
#    z -0.150910 0.000000 3.981950 
# 
# 
# High freq. dielectric constant tensor:
#      x y z
#    x 1.841620 0.000000 -0.004280 
#    y 0.000000 1.774330 0.000000 
#    z -0.004280 0.000000 1.816280 
# 
# From -- ./inp_files/230593.got.cif
#   From: 2010.06.25/outbox.cif.g09.slc.cpg/sg15_116_cif.got.tgz:230593.got - 2010.06.28 07:06:18.
