data_PCOD8139099
_publ_section_title
;
Structure prediction by ZEFSAII (Michael W. Deem and Ramdas Pophale) SiO2 
 PCOD8139099
Probable space group: C 2/C
;
_chemical_formula_sum "Si O2"
_cell_formula_units_Z 56
_cell_length_a 7.627448
_cell_length_b 12.365708
_cell_length_c 25.700738
_cell_angle_alpha 90.000000
_cell_angle_beta 80.984468
_cell_angle_gamma 90.000000
_cell_volume 2394.115514
_symmetry_space_group_name_H-M "C 2/C"
_symmetry_group_IT_number 15
_symmetry_cell_setting 'monoclinic'
loop_
_space_group_symop_operation_xyz
x,y,z
-x,y,1/2-z
-x,-y,-z
x,-y,1/2+z
1/2+x,1/2+y,z
1/2-x,1/2+y,1/2-z
1/2-x,1/2-y,-z
1/2+x,1/2-y,1/2+z
loop_
_atom_site_type_symbol
_atom_site_label
_atom_site_fract_x
_atom_site_fract_y
_atom_site_fract_z
Si Si1 0.892191 0.895941 0.141105
Si Si2 0.919102 0.313646 0.851154
Si Si3 0.049154 0.111297 0.524929
Si Si4 0.653226 0.773247 0.438256
Si Si5 0.641613 0.025159 0.288981
Si Si6 0.993483 0.324264 0.336872
Si Si7 0.899514 0.106981 0.199087
O O1 0.684332 0.893257 0.163831
O O2 0.996506 0.802479 0.166202
O O3 0.911158 0.878961 0.078535
O O4 0.965968 0.011531 0.157773
O O5 0.813801 0.307227 0.911267
O O6 0.777782 0.336311 0.813319
O O7 0.076192 0.403606 0.841889
O O8 0.251056 0.122628 0.538882
O O9 0.027991 0.208982 0.484443
O O10 0.000000 0.000000 0.500000
O O11 0.531324 0.809193 0.396187
O O12 0.500000 0.042332 0.250000
O O13 0.842414 0.061623 0.260116
O O14 0.649298 0.899146 0.305045
O O15 0.966273 0.209472 0.308213
#
# Coordination Sequence:
#
# PCOD8139099 Si02
#       7
#     8   8   8   8   8   8   8
#     4  11  22  40  65  93 129 162 209 269 312 359
#     4   9  19  39  62  82 124 165 202 252 311 361
#     4  10  20  39  69  87 124 169 209 253 323 377
#     4   9  21  40  61  93 122 164 208 260 311 378
#     4  10  20  38  65  86 123 174 203 247 323 370
#     4  11  22  40  66  92 131 158 215 264 314 372
#     4  10  22  41  61  87 125 171 206 254 314 375
#
# _framework density 23.390682000000002
#
# number of rings (size 3 to 8) (size 9 to 14) (size 15 to 20)
#    0.000    2.000    2.857    1.714    2.000    0.571 
#   10.286    0.714    0.000    0.000    0.000    0.000 
#    0.000    0.000    0.000    0.000    0.000    0.000 
#
# Total GULP energy -346963.808767 kJ/mol
# GULP energy per Si atom -12391.564599 kJ/mol
# Density = 2.333744 g / cm^3
# Si number density = 23.390682 Si / 1000 Ang^3
#
#
#
# Elastic Constant Matrix: (Units=GPa)
#
#
# Indices 1 2 3 4 5 6 
#
# 1 23.0008 23.1835 10.8380 0.0000 -9.5983 0.0000
# 2 23.1835 167.4683 48.0101 0.0000 -10.7065 0.0000
# 3 10.8380 48.0101 104.9684 0.0000 -8.0244 0.0000
# 4 0.0000 0.0000 0.0000 40.1044 0.0000 2.7981
# 5 -9.5983 -10.7065 -8.0244 0.0000 34.2625 0.0000
# 6 0.0000 0.0000 0.0000 2.7981 0.0000 38.8588
#
#
#
# Elastic Compliance Matrix: (Units=1/GPa)
#
#
# Indices 1 2 3 4 5 6 
#
# 1 0.056400 -0.006419 -0.001866 0.000000 0.013357 0.000000
# 2 -0.006419 0.007673 -0.002852 0.000000 -0.000068 0.000000
# 3 -0.001866 -0.002852 0.011115 0.000000 0.001189 0.000000
# 4 0.000000 0.000000 0.000000 0.025061 0.000000 -0.001805
# 5 0.013357 -0.000068 0.001189 0.000000 0.033185 0.000000
# 6 0.000000 0.000000 0.000000 -0.001805 0.000000 0.025864
#
#
# Mechanical properties :
#
#
# Convention : Reuss Voigt Hill
#
# Bulk Modulus (GPa) = 18.89880 51.05564 34.97722
# Shear Modulus (GPa) = 25.09912 36.87220 30.98566
#
# Velocity S-wave (km/s) = 3.27928 3.97465 3.64359
# Velocity P-wave (km/s) = 4.73660 6.55275 5.71725
#
# Compressibility (1/GPa) = 0.05291341
#
# Stress axis : x y z
#
# Youngs Moduli (GPa) = 17.73053 130.32547 89.97077
#
# Poissons Ratio (x) = 0.83652 0.16793
# Poissons Ratio (y) = 0.11381 0.25660
# Poissons Ratio (z) = 0.03309 0.37169
#
# Static dielectric constant tensor:
#      x y z
#    x 4.333160 0.000000 -0.246490 
#    y 0.000000 4.560470 0.000000 
#    z -0.246490 0.000000 4.616460 
# 
# 
# High freq. dielectric constant tensor:
#      x y z
#    x 1.917840 0.000000 -0.002310 
#    y 0.000000 1.931620 0.000000 
#    z -0.002310 0.000000 1.926470 
# 
# From -- ./inp_files/307081.got.cif
#   From: 2010.06.25/outbox.cif.g09.slc.cpg/sg15_154_cif.got.tgz:307081.got - 2010.06.28 07:06:18.
