data_PCOD8139282
_publ_section_title
;
Structure prediction by ZEFSAII (Michael W. Deem and Ramdas Pophale) SiO2 
 PCOD8139282
Probable space group: C 2/C
;
_chemical_formula_sum "Si O2"
_cell_formula_units_Z 44
_cell_length_a 13.117155
_cell_length_b 26.743952
_cell_length_c 8.659438
_cell_angle_alpha 90.000000
_cell_angle_beta 137.300880
_cell_angle_gamma 90.000000
_cell_volume 2060.059062
_symmetry_space_group_name_H-M "C 2/C"
_symmetry_group_IT_number 15
_symmetry_cell_setting 'monoclinic'
loop_
_space_group_symop_operation_xyz
x,y,z
-x,y,1/2-z
-x,-y,-z
x,-y,1/2+z
1/2+x,1/2+y,z
1/2-x,1/2+y,1/2-z
1/2-x,1/2-y,-z
1/2+x,1/2-y,1/2+z
loop_
_atom_site_type_symbol
_atom_site_label
_atom_site_fract_x
_atom_site_fract_y
_atom_site_fract_z
Si Si1 0.266869 0.184747 0.636523
Si Si2 0.627916 0.976191 0.284253
Si Si3 0.908104 0.038912 0.499410
Si Si4 0.237599 0.389401 0.626876
Si Si5 0.000000 0.244225 0.250000
Si Si6 0.040307 0.607990 0.474415
O O1 0.223536 0.159129 0.425578
O O2 0.109079 0.213149 0.490225
O O3 0.402405 0.223116 0.760320
O O4 0.317912 0.144587 0.825406
O O5 0.500000 0.001025 0.250000
O O6 0.700452 0.933078 0.466200
O O7 0.745100 0.018576 0.366772
O O8 0.568941 0.949990 0.059623
O O9 0.882704 0.090940 0.382059
O O10 0.000000 0.053946 0.750000
O O11 0.000000 0.000000 0.500000
O O12 0.100907 0.373344 0.584233
O O13 0.000000 0.610801 0.250000
#
# Coordination Sequence:
#
# PCOD8139282 Si02
#       6
#     8   8   8   8   4   8
#     4  10  20  42  67  96 119 160 205 254 311 384
#     4   9  21  41  62  82 119 175 224 253 295 371
#     4  12  25  40  58  89 129 171 218 268 311 358
#     4  10  21  40  60  86 129 164 208 258 301 374
#     4  10  20  38  78  90 114 158 212 244 312 394
#     4  10  21  37  63  92 128 163 207 258 313 368
#
# _framework density 21.358611
#
# number of rings (size 3 to 8) (size 9 to 14) (size 15 to 20)
#    0.000    1.818    3.636    1.091    2.545    6.545 
#    0.000    2.727    0.000    0.000    0.000    0.000 
#    0.000    0.000    0.000    0.000    0.000    0.000 
#
# Total GULP energy -272672.376864 kJ/mol
# GULP energy per Si atom -12394.198948 kJ/mol
# Density = 2.131000 g / cm^3
# Si number density = 21.358611 Si / 1000 Ang^3
#
#
#
# Elastic Constant Matrix: (Units=GPa)
#
#
# Indices 1 2 3 4 5 6 
#
# 1 66.7014 43.7792 55.0423 0.0000 3.8918 0.0000
# 2 43.7792 77.2231 51.3542 0.0000 -1.5624 0.0000
# 3 55.0423 51.3542 166.4868 0.0000 -15.1334 0.0000
# 4 0.0000 0.0000 0.0000 -219.6676 0.0000 13.6148
# 5 3.8918 -1.5624 -15.1334 0.0000 42.0818 0.0000
# 6 0.0000 0.0000 0.0000 13.6148 0.0000 19.7547
#
#
#
# Elastic Compliance Matrix: (Units=1/GPa)
#
#
# Indices 1 2 3 4 5 6 
#
# 1 0.028248 -0.012068 -0.006094 0.000000 -0.005252 0.000000
# 2 -0.012068 0.021510 -0.002555 0.000000 0.000996 0.000000
# 3 -0.006094 -0.002555 0.009151 0.000000 0.003760 0.000000
# 4 0.000000 0.000000 0.000000 -0.004366 0.000000 0.003009
# 5 -0.005252 0.000996 0.003760 0.000000 0.025638 0.000000
# 6 0.000000 0.000000 0.000000 0.003009 0.000000 0.048547
#
#
# Mechanical properties :
#
#
# Convention : Reuss Voigt Hill
#
# Bulk Modulus (GPa) = 57.22187 67.86252 62.54220
# Shear Modulus (GPa) = 28.41104 -20.88385 3.76359
#
# Velocity S-wave (km/s) = 3.65114 -3.13033 1.32888
# Velocity P-wave (km/s) = 6.68009 4.33320 5.63028
#
# Compressibility (1/GPa) = 0.01747584
#
# Stress axis : x y z
#
# Youngs Moduli (GPa) = 35.40018 46.48965 109.27785
#
# Poissons Ratio (x) = 0.56105 0.66595
# Poissons Ratio (y) = 0.42722 0.27916
# Poissons Ratio (z) = 0.21573 0.11876
#
# Static dielectric constant tensor:
#      x y z
#    x 3.965400 0.000000 -0.007130 
#    y 0.000000 3.970660 0.000000 
#    z -0.007130 0.000000 4.224130 
# 
# 
# High freq. dielectric constant tensor:
#      x y z
#    x 1.820750 0.000000 0.007690 
#    y 0.000000 1.831270 0.000000 
#    z 0.007690 0.000000 1.850080 
# 
# From -- ./inp_files/34482.got.cif
#   From: 2010.06.25/outbox.cif.g09.slc.cpg/sg15_18_cif.got.tgz:34482.got - 2010.06.28 07:06:18.
