data_PCOD8139043
_publ_section_title
;
Structure prediction by ZEFSAII (Michael W. Deem and Ramdas Pophale) SiO2 
 PCOD8139043
Probable space group: C 2/C
;
_chemical_formula_sum "Si O2"
_cell_formula_units_Z 56
_cell_length_a 19.022643
_cell_length_b 9.874579
_cell_length_c 27.879117
_cell_angle_alpha 90.000000
_cell_angle_beta 32.986911
_cell_angle_gamma 90.000000
_cell_volume 2851.178534
_symmetry_space_group_name_H-M "C 2/C"
_symmetry_group_IT_number 15
_symmetry_cell_setting 'monoclinic'
loop_
_space_group_symop_operation_xyz
x,y,z
-x,y,1/2-z
-x,-y,-z
x,-y,1/2+z
1/2+x,1/2+y,z
1/2-x,1/2+y,1/2-z
1/2-x,1/2-y,-z
1/2+x,1/2-y,1/2+z
loop_
_atom_site_type_symbol
_atom_site_label
_atom_site_fract_x
_atom_site_fract_y
_atom_site_fract_z
Si Si1 0.377010 0.091170 0.954701
Si Si2 0.090743 0.033889 0.741776
Si Si3 0.268505 0.772678 0.195536
Si Si4 0.833341 0.630545 0.089116
Si Si5 0.473259 0.627138 0.484249
Si Si6 0.601725 0.602265 0.077004
Si Si7 0.621681 0.035448 0.333526
O O1 0.393513 0.097239 0.002691
O O2 0.237111 0.040483 0.018259
O O3 0.405172 0.234822 0.912346
O O4 0.488563 0.980927 0.879075
O O5 0.171554 0.167157 0.710717
O O6 0.000000 0.077418 0.750000
O O7 0.182995 0.909975 0.672819
O O8 0.011368 0.975154 0.831420
O O9 0.397580 0.716827 0.096593
O O10 0.302517 0.892534 0.213488
O O11 0.203668 0.654409 0.263344
O O12 0.900672 0.559829 0.096423
O O13 0.861603 0.790661 0.076825
O O14 0.500000 0.500000 0.500000
O O15 0.413852 0.568691 0.469487
#
# Coordination Sequence:
#
# PCOD8139043 Si02
#       7
#     8   8   8   8   8   8   8
#     4  10  20  38  64  90 123 159 216 256 307 375
#     4  11  23  40  64  89 128 167 211 255 323 380
#     4  11  25  41  64  93 127 164 209 262 315 380
#     4  10  21  36  64  92 117 168 208 255 308 379
#     4  11  24  41  63  94 131 160 215 266 314 374
#     4  10  21  40  61  93 125 162 207 265 309 369
#     4  11  23  40  64  93 125 166 212 258 315 378
#
# _framework density 19.641002
#
# number of rings (size 3 to 8) (size 9 to 14) (size 15 to 20)
#    0.000    1.429    4.286    2.143    6.000    0.000 
#    2.571    0.714    0.000    0.000    0.000    0.000 
#    0.000    0.000    0.000    0.000    0.000    0.000 
#
# Total GULP energy -346979.762500 kJ/mol
# GULP energy per Si atom -12392.134375 kJ/mol
# Density = 1.959630 g / cm^3
# Si number density = 19.641002 Si / 1000 Ang^3
#
#
#
# Elastic Constant Matrix: (Units=GPa)
#
#
# Indices 1 2 3 4 5 6 
#
# 1 120.0761 53.7741 45.1876 0.0003 -25.1551 -0.0004
# 2 53.7741 117.9901 59.8810 0.0004 -5.9486 -0.0008
# 3 45.1876 59.8810 74.3745 -0.0002 -14.9923 -0.0004
# 4 0.0003 0.0004 -0.0002 28.6823 -0.0001 -4.1185
# 5 -25.1551 -5.9486 -14.9923 -0.0001 25.4117 0.0003
# 6 -0.0004 -0.0008 -0.0004 -4.1185 0.0003 27.7875
#
#
#
# Elastic Compliance Matrix: (Units=1/GPa)
#
#
# Indices 1 2 3 4 5 6 
#
# 1 0.013485 -0.004313 -0.002535 0.000000 0.010844 0.000000
# 2 -0.004313 0.016063 -0.011821 0.000000 -0.007483 0.000000
# 3 -0.002535 -0.011821 0.026603 0.000000 0.010419 0.000000
# 4 0.000000 0.000000 0.000000 0.035623 0.000000 0.005280
# 5 0.010844 -0.007483 0.010419 0.000000 0.054481 0.000000
# 6 0.000000 0.000000 0.000000 0.005280 0.000000 0.036770
#
#
# Mechanical properties :
#
#
# Convention : Reuss Voigt Hill
#
# Bulk Modulus (GPa) = 53.15169 70.01402 61.58286
# Shear Modulus (GPa) = 22.06217 26.61617 24.33917
#
# Velocity S-wave (km/s) = 3.35516 3.68521 3.52405
# Velocity P-wave (km/s) = 6.49075 7.33702 6.92682
#
# Compressibility (1/GPa) = 0.01881408
#
# Stress axis : x y z
#
# Youngs Moduli (GPa) = 74.15630 62.25662 37.58975
#
# Poissons Ratio (x) = 0.26848 0.09529
# Poissons Ratio (y) = 0.31980 0.44433
# Poissons Ratio (z) = 0.18799 0.73591
#
# Static dielectric constant tensor:
#      x y z
#    x 3.822410 0.000000 -0.229900 
#    y 0.000000 3.798520 0.000000 
#    z -0.229900 0.000000 3.652980 
# 
# 
# High freq. dielectric constant tensor:
#      x y z
#    x 1.771200 0.000000 -0.015020 
#    y 0.000000 1.750410 0.000000 
#    z -0.015020 0.000000 1.764530 
# 
# From -- ./inp_files/317506.got.cif
#   From: 2010.06.25/outbox.cif.g09.slc.cpg/sg15_159_cif.got.tgz:317506.got - 2010.06.28 07:06:18.
