data_PCOD8139718
_publ_section_title
;
Structure prediction by ZEFSAII (Michael W. Deem and Ramdas Pophale) SiO2 
 PCOD8139718
Probable space group: C 2/C
;
_chemical_formula_sum "Si O2"
_cell_formula_units_Z 52
_cell_length_a 11.895545
_cell_length_b 24.758199
_cell_length_c 9.599612
_cell_angle_alpha 90.000000
_cell_angle_beta 66.906203
_cell_angle_gamma 90.000000
_cell_volume 2600.642651
_symmetry_space_group_name_H-M "C 2/C"
_symmetry_group_IT_number 15
_symmetry_cell_setting 'monoclinic'
loop_
_space_group_symop_operation_xyz
x,y,z
-x,y,1/2-z
-x,-y,-z
x,-y,1/2+z
1/2+x,1/2+y,z
1/2-x,1/2+y,1/2-z
1/2-x,1/2-y,-z
1/2+x,1/2-y,1/2+z
loop_
_atom_site_type_symbol
_atom_site_label
_atom_site_fract_x
_atom_site_fract_y
_atom_site_fract_z
Si Si1 0.427985 0.409741 0.150756
Si Si2 0.762497 0.306983 0.825395
Si Si3 0.747323 0.498591 0.283227
Si Si4 0.098274 0.893864 0.820180
Si Si5 0.399462 0.968504 0.962867
Si Si6 0.500000 0.126692 0.250000
Si Si7 0.144910 0.805106 0.185752
O O1 0.500000 0.432292 0.250000
O O2 0.357194 0.458578 0.107689
O O3 0.337466 0.360041 0.234211
O O4 0.530997 0.387774 0.998840
O O5 0.671404 0.337450 0.761849
O O6 0.784053 0.244451 0.773163
O O7 0.892177 0.336026 0.748705
O O8 0.706014 0.312566 0.006115
O O9 0.696596 0.558004 0.277739
O O10 0.860379 0.502822 0.336091
O O11 0.783153 0.468245 0.121705
O O12 0.000000 0.904221 0.750000
O O13 0.450977 0.909461 0.902875
O O14 0.500000 0.000000 0.000000
O O15 0.000000 0.792472 0.250000
#
# Coordination Sequence:
#
# PCOD8139718 Si02
#       7
#     8   8   8   8   8   4   8
#     4  11  21  39  61  90 121 160 211 256 307 366
#     4  11  21  39  65  95 121 161 211 260 309 375
#     4  12  23  38  60  88 126 168 206 260 309 372
#     4  12  23  39  60  94 129 164 205 259 321 366
#     4  12  22  39  57  86 126 164 211 249 310 372
#     4  12  22  38  62  90 124 168 210 252 310 368
#     4  10  20  39  68  93 119 156 214 265 308 361
#
# _framework density 19.995059000000001
#
# number of rings (size 3 to 8) (size 9 to 14) (size 15 to 20)
#    0.000    0.615    6.923    3.692    0.000    0.000 
#    0.000    0.769    0.000    3.692    0.000    0.000 
#    0.000    0.000    0.000    0.000    0.000    0.000 
#
# Total GULP energy -322292.699555 kJ/mol
# GULP energy per Si atom -12395.873060 kJ/mol
# Density = 1.994955 g / cm^3
# Si number density = 19.995059 Si / 1000 Ang^3
#
#
#
# Elastic Constant Matrix: (Units=GPa)
#
#
# Indices 1 2 3 4 5 6 
#
# 1 103.0479 47.4388 17.8886 0.0000 11.8705 0.0000
# 2 47.4388 119.1169 10.1078 0.0000 2.9146 0.0000
# 3 17.8886 10.1078 73.5066 0.0000 -3.7052 0.0000
# 4 0.0000 0.0000 0.0000 12.4928 0.0000 1.4168
# 5 11.8705 2.9146 -3.7052 0.0000 34.0341 0.0000
# 6 0.0000 0.0000 0.0000 1.4168 0.0000 29.7516
#
#
#
# Elastic Compliance Matrix: (Units=1/GPa)
#
#
# Indices 1 2 3 4 5 6 
#
# 1 0.012884 -0.004795 -0.002697 0.000000 -0.004377 0.000000
# 2 -0.004795 0.010304 -0.000211 0.000000 0.000767 0.000000
# 3 -0.002697 -0.000211 0.014417 0.000000 0.002528 0.000000
# 4 0.000000 0.000000 0.000000 0.080481 0.000000 -0.003833
# 5 -0.004377 0.000767 0.002528 0.000000 0.031118 0.000000
# 6 0.000000 0.000000 0.000000 -0.003833 0.000000 0.033794
#
#
# Mechanical properties :
#
#
# Convention : Reuss Voigt Hill
#
# Bulk Modulus (GPa) = 45.04770 49.61574 47.33172
# Shear Modulus (GPa) = 24.29494 29.93811 27.11653
#
# Velocity S-wave (km/s) = 3.48953 3.87366 3.68660
# Velocity P-wave (km/s) = 6.23010 6.69887 6.46873
#
# Compressibility (1/GPa) = 0.02219869
#
# Stress axis : x y z
#
# Youngs Moduli (GPa) = 77.61551 97.04982 69.36264
#
# Poissons Ratio (x) = 0.46537 0.18705
# Poissons Ratio (y) = 0.37218 0.01465
# Poissons Ratio (z) = 0.20930 0.02050
#
# Static dielectric constant tensor:
#      x y z
#    x 3.646520 0.000000 -0.451540 
#    y 0.000000 3.839060 0.000000 
#    z -0.451540 0.000000 3.996310 
# 
# 
# High freq. dielectric constant tensor:
#      x y z
#    x 1.779270 0.000000 -0.030490 
#    y 0.000000 1.785710 0.000000 
#    z -0.030490 0.000000 1.772070 
# 
# From -- ./inp_files/33481.got.cif
#   From: 2010.06.25/outbox.cif.g09.slc.cpg/sg15_17_cif.got.tgz:33481.got - 2010.06.28 07:06:18.
