data_PCOD8139346
_publ_section_title
;
Structure prediction by ZEFSAII (Michael W. Deem and Ramdas Pophale) SiO2 
 PCOD8139346
Probable space group: C 2/C
;
_chemical_formula_sum "Si O2"
_cell_formula_units_Z 64
_cell_length_a 25.519213
_cell_length_b 13.436569
_cell_length_c 15.849703
_cell_angle_alpha 90.000000
_cell_angle_beta 144.593236
_cell_angle_gamma 90.000000
_cell_volume 3148.751161
_symmetry_space_group_name_H-M "C 2/C"
_symmetry_group_IT_number 15
_symmetry_cell_setting 'monoclinic'
loop_
_space_group_symop_operation_xyz
x,y,z
-x,y,1/2-z
-x,-y,-z
x,-y,1/2+z
1/2+x,1/2+y,z
1/2-x,1/2+y,1/2-z
1/2-x,1/2-y,-z
1/2+x,1/2-y,1/2+z
loop_
_atom_site_type_symbol
_atom_site_label
_atom_site_fract_x
_atom_site_fract_y
_atom_site_fract_z
Si Si1 0.919354 0.037793 0.708153
Si Si2 0.745927 0.107178 0.199833
Si Si3 0.080165 0.203240 0.649628
Si Si4 0.252299 0.009548 0.127251
Si Si5 0.583106 0.912948 0.744678
Si Si6 0.618643 0.064764 0.482523
Si Si7 0.737832 0.326421 0.224716
Si Si8 0.560430 0.413562 0.616578
O O1 0.920021 0.129504 0.772354
O O2 0.000000 0.055169 0.750000
O O3 0.822744 0.040328 0.537677
O O4 0.933789 0.931615 0.774892
O O5 0.736957 0.224161 0.171058
O O6 0.841065 0.069932 0.291382
O O7 0.741166 0.095137 0.294012
O O8 0.668953 0.041965 0.052544
O O9 0.089894 0.313419 0.698182
O O10 0.159971 0.172310 0.691823
O O11 0.986198 0.190913 0.472149
O O12 0.222965 0.907082 0.132204
O O13 0.349953 0.005013 0.208823
O O14 0.480982 0.953703 0.609747
O O15 0.614229 0.893600 0.881749
O O16 0.668437 0.148490 0.604196
O O17 0.500000 0.500000 0.500000
#
# Coordination Sequence:
#
# PCOD8139346 Si02
#       8
#     8   8   8   8   8   8   8   8
#     4  11  22  36  64  94 130 164 208 264 314 375
#     4  11  22  41  62  88 125 174 205 260 317 375
#     4  11  22  38  63  99 126 163 208 261 326 374
#     4  11  22  39  64  92 128 165 214 257 314 371
#     4  11  23  41  65  95 127 166 210 263 313 381
#     4  10  24  41  63  91 134 161 207 266 317 368
#     4  11  23  41  63  92 126 167 211 259 314 381
#     4  10  20  39  60  88 126 162 203 260 322 368
#
# _framework density 20.325517999999999
#
# number of rings (size 3 to 8) (size 9 to 14) (size 15 to 20)
#    0.000    1.250    1.250    7.500    3.500    3.000 
#    2.250    2.500    5.500    0.000    0.000    0.000 
#    0.000    0.000    0.000    0.000    0.000    0.000 
#
# Total GULP energy -396719.514983 kJ/mol
# GULP energy per Si atom -12397.484843 kJ/mol
# Density = 2.027926 g / cm^3
# Si number density = 20.325518 Si / 1000 Ang^3
#
#
#
# Elastic Constant Matrix: (Units=GPa)
#
#
# Indices 1 2 3 4 5 6 
#
# 1 153.7890 39.7507 44.1969 0.0000 28.7922 0.0000
# 2 39.7507 97.3530 23.8555 0.0000 9.6714 0.0000
# 3 44.1969 23.8555 99.7189 0.0000 20.5468 0.0000
# 4 0.0000 0.0000 0.0000 20.4603 0.0000 -3.6578
# 5 28.7922 9.6714 20.5468 0.0000 37.1026 0.0000
# 6 0.0000 0.0000 0.0000 -3.6578 0.0000 37.5704
#
#
#
# Elastic Compliance Matrix: (Units=1/GPa)
#
#
# Indices 1 2 3 4 5 6 
#
# 1 0.008712 -0.002522 -0.002258 0.000000 -0.004853 0.000000
# 2 -0.002522 0.011724 -0.001649 0.000000 -0.000186 0.000000
# 3 -0.002258 -0.001649 0.012387 0.000000 -0.004678 0.000000
# 4 0.000000 0.000000 0.000000 0.049741 0.000000 0.004843
# 5 -0.004853 -0.000186 -0.004678 0.000000 0.033357 0.000000
# 6 0.000000 0.000000 0.000000 0.004843 0.000000 0.027088
#
#
# Mechanical properties :
#
#
# Convention : Reuss Voigt Hill
#
# Bulk Modulus (GPa) = 50.08492 62.94079 56.51286
# Shear Modulus (GPa) = 30.76522 35.23052 32.99787
#
# Velocity S-wave (km/s) = 3.89475 4.16783 4.03360
# Velocity P-wave (km/s) = 6.70227 7.36170 7.03971
#
# Compressibility (1/GPa) = 0.01996609
#
# Stress axis : x y z
#
# Youngs Moduli (GPa) = 114.78902 85.29475 80.72821
#
# Poissons Ratio (x) = 0.21509 0.18228
# Poissons Ratio (y) = 0.28947 0.13310
# Poissons Ratio (z) = 0.25919 0.14063
#
# Static dielectric constant tensor:
#      x y z
#    x 3.895670 0.000000 0.009290 
#    y 0.000000 3.713930 0.000000 
#    z 0.009290 0.000000 4.089240 
# 
# 
# High freq. dielectric constant tensor:
#      x y z
#    x 1.813400 0.000000 0.008080 
#    y 0.000000 1.775670 0.000000 
#    z 0.008080 0.000000 1.799860 
# 
# From -- ./inp_files/173679.got.cif
#   From: 2010.06.25/outbox.cif.g09.slc.cpg/sg15_87_cif.got.tgz:173679.got - 2010.06.28 07:06:18.
