data_PCOD8139001
_publ_section_title
;
Structure prediction by ZEFSAII (Michael W. Deem and Ramdas Pophale) SiO2 
 PCOD8139001
Probable space group: C 2/C
;
_chemical_formula_sum "Si O2"
_cell_formula_units_Z 60
_cell_length_a 19.780016
_cell_length_b 8.433080
_cell_length_c 23.064407
_cell_angle_alpha 90.000000
_cell_angle_beta 41.491322
_cell_angle_gamma 90.000000
_cell_volume 2548.856372
_symmetry_space_group_name_H-M "C 2/C"
_symmetry_group_IT_number 15
_symmetry_cell_setting 'monoclinic'
loop_
_space_group_symop_operation_xyz
x,y,z
-x,y,1/2-z
-x,-y,-z
x,-y,1/2+z
1/2+x,1/2+y,z
1/2-x,1/2+y,1/2-z
1/2-x,1/2-y,-z
1/2+x,1/2-y,1/2+z
loop_
_atom_site_type_symbol
_atom_site_label
_atom_site_fract_x
_atom_site_fract_y
_atom_site_fract_z
Si Si1 0.672842 0.773446 0.342516
Si Si2 0.372724 0.138660 0.405633
Si Si3 0.325814 0.651760 0.036819
Si Si4 0.126080 0.853609 0.701751
Si Si5 0.945425 0.832643 0.984420
Si Si6 0.053763 0.697734 0.634349
Si Si7 0.500000 0.627918 0.750000
Si Si8 0.183273 0.639598 0.348799
O O1 0.719304 0.726408 0.375242
O O2 0.568334 0.673637 0.402292
O O3 0.759462 0.724949 0.240967
O O4 0.648487 0.962276 0.353631
O O5 0.375255 0.201284 0.470114
O O6 0.262709 0.089112 0.449680
O O7 0.419833 0.275301 0.337499
O O8 0.443374 0.987497 0.356456
O O9 0.406268 0.513577 0.002883
O O10 0.117562 0.797534 0.640648
O O11 0.242727 0.868788 0.643330
O O12 0.067579 0.731925 0.782162
O O13 0.068570 0.020249 0.748500
O O14 0.909710 0.749011 0.067765
O O15 0.901431 0.738121 0.957352
#
# Coordination Sequence:
#
# PCOD8139001 Si02
#       8
#     8   8   8   8   8   8   4   8
#     4  12  27  49  69 103 138 187 236 286 348 418
#     4  11  23  40  67 105 136 176 230 286 349 408
#     4  11  25  45  68  99 140 179 232 284 347 415
#     4  10  21  41  67  98 140 184 226 283 357 408
#     4  12  25  47  72 100 143 185 234 288 348 418
#     4  10  21  40  69 100 137 176 225 284 345 417
#     4  10  20  38  64 102 138 178 222 286 344 414
#     4  12  26  46  71 102 139 186 236 288 348 422
#
# _framework density 23.53997
#
# number of rings (size 3 to 8) (size 9 to 14) (size 15 to 20)
#    0.000    1.067    1.333    6.400    0.000    4.267 
#    7.200    0.000    0.000    0.000    0.000    0.000 
#    0.000    0.000    0.000    0.000    0.000    0.000 
#
# Total GULP energy -371914.117379 kJ/mol
# GULP energy per Si atom -12397.137246 kJ/mol
# Density = 2.348639 g / cm^3
# Si number density = 23.539970 Si / 1000 Ang^3
#
#
#
# Elastic Constant Matrix: (Units=GPa)
#
#
# Indices 1 2 3 4 5 6 
#
# 1 62.3037 28.1535 32.7409 -0.0001 16.0360 0.0005
# 2 28.1535 136.2957 36.4477 -0.0003 8.2651 0.0019
# 3 32.7409 36.4477 128.0736 0.0000 23.8926 0.0000
# 4 -0.0001 -0.0003 0.0000 42.6143 0.0000 -0.3150
# 5 16.0360 8.2651 23.8926 0.0000 32.6751 -0.0001
# 6 0.0005 0.0019 0.0000 -0.3150 -0.0001 27.1765
#
#
#
# Elastic Compliance Matrix: (Units=1/GPa)
#
#
# Indices 1 2 3 4 5 6 
#
# 1 0.020932 -0.003047 -0.003140 0.000000 -0.007206 0.000000
# 2 -0.003047 0.008390 -0.001727 0.000000 0.000636 -0.000001
# 3 -0.003140 -0.001727 0.010113 0.000000 -0.005417 0.000000
# 4 0.000000 0.000000 0.000000 0.023468 0.000000 0.000272
# 5 -0.007206 0.000636 -0.005417 0.000000 0.037941 0.000000
# 6 0.000000 -0.000001 0.000000 0.000272 0.000000 0.036800
#
#
# Mechanical properties :
#
#
# Convention : Reuss Voigt Hill
#
# Bulk Modulus (GPa) = 42.36143 57.92856 50.14500
# Shear Modulus (GPa) = 30.99044 35.78193 33.38618
#
# Velocity S-wave (km/s) = 3.63230 3.90301 3.77009
# Velocity P-wave (km/s) = 5.96876 6.70622 6.34821
#
# Compressibility (1/GPa) = 0.02360638
#
# Stress axis : x y z
#
# Youngs Moduli (GPa) = 47.77380 119.19321 98.88550
#
# Poissons Ratio (x) = 0.36320 0.31045
# Poissons Ratio (y) = 0.14558 0.17081
# Poissons Ratio (z) = 0.14999 0.20588
#
# Static dielectric constant tensor:
#      x y z
#    x 4.277510 0.000000 0.197710 
#    y 0.000000 4.262780 0.000000 
#    z 0.197710 0.000000 4.265100 
# 
# 
# High freq. dielectric constant tensor:
#      x y z
#    x 1.929110 0.000000 0.012710 
#    y 0.000000 1.938980 0.000000 
#    z 0.012710 0.000000 1.936310 
# 
# From -- ./inp_files/279666.got.cif
#   From: 2010.06.25/outbox.cif.g09.slc.cpg/sg15_140_cif.got.tgz:279666.got - 2010.06.28 07:06:18.
