data_PCOD8139670
_publ_section_title
;
Structure prediction by ZEFSAII (Michael W. Deem and Ramdas Pophale) SiO2 
 PCOD8139670
Probable space group: C 2/C
;
_chemical_formula_sum "Si O2"
_cell_formula_units_Z 40
_cell_length_a 10.873139
_cell_length_b 23.707278
_cell_length_c 8.907545
_cell_angle_alpha 90.000000
_cell_angle_beta 55.050571
_cell_angle_gamma 90.000000
_cell_volume 1882.033413
_symmetry_space_group_name_H-M "C 2/C"
_symmetry_group_IT_number 15
_symmetry_cell_setting 'monoclinic'
loop_
_space_group_symop_operation_xyz
x,y,z
-x,y,1/2-z
-x,-y,-z
x,-y,1/2+z
1/2+x,1/2+y,z
1/2-x,1/2+y,1/2-z
1/2-x,1/2-y,-z
1/2+x,1/2-y,1/2+z
loop_
_atom_site_type_symbol
_atom_site_label
_atom_site_fract_x
_atom_site_fract_y
_atom_site_fract_z
Si Si1 0.000000 0.505701 0.750000
Si Si2 0.037704 0.243625 0.926560
Si Si3 0.779281 0.353623 0.714470
Si Si4 0.000000 0.172988 0.250000
Si Si5 0.568910 0.922259 0.469036
Si Si6 0.755710 0.683036 0.564069
O O1 0.110697 0.466181 0.572818
O O2 0.094251 0.546426 0.793646
O O3 0.138934 0.296885 0.894349
O O4 0.108813 0.200699 0.757361
O O5 0.020905 0.213305 0.094802
O O6 0.876099 0.264505 0.969059
O O7 0.643510 0.365771 0.692261
O O8 0.894294 0.405581 0.623396
O O9 0.717311 0.342450 0.926844
O O10 0.669990 0.867171 0.393248
#
# Coordination Sequence:
#
# PCOD8139670 Si02
#       6
#     4   8   8   4   8   8
#     4  10  20  39  66  98 114 152 205 276 318 336
#     4  11  23  39  58  88 127 171 202 247 295 369
#     4  11  23  39  57  90 125 166 202 249 300 375
#     4  12  26  35  56  86 128 168 207 240 300 362
#     4  10  21  39  66  96 119 155 206 265 310 360
#     4  11  23  39  64  89 129 166 207 244 305 376
#
# _framework density 21.253606999999999
#
# number of rings (size 3 to 8) (size 9 to 14) (size 15 to 20)
#    0.000    1.200    4.000    3.000    5.600    1.600 
#    0.000    0.000    0.000    1.200    0.000    0.000 
#    0.000    0.000    0.000    0.000    0.000    0.000 
#
# Total GULP energy -247941.897918 kJ/mol
# GULP energy per Si atom -12397.094896 kJ/mol
# Density = 2.120523 g / cm^3
# Si number density = 21.253607 Si / 1000 Ang^3
#
#
#
# Elastic Constant Matrix: (Units=GPa)
#
#
# Indices 1 2 3 4 5 6 
#
# 1 151.0125 33.0337 57.0111 0.0000 6.2368 0.0000
# 2 33.0337 88.1889 53.2619 0.0000 9.9269 0.0000
# 3 57.0111 53.2619 112.8603 0.0000 11.7797 0.0000
# 4 0.0000 0.0000 0.0000 22.7397 0.0000 10.3357
# 5 6.2368 9.9269 11.7797 0.0000 32.4203 0.0000
# 6 0.0000 0.0000 0.0000 10.3357 0.0000 16.3427
#
#
#
# Elastic Compliance Matrix: (Units=1/GPa)
#
#
# Indices 1 2 3 4 5 6 
#
# 1 0.008223 -0.000802 -0.003779 0.000000 0.000037 0.000000
# 2 -0.000802 0.016093 -0.006955 0.000000 -0.002246 0.000000
# 3 -0.003779 -0.006955 0.014296 0.000000 -0.002338 0.000000
# 4 0.000000 0.000000 0.000000 0.061717 0.000000 -0.039032
# 5 0.000037 -0.002246 -0.002338 0.000000 0.032375 0.000000
# 6 0.000000 0.000000 0.000000 -0.039032 0.000000 0.085875
#
#
# Mechanical properties :
#
#
# Convention : Reuss Voigt Hill
#
# Bulk Modulus (GPa) = 64.35318 70.96391 67.65855
# Shear Modulus (GPa) = 20.25685 28.21754 24.23719
#
# Velocity S-wave (km/s) = 3.09058 3.64766 3.38062
# Velocity P-wave (km/s) = 6.56354 7.15557 6.86594
#
# Compressibility (1/GPa) = 0.01553925
#
# Stress axis : x y z
#
# Youngs Moduli (GPa) = 121.61716 62.13818 69.95001
#
# Poissons Ratio (x) = 0.04982 0.26435
# Poissons Ratio (y) = 0.09751 0.48653
# Poissons Ratio (z) = 0.45960 0.43219
#
# Static dielectric constant tensor:
#      x y z
#    x 4.202870 0.000000 0.109890 
#    y 0.000000 3.925770 0.000000 
#    z 0.109890 0.000000 3.895600 
# 
# 
# High freq. dielectric constant tensor:
#      x y z
#    x 1.833840 0.000000 0.023620 
#    y 0.000000 1.823980 0.000000 
#    z 0.023620 0.000000 1.833450 
# 
# From -- ./inp_files/33345.got.cif
#   From: 2010.06.25/outbox.cif.g09.slc.cpg/sg15_17_cif.got.tgz:33345.got - 2010.06.28 07:06:18.
