data_PCOD8139289
_publ_section_title
;
Structure prediction by ZEFSAII (Michael W. Deem and Ramdas Pophale) SiO2 
 PCOD8139289
Probable space group: C 2/C
;
_chemical_formula_sum "Si O2"
_cell_formula_units_Z 40
_cell_length_a 10.223366
_cell_length_b 11.436658
_cell_length_c 17.048006
_cell_angle_alpha 90.000000
_cell_angle_beta 111.909266
_cell_angle_gamma 90.000000
_cell_volume 1849.310050
_symmetry_space_group_name_H-M "C 2/C"
_symmetry_group_IT_number 15
_symmetry_cell_setting 'monoclinic'
loop_
_space_group_symop_operation_xyz
x,y,z
-x,y,1/2-z
-x,-y,-z
x,-y,1/2+z
1/2+x,1/2+y,z
1/2-x,1/2+y,1/2-z
1/2-x,1/2-y,-z
1/2+x,1/2-y,1/2+z
loop_
_atom_site_type_symbol
_atom_site_label
_atom_site_fract_x
_atom_site_fract_y
_atom_site_fract_z
Si Si1 0.383566 0.016145 0.788248
Si Si2 0.833625 0.017319 0.047225
Si Si3 0.153924 0.945795 0.621903
Si Si4 0.429092 0.113034 0.445034
Si Si5 0.329885 0.810607 0.412494
O O1 0.500000 0.039842 0.750000
O O2 0.233293 0.001610 0.713195
O O3 0.424566 0.901322 0.849523
O O4 0.376700 0.127825 0.842782
O O5 0.730956 0.118532 0.058436
O O6 0.989920 0.052568 0.109170
O O7 0.789962 0.888356 0.070901
O O8 0.821152 0.021980 0.950467
O O9 0.221944 0.818040 0.621457
O O10 0.533677 0.214814 0.498697
O O11 0.500000 0.000000 0.500000
#
# Coordination Sequence:
#
# PCOD8139289 Si02
#       5
#     8   8   8   8   8
#     4  10  20  39  56  82 118 149 198 244 292 364
#     4   9  20  38  60  81 123 150 201 247 286 371
#     4  11  21  37  60  90 115 157 195 249 301 349
#     4   8  17  36  60  76 114 157 185 244 292 345
#     4  10  21  39  59  85 118 159 194 244 306 352
#
# _framework density 21.629688000000002
#
# number of rings (size 3 to 8) (size 9 to 14) (size 15 to 20)
#    0.000    2.800    0.000    4.200    0.000    4.000 
#   18.000    0.000    0.000    0.000    0.000    0.000 
#    0.000    0.000    0.000    0.000    0.000    0.000 
#
# Total GULP energy -247848.868228 kJ/mol
# GULP energy per Si atom -12392.443411 kJ/mol
# Density = 2.158046 g / cm^3
# Si number density = 21.629688 Si / 1000 Ang^3
#
#
#
# Elastic Constant Matrix: (Units=GPa)
#
#
# Indices 1 2 3 4 5 6 
#
# 1 87.5946 1.6753 40.1975 0.0000 -3.1939 0.0000
# 2 1.6753 35.0310 9.2054 0.0000 6.4106 0.0000
# 3 40.1975 9.2054 151.1072 0.0000 6.9437 0.0000
# 4 0.0000 0.0000 0.0000 16.7296 0.0000 -1.5648
# 5 -3.1939 6.4106 6.9437 0.0000 39.5579 0.0000
# 6 0.0000 0.0000 0.0000 -1.5648 0.0000 18.1878
#
#
#
# Elastic Compliance Matrix: (Units=1/GPa)
#
#
# Indices 1 2 3 4 5 6 
#
# 1 0.013114 0.000002 -0.003566 0.000000 0.001685 0.000000
# 2 0.000002 0.029800 -0.001607 0.000000 -0.004547 0.000000
# 3 -0.003566 -0.001607 0.007728 0.000000 -0.001384 0.000000
# 4 0.000000 0.000000 0.000000 0.060259 0.000000 0.005184
# 5 0.001685 -0.004547 -0.001384 0.000000 0.026395 0.000000
# 6 0.000000 0.000000 0.000000 0.005184 0.000000 0.055428
#
#
# Mechanical properties :
#
#
# Convention : Reuss Voigt Hill
#
# Bulk Modulus (GPa) = 24.81399 41.76544 33.28972
# Shear Modulus (GPa) = 23.09458 29.73870 26.41664
#
# Velocity S-wave (km/s) = 3.27115 3.71199 3.49852
# Velocity P-wave (km/s) = 5.07586 6.14191 5.63416
#
# Compressibility (1/GPa) = 0.04029985
#
# Stress axis : x y z
#
# Youngs Moduli (GPa) = 76.25367 33.55649 129.40009
#
# Poissons Ratio (x) = -0.00006 0.46146
# Poissons Ratio (y) = -0.00013 0.20794
# Poissons Ratio (z) = 0.27193 0.05392
#
# Static dielectric constant tensor:
#      x y z
#    x 4.304610 0.000000 0.377430 
#    y 0.000000 3.751590 0.000000 
#    z 0.377430 0.000000 4.422960 
# 
# 
# High freq. dielectric constant tensor:
#      x y z
#    x 1.858850 0.000000 -0.002080 
#    y 0.000000 1.806840 0.000000 
#    z -0.002080 0.000000 1.858620 
# 
# From -- ./inp_files/142371.got.cif
#   From: 2010.06.25/outbox.cif.g09.slc.cpg/sg15_72_cif.got.tgz:142371.got - 2010.06.28 07:06:18.
