data_PCOD8139836
_publ_section_title
;
Structure prediction by ZEFSAII (Michael W. Deem and Ramdas Pophale) SiO2 
 PCOD8139836
Probable space group: C 2/C
;
_chemical_formula_sum "Si O2"
_cell_formula_units_Z 44
_cell_length_a 9.866947
_cell_length_b 23.566490
_cell_length_c 11.138858
_cell_angle_alpha 90.000000
_cell_angle_beta 55.743843
_cell_angle_gamma 90.000000
_cell_volume 2140.802493
_symmetry_space_group_name_H-M "C 2/C"
_symmetry_group_IT_number 15
_symmetry_cell_setting 'monoclinic'
loop_
_space_group_symop_operation_xyz
x,y,z
-x,y,1/2-z
-x,-y,-z
x,-y,1/2+z
1/2+x,1/2+y,z
1/2-x,1/2+y,1/2-z
1/2-x,1/2-y,-z
1/2+x,1/2-y,1/2+z
loop_
_atom_site_type_symbol
_atom_site_label
_atom_site_fract_x
_atom_site_fract_y
_atom_site_fract_z
Si Si1 0.000000 0.931981 0.250000
Si Si2 0.670928 0.494112 0.488004
Si Si3 0.158739 0.378348 0.095573
Si Si4 0.000000 0.447100 0.750000
Si Si5 0.500000 0.238142 0.250000
Si Si6 0.020134 0.355109 0.544977
Si Si7 0.812416 0.161041 0.739277
O O1 0.855574 0.972096 0.373846
O O2 0.949999 0.888471 0.167078
O O3 0.500000 0.500000 0.500000
O O4 0.713710 0.428942 0.494637
O O5 0.831719 0.517508 0.339530
O O6 0.245507 0.331103 0.137556
O O7 0.000000 0.400718 0.250000
O O8 0.117865 0.347422 0.989922
O O9 0.026926 0.409223 0.853927
O O10 0.449618 0.200111 0.388176
O O11 0.643955 0.277954 0.228010
O O12 0.186615 0.367918 0.393550
#
# Coordination Sequence:
#
# PCOD8139836 Si02
#       7
#     4   8   8   4   4   8   8
#     4  11  22  37  62  92 130 167 214 257 308 384
#     4  12  24  39  62  97 133 176 213 257 318 378
#     4  10  22  38  62  90 129 168 214 257 318 381
#     4  11  24  41  64  92 136 171 216 257 314 386
#     4  10  22  38  66  88 118 164 216 274 330 380
#     4  10  22  40  61  90 122 167 213 266 326 381
#     4  10  20  40  61  90 121 165 212 270 317 385
#
# _framework density 20.553039999999999
#
# number of rings (size 3 to 8) (size 9 to 14) (size 15 to 20)
#    0.000    1.455    4.545    0.545    2.545    1.455 
#    0.000    0.000    0.000    0.000    0.000    0.000 
#    0.000    0.000    0.000    0.000    0.000    0.000 
#
# Total GULP energy -272538.784174 kJ/mol
# GULP energy per Si atom -12388.126553 kJ/mol
# Density = 2.050626 g / cm^3
# Si number density = 20.553040 Si / 1000 Ang^3
#
#
#
# Elastic Constant Matrix: (Units=GPa)
#
#
# Indices 1 2 3 4 5 6 
#
# 1 141.0938 53.0835 39.1677 0.0000 18.2339 0.0000
# 2 53.0835 101.5912 32.4012 0.0000 10.1343 0.0000
# 3 39.1677 32.4012 73.0122 0.0000 7.5127 0.0000
# 4 0.0000 0.0000 0.0000 25.4940 0.0000 -1.0333
# 5 18.2339 10.1343 7.5127 0.0000 41.1749 0.0000
# 6 0.0000 0.0000 0.0000 -1.0333 0.0000 27.1703
#
#
#
# Elastic Compliance Matrix: (Units=1/GPa)
#
#
# Indices 1 2 3 4 5 6 
#
# 1 0.009785 -0.003787 -0.003280 0.000000 -0.002803 0.000000
# 2 -0.003787 0.013085 -0.003685 0.000000 -0.000871 0.000000
# 3 -0.003280 -0.003685 0.017171 0.000000 -0.000773 0.000000
# 4 0.000000 0.000000 0.000000 0.039286 0.000000 0.001494
# 5 -0.002803 -0.000871 -0.000773 0.000000 0.025883 0.000000
# 6 0.000000 0.000000 0.000000 0.001494 0.000000 0.036862
#
#
# Mechanical properties :
#
#
# Convention : Reuss Voigt Hill
#
# Bulk Modulus (GPa) = 53.95133 62.77799 58.36466
# Shear Modulus (GPa) = 29.45421 31.50416 30.47919
#
# Velocity S-wave (km/s) = 3.78972 3.91938 3.85509
# Velocity P-wave (km/s) = 6.74211 7.14792 6.94798
#
# Compressibility (1/GPa) = 0.01853522
#
# Stress axis : x y z
#
# Youngs Moduli (GPa) = 102.19623 76.42618 58.23739
#
# Poissons Ratio (x) = 0.28944 0.19103
# Poissons Ratio (y) = 0.38703 0.21463
# Poissons Ratio (z) = 0.33523 0.28166
#
# Static dielectric constant tensor:
#      x y z
#    x 3.944840 0.000000 0.049810 
#    y 0.000000 3.594880 0.000000 
#    z 0.049810 0.000000 3.676990 
# 
# 
# High freq. dielectric constant tensor:
#      x y z
#    x 1.811510 0.000000 0.007300 
#    y 0.000000 1.793610 0.000000 
#    z 0.007300 0.000000 1.795220 
# 
# From -- ./inp_files/32258.got.cif
#   From: 2010.06.25/outbox.cif.g09.slc.cpg/sg15_17_cif.got.tgz:32258.got - 2010.06.28 07:06:18.
