data_PCOD8139890
_publ_section_title
;
Structure prediction by ZEFSAII (Michael W. Deem and Ramdas Pophale) SiO2 
 PCOD8139890
Probable space group: C 2/C
;
_chemical_formula_sum "Si O2"
_cell_formula_units_Z 56
_cell_length_a 11.328873
_cell_length_b 15.351351
_cell_length_c 17.994976
_cell_angle_alpha 90.000000
_cell_angle_beta 112.413363
_cell_angle_gamma 90.000000
_cell_volume 2893.152719
_symmetry_space_group_name_H-M "C 2/C"
_symmetry_group_IT_number 15
_symmetry_cell_setting 'monoclinic'
loop_
_space_group_symop_operation_xyz
x,y,z
-x,y,1/2-z
-x,-y,-z
x,-y,1/2+z
1/2+x,1/2+y,z
1/2-x,1/2+y,1/2-z
1/2-x,1/2-y,-z
1/2+x,1/2-y,1/2+z
loop_
_atom_site_type_symbol
_atom_site_label
_atom_site_fract_x
_atom_site_fract_y
_atom_site_fract_z
Si Si1 0.159776 0.828130 0.614972
Si Si2 0.595992 0.861210 0.061474
Si Si3 0.375977 0.635049 0.046298
Si Si4 0.003343 0.524924 0.667219
Si Si5 0.110517 0.338441 0.721152
Si Si6 0.241248 0.534565 0.473943
Si Si7 0.646883 0.784155 0.570902
O O1 0.171281 0.728744 0.590315
O O2 0.256084 0.845077 0.704873
O O3 0.191182 0.886653 0.551665
O O4 0.019183 0.852209 0.610903
O O5 0.578602 0.904337 0.137605
O O6 0.675043 0.928076 0.031170
O O7 0.458869 0.846505 0.991087
O O8 0.283689 0.672371 0.088011
O O9 0.348976 0.534036 0.024198
O O10 0.358368 0.687964 0.965046
O O11 0.075769 0.433105 0.681611
O O12 0.000000 0.561492 0.750000
O O13 0.859920 0.513172 0.603305
O O14 0.123320 0.274617 0.653559
O O15 0.000000 0.303305 0.750000
#
# Coordination Sequence:
#
# PCOD8139890 Si02
#       7
#     8   8   8   8   8   8   8
#     4  11  24  40  57  95 129 161 200 253 323 362
#     4  11  22  39  67  94 114 163 216 256 299 369
#     4  10  23  37  62  93 125 163 207 250 311 364
#     4  11  21  37  66  93 120 155 211 260 305 359
#     4  11  21  40  64  89 126 164 204 259 315 358
#     4  12  20  40  67  90 122 164 212 256 301 370
#     4  10  20  40  62  94 125 159 209 255 300 374
#
# _framework density 19.356045999999999
#
# number of rings (size 3 to 8) (size 9 to 14) (size 15 to 20)
#    0.000    1.143    5.714    2.143    0.000    2.857 
#    0.000    0.000    0.000    0.000    0.000    0.000 
#    0.000    0.000    0.000    0.000    0.000    0.000 
#
# Total GULP energy -347337.454725 kJ/mol
# GULP energy per Si atom -12404.909097 kJ/mol
# Density = 1.931199 g / cm^3
# Si number density = 19.356046 Si / 1000 Ang^3
#
#
#
# Elastic Constant Matrix: (Units=GPa)
#
#
# Indices 1 2 3 4 5 6 
#
# 1 109.5036 42.6015 48.9672 0.0000 -11.0395 0.0000
# 2 42.6015 81.2639 20.1715 0.0000 -14.4945 0.0000
# 3 48.9672 20.1715 79.3810 0.0000 -9.9530 0.0000
# 4 0.0000 0.0000 0.0000 20.2980 0.0000 -3.3826
# 5 -11.0395 -14.4945 -9.9530 0.0000 45.5687 0.0000
# 6 0.0000 0.0000 0.0000 -3.3826 0.0000 37.3968
#
#
#
# Elastic Compliance Matrix: (Units=1/GPa)
#
#
# Indices 1 2 3 4 5 6 
#
# 1 0.014848 -0.005872 -0.007660 0.000000 0.000056 0.000000
# 2 -0.005872 0.016038 0.000008 0.000000 0.003681 0.000000
# 3 -0.007660 0.000008 0.017569 0.000000 0.001984 0.000000
# 4 0.000000 0.000000 0.000000 0.050020 0.000000 0.004524
# 5 0.000056 0.003681 0.001984 0.000000 0.023563 0.000000
# 6 0.000000 0.000000 0.000000 0.004524 0.000000 0.027149
#
#
# Mechanical properties :
#
#
# Convention : Reuss Voigt Hill
#
# Bulk Modulus (GPa) = 46.71161 54.84765 50.77963
# Shear Modulus (GPa) = 27.26719 31.21325 29.24022
#
# Velocity S-wave (km/s) = 3.75736 4.02006 3.89093
# Velocity P-wave (km/s) = 6.55812 7.06721 6.81742
#
# Compressibility (1/GPa) = 0.02140795
#
# Stress axis : x y z
#
# Youngs Moduli (GPa) = 67.35111 62.35000 56.91801
#
# Poissons Ratio (x) = 0.36614 0.43597
# Poissons Ratio (y) = 0.39551 -0.00048
# Poissons Ratio (z) = 0.51589 -0.00052
#
# Static dielectric constant tensor:
#      x y z
#    x 3.735170 0.000000 -0.005130 
#    y 0.000000 3.522490 0.000000 
#    z -0.005130 0.000000 3.492310 
# 
# 
# High freq. dielectric constant tensor:
#      x y z
#    x 1.762280 0.000000 -0.003100 
#    y 0.000000 1.751530 0.000000 
#    z -0.003100 0.000000 1.746000 
# 
# From -- ./inp_files/197961.got.cif
#   From: 2010.06.25/outbox.cif.g09.slc.cpg/sg15_99_cif.got.tgz:197961.got - 2010.06.28 07:06:18.
