data_PCOD8139830
_publ_section_title
;
Structure prediction by ZEFSAII (Michael W. Deem and Ramdas Pophale) SiO2 
 PCOD8139830
Probable space group: C 2/C
;
_chemical_formula_sum "Si O2"
_cell_formula_units_Z 60
_cell_length_a 24.456846
_cell_length_b 8.485055
_cell_length_c 15.559720
_cell_angle_alpha 90.000000
_cell_angle_beta 110.650654
_cell_angle_gamma 90.000000
_cell_volume 3021.453040
_symmetry_space_group_name_H-M "C 2/C"
_symmetry_group_IT_number 15
_symmetry_cell_setting 'monoclinic'
loop_
_space_group_symop_operation_xyz
x,y,z
-x,y,1/2-z
-x,-y,-z
x,-y,1/2+z
1/2+x,1/2+y,z
1/2-x,1/2+y,1/2-z
1/2-x,1/2-y,-z
1/2+x,1/2-y,1/2+z
loop_
_atom_site_type_symbol
_atom_site_label
_atom_site_fract_x
_atom_site_fract_y
_atom_site_fract_z
Si Si1 0.937964 0.679315 0.846664
Si Si2 0.505598 0.318300 0.028699
Si Si3 0.070796 0.836779 0.358027
Si Si4 0.812952 0.676998 0.033867
Si Si5 0.589544 0.182212 0.193299
Si Si6 0.314321 0.810006 0.344144
Si Si7 0.000000 0.113260 0.250000
Si Si8 0.209478 0.421378 0.799840
O O1 0.930918 0.497545 0.821707
O O2 0.877854 0.751256 0.851126
O O3 0.953452 0.777792 0.771676
O O4 0.991196 0.704756 0.941805
O O5 0.463382 0.258506 0.082028
O O6 0.570853 0.280826 0.098413
O O7 0.500000 0.500000 0.000000
O O8 0.139561 0.815639 0.419335
O O9 0.058372 0.755531 0.259626
O O10 0.043569 0.012788 0.335827
O O11 0.811806 0.548116 0.111865
O O12 0.750000 0.750000 0.000000
O O13 0.821900 0.604864 0.942566
O O14 0.659777 0.193798 0.233145
O O15 0.272441 0.659754 0.330452
O O16 0.287651 0.921516 0.255452
#
# Coordination Sequence:
#
# PCOD8139830 Si02
#       8
#     8   8   8   8   8   8   4   8
#     4  11  24  38  59  89 122 157 202 248 303 360
#     4  12  21  37  59  88 116 154 202 246 295 357
#     4  11  20  38  60  82 120 156 197 248 299 356
#     4   9  19  37  62  84 114 158 200 240 304 361
#     4  10  22  40  58  86 121 162 194 244 306 358
#     4  10  20  40  61  88 119 156 201 248 298 365
#     4  12  24  38  58  94 120 156 206 252 300 360
#     4   9  21  38  62  90 116 159 201 246 300 358
#
# _framework density 19.857996
#
# number of rings (size 3 to 8) (size 9 to 14) (size 15 to 20)
#    0.000    1.600    4.000    0.400    1.867    4.267 
#    0.000    0.667    0.000    0.000    0.000    0.000 
#    0.000    0.000    0.000    0.000    0.000    0.000 
#
# Total GULP energy -371666.102984 kJ/mol
# GULP energy per Si atom -12388.870099 kJ/mol
# Density = 1.981280 g / cm^3
# Si number density = 19.857996 Si / 1000 Ang^3
#
#
#
# Elastic Constant Matrix: (Units=GPa)
#
#
# Indices 1 2 3 4 5 6 
#
# 1 90.2453 16.9878 32.8480 0.0000 -6.8747 0.0000
# 2 16.9878 60.7714 26.3579 0.0000 -3.9230 0.0000
# 3 32.8480 26.3579 114.5267 0.0000 -4.6770 0.0000
# 4 0.0000 0.0000 0.0000 31.6317 0.0000 -1.5225
# 5 -6.8747 -3.9230 -4.6770 0.0000 36.8774 0.0000
# 6 0.0000 0.0000 0.0000 -1.5225 0.0000 24.3302
#
#
#
# Elastic Compliance Matrix: (Units=1/GPa)
#
#
# Indices 1 2 3 4 5 6 
#
# 1 0.012738 -0.002104 -0.003098 0.000000 0.001758 0.000000
# 2 -0.002104 0.018701 -0.003654 0.000000 0.001134 0.000000
# 3 -0.003098 -0.003654 0.010476 0.000000 0.000362 0.000000
# 4 0.000000 0.000000 0.000000 0.031709 0.000000 0.001984
# 5 0.001758 0.001134 0.000362 0.000000 0.027611 0.000000
# 6 0.000000 0.000000 0.000000 0.001984 0.000000 0.041225
#
#
# Mechanical properties :
#
#
# Convention : Reuss Voigt Hill
#
# Bulk Modulus (GPa) = 41.31540 46.43676 43.87608
# Shear Modulus (GPa) = 29.71930 31.19119 30.45524
#
# Velocity S-wave (km/s) = 3.87278 3.96752 3.92043
# Velocity P-wave (km/s) = 6.39128 6.66509 6.52962
#
# Compressibility (1/GPa) = 0.02420405
#
# Stress axis : x y z
#
# Youngs Moduli (GPa) = 78.50323 53.47200 95.45770
#
# Poissons Ratio (x) = 0.11250 0.29569
# Poissons Ratio (y) = 0.16516 0.34883
# Poissons Ratio (z) = 0.24317 0.19540
#
# Static dielectric constant tensor:
#      x y z
#    x 3.855760 0.000000 -0.066950 
#    y 0.000000 3.211270 0.000000 
#    z -0.066950 0.000000 4.407330 
# 
# 
# High freq. dielectric constant tensor:
#      x y z
#    x 1.785150 0.000000 0.001410 
#    y 0.000000 1.730700 0.000000 
#    z 0.001410 0.000000 1.800930 
# 
# From -- ./inp_files/172440.got.cif
#   From: 2010.06.25/outbox.cif.g09.slc.cpg/sg15_87_cif.got.tgz:172440.got - 2010.06.28 07:06:18.
