data_PCOD8139742
_publ_section_title
;
Structure prediction by ZEFSAII (Michael W. Deem and Ramdas Pophale) SiO2 
 PCOD8139742
Probable space group: C 2/C
;
_chemical_formula_sum "Si O2"
_cell_formula_units_Z 44
_cell_length_a 8.250285
_cell_length_b 30.934258
_cell_length_c 9.734260
_cell_angle_alpha 90.000000
_cell_angle_beta 126.297936
_cell_angle_gamma 90.000000
_cell_volume 2002.255452
_symmetry_space_group_name_H-M "C 2/C"
_symmetry_group_IT_number 15
_symmetry_cell_setting 'monoclinic'
loop_
_space_group_symop_operation_xyz
x,y,z
-x,y,1/2-z
-x,-y,-z
x,-y,1/2+z
1/2+x,1/2+y,z
1/2-x,1/2+y,1/2-z
1/2-x,1/2-y,-z
1/2+x,1/2-y,1/2+z
loop_
_atom_site_type_symbol
_atom_site_label
_atom_site_fract_x
_atom_site_fract_y
_atom_site_fract_z
Si Si1 0.499461 0.292485 0.096875
Si Si2 0.090641 0.125573 0.081672
Si Si3 0.570318 0.460654 0.127379
Si Si4 0.691479 0.863317 0.544561
Si Si5 0.566203 0.781062 0.144061
Si Si6 0.500000 0.929743 0.250000
O O1 0.500000 0.274311 0.250000
O O2 0.733698 0.304075 0.196628
O O3 0.369007 0.336258 0.009601
O O4 0.405941 0.255055 0.956514
O O5 0.276542 0.121696 0.280718
O O6 0.901430 0.142089 0.073411
O O7 0.050629 0.081355 0.982852
O O8 0.500000 0.469023 0.250000
O O9 0.811419 0.457014 0.218391
O O10 0.500000 0.500000 0.000000
O O11 0.579824 0.817665 0.487037
O O12 0.562771 0.900782 0.410143
O O13 0.500000 0.756533 0.250000
#
# Coordination Sequence:
#
# PCOD8139742 Si02
#       6
#     8   8   8   8   8   4
#     4  12  25  39  59  89 135 172 215 281 330 388
#     4  10  22  41  66  94 132 170 225 272 338 394
#     4  11  26  47  73 105 139 179 226 283 343 413
#     4  10  20  39  69  96 126 179 219 274 324 405
#     4  12  22  39  60  92 122 172 230 260 323 388
#     4  10  22  46  72 100 146 178 222 278 348 404
#
# _framework density 21.975218000000002
#
# number of rings (size 3 to 8) (size 9 to 14) (size 15 to 20)
#    0.000    1.091    2.727    3.818    7.636    0.727 
#    0.000    1.818    0.000    0.000    0.000    0.000 
#    0.000    0.000    0.000    0.000    0.000    0.000 
#
# Total GULP energy -272579.368467 kJ/mol
# GULP energy per Si atom -12389.971294 kJ/mol
# Density = 2.192520 g / cm^3
# Si number density = 21.975218 Si / 1000 Ang^3
#
#
#
# Elastic Constant Matrix: (Units=GPa)
#
#
# Indices 1 2 3 4 5 6 
#
# 1 73.4820 37.7701 48.5185 0.0000 -10.9360 0.0000
# 2 37.7701 141.8757 72.4162 0.0000 -5.8923 0.0000
# 3 48.5185 72.4162 182.9111 0.0000 -11.2485 0.0000
# 4 0.0000 0.0000 0.0000 44.9891 0.0000 -4.6549
# 5 -10.9360 -5.8923 -11.2485 0.0000 41.3750 0.0000
# 6 0.0000 0.0000 0.0000 -4.6549 0.0000 21.9686
#
#
#
# Elastic Compliance Matrix: (Units=1/GPa)
#
#
# Indices 1 2 3 4 5 6 
#
# 1 0.017824 -0.002879 -0.003380 0.000000 0.003382 0.000000
# 2 -0.002879 0.009303 -0.002934 0.000000 -0.000234 0.000000
# 3 -0.003380 -0.002934 0.007571 0.000000 0.000747 0.000000
# 4 0.000000 0.000000 0.000000 0.022726 0.000000 0.004815
# 5 0.003382 -0.000234 0.000747 0.000000 0.025233 0.000000
# 6 0.000000 0.000000 0.000000 0.004815 0.000000 0.046540
#
#
# Mechanical properties :
#
#
# Convention : Reuss Voigt Hill
#
# Bulk Modulus (GPa) = 61.30572 79.51981 70.41277
# Shear Modulus (GPa) = 32.67561 37.63747 35.15654
#
# Velocity S-wave (km/s) = 3.86026 4.14300 4.00412
# Velocity P-wave (km/s) = 6.91571 7.69094 7.31360
#
# Compressibility (1/GPa) = 0.01631169
#
# Stress axis : x y z
#
# Youngs Moduli (GPa) = 56.10462 107.49649 132.08162
#
# Poissons Ratio (x) = 0.30953 0.44643
# Poissons Ratio (y) = 0.16155 0.38747
# Poissons Ratio (z) = 0.18963 0.31535
#
# Static dielectric constant tensor:
#      x y z
#    x 0.684630 0.000000 -0.859330 
#    y 0.000000 3.718820 0.000000 
#    z -0.859330 0.000000 4.130780 
# 
# 
# High freq. dielectric constant tensor:
#      x y z
#    x 1.854400 0.000000 0.000940 
#    y 0.000000 1.852920 0.000000 
#    z 0.000940 0.000000 1.893690 
# 
# From -- ./inp_files/26240.got.cif
#   From: 2010.06.25/outbox.cif.g09.slc.cpg/sg15_14_cif.got.tgz:26240.got - 2010.06.28 07:06:18.
