data_PCOD8139744
_publ_section_title
;
Structure prediction by ZEFSAII (Michael W. Deem and Ramdas Pophale) SiO2 
 PCOD8139744
Probable space group: C 2/C
;
_chemical_formula_sum "Si O2"
_cell_formula_units_Z 40
_cell_length_a 9.117803
_cell_length_b 15.400675
_cell_length_c 13.997008
_cell_angle_alpha 90.000000
_cell_angle_beta 116.082194
_cell_angle_gamma 90.000000
_cell_volume 1765.309823
_symmetry_space_group_name_H-M "C 2/C"
_symmetry_group_IT_number 15
_symmetry_cell_setting 'monoclinic'
loop_
_space_group_symop_operation_xyz
x,y,z
-x,y,1/2-z
-x,-y,-z
x,-y,1/2+z
1/2+x,1/2+y,z
1/2-x,1/2+y,1/2-z
1/2-x,1/2-y,-z
1/2+x,1/2-y,1/2+z
loop_
_atom_site_type_symbol
_atom_site_label
_atom_site_fract_x
_atom_site_fract_y
_atom_site_fract_z
Si Si1 0.151677 0.872500 0.734746
Si Si2 0.873059 0.615054 0.987441
Si Si3 0.953837 0.100872 0.501502
Si Si4 0.162874 0.749890 0.077304
Si Si5 0.569113 0.988566 0.170276
O O1 0.095369 0.851840 0.611659
O O2 0.216347 0.785838 0.806316
O O3 0.287154 0.945350 0.767110
O O4 0.000000 0.911512 0.750000
O O5 0.869135 0.591998 0.874198
O O6 0.685726 0.626961 0.963509
O O7 0.992980 0.696342 0.033420
O O8 0.927669 0.535204 0.069651
O O9 0.116742 0.149841 0.585990
O O10 0.000000 0.000000 0.500000
O O11 0.250000 0.750000 0.000000
O O12 0.500000 0.952455 0.250000
#
# Coordination Sequence:
#
# PCOD8139744 Si02
#       5
#     8   8   8   8   8
#     4  11  22  43  70 101 142 182 236 286 357 418
#     4  10  23  42  68 101 144 182 236 296 352 418
#     4  12  25  46  74 104 144 185 236 303 353 423
#     4  11  25  44  71 103 141 190 236 292 360 423
#     4  10  20  39  70 102 139 185 233 286 359 418
#
# _framework density 22.658911
#
# number of rings (size 3 to 8) (size 9 to 14) (size 15 to 20)
#    0.000    1.200    4.000    1.800    5.600    0.000 
#    7.200    0.000    0.000    0.000    0.000    0.000 
#    0.000    0.000    0.000    0.000    0.000    0.000 
#
# Total GULP energy -247940.630810 kJ/mol
# GULP energy per Si atom -12397.031540 kJ/mol
# Density = 2.260734 g / cm^3
# Si number density = 22.658911 Si / 1000 Ang^3
#
#
#
# Elastic Constant Matrix: (Units=GPa)
#
#
# Indices 1 2 3 4 5 6 
#
# 1 158.2698 33.3315 43.6530 0.0000 -28.6622 0.0000
# 2 33.3315 87.1007 34.7600 0.0000 -14.4464 0.0000
# 3 43.6530 34.7600 121.7629 0.0000 -25.9605 0.0000
# 4 0.0000 0.0000 0.0000 19.9719 0.0000 -16.7998
# 5 -28.6622 -14.4464 -25.9605 0.0000 39.9442 0.0000
# 6 0.0000 0.0000 0.0000 -16.7998 0.0000 15.5109
#
#
#
# Elastic Compliance Matrix: (Units=1/GPa)
#
#
# Indices 1 2 3 4 5 6 
#
# 1 0.007815 -0.001745 -0.001442 0.000000 0.004039 0.000000
# 2 -0.001745 0.013593 -0.002871 0.000000 0.001798 0.000000
# 3 -0.001442 -0.002871 0.010572 0.000000 0.004798 0.000000
# 4 0.000000 0.000000 0.000000 0.563049 0.000000 0.609836
# 5 0.004039 0.001798 0.004798 0.000000 0.031702 0.000000
# 6 0.000000 0.000000 0.000000 0.609836 0.000000 0.724982
#
#
# Mechanical properties :
#
#
# Convention : Reuss Voigt Hill
#
# Bulk Modulus (GPa) = 50.34637 65.62469 57.98553
# Shear Modulus (GPa) = 3.64843 32.11132 17.87988
#
# Velocity S-wave (km/s) = 1.27029 3.76860 2.81212
# Velocity P-wave (km/s) = 4.94156 6.92541 6.01583
#
# Compressibility (1/GPa) = 0.01986240
#
# Stress axis : x y z
#
# Youngs Moduli (GPa) = 127.95614 73.56799 94.58558
#
# Poissons Ratio (x) = 0.12838 0.13643
# Poissons Ratio (y) = 0.22330 0.27160
# Poissons Ratio (z) = 0.18457 0.21125
#
# Static dielectric constant tensor:
#      x y z
#    x 4.252740 0.000000 -0.026720 
#    y 0.000000 3.959400 0.000000 
#    z -0.026720 0.000000 4.169100 
# 
# 
# High freq. dielectric constant tensor:
#      x y z
#    x 1.915950 0.000000 -0.004850 
#    y 0.000000 1.879030 0.000000 
#    z -0.004850 0.000000 1.890480 
# 
# From -- ./inp_files/133288.got.cif
#   From: 2010.06.25/outbox.cif.g09.slc.cpg/sg15_67_cif.got.tgz:133288.got - 2010.06.28 07:06:18.
