data_PCOD8139658
_publ_section_title
;
Structure prediction by ZEFSAII (Michael W. Deem and Ramdas Pophale) SiO2 
 PCOD8139658
Probable space group: C 2/C
;
_chemical_formula_sum "Si O2"
_cell_formula_units_Z 64
_cell_length_a 16.333551
_cell_length_b 31.933175
_cell_length_c 8.480009
_cell_angle_alpha 90.000000
_cell_angle_beta 44.883183
_cell_angle_gamma 90.000000
_cell_volume 3121.165257
_symmetry_space_group_name_H-M "C 2/C"
_symmetry_group_IT_number 15
_symmetry_cell_setting 'monoclinic'
loop_
_space_group_symop_operation_xyz
x,y,z
-x,y,1/2-z
-x,-y,-z
x,-y,1/2+z
1/2+x,1/2+y,z
1/2-x,1/2+y,1/2-z
1/2-x,1/2-y,-z
1/2+x,1/2-y,1/2+z
loop_
_atom_site_type_symbol
_atom_site_label
_atom_site_fract_x
_atom_site_fract_y
_atom_site_fract_z
Si Si1 0.626096 0.446752 0.642363
Si Si2 0.541030 0.187716 0.867665
Si Si3 0.378668 0.470935 0.485690
Si Si4 0.203414 0.686305 0.146762
Si Si5 0.983049 0.546257 0.087185
Si Si6 0.676650 0.894799 0.250700
Si Si7 0.764883 0.405092 0.964305
Si Si8 0.621737 0.752770 0.500855
O O1 0.500000 0.432823 0.750000
O O2 0.620614 0.458737 0.833793
O O3 0.688632 0.485013 0.457283
O O4 0.711498 0.407038 0.505754
O O5 0.500000 0.197647 0.750000
O O6 0.636045 0.151149 0.752689
O O7 0.425730 0.176383 0.119631
O O8 0.595906 0.230458 0.861153
O O9 0.349016 0.432543 0.409727
O O10 0.500000 0.486652 0.250000
O O11 0.262551 0.641121 0.060659
O O12 0.188422 0.709741 0.000623
O O13 0.289395 0.713972 0.137976
O O14 0.858099 0.568278 0.232589
O O15 0.000000 0.546548 0.250000
O O16 0.000000 0.500000 0.000000
O O17 0.071087 0.573760 0.863984
O O18 0.704241 0.898605 0.397099
O O19 0.500000 0.739405 0.750000
#
# Coordination Sequence:
#
# PCOD8139658 Si02
#       8
#     8   8   8   8   8   8   8   8
#     4  11  23  41  62  86 125 167 219 263 316 376
#     4  11  23  38  64  94 129 166 200 254 323 378
#     4  11  23  40  63  89 120 170 215 266 318 371
#     4  10  20  39  66  91 123 163 211 256 312 379
#     4  10  22  35  54  85 123 166 207 257 304 365
#     4  11  22  38  60  88 126 167 208 261 317 370
#     4  11  21  37  61  89 123 165 212 263 310 375
#     4   9  20  40  67  95 120 159 210 257 308 389
#
# _framework density 20.505163
#
# number of rings (size 3 to 8) (size 9 to 14) (size 15 to 20)
#    0.000    1.500    2.500    3.750    1.750    4.500 
#    0.000    0.000    0.000    0.000    0.000    0.000 
#    0.000    0.000    0.000    0.000    0.000    0.000 
#
# Total GULP energy -396573.985844 kJ/mol
# GULP energy per Si atom -12392.937058 kJ/mol
# Density = 2.045849 g / cm^3
# Si number density = 20.505163 Si / 1000 Ang^3
#
#
#
# Elastic Constant Matrix: (Units=GPa)
#
#
# Indices 1 2 3 4 5 6 
#
# 1 99.9619 40.6537 28.6273 0.0000 12.4034 0.0000
# 2 40.6537 117.6596 38.0185 0.0000 -2.9579 0.0000
# 3 28.6273 38.0185 79.8601 0.0000 1.8601 0.0000
# 4 0.0000 0.0000 0.0000 28.4466 0.0000 -6.2572
# 5 12.4034 -2.9579 1.8601 0.0000 26.4722 0.0000
# 6 0.0000 0.0000 0.0000 -6.2572 0.0000 59.5087
#
#
#
# Elastic Compliance Matrix: (Units=1/GPa)
#
#
# Indices 1 2 3 4 5 6 
#
# 1 0.013132 -0.003811 -0.002744 0.000000 -0.006386 0.000000
# 2 -0.003811 0.011207 -0.004046 0.000000 0.003322 0.000000
# 3 -0.002744 -0.004046 0.015438 0.000000 -0.000251 0.000000
# 4 0.000000 0.000000 0.000000 0.035986 0.000000 0.003784
# 5 -0.006386 0.003322 -0.000251 0.000000 0.041157 0.000000
# 6 0.000000 0.000000 0.000000 0.003784 0.000000 0.017202
#
#
# Mechanical properties :
#
#
# Convention : Reuss Voigt Hill
#
# Bulk Modulus (GPa) = 53.84147 56.89783 55.36965
# Shear Modulus (GPa) = 30.95661 35.56429 33.26045
#
# Velocity S-wave (km/s) = 3.88970 4.16914 4.03184
# Velocity P-wave (km/s) = 6.81818 7.14030 6.98110
#
# Compressibility (1/GPa) = 0.01857304
#
# Stress axis : x y z
#
# Youngs Moduli (GPa) = 76.14929 89.23036 64.77581
#
# Poissons Ratio (x) = 0.34007 0.17777
# Poissons Ratio (y) = 0.29022 0.26211
# Poissons Ratio (z) = 0.20898 0.36106
#
# Static dielectric constant tensor:
#      x y z
#    x 3.859160 0.000000 0.331000 
#    y 0.000000 3.779890 0.000000 
#    z 0.331000 0.000000 8.744000 
# 
# 
# High freq. dielectric constant tensor:
#      x y z
#    x 1.805190 0.000000 -0.006570 
#    y 0.000000 1.802520 0.000000 
#    z -0.006570 0.000000 1.786700 
# 
# From -- ./inp_files/52790.got.cif
#   From: 2010.06.25/outbox.cif.g09.slc.cpg/sg15_27_cif.got.tgz:52790.got - 2010.06.28 07:06:18.
