data_PCOD8139640
_publ_section_title
;
Structure prediction by ZEFSAII (Michael W. Deem and Ramdas Pophale) SiO2 
 PCOD8139640
Probable space group: C 2/C
;
_chemical_formula_sum "Si O2"
_cell_formula_units_Z 48
_cell_length_a 31.216715
_cell_length_b 6.059786
_cell_length_c 15.542367
_cell_angle_alpha 90.000000
_cell_angle_beta 128.039485
_cell_angle_gamma 90.000000
_cell_volume 2315.580015
_symmetry_space_group_name_H-M "C 2/C"
_symmetry_group_IT_number 15
_symmetry_cell_setting 'monoclinic'
loop_
_space_group_symop_operation_xyz
x,y,z
-x,y,1/2-z
-x,-y,-z
x,-y,1/2+z
1/2+x,1/2+y,z
1/2-x,1/2+y,1/2-z
1/2-x,1/2-y,-z
1/2+x,1/2-y,1/2+z
loop_
_atom_site_type_symbol
_atom_site_label
_atom_site_fract_x
_atom_site_fract_y
_atom_site_fract_z
Si Si1 0.574415 0.097782 0.534063
Si Si2 0.196323 0.381735 0.413285
Si Si3 0.819594 0.439873 0.423048
Si Si4 0.790141 0.717180 0.227388
Si Si5 0.467591 0.303191 0.415744
Si Si6 0.873454 0.069453 0.265503
O O1 0.617344 0.124246 0.510352
O O2 0.514181 0.164112 0.424591
O O3 0.598057 0.258109 0.635913
O O4 0.566884 0.848563 0.560100
O O5 0.250000 0.250000 0.500000
O O6 0.184127 0.526386 0.480404
O O7 0.199773 0.528926 0.331548
O O8 0.148210 0.203252 0.343071
O O9 0.809483 0.644484 0.346031
O O10 0.774724 0.254921 0.345487
O O11 0.821975 0.942066 0.243808
O O12 0.500000 0.500000 0.500000
O O13 0.420913 0.399066 0.294533
#
# Coordination Sequence:
#
# PCOD8139640 Si02
#       6
#     8   8   8   8   8   8
#     4  10  20  39  65  98 121 171 228 270 332 397
#     4  12  25  41  60  99 136 176 217 270 338 404
#     4  12  23  39  67  95 133 173 224 269 329 412
#     4  12  24  44  62  98 134 173 216 274 335 399
#     4   9  19  37  68  92 123 168 220 278 335 384
#     4  11  20  41  64  90 134 172 211 277 337 394
#
# _framework density 20.729147999999999
#
# number of rings (size 3 to 8) (size 9 to 14) (size 15 to 20)
#    0.000    1.000    5.000    2.500    0.000    0.000 
#    0.000    0.000    0.000   24.000    0.000    0.000 
#    0.000    0.000    0.000    0.000    0.000    0.000 
#
# Total GULP energy -297313.743058 kJ/mol
# GULP energy per Si atom -12388.072627 kJ/mol
# Density = 2.068197 g / cm^3
# Si number density = 20.729148 Si / 1000 Ang^3
#
#
#
# Elastic Constant Matrix: (Units=GPa)
#
#
# Indices 1 2 3 4 5 6 
#
# 1 125.1517 24.3992 30.6569 0.0000 29.5706 0.0000
# 2 24.3992 83.0737 22.5403 0.0001 13.1101 0.0001
# 3 30.6569 22.5403 62.5588 0.0000 12.5449 0.0000
# 4 0.0000 0.0001 0.0000 30.9274 0.0000 21.2501
# 5 29.5706 13.1101 12.5449 0.0000 35.1320 0.0000
# 6 0.0000 0.0001 0.0000 21.2501 0.0000 38.9317
#
#
#
# Elastic Compliance Matrix: (Units=1/GPa)
#
#
# Indices 1 2 3 4 5 6 
#
# 1 0.010799 -0.001067 -0.003409 0.000000 -0.007474 0.000000
# 2 -0.001067 0.013863 -0.003893 0.000000 -0.002884 0.000000
# 3 -0.003409 -0.003893 0.019595 0.000000 -0.002675 0.000000
# 4 0.000000 0.000000 0.000000 0.051737 0.000000 -0.028240
# 5 -0.007474 -0.002884 -0.002675 0.000000 0.036787 0.000000
# 6 0.000000 0.000000 0.000000 -0.028240 0.000000 0.041100
#
#
# Mechanical properties :
#
#
# Convention : Reuss Voigt Hill
#
# Bulk Modulus (GPa) = 36.34041 47.33078 41.83559
# Shear Modulus (GPa) = 25.02598 33.87740 29.45169
#
# Velocity S-wave (km/s) = 3.47837 4.04702 3.77342
# Velocity P-wave (km/s) = 5.80527 6.68733 6.26185
#
# Compressibility (1/GPa) = 0.02751758
#
# Stress axis : x y z
#
# Youngs Moduli (GPa) = 92.59728 72.13674 51.03450
#
# Poissons Ratio (x) = 0.07700 0.17397
# Poissons Ratio (y) = 0.09884 0.19869
# Poissons Ratio (z) = 0.31565 0.28085
#
# Static dielectric constant tensor:
#      x y z
#    x 4.071740 0.000000 0.738170 
#    y 0.000000 4.090530 0.000000 
#    z 0.738170 0.000000 3.748810 
# 
# 
# High freq. dielectric constant tensor:
#      x y z
#    x 1.811840 0.000000 0.040990 
#    y 0.000000 1.826010 0.000000 
#    z 0.040990 0.000000 1.792320 
# 
# From -- ./inp_files/179988.got.cif
#   From: 2010.06.25/outbox.cif.g09.slc.cpg/sg15_90_cif.got.tgz:179988.got - 2010.06.28 07:06:18.
