data_PCOD8139747
_publ_section_title
;
Structure prediction by ZEFSAII (Michael W. Deem and Ramdas Pophale) SiO2 
 PCOD8139747
Probable space group: C 2/C
;
_chemical_formula_sum "Si O2"
_cell_formula_units_Z 56
_cell_length_a 11.246399
_cell_length_b 16.152943
_cell_length_c 17.600936
_cell_angle_alpha 90.000000
_cell_angle_beta 125.922425
_cell_angle_gamma 90.000000
_cell_volume 2589.316635
_symmetry_space_group_name_H-M "C 2/C"
_symmetry_group_IT_number 15
_symmetry_cell_setting 'monoclinic'
loop_
_space_group_symop_operation_xyz
x,y,z
-x,y,1/2-z
-x,-y,-z
x,-y,1/2+z
1/2+x,1/2+y,z
1/2-x,1/2+y,1/2-z
1/2-x,1/2-y,-z
1/2+x,1/2-y,1/2+z
loop_
_atom_site_type_symbol
_atom_site_label
_atom_site_fract_x
_atom_site_fract_y
_atom_site_fract_z
Si Si1 0.031594 0.104252 0.174435
Si Si2 0.984941 0.858253 0.427273
Si Si3 0.699019 0.504581 0.998392
Si Si4 0.707369 0.363976 0.388088
Si Si5 0.040504 0.598812 0.849174
Si Si6 0.034349 0.256972 0.076200
Si Si7 0.775911 0.048364 0.753156
O O1 0.000000 0.121425 0.250000
O O2 0.080887 0.190662 0.156418
O O3 0.889217 0.067210 0.078734
O O4 0.170612 0.044626 0.217690
O O5 0.084560 0.934004 0.500725
O O6 0.072617 0.823471 0.385895
O O7 0.947267 0.787798 0.474786
O O8 0.827666 0.895987 0.344639
O O9 0.781652 0.563182 0.967564
O O10 0.818887 0.462170 0.098356
O O11 0.819802 0.292820 0.407506
O O12 0.645828 0.409730 0.290372
O O13 0.064215 0.673407 0.918645
O O14 0.898594 0.547120 0.823058
O O15 0.000000 0.632067 0.750000
#
# Coordination Sequence:
#
# PCOD8139747 Si02
#       7
#     8   8   8   8   8   8   8
#     4  11  21  42  67  98 124 169 221 269 307 402
#     4   9  20  40  69  93 119 170 222 261 307 394
#     4   9  22  41  72  82 127 172 218 259 318 375
#     4   9  19  42  65  94 124 165 212 272 306 379
#     4  11  26  44  60  97 138 169 211 278 320 384
#     4  11  24  37  65  95 134 158 213 263 345 358
#     4  10  20  39  70  90 127 176 221 255 324 379
#
# _framework density 21.627327000000001
#
# number of rings (size 3 to 8) (size 9 to 14) (size 15 to 20)
#    0.857    1.143    1.429    1.286    4.000    4.000 
#    5.143    0.000    6.286    0.000    0.000    0.000 
#    0.000    0.000    0.000    0.000    0.000    0.000 
#
# Total GULP energy -346905.294271 kJ/mol
# GULP energy per Si atom -12389.474795 kJ/mol
# Density = 2.157810 g / cm^3
# Si number density = 21.627327 Si / 1000 Ang^3
#
#
#
# Elastic Constant Matrix: (Units=GPa)
#
#
# Indices 1 2 3 4 5 6 
#
# 1 30.4268 14.0031 21.8158 0.0000 -10.2761 0.0000
# 2 14.0031 96.5985 36.6769 0.0000 -1.3791 0.0000
# 3 21.8158 36.6769 87.8626 0.0000 6.8921 0.0000
# 4 0.0000 0.0000 0.0000 33.4647 0.0000 -21.1681
# 5 -10.2761 -1.3791 6.8921 0.0000 24.0422 0.0000
# 6 0.0000 0.0000 0.0000 -21.1681 0.0000 27.6066
#
#
#
# Elastic Compliance Matrix: (Units=1/GPa)
#
#
# Indices 1 2 3 4 5 6 
#
# 1 0.053182 -0.001800 -0.014555 0.000000 0.026800 0.000000
# 2 -0.001800 0.012481 -0.004868 0.000000 0.001342 0.000000
# 3 -0.014555 -0.004868 0.017941 0.000000 -0.011644 0.000000
# 4 0.000000 0.000000 0.000000 0.058027 0.000000 0.044494
# 5 0.026800 0.001342 -0.011644 0.000000 0.056463 0.000000
# 6 0.000000 0.000000 0.000000 0.044494 0.000000 0.070340
#
#
# Mechanical properties :
#
#
# Convention : Reuss Voigt Hill
#
# Bulk Modulus (GPa) = 24.29802 39.98658 32.14230
# Shear Modulus (GPa) = 15.40359 26.51551 20.95955
#
# Velocity S-wave (km/s) = 2.67166 3.50525 3.11645
# Velocity P-wave (km/s) = 4.55810 5.90859 5.27673
#
# Compressibility (1/GPa) = 0.04115561
#
# Stress axis : x y z
#
# Youngs Moduli (GPa) = 18.80344 80.12440 55.73855
#
# Poissons Ratio (x) = 0.14424 0.81130
# Poissons Ratio (y) = 0.03385 0.27134
# Poissons Ratio (z) = 0.27369 0.39005
#
# Static dielectric constant tensor:
#      x y z
#    x 3.785710 0.000000 -0.283980 
#    y 0.000000 3.773860 0.000000 
#    z -0.283980 0.000000 3.874820 
# 
# 
# High freq. dielectric constant tensor:
#      x y z
#    x 1.849200 0.000000 -0.025730 
#    y 0.000000 1.834300 0.000000 
#    z -0.025730 0.000000 1.844800 
# 
# From -- ./inp_files/199298.got.cif
#   From: 2010.06.25/outbox.cif.g09.slc.cpg/sg15_100_cif.got.tgz:199298.got - 2010.06.28 07:06:18.
