data_PCOD8139853
_publ_section_title
;
Structure prediction by ZEFSAII (Michael W. Deem and Ramdas Pophale) SiO2 
 PCOD8139853
Probable space group: C 2/C
;
_chemical_formula_sum "Si O2"
_cell_formula_units_Z 48
_cell_length_a 11.234655
_cell_length_b 20.618633
_cell_length_c 13.636168
_cell_angle_alpha 90.000000
_cell_angle_beta 133.235441
_cell_angle_gamma 90.000000
_cell_volume 2301.274185
_symmetry_space_group_name_H-M "C 2/C"
_symmetry_group_IT_number 15
_symmetry_cell_setting 'monoclinic'
loop_
_space_group_symop_operation_xyz
x,y,z
-x,y,1/2-z
-x,-y,-z
x,-y,1/2+z
1/2+x,1/2+y,z
1/2-x,1/2+y,1/2-z
1/2-x,1/2-y,-z
1/2+x,1/2-y,1/2+z
loop_
_atom_site_type_symbol
_atom_site_label
_atom_site_fract_x
_atom_site_fract_y
_atom_site_fract_z
Si Si1 0.944737 0.815092 0.007596
Si Si2 0.397935 0.915358 0.834814
Si Si3 0.236295 0.435306 0.948076
Si Si4 0.875044 0.192060 0.090765
Si Si5 0.867647 0.278414 0.753624
Si Si6 0.814444 0.943501 0.612091
O O1 0.875826 0.879855 0.021026
O O2 0.797557 0.764002 0.901265
O O3 0.026879 0.828923 0.950563
O O4 0.076261 0.784603 0.156041
O O5 0.595133 0.916278 0.946930
O O6 0.335670 0.947848 0.699624
O O7 0.336979 0.840178 0.807389
O O8 0.316592 0.957712 0.875499
O O9 0.310747 0.502996 0.025456
O O10 0.766291 0.128416 0.049110
O O11 0.000000 0.210447 0.250000
O O12 0.750000 0.250000 0.000000
O O13 0.000000 0.302669 0.750000
O O14 0.000000 0.940468 0.750000
#
# Coordination Sequence:
#
# PCOD8139853 Si02
#       6
#     8   8   8   8   8   8
#     4  11  22  38  63  92 128 162 206 261 308 371
#     4  10  20  40  62  84 122 162 205 252 309 369
#     4  10  21  39  61  90 121 161 205 255 312 365
#     4  11  23  43  65  91 125 165 209 251 311 374
#     4  11  20  37  62  93 122 163 203 257 314 362
#     4  11  23  39  63  88 122 164 202 254 311 370
#
# _framework density 20.85801
#
# number of rings (size 3 to 8) (size 9 to 14) (size 15 to 20)
#    0.000    1.333    3.333    7.000    0.000    3.333 
#    3.000    0.000    0.000    0.000    0.000    0.000 
#    0.000    0.000    0.000    0.000    0.000    0.000 
#
# Total GULP energy -297489.118800 kJ/mol
# GULP energy per Si atom -12395.379950 kJ/mol
# Density = 2.081054 g / cm^3
# Si number density = 20.858010 Si / 1000 Ang^3
#
#
#
# Elastic Constant Matrix: (Units=GPa)
#
#
# Indices 1 2 3 4 5 6 
#
# 1 131.7801 43.2847 28.7304 0.0000 -0.8776 0.0000
# 2 43.2847 138.0621 69.3858 0.0000 -8.6824 0.0000
# 3 28.7304 69.3858 72.4926 0.0000 -5.4845 0.0000
# 4 0.0000 0.0000 0.0000 26.2335 0.0000 -3.8717
# 5 -0.8776 -8.6824 -5.4845 0.0000 24.1710 0.0000
# 6 0.0000 0.0000 0.0000 -3.8717 0.0000 21.1701
#
#
#
# Elastic Compliance Matrix: (Units=1/GPa)
#
#
# Indices 1 2 3 4 5 6 
#
# 1 0.008566 -0.001923 -0.001611 0.000000 -0.000745 0.000000
# 2 -0.001923 0.014486 -0.012936 0.000000 0.002198 0.000000
# 3 -0.001611 -0.012936 0.026921 0.000000 0.001403 0.000000
# 4 0.000000 0.000000 0.000000 0.039177 0.000000 0.007165
# 5 -0.000745 0.002198 0.001403 0.000000 0.042453 0.000000
# 6 0.000000 0.000000 0.000000 0.007165 0.000000 0.048547
#
#
# Mechanical properties :
#
#
# Convention : Reuss Voigt Hill
#
# Bulk Modulus (GPa) = 58.71105 69.45962 64.08533
# Shear Modulus (GPa) = 22.85532 27.71051 25.28292
#
# Velocity S-wave (km/s) = 3.31381 3.64886 3.48536
# Velocity P-wave (km/s) = 6.54606 7.15022 6.85480
#
# Compressibility (1/GPa) = 0.01703257
#
# Stress axis : x y z
#
# Youngs Moduli (GPa) = 116.73729 69.03347 37.14556
#
# Poissons Ratio (x) = 0.13275 0.05983
# Poissons Ratio (y) = 0.22448 0.48053
# Poissons Ratio (z) = 0.18804 0.89305
#
# Static dielectric constant tensor:
#      x y z
#    x 3.999000 0.000000 0.060610 
#    y 0.000000 3.621770 0.000000 
#    z 0.060610 0.000000 3.750370 
# 
# 
# High freq. dielectric constant tensor:
#      x y z
#    x 1.837180 0.000000 0.003970 
#    y 0.000000 1.799800 0.000000 
#    z 0.003970 0.000000 1.802070 
# 
# From -- ./inp_files/147457.got.cif
#   From: 2010.06.25/outbox.cif.g09.slc.cpg/sg15_74_cif.got.tgz:147457.got - 2010.06.28 07:06:18.
