data_PCOD8139073
_publ_section_title
;
Structure prediction by ZEFSAII (Michael W. Deem and Ramdas Pophale) SiO2 
 PCOD8139073
Probable space group: C 2/C
;
_chemical_formula_sum "Si O2"
_cell_formula_units_Z 60
_cell_length_a 10.707478
_cell_length_b 18.681562
_cell_length_c 24.798906
_cell_angle_alpha 90.000000
_cell_angle_beta 144.051704
_cell_angle_gamma 90.000000
_cell_volume 2912.136010
_symmetry_space_group_name_H-M "C 2/C"
_symmetry_group_IT_number 15
_symmetry_cell_setting 'monoclinic'
loop_
_space_group_symop_operation_xyz
x,y,z
-x,y,1/2-z
-x,-y,-z
x,-y,1/2+z
1/2+x,1/2+y,z
1/2-x,1/2+y,1/2-z
1/2-x,1/2-y,-z
1/2+x,1/2-y,1/2+z
loop_
_atom_site_type_symbol
_atom_site_label
_atom_site_fract_x
_atom_site_fract_y
_atom_site_fract_z
Si Si1 0.013540 0.569715 0.648847
Si Si2 0.697930 0.950673 0.778437
Si Si3 0.409739 0.252383 0.368912
Si Si4 0.198410 0.292887 0.784650
Si Si5 0.744331 0.657748 0.851715
Si Si6 0.895244 0.000367 0.021309
Si Si7 0.000000 0.668174 0.750000
Si Si8 0.279260 0.859132 0.489043
O O1 0.773909 0.565133 0.541748
O O2 0.025417 0.618878 0.706302
O O3 0.110845 0.490943 0.695088
O O4 0.152080 0.598605 0.648858
O O5 0.500000 0.955187 0.750000
O O6 0.792403 0.870356 0.800903
O O7 0.909578 0.992543 0.869849
O O8 0.363147 0.252447 0.289283
O O9 0.201630 0.279267 0.328042
O O10 0.488478 0.173648 0.415151
O O11 0.596204 0.307627 0.447157
O O12 0.341017 0.238122 0.871727
O O13 0.000000 0.318210 0.750000
O O14 0.500000 0.666257 0.750000
O O15 0.772921 0.632034 0.922566
O O16 0.756624 0.931999 0.990936
O O17 0.000000 0.000000 0.000000
#
# Coordination Sequence:
#
# PCOD8139073 Si02
#       8
#     8   8   8   8   8   8   4   8
#     4  12  23  41  67  95 136 175 224 281 337 403
#     4  11  22  38  65  98 130 166 220 278 332 389
#     4  11  22  40  67  93 129 170 218 282 333 400
#     4  10  20  38  64  94 123 170 218 264 328 402
#     4  11  21  42  67  92 131 181 221 269 339 412
#     4  12  24  41  65  97 130 170 220 280 337 396
#     4  12  22  42  64 102 126 170 226 284 340 392
#     4  11  24  41  65  96 131 174 225 270 340 416
#
# _framework density 20.603435000000001
#
# number of rings (size 3 to 8) (size 9 to 14) (size 15 to 20)
#    0.000    0.800    6.000    3.200    1.867    1.600 
#    2.400    1.333    2.933    0.000    0.000    0.000 
#    0.000    0.000    0.000    0.000    0.000    0.000 
#
# Total GULP energy -371707.464327 kJ/mol
# GULP energy per Si atom -12390.248811 kJ/mol
# Density = 2.055654 g / cm^3
# Si number density = 20.603435 Si / 1000 Ang^3
#
#
#
# Elastic Constant Matrix: (Units=GPa)
#
#
# Indices 1 2 3 4 5 6 
#
# 1 97.5269 50.1754 32.7130 0.0000 -11.7480 0.0001
# 2 50.1754 118.4262 28.2310 -0.0001 5.2687 0.0000
# 3 32.7130 28.2310 84.4301 -0.0003 8.0401 0.0000
# 4 0.0000 -0.0001 -0.0003 28.3667 0.0000 4.5912
# 5 -11.7480 5.2687 8.0401 0.0000 31.6578 0.0001
# 6 0.0001 0.0000 0.0000 4.5912 0.0001 25.1980
#
#
#
# Elastic Compliance Matrix: (Units=1/GPa)
#
#
# Indices 1 2 3 4 5 6 
#
# 1 0.015965 -0.005941 -0.004978 0.000000 0.008178 0.000000
# 2 -0.005941 0.011405 -0.001148 0.000000 -0.003811 0.000000
# 3 -0.004978 -0.001148 0.014669 0.000000 -0.005382 0.000000
# 4 0.000000 0.000000 0.000000 0.036324 0.000000 -0.006618
# 5 0.008178 -0.003811 -0.005382 0.000000 0.036623 0.000000
# 6 0.000000 0.000000 0.000000 -0.006618 0.000000 0.040892
#
#
# Mechanical properties :
#
#
# Convention : Reuss Voigt Hill
#
# Bulk Modulus (GPa) = 55.85435 58.06910 56.96172
# Shear Modulus (GPa) = 26.88446 29.66209 28.27328
#
# Velocity S-wave (km/s) = 3.61619 3.79841 3.70842
# Velocity P-wave (km/s) = 6.67862 6.89076 6.78552
#
# Compressibility (1/GPa) = 0.01790371
#
# Stress axis : x y z
#
# Youngs Moduli (GPa) = 62.63694 87.68353 68.16948
#
# Poissons Ratio (x) = 0.52095 0.33934
# Poissons Ratio (y) = 0.37215 0.07829
# Poissons Ratio (z) = 0.31180 0.10070
#
# Static dielectric constant tensor:
#      x y z
#    x 3.390280 0.000000 -0.241070 
#    y 0.000000 4.046160 0.000000 
#    z -0.241070 0.000000 3.096980 
# 
# 
# High freq. dielectric constant tensor:
#      x y z
#    x 1.791270 0.000000 -0.007060 
#    y 0.000000 1.815270 0.000000 
#    z -0.007060 0.000000 1.798330 
# 
# From -- ./inp_files/293560.got.cif
#   From: 2010.06.25/outbox.cif.g09.slc.cpg/sg15_147_cif.got.tgz:293560.got - 2010.06.28 07:06:18.
