data_PCOD8139622
_publ_section_title
;
Structure prediction by ZEFSAII (Michael W. Deem and Ramdas Pophale) SiO2 
 PCOD8139622
Probable space group: C 2/C
;
_chemical_formula_sum "Si O2"
_cell_formula_units_Z 60
_cell_length_a 26.431803
_cell_length_b 7.457594
_cell_length_c 23.182166
_cell_angle_alpha 90.000000
_cell_angle_beta 30.699942
_cell_angle_gamma 90.000000
_cell_volume 2332.980195
_symmetry_space_group_name_H-M "C 2/C"
_symmetry_group_IT_number 15
_symmetry_cell_setting 'monoclinic'
loop_
_space_group_symop_operation_xyz
x,y,z
-x,y,1/2-z
-x,-y,-z
x,-y,1/2+z
1/2+x,1/2+y,z
1/2-x,1/2+y,1/2-z
1/2-x,1/2-y,-z
1/2+x,1/2-y,1/2+z
loop_
_atom_site_type_symbol
_atom_site_label
_atom_site_fract_x
_atom_site_fract_y
_atom_site_fract_z
Si Si1 0.645639 0.003768 0.460371
Si Si2 0.858402 0.404909 0.809622
Si Si3 0.135238 0.615114 0.852568
Si Si4 0.973071 0.725507 0.647787
Si Si5 0.336629 0.512078 0.128502
Si Si6 0.500000 0.698063 0.750000
Si Si7 0.128712 0.116329 0.524341
Si Si8 0.130375 0.068481 0.776908
O O1 0.588841 0.172231 0.546835
O O2 0.764181 0.019981 0.343528
O O3 0.607947 0.022170 0.430419
O O4 0.609437 0.825272 0.528431
O O5 0.902062 0.602509 0.756860
O O6 0.910348 0.321004 0.814728
O O7 0.740835 0.416219 0.935613
O O8 0.883230 0.271148 0.731344
O O9 0.044849 0.671789 0.901571
O O10 0.226393 0.556684 0.722486
O O11 0.179296 0.778120 0.846945
O O12 0.947259 0.936544 0.679732
O O13 0.396737 0.494851 0.008668
O O14 0.386816 0.425358 0.136492
O O15 0.551085 0.569831 0.651476
#
# Coordination Sequence:
#
# PCOD8139622 Si02
#       8
#     8   8   8   8   8   4   8   8
#     4   9  18  36  60  90 133 164 208 268 313 392
#     4  11  23  43  67  95 131 171 227 273 322 387
#     4   9  17  29  56  88 127 169 202 252 324 393
#     4  11  19  37  64  93 125 175 213 251 332 395
#     4   9  17  33  58  95 130 166 207 257 335 401
#     4  12  24  42  66  92 122 184 232 272 326 364
#     4  10  20  39  65  93 128 170 223 272 323 386
#     4   9  22  40  61 100 139 164 207 275 331 397
#
# _framework density 25.718178000000002
#
# number of rings (size 3 to 8) (size 9 to 14) (size 15 to 20)
#    0.000    2.133    2.667    1.600    0.000    0.000 
#    2.400    1.333    0.000    2.400    0.000    0.000 
#    0.000    0.000    0.000    0.000    0.000    0.000 
#
# Total GULP energy -371657.774823 kJ/mol
# GULP energy per Si atom -12388.592494 kJ/mol
# Density = 2.565964 g / cm^3
# Si number density = 25.718178 Si / 1000 Ang^3
#
#
#
# Elastic Constant Matrix: (Units=GPa)
#
#
# Indices 1 2 3 4 5 6 
#
# 1 99.8715 -1.1930 35.8038 0.1448 3.8378 -0.0447
# 2 -1.1930 39.2002 25.7450 0.2599 1.1513 -0.1400
# 3 35.8038 25.7450 151.6663 0.2091 19.3274 -0.1935
# 4 0.1448 0.2599 0.2091 23.8834 -0.1111 -2.5592
# 5 3.8378 1.1513 19.3274 -0.1111 36.4402 0.0343
# 6 -0.0447 -0.1400 -0.1935 -2.5592 0.0343 26.9246
#
#
#
# Elastic Compliance Matrix: (Units=1/GPa)
#
#
# Indices 1 2 3 4 5 6 
#
# 1 0.011128 0.002347 -0.003074 -0.000064 0.000384 0.000002
# 2 0.002347 0.029318 -0.005771 -0.000265 0.001886 0.000087
# 3 -0.003074 -0.005771 0.008831 -0.000012 -0.004178 0.000033
# 4 -0.000064 -0.000265 -0.000012 0.042305 0.000147 0.004019
# 5 0.000384 0.001886 -0.004178 0.000147 0.029559 -0.000043
# 6 0.000002 0.000087 0.000033 0.004019 -0.000043 0.037524
#
#
# Mechanical properties :
#
#
# Convention : Reuss Voigt Hill
#
# Bulk Modulus (GPa) = 27.56222 45.71662 36.63942
# Shear Modulus (GPa) = 27.21023 32.80846 30.00934
#
# Velocity S-wave (km/s) = 3.25624 3.57556 3.41963
# Velocity P-wave (km/s) = 4.98776 5.90430 5.46528
#
# Compressibility (1/GPa) = 0.03628155
#
# Stress axis : x y z
#
# Youngs Moduli (GPa) = 89.86043 34.10868 113.23513
#
# Poissons Ratio (x) = -0.08005 0.34812
# Poissons Ratio (y) = -0.21089 0.65344
# Poissons Ratio (z) = 0.27626 0.19683
#
# Static dielectric constant tensor:
#      x y z
#    x 4.675780 -0.000100 -0.037600 
#    y -0.000100 4.534730 0.000070 
#    z -0.037600 0.000070 4.598520 
# 
# 
# High freq. dielectric constant tensor:
#      x y z
#    x 2.010080 -0.000010 -0.021870 
#    y -0.000010 2.014280 0.000020 
#    z -0.021870 0.000020 2.032170 
# 
# From -- ./inp_files/284287.got.cif
#   From: 2010.06.25/outbox.cif.g09.slc.cpg/sg15_143_cif.got.tgz:284287.got - 2010.06.28 07:06:18.
