data_PCOD8139182
_publ_section_title
;
Structure prediction by ZEFSAII (Michael W. Deem and Ramdas Pophale) SiO2 
 PCOD8139182
Probable space group: C 2/C
;
_chemical_formula_sum "Si O2"
_cell_formula_units_Z 60
_cell_length_a 20.942953
_cell_length_b 16.999202
_cell_length_c 9.652073
_cell_angle_alpha 90.000000
_cell_angle_beta 126.722057
_cell_angle_gamma 90.000000
_cell_volume 2754.325361
_symmetry_space_group_name_H-M "C 2/C"
_symmetry_group_IT_number 15
_symmetry_cell_setting 'monoclinic'
loop_
_space_group_symop_operation_xyz
x,y,z
-x,y,1/2-z
-x,-y,-z
x,-y,1/2+z
1/2+x,1/2+y,z
1/2-x,1/2+y,1/2-z
1/2-x,1/2-y,-z
1/2+x,1/2-y,1/2+z
loop_
_atom_site_type_symbol
_atom_site_label
_atom_site_fract_x
_atom_site_fract_y
_atom_site_fract_z
Si Si1 0.580239 0.534379 0.656039
Si Si2 0.315887 0.108530 0.736605
Si Si3 0.676420 0.489950 0.018188
Si Si4 0.908981 0.337366 0.100324
Si Si5 0.000000 0.158449 0.750000
Si Si6 0.336805 0.673870 0.516371
Si Si7 0.442603 0.989886 0.552758
Si Si8 0.798911 0.772737 0.275268
O O1 0.500000 0.500000 0.500000
O O2 0.637054 0.554666 0.599719
O O3 0.553599 0.610544 0.708594
O O4 0.624788 0.471296 0.813217
O O5 0.362566 0.160088 0.685425
O O6 0.239946 0.157080 0.689885
O O7 0.268754 0.033458 0.611506
O O8 0.375303 0.076053 0.933572
O O9 0.673409 0.582974 0.034036
O O10 0.903025 0.425463 0.030905
O O11 0.000000 0.313078 0.250000
O O12 0.870490 0.272001 0.948858
O O13 0.073667 0.205773 0.915475
O O14 0.272919 0.712758 0.336294
O O15 0.326830 0.693657 0.665208
O O16 0.500000 0.959799 0.750000
O O17 0.500000 0.000000 0.500000
#
# Coordination Sequence:
#
# PCOD8139182 Si02
#       8
#     8   8   8   8   4   8   8   8
#     4  11  19  37  59  97 133 167 217 277 333 397
#     4  12  25  43  69 106 137 181 240 282 370 417
#     4  11  24  38  69  98 133 177 228 295 334 413
#     4  11  25  47  70 100 144 185 233 297 352 426
#     4  10  20  38  66  94 134 168 226 264 336 406
#     4  10  23  43  66  96 134 183 227 283 344 409
#     4  11  23  44  74 107 137 180 237 307 351 406
#     4  11  26  45  65  99 142 182 229 283 356 430
#
# _framework density 21.783919000000001
#
# number of rings (size 3 to 8) (size 9 to 14) (size 15 to 20)
#    0.000    1.067    5.333    2.800    5.600    3.200 
#    1.200    4.000    0.000    0.000    0.000    0.000 
#    0.000    0.000    0.000    0.000    0.000    0.000 
#
# Total GULP energy -371642.434956 kJ/mol
# GULP energy per Si atom -12388.081165 kJ/mol
# Density = 2.173434 g / cm^3
# Si number density = 21.783919 Si / 1000 Ang^3
#
#
#
# Elastic Constant Matrix: (Units=GPa)
#
#
# Indices 1 2 3 4 5 6 
#
# 1 113.6783 37.7007 63.2796 0.0000 28.9307 0.0000
# 2 37.7007 41.8061 13.2924 0.0000 4.5754 0.0000
# 3 63.2796 13.2924 135.5222 0.0000 12.8716 0.0000
# 4 0.0000 0.0000 0.0000 27.9053 0.0000 11.8449
# 5 28.9307 4.5754 12.8716 0.0000 40.0484 0.0000
# 6 0.0000 0.0000 0.0000 11.8449 0.0000 28.5382
#
#
#
# Elastic Compliance Matrix: (Units=1/GPa)
#
#
# Indices 1 2 3 4 5 6 
#
# 1 0.020447 -0.015017 -0.007050 0.000000 -0.010790 0.000000
# 2 -0.015017 0.035892 0.002940 0.000000 0.005803 0.000000
# 3 -0.007050 0.002940 0.010243 0.000000 0.001465 0.000000
# 4 0.000000 0.000000 0.000000 0.043499 0.000000 -0.018054
# 5 -0.010790 0.005803 0.001465 0.000000 0.031630 0.000000
# 6 0.000000 0.000000 0.000000 -0.018054 0.000000 0.042534
#
#
# Mechanical properties :
#
#
# Convention : Reuss Voigt Hill
#
# Bulk Modulus (GPa) = 35.29840 57.72802 46.51321
# Shear Modulus (GPa) = 21.55706 31.08063 26.31884
#
# Velocity S-wave (km/s) = 3.14918 3.78136 3.47966
# Velocity P-wave (km/s) = 5.42791 6.75446 6.12719
#
# Compressibility (1/GPa) = 0.02832989
#
# Stress axis : x y z
#
# Youngs Moduli (GPa) = 48.90633 27.86109 97.62643
#
# Poissons Ratio (x) = 0.41839 0.68825
# Poissons Ratio (y) = 0.73443 -0.28706
# Poissons Ratio (z) = 0.34478 -0.08192
#
# Static dielectric constant tensor:
#      x y z
#    x 4.540110 0.000000 0.315860 
#    y 0.000000 3.896310 0.000000 
#    z 0.315860 0.000000 4.176000 
# 
# 
# High freq. dielectric constant tensor:
#      x y z
#    x 1.877860 0.000000 0.017770 
#    y 0.000000 1.836370 0.000000 
#    z 0.017770 0.000000 1.869640 
# 
# From -- ./inp_files/57029.got.cif
#   From: 2010.06.25/outbox.cif.g09.slc.cpg/sg15_29_cif.got.tgz:57029.got - 2010.06.28 07:06:18.
