data_PCOD8139750
_publ_section_title
;
Structure prediction by ZEFSAII (Michael W. Deem and Ramdas Pophale) SiO2 
 PCOD8139750
Probable space group: C 2/C
;
_chemical_formula_sum "Si O2"
_cell_formula_units_Z 40
_cell_length_a 17.039505
_cell_length_b 7.872840
_cell_length_c 26.153367
_cell_angle_alpha 90.000000
_cell_angle_beta 31.218999
_cell_angle_gamma 90.000000
_cell_volume 1818.469878
_symmetry_space_group_name_H-M "C 2/C"
_symmetry_group_IT_number 15
_symmetry_cell_setting 'monoclinic'
loop_
_space_group_symop_operation_xyz
x,y,z
-x,y,1/2-z
-x,-y,-z
x,-y,1/2+z
1/2+x,1/2+y,z
1/2-x,1/2+y,1/2-z
1/2-x,1/2-y,-z
1/2+x,1/2-y,1/2+z
loop_
_atom_site_type_symbol
_atom_site_label
_atom_site_fract_x
_atom_site_fract_y
_atom_site_fract_z
Si Si1 0.722055 0.788858 0.430632
Si Si2 0.475920 0.806046 0.496354
Si Si3 0.012196 0.804289 0.621556
Si Si4 0.308460 0.990060 0.952159
Si Si5 0.652169 0.395365 0.693258
O O1 0.579059 0.703240 0.479867
O O2 0.654930 0.901923 0.514165
O O3 0.829463 0.641116 0.393418
O O4 0.817327 0.908629 0.339069
O O5 0.540581 0.760228 0.404495
O O6 0.294392 0.773065 0.598737
O O7 0.500000 0.000000 0.500000
O O8 0.080551 0.648228 0.616421
O O9 0.871192 0.878933 0.732440
O O10 0.133829 0.953784 0.549699
O O11 0.500000 0.331173 0.750000
#
# Coordination Sequence:
#
# PCOD8139750 Si02
#       5
#     8   8   8   8   8
#     4  10  21  42  66  93 137 168 209 281 330 374
#     4  10  21  42  65  94 139 169 208 284 328 374
#     4  11  20  39  71  95 123 180 222 259 327 402
#     4  10  20  39  70  94 125 176 214 265 335 388
#     4  11  20  39  67  95 131 177 220 265 320 398
#
# _framework density 21.996514999999999
#
# number of rings (size 3 to 8) (size 9 to 14) (size 15 to 20)
#    0.000    1.600    6.000    1.200    0.000    0.800 
#    7.200    3.000    0.000    0.000    0.000    0.000 
#    0.000    0.000    0.000    0.000    0.000    0.000 
#
# Total GULP energy -247877.747812 kJ/mol
# GULP energy per Si atom -12393.887391 kJ/mol
# Density = 2.194645 g / cm^3
# Si number density = 21.996515 Si / 1000 Ang^3
#
#
#
# Elastic Constant Matrix: (Units=GPa)
#
#
# Indices 1 2 3 4 5 6 
#
# 1 165.2493 38.0367 65.9037 -0.0061 14.1227 0.0178
# 2 38.0367 71.0551 35.4355 -0.0128 21.6915 0.0252
# 3 65.9037 35.4355 111.1525 0.0028 22.0789 -0.0028
# 4 -0.0061 -0.0128 0.0028 26.6873 -0.0014 15.9046
# 5 14.1227 21.6915 22.0789 -0.0014 37.8601 0.0004
# 6 0.0178 0.0252 -0.0028 15.9046 0.0004 32.7825
#
#
#
# Elastic Compliance Matrix: (Units=1/GPa)
#
#
# Indices 1 2 3 4 5 6 
#
# 1 0.008265 -0.002568 -0.004254 0.000004 0.000869 -0.000005
# 2 -0.002568 0.019544 -0.003024 0.000024 -0.008476 -0.000025
# 3 -0.004254 -0.003024 0.013373 -0.000011 -0.004479 0.000011
# 4 0.000004 0.000024 -0.000011 0.052712 -0.000007 -0.025574
# 5 0.000869 -0.008476 -0.004479 -0.000007 0.033557 0.000008
# 6 -0.000005 -0.000025 0.000011 -0.025574 0.000008 0.042911
#
#
# Mechanical properties :
#
#
# Convention : Reuss Voigt Hill
#
# Bulk Modulus (GPa) = 46.53697 69.57876 58.05786
# Shear Modulus (GPa) = 25.35258 33.33803 29.34530
#
# Velocity S-wave (km/s) = 3.39864 3.89730 3.65648
# Velocity P-wave (km/s) = 6.05008 7.20780 6.65416
#
# Compressibility (1/GPa) = 0.02148829
#
# Stress axis : x y z
#
# Youngs Moduli (GPa) = 120.99222 51.16643 74.77754
#
# Poissons Ratio (x) = 0.13140 0.31813
# Poissons Ratio (y) = 0.31071 0.22616
# Poissons Ratio (z) = 0.51475 0.15475
#
# Static dielectric constant tensor:
#      x y z
#    x 4.604620 -0.000030 -0.209700 
#    y -0.000030 3.794780 0.000010 
#    z -0.209700 0.000010 3.937200 
# 
# 
# High freq. dielectric constant tensor:
#      x y z
#    x 1.882250 0.000000 0.007680 
#    y 0.000000 1.846130 0.000000 
#    z 0.007680 0.000000 1.835210 
# 
# From -- ./inp_files/221808.got.cif
#   From: 2010.06.25/outbox.cif.g09.slc.cpg/sg15_111_cif.got.tgz:221808.got - 2010.06.28 07:06:18.
