data_PCOD8139259
_publ_section_title
;
Structure prediction by ZEFSAII (Michael W. Deem and Ramdas Pophale) SiO2 
 PCOD8139259
Probable space group: C 2/C
;
_chemical_formula_sum "Si O2"
_cell_formula_units_Z 48
_cell_length_a 14.234068
_cell_length_b 12.015076
_cell_length_c 12.954370
_cell_angle_alpha 90.000000
_cell_angle_beta 87.592610
_cell_angle_gamma 90.000000
_cell_volume 2213.545161
_symmetry_space_group_name_H-M "C 2/C"
_symmetry_group_IT_number 15
_symmetry_cell_setting 'monoclinic'
loop_
_space_group_symop_operation_xyz
x,y,z
-x,y,1/2-z
-x,-y,-z
x,-y,1/2+z
1/2+x,1/2+y,z
1/2-x,1/2+y,1/2-z
1/2-x,1/2-y,-z
1/2+x,1/2-y,1/2+z
loop_
_atom_site_type_symbol
_atom_site_label
_atom_site_fract_x
_atom_site_fract_y
_atom_site_fract_z
Si Si1 0.564737 0.845484 0.971933
Si Si2 0.399997 0.346045 0.278713
Si Si3 0.458391 0.622302 0.994584
Si Si4 0.797154 0.357428 0.716155
Si Si5 0.400554 0.588923 0.211541
Si Si6 0.068248 0.493820 0.653791
O O1 0.656994 0.869779 0.898729
O O2 0.474689 0.900342 0.920058
O O3 0.541440 0.714661 0.984885
O O4 0.587050 0.897078 0.083508
O O5 0.500000 0.282918 0.250000
O O6 0.390417 0.375475 0.399192
O O7 0.314316 0.267616 0.253979
O O8 0.399964 0.454823 0.206763
O O9 0.391753 0.640467 0.097337
O O10 0.500000 0.500000 0.000000
O O11 0.685144 0.371082 0.712659
O O12 0.836927 0.445695 0.798410
O O13 0.500000 0.632378 0.250000
O O14 0.000000 0.528427 0.750000
#
# Coordination Sequence:
#
# PCOD8139259 Si02
#       6
#     8   8   8   8   8   8
#     4  10  20  38  69  98 131 172 217 270 338 390
#     4  11  20  44  71  90 128 181 218 260 333 405
#     4  12  21  41  72  91 131 182 216 262 334 398
#     4  11  21  43  69  95 128 177 229 263 328 408
#     4  11  26  43  62  99 134 170 222 282 325 384
#     4   9  19  39  64 100 137 167 211 277 334 392
#
# _framework density 21.684673
#
# number of rings (size 3 to 8) (size 9 to 14) (size 15 to 20)
#    0.000    1.333    6.667    0.500    0.000    2.667 
#   12.000    0.833    0.000    0.000    0.000    0.000 
#    0.000    0.000    0.000    0.000    0.000    0.000 
#
# Total GULP energy -297582.235951 kJ/mol
# GULP energy per Si atom -12399.259831 kJ/mol
# Density = 2.163532 g / cm^3
# Si number density = 21.684673 Si / 1000 Ang^3
#
#
#
# Elastic Constant Matrix: (Units=GPa)
#
#
# Indices 1 2 3 4 5 6 
#
# 1 113.7713 38.4455 36.6796 0.0000 -21.2603 0.0000
# 2 38.4455 102.2733 44.6509 0.0000 -2.3216 0.0000
# 3 36.6796 44.6509 146.0878 0.0000 1.4658 0.0000
# 4 0.0000 0.0000 0.0000 37.2681 0.0000 2.1343
# 5 -21.2603 -2.3216 1.4658 0.0000 30.0091 0.0000
# 6 0.0000 0.0000 0.0000 2.1343 0.0000 19.2104
#
#
#
# Elastic Compliance Matrix: (Units=1/GPa)
#
#
# Indices 1 2 3 4 5 6 
#
# 1 0.012231 -0.003493 -0.002089 0.000000 0.008497 0.000000
# 2 -0.003493 0.012314 -0.002873 0.000000 -0.001382 0.000000
# 3 -0.002089 -0.002873 0.008269 0.000000 -0.002106 0.000000
# 4 0.000000 0.000000 0.000000 0.027004 0.000000 -0.003000
# 5 0.008497 -0.001382 -0.002106 0.000000 0.039339 0.000000
# 6 0.000000 0.000000 0.000000 -0.003000 0.000000 0.052388
#
#
# Mechanical properties :
#
#
# Convention : Reuss Voigt Hill
#
# Bulk Modulus (GPa) = 62.87417 66.85384 64.86400
# Shear Modulus (GPa) = 28.77603 33.45460 31.11532
#
# Velocity S-wave (km/s) = 3.64678 3.93208 3.79212
# Velocity P-wave (km/s) = 6.84030 7.17718 7.01077
#
# Compressibility (1/GPa) = 0.01590478
#
# Stress axis : x y z
#
# Youngs Moduli (GPa) = 81.75857 81.21105 120.93723
#
# Poissons Ratio (x) = 0.28367 0.25259
# Poissons Ratio (y) = 0.28559 0.34741
# Poissons Ratio (z) = 0.17076 0.23329
#
# Static dielectric constant tensor:
#      x y z
#    x 3.545440 0.000000 0.062860 
#    y 0.000000 3.882570 0.000000 
#    z 0.062860 0.000000 4.522640 
# 
# 
# High freq. dielectric constant tensor:
#      x y z
#    x 1.812980 0.000000 0.002280 
#    y 0.000000 1.850940 0.000000 
#    z 0.002280 0.000000 1.871050 
# 
# From -- ./inp_files/151872.got.cif
#   From: 2010.06.25/outbox.cif.g09.slc.cpg/sg15_76_cif.got.tgz:151872.got - 2010.06.28 07:06:18.
