data_PCOD8139255
_publ_section_title
;
Structure prediction by ZEFSAII (Michael W. Deem and Ramdas Pophale) SiO2 
 PCOD8139255
Probable space group: C 2/C
;
_chemical_formula_sum "Si O2"
_cell_formula_units_Z 44
_cell_length_a 9.933265
_cell_length_b 11.165691
_cell_length_c 19.387783
_cell_angle_alpha 90.000000
_cell_angle_beta 98.421459
_cell_angle_gamma 90.000000
_cell_volume 2127.147424
_symmetry_space_group_name_H-M "C 2/C"
_symmetry_group_IT_number 15
_symmetry_cell_setting 'monoclinic'
loop_
_space_group_symop_operation_xyz
x,y,z
-x,y,1/2-z
-x,-y,-z
x,-y,1/2+z
1/2+x,1/2+y,z
1/2-x,1/2+y,1/2-z
1/2-x,1/2-y,-z
1/2+x,1/2-y,1/2+z
loop_
_atom_site_type_symbol
_atom_site_label
_atom_site_fract_x
_atom_site_fract_y
_atom_site_fract_z
Si Si1 0.500000 0.443811 0.250000
Si Si2 0.458203 0.327332 0.820364
Si Si3 0.685967 0.716715 0.843537
Si Si4 0.785976 0.479036 0.455091
Si Si5 0.985404 0.653824 0.064377
Si Si6 0.387742 0.685276 0.031474
O O1 0.529916 0.527805 0.185621
O O2 0.370436 0.361637 0.223713
O O3 0.500000 0.266733 0.750000
O O4 0.301266 0.302570 0.823113
O O5 0.556812 0.279087 0.888257
O O6 0.752021 0.633337 0.906135
O O7 0.563151 0.796959 0.865403
O O8 0.875391 0.576974 0.418437
O O9 0.647157 0.543224 0.471821
O O10 0.869161 0.434705 0.527432
O O11 0.000915 0.770534 0.015592
O O12 0.250000 0.750000 0.000000
#
# Coordination Sequence:
#
# PCOD8139255 Si02
#       6
#     4   8   8   8   8   8
#     4  10  26  44  60  88 128 172 220 264 310 386
#     4  10  23  45  63  90 133 170 216 262 316 387
#     4  12  23  42  66  89 127 166 217 261 316 382
#     4  10  20  39  61  96 132 153 198 262 320 382
#     4  10  23  37  64 100 124 158 208 258 325 379
#     4  10  20  38  69  96 128 165 205 267 324 377
#
# _framework density 20.684978999999998
#
# number of rings (size 3 to 8) (size 9 to 14) (size 15 to 20)
#    0.545    1.091    3.636    0.545    0.000    6.545 
#    3.273    0.000    0.000    0.000    0.000    0.000 
#    0.000    0.000    0.000    0.000    0.000    0.000 
#
# Total GULP energy -272672.003369 kJ/mol
# GULP energy per Si atom -12394.181971 kJ/mol
# Density = 2.063790 g / cm^3
# Si number density = 20.684979 Si / 1000 Ang^3
#
#
#
# Elastic Constant Matrix: (Units=GPa)
#
#
# Indices 1 2 3 4 5 6 
#
# 1 97.7273 40.4964 39.4588 0.0000 -9.2085 0.0000
# 2 40.4964 72.8376 8.8438 0.0000 -7.4085 0.0000
# 3 39.4588 8.8438 76.7050 0.0000 1.7843 0.0000
# 4 0.0000 0.0000 0.0000 28.7791 0.0000 6.1352
# 5 -9.2085 -7.4085 1.7843 0.0000 37.0857 0.0000
# 6 0.0000 0.0000 0.0000 6.1352 0.0000 36.9077
#
#
#
# Elastic Compliance Matrix: (Units=1/GPa)
#
#
# Indices 1 2 3 4 5 6 
#
# 1 0.017142 -0.008263 -0.007935 0.000000 0.002987 0.000000
# 2 -0.008263 0.018218 0.002116 0.000000 0.001486 0.000000
# 3 -0.007935 0.002116 0.016930 0.000000 -0.002362 0.000000
# 4 0.000000 0.000000 0.000000 0.036024 0.000000 -0.005988
# 5 0.002987 0.001486 -0.002362 0.000000 0.028117 0.000000
# 6 0.000000 0.000000 0.000000 -0.005988 0.000000 0.028090
#
#
# Mechanical properties :
#
#
# Convention : Reuss Voigt Hill
#
# Bulk Modulus (GPa) = 41.45144 47.20755 44.32950
# Shear Modulus (GPa) = 27.66596 31.11922 29.39259
#
# Velocity S-wave (km/s) = 3.66114 3.88291 3.77366
# Velocity P-wave (km/s) = 6.16075 6.55548 6.36118
#
# Compressibility (1/GPa) = 0.02412461
#
# Stress axis : x y z
#
# Youngs Moduli (GPa) = 58.33564 54.89164 59.06694
#
# Poissons Ratio (x) = 0.45359 0.46870
# Poissons Ratio (y) = 0.48205 -0.12498
# Poissons Ratio (z) = 0.46290 -0.11615
#
# Static dielectric constant tensor:
#      x y z
#    x 3.871530 0.000000 0.051300 
#    y 0.000000 3.965040 0.000000 
#    z 0.051300 0.000000 3.585630 
# 
# 
# High freq. dielectric constant tensor:
#      x y z
#    x 1.809800 0.000000 0.014700 
#    y 0.000000 1.809460 0.000000 
#    z 0.014700 0.000000 1.791920 
# 
# From -- ./inp_files/196297.got.cif
#   From: 2010.06.25/outbox.cif.g09.slc.cpg/sg15_99_cif.got.tgz:196297.got - 2010.06.28 07:06:18.
