data_PCOD8139147
_publ_section_title
;
Structure prediction by ZEFSAII (Michael W. Deem and Ramdas Pophale) SiO2 
 PCOD8139147
Probable space group: C 2/C
;
_chemical_formula_sum "Si O2"
_cell_formula_units_Z 64
_cell_length_a 26.756556
_cell_length_b 12.819455
_cell_length_c 13.523273
_cell_angle_alpha 90.000000
_cell_angle_beta 43.486685
_cell_angle_gamma 90.000000
_cell_volume 3192.180312
_symmetry_space_group_name_H-M "C 2/C"
_symmetry_group_IT_number 15
_symmetry_cell_setting 'monoclinic'
loop_
_space_group_symop_operation_xyz
x,y,z
-x,y,1/2-z
-x,-y,-z
x,-y,1/2+z
1/2+x,1/2+y,z
1/2-x,1/2+y,1/2-z
1/2-x,1/2-y,-z
1/2+x,1/2-y,1/2+z
loop_
_atom_site_type_symbol
_atom_site_label
_atom_site_fract_x
_atom_site_fract_y
_atom_site_fract_z
Si Si1 0.152577 0.987529 0.678282
Si Si2 0.425110 0.501388 0.906682
Si Si3 0.909846 0.843690 0.097290
Si Si4 0.299840 0.098284 0.450243
Si Si5 0.641499 0.326738 0.860962
Si Si6 0.456005 0.001244 0.215128
Si Si7 0.526997 0.832877 0.472469
Si Si8 0.763067 0.732494 0.323576
O O1 0.133469 0.968439 0.591748
O O2 0.142698 0.881289 0.752723
O O3 0.099129 0.077717 0.797246
O O4 0.236260 0.018641 0.568546
O O5 0.500000 0.532406 0.750000
O O6 0.437379 0.404456 0.961700
O O7 0.399049 0.602827 0.001142
O O8 0.831500 0.796160 0.185546
O O9 0.968220 0.756554 0.037943
O O10 0.293925 0.198583 0.530762
O O11 0.292032 0.136400 0.348179
O O12 0.375226 0.038933 0.358015
O O13 0.600958 0.217043 0.906982
O O14 0.722761 0.308454 0.783859
O O15 0.500000 0.973350 0.250000
O O16 0.454135 0.895990 0.153644
O O17 0.497378 0.092365 0.099295
#
# Coordination Sequence:
#
# PCOD8139147 Si02
#       8
#     8   8   8   8   8   8   8   8
#     4  10  22  39  61  93 123 155 204 258 302 367
#     4  11  22  37  61  91 124 161 199 249 309 367
#     4  10  22  40  62  88 122 163 200 251 307 359
#     4  10  20  40  65  87 117 157 210 254 295 359
#     4  11  23  39  61  93 124 159 203 254 309 360
#     4  11  25  42  62  89 121 163 205 254 302 359
#     4  11  24  41  60  89 125 159 206 249 301 370
#     4  10  20  38  66  88 117 160 204 254 302 352
#
# _framework density 20.048991999999998
#
# number of rings (size 3 to 8) (size 9 to 14) (size 15 to 20)
#    0.000    1.500    2.500    2.250    0.000    8.000 
#    2.250    1.250    0.000    0.000    0.000    0.000 
#    0.000    0.000    0.000    0.000    0.000    0.000 
#
# Total GULP energy -396957.093545 kJ/mol
# GULP energy per Si atom -12404.909173 kJ/mol
# Density = 2.000336 g / cm^3
# Si number density = 20.048992 Si / 1000 Ang^3
#
#
#
# Elastic Constant Matrix: (Units=GPa)
#
#
# Indices 1 2 3 4 5 6 
#
# 1 113.4246 32.6616 21.3780 0.0000 5.7086 0.0000
# 2 32.6616 56.1310 2.1150 0.0000 -0.5933 0.0000
# 3 21.3780 2.1150 52.6646 0.0000 -0.8588 0.0000
# 4 0.0000 0.0000 0.0000 8.8202 0.0000 -3.1509
# 5 5.7086 -0.5933 -0.8588 0.0000 31.1255 0.0000
# 6 0.0000 0.0000 0.0000 -3.1509 0.0000 24.0672
#
#
#
# Elastic Compliance Matrix: (Units=1/GPa)
#
#
# Indices 1 2 3 4 5 6 
#
# 1 0.011710 -0.006669 -0.004525 0.000000 -0.002400 0.000000
# 2 -0.006669 0.021644 0.001865 0.000000 0.001687 0.000000
# 3 -0.004525 0.001865 0.020773 0.000000 0.001439 0.000000
# 4 0.000000 0.000000 0.000000 0.118938 0.000000 0.015572
# 5 -0.002400 0.001687 0.001439 0.000000 0.032640 0.000000
# 6 0.000000 0.000000 0.000000 0.015572 0.000000 0.043589
#
#
# Mechanical properties :
#
#
# Convention : Reuss Voigt Hill
#
# Bulk Modulus (GPa) = 28.19242 37.16994 32.68118
# Shear Modulus (GPa) = 17.87149 23.87363 20.87256
#
# Velocity S-wave (km/s) = 2.98886 3.45449 3.23007
# Velocity P-wave (km/s) = 5.09934 5.87291 5.49975
#
# Compressibility (1/GPa) = 0.03547053
#
# Stress axis : x y z
#
# Youngs Moduli (GPa) = 85.39394 46.20311 48.13849
#
# Poissons Ratio (x) = 0.30813 0.21782
# Poissons Ratio (y) = 0.56949 -0.08980
# Poissons Ratio (z) = 0.38640 -0.08619
#
# Static dielectric constant tensor:
#      x y z
#    x 3.663370 0.000000 0.016960 
#    y 0.000000 3.645890 0.000000 
#    z 0.016960 0.000000 3.668520 
# 
# 
# High freq. dielectric constant tensor:
#      x y z
#    x 1.789990 0.000000 -0.004070 
#    y 0.000000 1.780260 0.000000 
#    z -0.004070 0.000000 1.783750 
# 
# From -- ./inp_files/177787.got.cif
#   From: 2010.06.25/outbox.cif.g09.slc.cpg/sg15_89_cif.got.tgz:177787.got - 2010.06.28 07:06:18.
