data_PCOD8139054
_publ_section_title
;
Structure prediction by ZEFSAII (Michael W. Deem and Ramdas Pophale) SiO2 
 PCOD8139054
Probable space group: C 2/C
;
_chemical_formula_sum "Si O2"
_cell_formula_units_Z 44
_cell_length_a 19.785632
_cell_length_b 20.097895
_cell_length_c 14.199651
_cell_angle_alpha 90.000000
_cell_angle_beta 158.658424
_cell_angle_gamma 90.000000
_cell_volume 2054.909468
_symmetry_space_group_name_H-M "C 2/C"
_symmetry_group_IT_number 15
_symmetry_cell_setting 'monoclinic'
loop_
_space_group_symop_operation_xyz
x,y,z
-x,y,1/2-z
-x,-y,-z
x,-y,1/2+z
1/2+x,1/2+y,z
1/2-x,1/2+y,1/2-z
1/2-x,1/2-y,-z
1/2+x,1/2-y,1/2+z
loop_
_atom_site_type_symbol
_atom_site_label
_atom_site_fract_x
_atom_site_fract_y
_atom_site_fract_z
Si Si1 0.500000 0.652751 0.750000
Si Si2 0.366715 0.697303 0.386873
Si Si3 0.861894 0.060915 0.316744
Si Si4 0.176980 0.562546 0.276058
Si Si5 0.713732 0.432577 0.992679
Si Si6 0.045956 0.665353 0.593061
O O1 0.472390 0.700890 0.624474
O O2 0.325656 0.603215 0.531131
O O3 0.458685 0.634712 0.449592
O O4 0.380122 0.767332 0.355027
O O5 0.148555 0.681498 0.109824
O O6 0.728241 0.053282 0.232564
O O7 0.759616 0.059015 0.083949
O O8 0.000000 0.000000 0.500000
O O9 0.155181 0.489899 0.292044
O O10 0.988879 0.607486 0.031553
O O11 0.500000 0.439528 0.750000
O O12 0.798142 0.361260 0.132100
#
# Coordination Sequence:
#
# PCOD8139054 Si02
#       6
#     4   8   8   8   8   8
#     4   8  16  38  66  88 120 168 200 266 316 358
#     4  10  23  41  63  92 133 163 216 257 313 378
#     4  10  20  38  64  91 122 166 210 255 312 377
#     4  10  20  40  64  93 126 159 217 262 312 375
#     4  12  22  39  66  92 126 168 208 259 326 371
#     4  10  25  41  60  94 128 167 209 264 309 381
#
# _framework density 21.412134999999999
#
# number of rings (size 3 to 8) (size 9 to 14) (size 15 to 20)
#    0.000    2.182    2.727    1.636    2.545    6.545 
#    0.000    1.818    0.000    0.000    0.000    0.000 
#    0.000    0.000    0.000    0.000    0.000    0.000 
#
# Total GULP energy -272537.873980 kJ/mol
# GULP energy per Si atom -12388.085181 kJ/mol
# Density = 2.136340 g / cm^3
# Si number density = 21.412135 Si / 1000 Ang^3
#
#
#
# Elastic Constant Matrix: (Units=GPa)
#
#
# Indices 1 2 3 4 5 6 
#
# 1 66.2754 55.3987 40.8199 0.0000 -31.7704 0.0000
# 2 55.3987 197.3888 73.0638 0.0000 -26.0659 0.0000
# 3 40.8199 73.0638 101.1927 0.0000 -19.0923 0.0000
# 4 0.0000 0.0000 0.0000 36.0417 0.0000 -10.7579
# 5 -31.7704 -26.0659 -19.0923 0.0000 38.6695 0.0000
# 6 0.0000 0.0000 0.0000 -10.7579 0.0000 16.8367
#
#
#
# Elastic Compliance Matrix: (Units=1/GPa)
#
#
# Indices 1 2 3 4 5 6 
#
# 1 0.032146 -0.004008 -0.006176 0.000000 0.020660 0.000000
# 2 -0.004008 0.007626 -0.003904 0.000000 -0.000080 0.000000
# 3 -0.006176 -0.003904 0.015150 0.000000 -0.000226 0.000000
# 4 0.000000 0.000000 0.000000 0.034284 0.000000 0.021906
# 5 0.020660 -0.000080 -0.000226 0.000000 0.042669 0.000000
# 6 0.000000 0.000000 0.000000 0.021906 0.000000 0.073391
#
#
# Mechanical properties :
#
#
# Convention : Reuss Voigt Hill
#
# Bulk Modulus (GPa) = 37.38877 78.15796 57.77337
# Shear Modulus (GPa) = 20.63075 31.34786 25.98930
#
# Velocity S-wave (km/s) = 3.10741 3.83041 3.48769
# Velocity P-wave (km/s) = 5.51127 7.49291 6.57715
#
# Compressibility (1/GPa) = 0.02674600
#
# Stress axis : x y z
#
# Youngs Moduli (GPa) = 31.10788 131.13790 66.00797
#
# Poissons Ratio (x) = 0.52559 0.40763
# Poissons Ratio (y) = 0.12468 0.25771
# Poissons Ratio (z) = 0.19211 0.51200
#
# Static dielectric constant tensor:
#      x y z
#    x 3.762010 0.000000 -0.151920 
#    y 0.000000 5.127330 0.000000 
#    z -0.151920 0.000000 3.940860 
# 
# 
# High freq. dielectric constant tensor:
#      x y z
#    x 1.801810 0.000000 -0.017310 
#    y 0.000000 1.863460 0.000000 
#    z -0.017310 0.000000 1.847720 
# 
# From -- ./inp_files/174293.got.cif
#   From: 2010.06.25/outbox.cif.g09.slc.cpg/sg15_88_cif.got.tgz:174293.got - 2010.06.28 07:06:18.
