data_PCOD8139553
_publ_section_title
;
Structure prediction by ZEFSAII (Michael W. Deem and Ramdas Pophale) SiO2 
 PCOD8139553
Probable space group: C 2/C
;
_chemical_formula_sum "Si O2"
_cell_formula_units_Z 64
_cell_length_a 9.234188
_cell_length_b 24.077679
_cell_length_c 13.698289
_cell_angle_alpha 90.000000
_cell_angle_beta 92.167461
_cell_angle_gamma 90.000000
_cell_volume 3043.468649
_symmetry_space_group_name_H-M "C 2/C"
_symmetry_group_IT_number 15
_symmetry_cell_setting 'monoclinic'
loop_
_space_group_symop_operation_xyz
x,y,z
-x,y,1/2-z
-x,-y,-z
x,-y,1/2+z
1/2+x,1/2+y,z
1/2-x,1/2+y,1/2-z
1/2-x,1/2-y,-z
1/2+x,1/2-y,1/2+z
loop_
_atom_site_type_symbol
_atom_site_label
_atom_site_fract_x
_atom_site_fract_y
_atom_site_fract_z
Si Si1 0.746282 0.401788 0.924337
Si Si2 0.255391 0.118078 0.105891
Si Si3 0.479923 0.064925 0.979381
Si Si4 0.986575 0.878498 0.041518
Si Si5 0.665454 0.810342 0.718334
Si Si6 0.740294 0.414041 0.314848
Si Si7 0.331019 0.472752 0.756310
Si Si8 0.146568 0.186973 0.696583
O O1 0.788430 0.342437 0.878566
O O2 0.756288 0.446968 0.838000
O O3 0.586073 0.409971 0.965443
O O4 0.856061 0.412490 0.017457
O O5 0.247886 0.164364 0.188828
O O6 0.204119 0.058440 0.144537
O O7 0.410122 0.101745 0.064874
O O8 0.150735 0.145099 0.021460
O O9 0.388456 0.077284 0.879325
O O10 0.500000 0.000000 0.000000
O O11 0.908756 0.915905 0.123511
O O12 0.095921 0.832073 0.087465
O O13 0.500000 0.815298 0.750000
O O14 0.719347 0.747578 0.697992
O O15 0.723101 0.463738 0.236815
O O16 0.751840 0.356929 0.253760
O O17 0.500000 0.467576 0.750000
O O18 0.000000 0.193137 0.750000
#
# Coordination Sequence:
#
# PCOD8139553 Si02
#       8
#     8   8   8   8   8   8   8   8
#     4  11  22  37  60  91 121 154 198 249 301 351
#     4  10  22  38  62  91 115 161 204 244 293 359
#     4  11  22  39  57  91 124 155 198 242 297 367
#     4  10  21  40  61  87 119 151 203 251 291 352
#     4  10  20  39  64  87 120 157 203 249 302 357
#     4  10  22  40  61  85 124 157 200 243 300 361
#     4  11  20  35  60  90 119 155 198 242 298 352
#     4   9  20  41  61  87 118 161 201 251 303 350
#
# _framework density 21.028637
#
# number of rings (size 3 to 8) (size 9 to 14) (size 15 to 20)
#    0.000    1.750    3.750    1.125    0.000    3.000 
#    2.250    4.375    2.750    0.000    0.000    0.000 
#    0.000    0.000    0.000    0.000    0.000    0.000 
#
# Total GULP energy -396431.682999 kJ/mol
# GULP energy per Si atom -12388.490094 kJ/mol
# Density = 2.098077 g / cm^3
# Si number density = 21.028637 Si / 1000 Ang^3
#
#
#
# Elastic Constant Matrix: (Units=GPa)
#
#
# Indices 1 2 3 4 5 6 
#
# 1 80.5153 25.0991 19.0730 0.0000 21.5462 0.0000
# 2 25.0991 139.8881 39.0213 0.0000 26.2545 0.0000
# 3 19.0730 39.0213 74.3124 0.0000 23.8200 0.0000
# 4 0.0000 0.0000 0.0000 13.7990 0.0000 6.7805
# 5 21.5462 26.2545 23.8200 0.0000 27.3162 0.0000
# 6 0.0000 0.0000 0.0000 6.7805 0.0000 10.6269
#
#
#
# Elastic Compliance Matrix: (Units=1/GPa)
#
#
# Indices 1 2 3 4 5 6 
#
# 1 0.015785 -0.000619 0.000103 0.000000 -0.011946 0.000000
# 2 -0.000619 0.009132 -0.002747 0.000000 -0.005893 0.000000
# 3 0.000103 -0.002747 0.019504 0.000000 -0.014448 0.000000
# 4 0.000000 0.000000 0.000000 0.105567 0.000000 -0.067358
# 5 -0.011946 -0.005893 -0.014448 0.000000 0.064294 0.000000
# 6 0.000000 0.000000 0.000000 -0.067358 0.000000 0.137079
#
#
# Mechanical properties :
#
#
# Convention : Reuss Voigt Hill
#
# Bulk Modulus (GPa) = 26.38927 51.23362 38.81144
# Shear Modulus (GPa) = 13.49455 24.44993 18.97224
#
# Velocity S-wave (km/s) = 2.53597 3.41353 3.00694
# Velocity P-wave (km/s) = 4.59906 6.32083 5.52740
#
# Compressibility (1/GPa) = 0.03789418
#
# Stress axis : x y z
#
# Youngs Moduli (GPa) = 63.35003 109.50477 51.27092
#
# Poissons Ratio (x) = 0.06777 -0.00526
# Poissons Ratio (y) = 0.03921 0.14086
# Poissons Ratio (z) = -0.00650 0.30085
#
# Static dielectric constant tensor:
#      x y z
#    x 3.632480 0.000000 0.443450 
#    y 0.000000 4.010420 0.000000 
#    z 0.443450 0.000000 2.853830 
# 
# 
# High freq. dielectric constant tensor:
#      x y z
#    x 1.819490 0.000000 0.014270 
#    y 0.000000 1.807210 0.000000 
#    z 0.014270 0.000000 1.825970 
# 
# From -- ./inp_files/137825.got.cif
#   From: 2010.06.25/outbox.cif.g09.slc.cpg/sg15_69_cif.got.tgz:137825.got - 2010.06.28 07:06:18.
