data_PCOD8139861
_publ_section_title
;
Structure prediction by ZEFSAII (Michael W. Deem and Ramdas Pophale) SiO2 
 PCOD8139861
Probable space group: C 2/C
;
_chemical_formula_sum "Si O2"
_cell_formula_units_Z 60
_cell_length_a 8.940579
_cell_length_b 21.294001
_cell_length_c 17.496886
_cell_angle_alpha 90.000000
_cell_angle_beta 64.256749
_cell_angle_gamma 90.000000
_cell_volume 3000.458763
_symmetry_space_group_name_H-M "C 2/C"
_symmetry_group_IT_number 15
_symmetry_cell_setting 'monoclinic'
loop_
_space_group_symop_operation_xyz
x,y,z
-x,y,1/2-z
-x,-y,-z
x,-y,1/2+z
1/2+x,1/2+y,z
1/2-x,1/2+y,1/2-z
1/2-x,1/2-y,-z
1/2+x,1/2-y,1/2+z
loop_
_atom_site_type_symbol
_atom_site_label
_atom_site_fract_x
_atom_site_fract_y
_atom_site_fract_z
Si Si1 0.500000 0.916483 0.250000
Si Si2 0.924311 0.324628 0.141096
Si Si3 0.724828 0.179592 0.984221
Si Si4 0.092385 0.376496 0.866614
Si Si5 0.427285 0.604755 0.048659
Si Si6 0.126313 0.184257 0.288150
Si Si7 0.136576 0.511285 0.112748
Si Si8 0.699504 0.901634 0.004196
O O1 0.392184 0.874447 0.215360
O O2 0.635593 0.960863 0.180873
O O3 0.788606 0.331410 0.103817
O O4 0.908884 0.256498 0.182962
O O5 0.104990 0.341512 0.063804
O O6 0.750000 0.250000 0.000000
O O7 0.559874 0.161129 0.065368
O O8 0.879827 0.140577 0.981207
O O9 0.188604 0.332741 0.784011
O O10 0.016363 0.439613 0.845531
O O11 0.214167 0.393748 0.909807
O O12 0.395931 0.646102 0.130090
O O13 0.317368 0.542305 0.077130
O O14 0.620255 0.590962 0.998642
O O15 0.000000 0.163114 0.250000
O O16 0.110994 0.468779 0.041677
#
# Coordination Sequence:
#
# PCOD8139861 Si02
#       8
#     4   8   8   8   8   8   8   8
#     4  10  20  40  62  86 126 166 206 244 308 374
#     4  10  22  39  63  88 122 168 206 247 309 371
#     4  10  21  40  59  90 123 160 207 251 302 369
#     4  10  22  38  64  92 120 165 203 253 308 361
#     4  11  22  38  63  92 126 157 207 263 305 355
#     4  12  22  37  60  94 127 156 206 254 308 374
#     4  10  21  39  63  89 121 163 209 251 305 361
#     4  10  21  39  64  90 120 162 209 254 301 363
#
# _framework density 19.996941
#
# number of rings (size 3 to 8) (size 9 to 14) (size 15 to 20)
#    0.000    1.600    3.333    1.600    0.000    4.267 
#    0.000    0.000    0.000    0.000    0.000    0.000 
#    0.000    0.000    0.000    0.000    0.000    0.000 
#
# Total GULP energy -371785.598962 kJ/mol
# GULP energy per Si atom -12392.853299 kJ/mol
# Density = 1.995143 g / cm^3
# Si number density = 19.996941 Si / 1000 Ang^3
#
#
#
# Elastic Constant Matrix: (Units=GPa)
#
#
# Indices 1 2 3 4 5 6 
#
# 1 101.9962 36.0200 31.1184 0.0000 16.2544 0.0000
# 2 36.0200 133.6242 52.9799 0.0000 7.2673 0.0000
# 3 31.1184 52.9799 89.8399 0.0000 20.8665 0.0000
# 4 0.0000 0.0000 0.0000 26.3871 0.0000 0.6051
# 5 16.2544 7.2673 20.8665 0.0000 35.0310 0.0000
# 6 0.0000 0.0000 0.0000 0.6051 0.0000 24.3048
#
#
#
# Elastic Compliance Matrix: (Units=1/GPa)
#
#
# Indices 1 2 3 4 5 6 
#
# 1 0.011779 -0.002224 -0.001864 0.000000 -0.003894 0.000000
# 2 -0.002224 0.010268 -0.005837 0.000000 0.002379 0.000000
# 3 -0.001864 -0.005837 0.017103 0.000000 -0.008112 0.000000
# 4 0.000000 0.000000 0.000000 0.037919 0.000000 -0.000944
# 5 -0.003894 0.002379 -0.008112 0.000000 0.034691 0.000000
# 6 0.000000 0.000000 0.000000 -0.000944 0.000000 0.041168
#
#
# Mechanical properties :
#
#
# Convention : Reuss Voigt Hill
#
# Bulk Modulus (GPa) = 51.81634 62.85521 57.33577
# Shear Modulus (GPa) = 27.89983 30.83405 29.36694
#
# Velocity S-wave (km/s) = 3.73930 3.93101 3.83635
# Velocity P-wave (km/s) = 6.67918 7.21834 6.95399
#
# Compressibility (1/GPa) = 0.01929893
#
# Stress axis : x y z
#
# Youngs Moduli (GPa) = 84.89676 97.38634 58.46930
#
# Poissons Ratio (x) = 0.21663 0.10898
# Poissons Ratio (y) = 0.18885 0.34131
# Poissons Ratio (z) = 0.15823 0.56849
#
# Static dielectric constant tensor:
#      x y z
#    x 3.718020 0.000000 0.241610 
#    y 0.000000 3.991590 0.000000 
#    z 0.241610 0.000000 3.797200 
# 
# 
# High freq. dielectric constant tensor:
#      x y z
#    x 1.772040 0.000000 0.017170 
#    y 0.000000 1.790600 0.000000 
#    z 0.017170 0.000000 1.783380 
# 
# From -- ./inp_files/192099.got.cif
#   From: 2010.06.25/outbox.cif.g09.slc.cpg/sg15_97_cif.got.tgz:192099.got - 2010.06.28 07:06:18.
