data_PCOD8139967
_publ_section_title
;
Structure prediction by ZEFSAII (Michael W. Deem and Ramdas Pophale) SiO2 
 PCOD8139967
Probable space group: C 2/C
;
_chemical_formula_sum "Si O2"
_cell_formula_units_Z 52
_cell_length_a 8.963993
_cell_length_b 26.159474
_cell_length_c 11.391128
_cell_angle_alpha 90.000000
_cell_angle_beta 74.809280
_cell_angle_gamma 90.000000
_cell_volume 2577.811101
_symmetry_space_group_name_H-M "C 2/C"
_symmetry_group_IT_number 15
_symmetry_cell_setting 'monoclinic'
loop_
_space_group_symop_operation_xyz
x,y,z
-x,y,1/2-z
-x,-y,-z
x,-y,1/2+z
1/2+x,1/2+y,z
1/2-x,1/2+y,1/2-z
1/2-x,1/2-y,-z
1/2+x,1/2-y,1/2+z
loop_
_atom_site_type_symbol
_atom_site_label
_atom_site_fract_x
_atom_site_fract_y
_atom_site_fract_z
Si Si1 0.258211 0.692941 0.041218
Si Si2 0.206900 0.045146 0.356445
Si Si3 0.868656 0.593941 0.542132
Si Si4 0.000000 0.331216 0.750000
Si Si5 0.649966 0.563497 0.792332
Si Si6 0.325643 0.101071 0.110478
Si Si7 0.542011 0.624227 0.024573
O O1 0.431161 0.674069 0.042173
O O2 0.152615 0.698797 0.179271
O O3 0.250000 0.750000 0.000000
O O4 0.189021 0.652856 0.961259
O O5 0.320129 0.062251 0.436407
O O6 0.270410 0.057872 0.212776
O O7 0.046383 0.074532 0.408921
O O8 0.186537 0.984424 0.369167
O O9 0.792774 0.574134 0.677216
O O10 0.054674 0.583052 0.517335
O O11 0.052552 0.362900 0.850486
O O12 0.500000 0.548241 0.750000
O O13 0.611080 0.612483 0.881292
O O14 0.183344 0.132980 0.085411
#
# Coordination Sequence:
#
# PCOD8139967 Si02
#       7
#     8   8   8   4   8   8   8
#     4  10  21  40  67  94 117 165 214 268 337 379
#     4  11  21  37  62  88 120 175 217 260 319 384
#     4  10  23  42  58  89 133 165 220 269 324 389
#     4  10  20  40  64  90 126 166 204 278 312 380
#     4  12  23  38  59  88 135 174 213 270 326 388
#     4  11  20  41  62  88 128 165 217 267 309 378
#     4  11  23  38  63  93 124 164 220 270 313 390
#
# _framework density 20.172153000000002
#
# number of rings (size 3 to 8) (size 9 to 14) (size 15 to 20)
#    0.000    1.231    7.692    1.846    2.154    2.462 
#    2.769    3.077    0.000    3.692    0.000    0.000 
#    0.000    0.000    0.000    0.000    0.000    0.000 
#
# Total GULP energy -322143.266235 kJ/mol
# GULP energy per Si atom -12390.125624 kJ/mol
# Density = 2.012624 g / cm^3
# Si number density = 20.172153 Si / 1000 Ang^3
#
#
#
# Elastic Constant Matrix: (Units=GPa)
#
#
# Indices 1 2 3 4 5 6 
#
# 1 133.1849 32.9755 44.6858 0.0000 -14.0252 0.0000
# 2 32.9755 100.8668 36.1536 0.0000 1.8742 0.0000
# 3 44.6858 36.1536 114.6853 0.0000 -30.5178 0.0000
# 4 0.0000 0.0000 0.0000 12.4168 0.0000 3.4780
# 5 -14.0252 1.8742 -30.5178 0.0000 36.1165 0.0000
# 6 0.0000 0.0000 0.0000 3.4780 0.0000 8.8388
#
#
#
# Elastic Compliance Matrix: (Units=1/GPa)
#
#
# Indices 1 2 3 4 5 6 
#
# 1 0.009009 -0.002101 -0.002436 0.000000 0.001549 0.000000
# 2 -0.002101 0.012289 -0.004441 0.000000 -0.005206 0.000000
# 3 -0.002436 -0.004441 0.014034 0.000000 0.011143 0.000000
# 4 0.000000 0.000000 0.000000 0.090512 0.000000 -0.035616
# 5 0.001549 -0.005206 0.011143 0.000000 0.037975 0.000000
# 6 0.000000 0.000000 0.000000 -0.035616 0.000000 0.127153
#
#
# Mechanical properties :
#
#
# Convention : Reuss Voigt Hill
#
# Bulk Modulus (GPa) = 57.54737 64.04074 60.79406
# Shear Modulus (GPa) = 15.88718 27.13589 21.51153
#
# Velocity S-wave (km/s) = 2.80943 3.67170 3.26912
# Velocity P-wave (km/s) = 6.25411 7.05629 6.66727
#
# Compressibility (1/GPa) = 0.01737699
#
# Stress axis : x y z
#
# Youngs Moduli (GPa) = 111.00141 81.37104 71.25800
#
# Poissons Ratio (x) = 0.17096 0.17355
# Poissons Ratio (y) = 0.23322 0.31644
# Poissons Ratio (z) = 0.27035 0.36135
#
# Static dielectric constant tensor:
#      x y z
#    x 5.624610 0.000000 -2.342840 
#    y 0.000000 3.286840 0.000000 
#    z -2.342840 0.000000 6.203250 
# 
# 
# High freq. dielectric constant tensor:
#      x y z
#    x 1.796760 0.000000 -0.024680 
#    y 0.000000 1.744210 0.000000 
#    z -0.024680 0.000000 1.801310 
# 
# From -- ./inp_files/80616.got.cif
#   From: 2010.06.25/outbox.cif.g09.slc.cpg/sg15_41_cif.got.tgz:80616.got - 2010.06.28 07:06:18.
