data_PCOD8139359
_publ_section_title
;
Structure prediction by ZEFSAII (Michael W. Deem and Ramdas Pophale) SiO2 
 PCOD8139359
Probable space group: C 2/C
;
_chemical_formula_sum "Si O2"
_cell_formula_units_Z 44
_cell_length_a 6.383659
_cell_length_b 27.011690
_cell_length_c 11.458288
_cell_angle_alpha 90.000000
_cell_angle_beta 71.735581
_cell_angle_gamma 90.000000
_cell_volume 1876.251939
_symmetry_space_group_name_H-M "C 2/C"
_symmetry_group_IT_number 15
_symmetry_cell_setting 'monoclinic'
loop_
_space_group_symop_operation_xyz
x,y,z
-x,y,1/2-z
-x,-y,-z
x,-y,1/2+z
1/2+x,1/2+y,z
1/2-x,1/2+y,1/2-z
1/2-x,1/2-y,-z
1/2+x,1/2-y,1/2+z
loop_
_atom_site_type_symbol
_atom_site_label
_atom_site_fract_x
_atom_site_fract_y
_atom_site_fract_z
Si Si1 0.747326 0.024726 0.180536
Si Si2 0.158907 0.852092 0.492212
Si Si3 0.000000 0.108390 0.250000
Si Si4 0.090380 0.220859 0.616545
Si Si5 0.882130 0.632495 0.647040
Si Si6 0.576766 0.440900 0.088648
O O1 0.500000 0.006132 0.250000
O O2 0.794497 0.072512 0.253973
O O3 0.771284 0.037436 0.040204
O O4 0.927626 0.982473 0.176267
O O5 0.040744 0.854078 0.637185
O O6 0.417449 0.858058 0.478054
O O7 0.102562 0.801293 0.433273
O O8 0.086133 0.898553 0.427384
O O9 0.250000 0.250000 0.500000
O O10 0.214744 0.176777 0.659508
O O11 0.000000 0.250657 0.750000
O O12 0.749952 0.581229 0.652300
O O13 0.000000 0.633526 0.750000
#
# Coordination Sequence:
#
# PCOD8139359 Si02
#       6
#     8   8   4   8   8   8
#     4  10  20  39  60  91 135 181 234 286 344 383
#     4  10  22  42  65  97 133 176 224 279 349 404
#     4  10  22  38  62  98 136 178 238 286 334 410
#     4  11  25  47  70 104 138 170 222 284 347 431
#     4  11  22  42  69  94 131 175 224 272 343 410
#     4   9  22  38  61  95 131 175 233 287 327 406
#
# _framework density 23.451008000000002
#
# number of rings (size 3 to 8) (size 9 to 14) (size 15 to 20)
#    0.000    1.818    1.818    1.091    0.000    5.818 
#    1.636    7.273    0.000    5.455    0.000    0.000 
#    0.000    0.000    0.000    0.000    0.000    0.000 
#
# Total GULP energy -272610.792172 kJ/mol
# GULP energy per Si atom -12391.399644 kJ/mol
# Density = 2.339763 g / cm^3
# Si number density = 23.451008 Si / 1000 Ang^3
#
#
#
# Elastic Constant Matrix: (Units=GPa)
#
#
# Indices 1 2 3 4 5 6 
#
# 1 122.6471 22.5060 40.1250 0.0000 -8.5303 0.0000
# 2 22.5060 56.7067 44.4044 0.0000 -4.4247 0.0000
# 3 40.1250 44.4044 145.1307 0.0000 0.3144 0.0000
# 4 0.0000 0.0000 0.0000 33.6877 0.0000 -0.4723
# 5 -8.5303 -4.4247 0.3144 0.0000 41.3981 0.0000
# 6 0.0000 0.0000 0.0000 -0.4723 0.0000 19.9996
#
#
#
# Elastic Compliance Matrix: (Units=1/GPa)
#
#
# Indices 1 2 3 4 5 6 
#
# 1 0.009282 -0.002023 -0.001951 0.000000 0.001711 0.000000
# 2 -0.002023 0.023900 -0.006758 0.000000 0.002189 0.000000
# 3 -0.001951 -0.006758 0.009500 0.000000 -0.001197 0.000000
# 4 0.000000 0.000000 0.000000 0.029694 0.000000 0.000701
# 5 0.001711 0.002189 -0.001197 0.000000 0.024751 0.000000
# 6 0.000000 0.000000 0.000000 0.000701 0.000000 0.050017
#
#
# Mechanical properties :
#
#
# Convention : Reuss Voigt Hill
#
# Bulk Modulus (GPa) = 47.12828 59.83948 53.48388
# Shear Modulus (GPa) = 28.46060 33.51369 30.98714
#
# Velocity S-wave (km/s) = 3.48748 3.78444 3.63899
# Velocity P-wave (km/s) = 6.02966 6.68342 6.36494
#
# Compressibility (1/GPa) = 0.02121868
#
# Stress axis : x y z
#
# Youngs Moduli (GPa) = 107.73594 41.84095 105.26233
#
# Poissons Ratio (x) = 0.08462 0.20538
# Poissons Ratio (y) = 0.21790 0.71137
# Poissons Ratio (z) = 0.21021 0.28276
#
# Static dielectric constant tensor:
#      x y z
#    x 4.768230 0.000000 -0.256170 
#    y 0.000000 3.995570 0.000000 
#    z -0.256170 0.000000 4.699220 
# 
# 
# High freq. dielectric constant tensor:
#      x y z
#    x 1.932680 0.000000 -0.001400 
#    y 0.000000 1.899300 0.000000 
#    z -0.001400 0.000000 1.954200 
# 
# From -- ./inp_files/73888.got.cif
#   From: 2010.06.25/outbox.cif.g09.slc.cpg/sg15_37_cif.got.tgz:73888.got - 2010.06.28 07:06:18.
