data_PCOD8139329
_publ_section_title
;
Structure prediction by ZEFSAII (Michael W. Deem and Ramdas Pophale) SiO2 
 PCOD8139329
Probable space group: C 2/C
;
_chemical_formula_sum "Si O2"
_cell_formula_units_Z 52
_cell_length_a 11.412015
_cell_length_b 17.987220
_cell_length_c 24.831761
_cell_angle_alpha 90.000000
_cell_angle_beta 30.667413
_cell_angle_gamma 90.000000
_cell_volume 2599.859522
_symmetry_space_group_name_H-M "C 2/C"
_symmetry_group_IT_number 15
_symmetry_cell_setting 'monoclinic'
loop_
_space_group_symop_operation_xyz
x,y,z
-x,y,1/2-z
-x,-y,-z
x,-y,1/2+z
1/2+x,1/2+y,z
1/2-x,1/2+y,1/2-z
1/2-x,1/2-y,-z
1/2+x,1/2-y,1/2+z
loop_
_atom_site_type_symbol
_atom_site_label
_atom_site_fract_x
_atom_site_fract_y
_atom_site_fract_z
Si Si1 0.223493 0.846902 0.264714
Si Si2 0.948027 0.882122 0.710503
Si Si3 0.578046 0.133391 0.072873
Si Si4 0.175123 0.730198 0.588851
Si Si5 0.500000 0.381767 0.250000
Si Si6 0.392935 0.468984 0.389378
Si Si7 0.534064 0.278643 0.035755
O O1 0.497685 0.838737 0.159827
O O2 0.107380 0.791046 0.353007
O O3 0.148772 0.829349 0.231773
O O4 0.133856 0.930235 0.314128
O O5 0.676971 0.880807 0.804710
O O6 0.000000 0.909168 0.750000
O O7 0.054177 0.801521 0.661910
O O8 0.072208 0.942236 0.622576
O O9 0.591692 0.190512 0.016258
O O10 0.684219 0.054777 0.011078
O O11 0.737966 0.169936 0.056460
O O12 0.250000 0.750000 0.500000
O O13 0.390378 0.704094 0.539160
O O14 0.340860 0.436778 0.349739
#
# Coordination Sequence:
#
# PCOD8139329 Si02
#       7
#     8   8   8   8   4   8   8
#     4   9  18  37  59  87 122 156 198 247 304 370
#     4  12  21  40  60  94 129 155 205 254 316 371
#     4  10  21  36  65  85 120 162 199 246 303 387
#     4  12  25  36  58  90 123 159 208 269 301 354
#     4   8  18  34  58  98 116 146 200 248 310 350
#     4   9  21  36  61  93 122 161 194 254 312 368
#     4  10  20  39  60  85 114 165 206 242 310 365
#
# _framework density 20.001080999999999
#
# number of rings (size 3 to 8) (size 9 to 14) (size 15 to 20)
#    0.923    0.923    3.846    0.462    2.154    1.846 
#    0.000    0.000    0.000   12.000    0.000    0.000 
#    0.000    0.000    0.000    0.000    0.000    0.000 
#
# Total GULP energy -322124.485390 kJ/mol
# GULP energy per Si atom -12389.403284 kJ/mol
# Density = 1.995556 g / cm^3
# Si number density = 20.001081 Si / 1000 Ang^3
#
#
#
# Elastic Constant Matrix: (Units=GPa)
#
#
# Indices 1 2 3 4 5 6 
#
# 1 131.4971 17.2405 33.7859 0.0096 -24.6420 -0.0217
# 2 17.2405 56.9267 13.2558 0.0362 -6.1897 -0.0210
# 3 33.7859 13.2558 65.4631 -0.1685 -19.6449 0.0099
# 4 0.0096 0.0362 -0.1685 30.7862 0.0139 4.1393
# 5 -24.6420 -6.1897 -19.6449 0.0139 31.3729 0.0087
# 6 -0.0217 -0.0210 0.0099 4.1393 0.0087 16.5645
#
#
#
# Elastic Compliance Matrix: (Units=1/GPa)
#
#
# Indices 1 2 3 4 5 6 
#
# 1 0.009592 -0.001622 -0.003026 -0.000022 0.005319 0.000015
# 2 -0.001622 0.018776 -0.002753 -0.000041 0.000707 0.000033
# 3 -0.003026 -0.002753 0.020341 0.000118 0.009817 -0.000054
# 4 -0.000022 -0.000041 0.000118 0.033612 0.000036 -0.008399
# 5 0.005319 0.000707 0.009817 0.000036 0.042339 -0.000029
# 6 0.000015 0.000033 -0.000054 -0.008399 -0.000029 0.062469
#
#
# Mechanical properties :
#
#
# Convention : Reuss Voigt Hill
#
# Bulk Modulus (GPa) = 29.49212 42.49460 35.99336
# Shear Modulus (GPa) = 23.44860 28.38503 25.91682
#
# Velocity S-wave (km/s) = 3.42770 3.77128 3.60359
# Velocity P-wave (km/s) = 5.51750 6.34474 5.94552
#
# Compressibility (1/GPa) = 0.03390736
#
# Stress axis : x y z
#
# Youngs Moduli (GPa) = 104.25827 53.26080 49.16123
#
# Poissons Ratio (x) = 0.08639 0.14875
# Poissons Ratio (y) = 0.16910 0.13534
# Poissons Ratio (z) = 0.31545 0.14662
#
# Static dielectric constant tensor:
#      x y z
#    x 3.928110 -0.000710 0.437130 
#    y -0.000710 3.514140 -0.001370 
#    z 0.437130 -0.001370 4.568710 
# 
# 
# High freq. dielectric constant tensor:
#      x y z
#    x 1.758500 0.000000 -0.014240 
#    y 0.000000 1.762070 0.000000 
#    z -0.014240 0.000000 1.772690 
# 
# From -- ./inp_files/293446.got.cif
#   From: 2010.06.25/outbox.cif.g09.slc.cpg/sg15_147_cif.got.tgz:293446.got - 2010.06.28 07:06:18.
