data_PCOD8139635
_publ_section_title
;
Structure prediction by ZEFSAII (Michael W. Deem and Ramdas Pophale) SiO2 
 PCOD8139635
Probable space group: C 2/C
;
_chemical_formula_sum "Si O2"
_cell_formula_units_Z 60
_cell_length_a 15.637480
_cell_length_b 11.101942
_cell_length_c 19.742263
_cell_angle_alpha 90.000000
_cell_angle_beta 59.345850
_cell_angle_gamma 90.000000
_cell_volume 2948.442494
_symmetry_space_group_name_H-M "C 2/C"
_symmetry_group_IT_number 15
_symmetry_cell_setting 'monoclinic'
loop_
_space_group_symop_operation_xyz
x,y,z
-x,y,1/2-z
-x,-y,-z
x,-y,1/2+z
1/2+x,1/2+y,z
1/2-x,1/2+y,1/2-z
1/2-x,1/2-y,-z
1/2+x,1/2-y,1/2+z
loop_
_atom_site_type_symbol
_atom_site_label
_atom_site_fract_x
_atom_site_fract_y
_atom_site_fract_z
Si Si1 0.500000 0.622899 0.750000
Si Si2 0.923652 0.494387 0.592040
Si Si3 0.967111 0.769394 0.120400
Si Si4 0.149805 0.271136 0.178957
Si Si5 0.206699 0.020032 0.182779
Si Si6 0.201659 0.962902 0.337512
Si Si7 0.438493 0.619322 0.036319
Si Si8 0.010630 0.280871 0.358515
O O1 0.500559 0.709009 0.815172
O O2 0.397659 0.544041 0.796241
O O3 0.925559 0.364117 0.627024
O O4 0.811754 0.536086 0.613411
O O5 0.958129 0.585566 0.635332
O O6 0.000000 0.500000 0.500000
O O7 0.882412 0.862244 0.134009
O O8 0.059680 0.796577 0.031517
O O9 0.217965 0.153363 0.146964
O O10 0.201835 0.398010 0.172487
O O11 0.077602 0.234529 0.269819
O O12 0.100594 0.286133 0.125383
O O13 0.220056 0.023074 0.257950
O O14 0.172278 0.073440 0.399678
O O15 0.486136 0.690506 0.079979
O O16 0.500000 0.500000 0.000000
#
# Coordination Sequence:
#
# PCOD8139635 Si02
#       8
#     4   8   8   8   8   8   8   8
#     4  10  24  44  70  98 120 174 234 276 308 388
#     4  12  24  43  63  94 138 178 207 262 347 403
#     4  10  22  42  64  92 131 173 215 267 329 392
#     4  11  22  38  64 103 126 164 225 279 320 380
#     4  11  22  41  69  93 132 171 222 268 324 392
#     4  10  20  39  65  96 122 173 220 264 324 389
#     4  10  21  39  62  92 129 174 214 267 323 393
#     4  11  23  39  65  98 133 167 218 277 329 389
#
# _framework density 20.349727999999999
#
# number of rings (size 3 to 8) (size 9 to 14) (size 15 to 20)
#    0.000    1.333    5.333    0.800    3.733    1.067 
#    2.400    4.000    0.000    0.000    0.000    0.000 
#    0.000    0.000    0.000    0.000    0.000    0.000 
#
# Total GULP energy -371731.876052 kJ/mol
# GULP energy per Si atom -12391.062535 kJ/mol
# Density = 2.030341 g / cm^3
# Si number density = 20.349728 Si / 1000 Ang^3
#
#
#
# Elastic Constant Matrix: (Units=GPa)
#
#
# Indices 1 2 3 4 5 6 
#
# 1 125.4104 56.6686 59.4419 0.0000 5.1297 0.0000
# 2 56.6686 101.8360 28.6782 0.0000 10.8905 0.0000
# 3 59.4419 28.6782 101.2022 0.0000 4.3441 0.0000
# 4 0.0000 0.0000 0.0000 26.5765 0.0000 -1.4677
# 5 5.1297 10.8905 4.3441 0.0000 34.1549 0.0000
# 6 0.0000 0.0000 0.0000 -1.4677 0.0000 28.5445
#
#
#
# Elastic Compliance Matrix: (Units=1/GPa)
#
#
# Indices 1 2 3 4 5 6 
#
# 1 0.013605 -0.005847 -0.006361 0.000000 0.000630 0.000000
# 2 -0.005847 0.013506 -0.000247 0.000000 -0.003397 0.000000
# 3 -0.006361 -0.000247 0.013718 0.000000 -0.000711 0.000000
# 4 0.000000 0.000000 0.000000 0.037734 0.000000 0.001940
# 5 0.000630 -0.003397 -0.000711 0.000000 0.030357 0.000000
# 6 0.000000 0.000000 0.000000 0.001940 0.000000 0.035133
#
#
# Mechanical properties :
#
#
# Convention : Reuss Voigt Hill
#
# Bulk Modulus (GPa) = 62.81948 68.66954 65.74451
# Shear Modulus (GPa) = 28.69094 30.09916 29.39505
#
# Velocity S-wave (km/s) = 3.75893 3.85007 3.80477
# Velocity P-wave (km/s) = 7.05523 7.31997 7.18882
#
# Compressibility (1/GPa) = 0.01591863
#
# Stress axis : x y z
#
# Youngs Moduli (GPa) = 73.50166 74.04004 72.89608
#
# Poissons Ratio (x) = 0.43290 0.46371
# Poissons Ratio (y) = 0.42975 0.01803
# Poissons Ratio (z) = 0.46757 0.01831
#
# Static dielectric constant tensor:
#      x y z
#    x 3.749200 0.000000 -0.231600 
#    y 0.000000 3.850370 0.000000 
#    z -0.231600 0.000000 4.039720 
# 
# 
# High freq. dielectric constant tensor:
#      x y z
#    x 1.778670 0.000000 -0.006080 
#    y 0.000000 1.801920 0.000000 
#    z -0.006080 0.000000 1.798340 
# 
# From -- ./inp_files/204409.got.cif
#   From: 2010.06.25/outbox.cif.g09.slc.cpg/sg15_103_cif.got.tgz:204409.got - 2010.06.28 07:06:18.
