data_PCOD8139908
_publ_section_title
;
Structure prediction by ZEFSAII (Michael W. Deem and Ramdas Pophale) SiO2 
 PCOD8139908
Probable space group: C 2/C
;
_chemical_formula_sum "Si O2"
_cell_formula_units_Z 48
_cell_length_a 8.001906
_cell_length_b 12.208133
_cell_length_c 22.998088
_cell_angle_alpha 90.000000
_cell_angle_beta 76.767365
_cell_angle_gamma 90.000000
_cell_volume 2186.993483
_symmetry_space_group_name_H-M "C 2/C"
_symmetry_group_IT_number 15
_symmetry_cell_setting 'monoclinic'
loop_
_space_group_symop_operation_xyz
x,y,z
-x,y,1/2-z
-x,-y,-z
x,-y,1/2+z
1/2+x,1/2+y,z
1/2-x,1/2+y,1/2-z
1/2-x,1/2-y,-z
1/2+x,1/2-y,1/2+z
loop_
_atom_site_type_symbol
_atom_site_label
_atom_site_fract_x
_atom_site_fract_y
_atom_site_fract_z
Si Si1 0.995620 0.690933 0.318035
Si Si2 0.124469 0.155044 0.184409
Si Si3 0.239942 0.019873 0.388343
Si Si4 0.542910 0.681800 0.067507
Si Si5 0.978118 0.073453 0.819573
Si Si6 0.621409 0.903912 0.014246
O O1 0.192500 0.707202 0.320263
O O2 0.909338 0.807032 0.345730
O O3 0.000000 0.666345 0.250000
O O4 0.903048 0.590903 0.356096
O O5 0.033903 0.214170 0.136865
O O6 0.000000 0.166279 0.250000
O O7 0.154098 0.026964 0.163525
O O8 0.109405 0.097633 0.434266
O O9 0.153124 0.961794 0.339387
O O10 0.303180 0.929454 0.428287
O O11 0.516918 0.789924 0.030135
O O12 0.723252 0.619571 0.042085
O O13 0.000000 0.093011 0.750000
O O14 0.500000 0.000000 0.000000
#
# Coordination Sequence:
#
# PCOD8139908 Si02
#       6
#     8   8   8   8   8   8
#     4  11  21  35  58  88 121 158 200 245 303 368
#     4  10  20  40  63  87 123 158 195 250 307 362
#     4  11  23  39  62  90 120 160 206 253 304 358
#     4  10  23  42  62  88 122 157 201 253 302 357
#     4   9  20  38  58  86 122 158 197 246 303 361
#     4  11  24  42  63  88 119 162 208 250 299 355
#
# _framework density 21.947938000000001
#
# number of rings (size 3 to 8) (size 9 to 14) (size 15 to 20)
#    0.000    1.667    0.000    5.500    0.000    6.000 
#    0.000   11.667    0.000    1.000    0.000    0.000 
#    0.000    0.000    0.000    0.000    0.000    0.000 
#
# Total GULP energy -297409.328949 kJ/mol
# GULP energy per Si atom -12392.055373 kJ/mol
# Density = 2.189798 g / cm^3
# Si number density = 21.947938 Si / 1000 Ang^3
#
#
#
# Elastic Constant Matrix: (Units=GPa)
#
#
# Indices 1 2 3 4 5 6 
#
# 1 56.6243 21.5221 18.5832 0.0000 -1.9555 0.0000
# 2 21.5221 90.4646 34.8743 0.0000 -5.2274 0.0000
# 3 18.5832 34.8743 83.1433 0.0000 -3.4396 0.0000
# 4 0.0000 0.0000 0.0000 34.9125 0.0000 7.9714
# 5 -1.9555 -5.2274 -3.4396 0.0000 35.7926 0.0000
# 6 0.0000 0.0000 0.0000 7.9714 0.0000 32.1419
#
#
#
# Elastic Compliance Matrix: (Units=1/GPa)
#
#
# Indices 1 2 3 4 5 6 
#
# 1 0.020008 -0.003608 -0.002947 0.000000 0.000283 0.000000
# 2 -0.003608 0.013907 -0.004971 0.000000 0.001356 0.000000
# 3 -0.002947 -0.004971 0.014793 0.000000 0.000535 0.000000
# 4 0.000000 0.000000 0.000000 0.030362 0.000000 -0.007530
# 5 0.000283 0.001356 0.000535 0.000000 0.028204 0.000000
# 6 0.000000 0.000000 0.000000 -0.007530 0.000000 0.032980
#
#
# Mechanical properties :
#
#
# Convention : Reuss Voigt Hill
#
# Bulk Modulus (GPa) = 38.97496 42.24350 40.60923
# Shear Modulus (GPa) = 29.09382 30.91958 30.00670
#
# Velocity S-wave (km/s) = 3.64481 3.75743 3.70155
# Velocity P-wave (km/s) = 5.95897 6.17360 6.06723
#
# Compressibility (1/GPa) = 0.02565750
#
# Stress axis : x y z
#
# Youngs Moduli (GPa) = 49.97884 71.90636 67.59842
#
# Poissons Ratio (x) = 0.25941 0.19922
# Poissons Ratio (y) = 0.18031 0.33602
# Poissons Ratio (z) = 0.14729 0.35743
#
# Static dielectric constant tensor:
#      x y z
#    x 3.400290 0.000000 0.219040 
#    y 0.000000 4.247470 0.000000 
#    z 0.219040 0.000000 3.999810 
# 
# 
# High freq. dielectric constant tensor:
#      x y z
#    x 1.844900 0.000000 0.012750 
#    y 0.000000 1.877510 0.000000 
#    z 0.012750 0.000000 1.864870 
# 
# From -- ./inp_files/263076.got.cif
#   From: 2010.06.25/outbox.cif.g09.slc.cpg/sg15_132_cif.got.tgz:263076.got - 2010.06.28 07:06:18.
