data_PCOD8139075
_publ_section_title
;
Structure prediction by ZEFSAII (Michael W. Deem and Ramdas Pophale) SiO2 
 PCOD8139075
Probable space group: C 2/C
;
_chemical_formula_sum "Si O2"
_cell_formula_units_Z 44
_cell_length_a 7.835827
_cell_length_b 21.517204
_cell_length_c 14.921902
_cell_angle_alpha 90.000000
_cell_angle_beta 121.097205
_cell_angle_gamma 90.000000
_cell_volume 2154.353115
_symmetry_space_group_name_H-M "C 2/C"
_symmetry_group_IT_number 15
_symmetry_cell_setting 'monoclinic'
loop_
_space_group_symop_operation_xyz
x,y,z
-x,y,1/2-z
-x,-y,-z
x,-y,1/2+z
1/2+x,1/2+y,z
1/2-x,1/2+y,1/2-z
1/2-x,1/2-y,-z
1/2+x,1/2-y,1/2+z
loop_
_atom_site_type_symbol
_atom_site_label
_atom_site_fract_x
_atom_site_fract_y
_atom_site_fract_z
Si Si1 0.000000 0.418908 0.750000
Si Si2 0.196723 0.011842 0.756293
Si Si3 0.000630 0.567610 0.957166
Si Si4 0.997259 0.796666 0.356721
Si Si5 0.610879 0.162532 0.433642
Si Si6 0.282572 0.104363 0.648762
O O1 0.142691 0.458972 0.724063
O O2 0.144052 0.376606 0.851162
O O3 0.294219 0.065791 0.845446
O O4 0.138961 0.050690 0.651589
O O5 0.000000 0.983135 0.750000
O O6 0.193094 0.585027 0.948443
O O7 0.018946 0.620972 0.035420
O O8 0.000000 0.500000 0.000000
O O9 0.808055 0.827919 0.354658
O O10 0.000000 0.809292 0.250000
O O11 0.187191 0.823578 0.459589
O O12 0.985693 0.723523 0.373385
O O13 0.500000 0.100511 0.750000
#
# Coordination Sequence:
#
# PCOD8139075 Si02
#       6
#     4   8   8   8   8   8
#     4  12  22  46  62 100 140 168 218 278 336 390
#     4  11  21  38  67  96 130 174 216 268 335 400
#     4  11  20  37  61  91 129 166 209 271 330 382
#     4  11  23  43  67  92 124 178 227 268 330 394
#     4  11  24  41  67  92 130 174 219 275 330 392
#     4  10  20  38  64  94 127 167 222 270 320 400
#
# _framework density 20.423766000000001
#
# number of rings (size 3 to 8) (size 9 to 14) (size 15 to 20)
#    0.000    1.091    5.455    3.818    0.000    2.182 
#    0.000    4.545    0.000    0.000    0.000    0.000 
#    0.000    0.000    0.000    0.000    0.000    0.000 
#
# Total GULP energy -272547.486095 kJ/mol
# GULP energy per Si atom -12388.522095 kJ/mol
# Density = 2.037728 g / cm^3
# Si number density = 20.423766 Si / 1000 Ang^3
#
#
#
# Elastic Constant Matrix: (Units=GPa)
#
#
# Indices 1 2 3 4 5 6 
#
# 1 132.1499 59.4033 37.7700 0.0000 -25.4191 0.0000
# 2 59.4033 129.8017 42.9720 0.0000 -17.7735 0.0000
# 3 37.7700 42.9720 100.9367 0.0000 -21.1981 0.0000
# 4 0.0000 0.0000 0.0000 42.5217 0.0000 -7.8299
# 5 -25.4191 -17.7735 -21.1981 0.0000 25.7325 0.0000
# 6 0.0000 0.0000 0.0000 -7.8299 0.0000 23.6028
#
#
#
# Elastic Compliance Matrix: (Units=1/GPa)
#
#
# Indices 1 2 3 4 5 6 
#
# 1 0.010923 -0.003658 -0.000961 0.000000 0.007472 0.000000
# 2 -0.003658 0.010492 -0.002823 0.000000 0.001308 0.000000
# 3 -0.000961 -0.002823 0.013132 0.000000 0.007918 0.000000
# 4 0.000000 0.000000 0.000000 0.025047 0.000000 0.008309
# 5 0.007472 0.001308 0.007918 0.000000 0.053669 0.000000
# 6 0.000000 0.000000 0.000000 0.008309 0.000000 0.045124
#
#
# Mechanical properties :
#
#
# Convention : Reuss Voigt Hill
#
# Bulk Modulus (GPa) = 50.85754 71.46430 61.16092
# Shear Modulus (GPa) = 27.80471 33.22095 30.51283
#
# Velocity S-wave (km/s) = 3.69370 4.03747 3.86941
# Velocity P-wave (km/s) = 6.56860 7.53668 7.06923
#
# Compressibility (1/GPa) = 0.01966277
#
# Stress axis : x y z
#
# Youngs Moduli (GPa) = 91.54737 95.31293 76.15130
#
# Poissons Ratio (x) = 0.34863 0.07318
# Poissons Ratio (y) = 0.33485 0.21500
# Poissons Ratio (z) = 0.08797 0.26910
#
# Static dielectric constant tensor:
#      x y z
#    x 3.778190 0.000000 -0.617480 
#    y 0.000000 3.936070 0.000000 
#    z -0.617480 0.000000 4.387250 
# 
# 
# High freq. dielectric constant tensor:
#      x y z
#    x 1.778610 0.000000 -0.024550 
#    y 0.000000 1.803850 0.000000 
#    z -0.024550 0.000000 1.807820 
# 
# From -- ./inp_files/136993.got.cif
#   From: 2010.06.25/outbox.cif.g09.slc.cpg/sg15_69_cif.got.tgz:136993.got - 2010.06.28 07:06:18.
