data_PCOD8139968
_publ_section_title
;
Structure prediction by ZEFSAII (Michael W. Deem and Ramdas Pophale) SiO2 
 PCOD8139968
Probable space group: C 2/C
;
_chemical_formula_sum "Si O2"
_cell_formula_units_Z 36
_cell_length_a 15.998247
_cell_length_b 9.199718
_cell_length_c 12.230505
_cell_angle_alpha 90.000000
_cell_angle_beta 61.528850
_cell_angle_gamma 90.000000
_cell_volume 1582.371562
_symmetry_space_group_name_H-M "C 2/C"
_symmetry_group_IT_number 15
_symmetry_cell_setting 'monoclinic'
loop_
_space_group_symop_operation_xyz
x,y,z
-x,y,1/2-z
-x,-y,-z
x,-y,1/2+z
1/2+x,1/2+y,z
1/2-x,1/2+y,1/2-z
1/2-x,1/2-y,-z
1/2+x,1/2-y,1/2+z
loop_
_atom_site_type_symbol
_atom_site_label
_atom_site_fract_x
_atom_site_fract_y
_atom_site_fract_z
Si Si1 0.500000 0.634647 0.750000
Si Si2 0.844008 0.001232 0.982121
Si Si3 0.715636 0.929526 0.885628
Si Si4 0.167542 0.251208 0.354583
Si Si5 0.044691 0.237601 0.958762
O O1 0.411685 0.532643 0.836124
O O2 0.527137 0.731976 0.838971
O O3 0.750659 0.924527 0.990246
O O4 0.808366 0.151758 0.056122
O O5 0.900761 0.908176 0.036831
O O6 0.785659 0.821315 0.779539
O O7 0.607346 0.877047 0.948480
O O8 0.717092 0.092536 0.837172
O O9 0.053245 0.258367 0.413996
#
# Coordination Sequence:
#
# PCOD8139968 Si02
#       5
#     4   8   8   8   8
#     4  10  20  40  64  90 126 168 208 250 310 380
#     4  11  21  40  67  94 126 166 208 257 312 372
#     4  12  24  42  64  95 128 163 211 262 312 373
#     4  11  24  42  64  93 129 169 208 254 315 374
#     4  11  24  42  66  94 126 167 210 259 314 371
#
# _framework density 22.750661999999998
#
# number of rings (size 3 to 8) (size 9 to 14) (size 15 to 20)
#    0.000    0.889    0.000   10.000    0.000    1.778 
#    0.000    2.222    0.000    1.333    0.000    0.000 
#    0.000    0.000    0.000    0.000    0.000    0.000 
#
# Total GULP energy -223216.897596 kJ/mol
# GULP energy per Si atom -12400.938755 kJ/mol
# Density = 2.269888 g / cm^3
# Si number density = 22.750662 Si / 1000 Ang^3
#
#
#
# Elastic Constant Matrix: (Units=GPa)
#
#
# Indices 1 2 3 4 5 6 
#
# 1 164.3074 51.0539 52.5357 0.0000 18.5664 0.0000
# 2 51.0539 101.4744 22.2428 0.0000 -0.1812 0.0000
# 3 52.5357 22.2428 66.2908 0.0000 -7.8298 0.0000
# 4 0.0000 0.0000 0.0000 21.0670 0.0000 0.1238
# 5 18.5664 -0.1812 -7.8298 0.0000 31.0626 0.0000
# 6 0.0000 0.0000 0.0000 0.1238 0.0000 38.2285
#
#
#
# Elastic Compliance Matrix: (Units=1/GPa)
#
#
# Indices 1 2 3 4 5 6 
#
# 1 0.010894 -0.003648 -0.008432 0.000000 -0.008658 0.000000
# 2 -0.003648 0.011881 -0.000855 0.000000 0.002034 0.000000
# 3 -0.008432 -0.000855 0.023344 0.000000 0.010919 0.000000
# 4 0.000000 0.000000 0.000000 0.047468 0.000000 -0.000154
# 5 -0.008658 0.002034 0.010919 0.000000 0.040133 0.000000
# 6 0.000000 0.000000 0.000000 -0.000154 0.000000 0.026159
#
#
# Mechanical properties :
#
#
# Convention : Reuss Voigt Hill
#
# Bulk Modulus (GPa) = 49.38595 64.85971 57.12283
# Shear Modulus (GPa) = 25.97394 31.82098 28.89746
#
# Velocity S-wave (km/s) = 3.38254 3.74396 3.56783
# Velocity P-wave (km/s) = 6.08359 6.87462 6.49117
#
# Compressibility (1/GPa) = 0.02024867
#
# Stress axis : x y z
#
# Youngs Moduli (GPa) = 91.79115 84.16612 42.83695
#
# Poissons Ratio (x) = 0.30706 0.36122
# Poissons Ratio (y) = 0.33488 0.03663
# Poissons Ratio (z) = 0.77401 0.07196
#
# Static dielectric constant tensor:
#      x y z
#    x 4.345300 0.000000 -0.135360 
#    y 0.000000 4.087160 0.000000 
#    z -0.135360 0.000000 3.966380 
# 
# 
# High freq. dielectric constant tensor:
#      x y z
#    x 1.913020 0.000000 -0.002480 
#    y 0.000000 1.896920 0.000000 
#    z -0.002480 0.000000 1.890950 
# 
# From -- ./inp_files/102613.got.cif
#   From: 2010.06.25/outbox.cif.g09.slc.cpg/sg15_52_cif.got.tgz:102613.got - 2010.06.28 07:06:18.
