data_PCOD8139625
_publ_section_title
;
Structure prediction by ZEFSAII (Michael W. Deem and Ramdas Pophale) SiO2 
 PCOD8139625
Probable space group: C 2/C
;
_chemical_formula_sum "Si O2"
_cell_formula_units_Z 60
_cell_length_a 11.436695
_cell_length_b 21.311114
_cell_length_c 18.642566
_cell_angle_alpha 90.000000
_cell_angle_beta 42.728539
_cell_angle_gamma 90.000000
_cell_volume 3083.036371
_symmetry_space_group_name_H-M "C 2/C"
_symmetry_group_IT_number 15
_symmetry_cell_setting 'monoclinic'
loop_
_space_group_symop_operation_xyz
x,y,z
-x,y,1/2-z
-x,-y,-z
x,-y,1/2+z
1/2+x,1/2+y,z
1/2-x,1/2+y,1/2-z
1/2-x,1/2-y,-z
1/2+x,1/2-y,1/2+z
loop_
_atom_site_type_symbol
_atom_site_label
_atom_site_fract_x
_atom_site_fract_y
_atom_site_fract_z
Si Si1 0.239357 0.209691 0.330043
Si Si2 0.500000 0.419927 0.250000
Si Si3 0.978047 0.515829 0.340297
Si Si4 0.141338 0.582540 0.493960
Si Si5 0.099700 0.658126 0.109835
Si Si6 0.803488 0.971650 0.780960
Si Si7 0.818613 0.658405 0.585585
Si Si8 0.479922 0.650376 0.337849
O O1 0.413874 0.186092 0.214533
O O2 0.246854 0.184140 0.408559
O O3 0.222781 0.284676 0.341811
O O4 0.072396 0.187916 0.360042
O O5 0.591365 0.463687 0.267660
O O6 0.357365 0.377716 0.352381
O O7 0.874381 0.463168 0.430872
O O8 0.886525 0.583116 0.389142
O O9 0.000000 0.491958 0.250000
O O10 0.173340 0.525310 0.275190
O O11 0.197784 0.539619 0.401783
O O12 0.278426 0.638727 0.447483
O O13 0.956979 0.613247 0.560791
O O14 0.117940 0.681790 0.020376
O O15 0.939332 0.917894 0.705340
O O16 0.500000 0.684134 0.250000
#
# Coordination Sequence:
#
# PCOD8139625 Si02
#       8
#     8   4   8   8   8   8   8   8
#     4  11  23  42  62  92 124 164 219 254 302 366
#     4  12  22  38  64 102 120 148 218 260 304 360
#     4  12  21  38  62  91 127 163 200 258 320 375
#     4  11  22  38  63  91 123 168 207 248 323 378
#     4  11  21  42  66  88 121 167 205 259 319 359
#     4  11  19  38  66  91 123 159 208 257 304 384
#     4  12  25  40  65  91 126 166 209 261 307 371
#     4  10  20  39  65  94 119 166 214 249 299 381
#
# _framework density 19.461334000000001
#
# number of rings (size 3 to 8) (size 9 to 14) (size 15 to 20)
#    0.000    0.800    7.333    3.200    0.000    0.533 
#    2.400    3.333    0.000    0.000    0.000    0.000 
#    0.000    0.000    0.000    0.000    0.000    0.000 
#
# Total GULP energy -371932.713326 kJ/mol
# GULP energy per Si atom -12397.757111 kJ/mol
# Density = 1.941704 g / cm^3
# Si number density = 19.461334 Si / 1000 Ang^3
#
#
#
# Elastic Constant Matrix: (Units=GPa)
#
#
# Indices 1 2 3 4 5 6 
#
# 1 124.3733 36.2862 33.4866 0.0004 0.0122 -0.0025
# 2 36.2862 103.7248 43.0589 -0.0003 1.5005 -0.0004
# 3 33.4866 43.0589 77.9307 0.0027 4.1546 -0.0015
# 4 0.0004 -0.0003 0.0027 19.6727 -0.0008 -3.8857
# 5 0.0122 1.5005 4.1546 -0.0008 33.3149 0.0017
# 6 -0.0025 -0.0004 -0.0015 -3.8857 0.0017 43.1558
#
#
#
# Elastic Compliance Matrix: (Units=1/GPa)
#
#
# Indices 1 2 3 4 5 6 
#
# 1 0.009438 -0.002095 -0.002922 0.000000 0.000455 0.000000
# 2 -0.002095 0.012979 -0.006281 0.000001 0.000200 0.000000
# 3 -0.002922 -0.006281 0.017660 -0.000003 -0.001918 0.000000
# 4 0.000000 0.000001 -0.000003 0.051752 0.000001 0.004660
# 5 0.000455 0.000200 -0.001918 0.000001 0.030247 -0.000001
# 6 0.000000 0.000000 0.000000 0.004660 -0.000001 0.023591
#
#
# Mechanical properties :
#
#
# Convention : Reuss Voigt Hill
#
# Bulk Modulus (GPa) = 57.20916 59.07691 58.14304
# Shear Modulus (GPa) = 28.72046 32.10849 30.41448
#
# Velocity S-wave (km/s) = 3.84574 4.06625 3.95754
# Velocity P-wave (km/s) = 7.01283 7.24347 7.12908
#
# Compressibility (1/GPa) = 0.01747972
#
# Stress axis : x y z
#
# Youngs Moduli (GPa) = 105.95055 77.05013 56.62381
#
# Poissons Ratio (x) = 0.16145 0.16546
# Poissons Ratio (y) = 0.22200 0.35567
# Poissons Ratio (z) = 0.30961 0.48397
#
# Static dielectric constant tensor:
#      x y z
#    x 3.533910 0.000000 -0.208700 
#    y 0.000000 3.499960 0.000000 
#    z -0.208700 0.000000 3.431490 
# 
# 
# High freq. dielectric constant tensor:
#      x y z
#    x 1.767950 0.000000 -0.008520 
#    y 0.000000 1.750860 0.000000 
#    z -0.008520 0.000000 1.746380 
# 
# From -- ./inp_files/200529.got.cif
#   From: 2010.06.25/outbox.cif.g09.slc.cpg/sg15_101_cif.got.tgz:200529.got - 2010.06.28 07:06:18.
