data_PCOD8139599
_publ_section_title
;
Structure prediction by ZEFSAII (Michael W. Deem and Ramdas Pophale) SiO2 
 PCOD8139599
Probable space group: C 2/C
;
_chemical_formula_sum "Si O2"
_cell_formula_units_Z 40
_cell_length_a 15.089647
_cell_length_b 9.197958
_cell_length_c 16.439789
_cell_angle_alpha 90.000000
_cell_angle_beta 121.225584
_cell_angle_gamma 90.000000
_cell_volume 1951.193490
_symmetry_space_group_name_H-M "C 2/C"
_symmetry_group_IT_number 15
_symmetry_cell_setting 'monoclinic'
loop_
_space_group_symop_operation_xyz
x,y,z
-x,y,1/2-z
-x,-y,-z
x,-y,1/2+z
1/2+x,1/2+y,z
1/2-x,1/2+y,1/2-z
1/2-x,1/2-y,-z
1/2+x,1/2-y,1/2+z
loop_
_atom_site_type_symbol
_atom_site_label
_atom_site_fract_x
_atom_site_fract_y
_atom_site_fract_z
Si Si1 0.610959 0.100861 0.459211
Si Si2 0.798473 0.784423 0.130596
Si Si3 0.354710 0.230840 0.502165
Si Si4 0.958534 0.977824 0.645623
Si Si5 0.596407 0.723482 0.651172
O O1 0.676523 0.174769 0.564824
O O2 0.673790 0.138864 0.406589
O O3 0.494122 0.157415 0.398620
O O4 0.600642 0.929642 0.465948
O O5 0.826975 0.747594 0.236825
O O6 0.861625 0.918104 0.120269
O O7 0.250000 0.250000 0.500000
O O8 0.435933 0.343946 0.576790
O O9 0.335910 0.268435 0.398414
O O10 0.000000 0.913805 0.750000
O O11 0.046831 0.065774 0.639908
#
# Coordination Sequence:
#
# PCOD8139599 Si02
#       5
#     8   8   8   8   8
#     4  10  20  39  65  87 120 155 203 247 297 352
#     4   9  19  41  64  87 116 165 201 238 296 368
#     4  12  23  39  57  95 125 149 195 263 298 339
#     4   9  19  39  63  84 120 163 199 238 298 359
#     4  10  22  41  64  86 118 165 205 234 297 369
#
# _framework density 20.500273
#
# number of rings (size 3 to 8) (size 9 to 14) (size 15 to 20)
#    0.000    2.000    2.000    3.000    0.000    1.600 
#    7.200    0.000    0.000    0.000    0.000    0.000 
#    0.000    0.000    0.000    0.000    0.000    0.000 
#
# Total GULP energy -247974.788236 kJ/mol
# GULP energy per Si atom -12398.739412 kJ/mol
# Density = 2.045361 g / cm^3
# Si number density = 20.500273 Si / 1000 Ang^3
#
#
#
# Elastic Constant Matrix: (Units=GPa)
#
#
# Indices 1 2 3 4 5 6 
#
# 1 67.1472 22.4561 54.6485 0.0000 -14.6042 0.0000
# 2 22.4561 99.5788 76.1842 0.0000 -10.2655 0.0000
# 3 54.6485 76.1842 196.8927 0.0000 -7.4433 0.0000
# 4 0.0000 0.0000 0.0000 21.0760 0.0000 -2.5991
# 5 -14.6042 -10.2655 -7.4433 0.0000 35.1056 0.0000
# 6 0.0000 0.0000 0.0000 -2.5991 0.0000 9.0145
#
#
#
# Elastic Compliance Matrix: (Units=1/GPa)
#
#
# Indices 1 2 3 4 5 6 
#
# 1 0.021080 0.000415 -0.005721 0.000000 0.007678 0.000000
# 2 0.000415 0.014599 -0.005641 0.000000 0.003246 0.000000
# 3 -0.005721 -0.005641 0.008768 0.000000 -0.002171 0.000000
# 4 0.000000 0.000000 0.000000 0.049197 0.000000 0.014185
# 5 0.007678 0.003246 -0.002171 0.000000 0.032168 0.000000
# 6 0.000000 0.000000 0.000000 0.014185 0.000000 0.115022
#
#
# Mechanical properties :
#
#
# Convention : Reuss Voigt Hill
#
# Bulk Modulus (GPa) = 44.34305 74.46626 59.40466
# Shear Modulus (GPa) = 18.50160 27.06120 22.78140
#
# Velocity S-wave (km/s) = 3.00743 3.63718 3.33719
# Velocity P-wave (km/s) = 5.80835 7.35134 6.62492
#
# Compressibility (1/GPa) = 0.02255145
#
# Stress axis : x y z
#
# Youngs Moduli (GPa) = 47.43842 68.49605 114.05644
#
# Poissons Ratio (x) = -0.02841 0.65252
# Poissons Ratio (y) = -0.01967 0.64344
# Poissons Ratio (z) = 0.27140 0.38641
#
# Static dielectric constant tensor:
#      x y z
#    x 3.527960 0.000000 0.025870 
#    y 0.000000 3.837190 0.000000 
#    z 0.025870 0.000000 4.186620 
# 
# 
# High freq. dielectric constant tensor:
#      x y z
#    x 1.784640 0.000000 0.003720 
#    y 0.000000 1.797390 0.000000 
#    z 0.003720 0.000000 1.812560 
# 
# From -- ./inp_files/150775.got.cif
#   From: 2010.06.25/outbox.cif.g09.slc.cpg/sg15_76_cif.got.tgz:150775.got - 2010.06.28 07:06:18.
