data_PCOD8139980
_publ_section_title
;
Structure prediction by ZEFSAII (Michael W. Deem and Ramdas Pophale) SiO2 
 PCOD8139980
Probable space group: C 2/C
;
_chemical_formula_sum "Si O2"
_cell_formula_units_Z 48
_cell_length_a 8.647899
_cell_length_b 26.916428
_cell_length_c 11.618901
_cell_angle_alpha 90.000000
_cell_angle_beta 113.800277
_cell_angle_gamma 90.000000
_cell_volume 2474.537900
_symmetry_space_group_name_H-M "C 2/C"
_symmetry_group_IT_number 15
_symmetry_cell_setting 'monoclinic'
loop_
_space_group_symop_operation_xyz
x,y,z
-x,y,1/2-z
-x,-y,-z
x,-y,1/2+z
1/2+x,1/2+y,z
1/2-x,1/2+y,1/2-z
1/2-x,1/2-y,-z
1/2+x,1/2-y,1/2+z
loop_
_atom_site_type_symbol
_atom_site_label
_atom_site_fract_x
_atom_site_fract_y
_atom_site_fract_z
Si Si1 0.949170 0.796599 0.477247
Si Si2 0.873003 0.317276 0.976596
Si Si3 0.150692 0.142889 0.212176
Si Si4 0.837536 0.435752 0.639936
Si Si5 0.849266 0.603259 0.891450
Si Si6 0.000000 0.468949 0.250000
Si Si7 0.500000 0.654022 0.750000
O O1 0.943177 0.737679 0.481633
O O2 0.771894 0.819666 0.468710
O O3 0.100574 0.814571 0.605713
O O4 0.992603 0.811881 0.360690
O O5 0.807263 0.337030 0.834032
O O6 0.030349 0.349175 0.066533
O O7 0.180922 0.091193 0.154272
O O8 0.000000 0.129176 0.250000
O O9 0.834953 0.425580 0.505459
O O10 0.000000 0.410798 0.750000
O O11 0.844582 0.495593 0.660366
O O12 0.663841 0.619241 0.796506
O O13 0.929897 0.564428 0.829526
#
# Coordination Sequence:
#
# PCOD8139980 Si02
#       7
#     8   8   8   8   8   4   4
#     4  10  23  39  59  97 126 169 213 250 309 379
#     4  10  22  40  66  85 128 175 209 253 312 373
#     4  10  20  40  64  92 127 162 215 263 308 369
#     4  10  21  41  68  89 115 161 214 259 308 380
#     4  12  23  43  63  93 129 164 208 264 316 374
#     4  10  24  42  69  92 120 165 210 260 330 378
#     4  12  26  38  61  92 140 157 208 264 310 368
#
# _framework density 19.397561
#
# number of rings (size 3 to 8) (size 9 to 14) (size 15 to 20)
#    0.500    1.000    3.333    1.500    2.333    2.000 
#    3.000    0.833    0.000    0.000    0.000    0.000 
#    0.000    0.000    0.000    0.000    0.000    0.000 
#
# Total GULP energy -297551.441521 kJ/mol
# GULP energy per Si atom -12397.976730 kJ/mol
# Density = 1.935341 g / cm^3
# Si number density = 19.397561 Si / 1000 Ang^3
#
#
#
# Elastic Constant Matrix: (Units=GPa)
#
#
# Indices 1 2 3 4 5 6 
#
# 1 90.1808 69.9651 76.4669 0.0000 -11.4710 0.0000
# 2 69.9651 129.8040 86.0293 0.0000 -7.5543 0.0000
# 3 76.4669 86.0293 70.0067 0.0000 -16.5144 0.0000
# 4 0.0000 0.0000 0.0000 54.1314 0.0000 -59.4406
# 5 -11.4710 -7.5543 -16.5144 0.0000 46.6347 0.0000
# 6 0.0000 0.0000 0.0000 -59.4406 0.0000 188.9873
#
#
#
# Elastic Compliance Matrix: (Units=1/GPa)
#
#
# Indices 1 2 3 4 5 6 
#
# 1 -0.036269 -0.046411 0.101228 0.000000 0.019407 0.000000
# 2 -0.046411 -0.010098 0.065496 0.000000 0.010142 0.000000
# 3 0.101228 0.065496 -0.183743 0.000000 -0.029558 0.000000
# 4 0.000000 0.000000 0.000000 0.028220 0.000000 0.008876
# 5 0.019407 0.010142 -0.029558 0.000000 0.017393 0.000000
# 6 0.000000 0.000000 0.000000 0.008876 0.000000 0.008083
#
#
# Mechanical properties :
#
#
# Convention : Reuss Voigt Hill
#
# Bulk Modulus (GPa) = 95.11220 83.87933 89.49576
# Shear Modulus (GPa) = -12.09091 61.78605 24.84757
#
# Velocity S-wave (km/s) = -2.49935 5.64992 3.58294
# Velocity P-wave (km/s) = 6.38831 9.26813 7.95955
#
# Compressibility (1/GPa) = 0.01051390
#
# Stress axis : x y z
#
# Youngs Moduli (GPa) = -27.57175 -99.02955 -5.44239
#
# Poissons Ratio (x) = -4.59608 0.55092
# Poissons Ratio (y) = -1.27964 0.35645
# Poissons Ratio (z) = 2.79102 6.48600
#
# Static dielectric constant tensor:
#      x y z
#    x 3.518180 0.000000 -0.045360 
#    y 0.000000 3.458080 0.000000 
#    z -0.045360 0.000000 3.740780 
# 
# 
# High freq. dielectric constant tensor:
#      x y z
#    x 1.757950 0.000000 -0.012240 
#    y 0.000000 1.753870 0.000000 
#    z -0.012240 0.000000 1.765800 
# 
# From -- ./inp_files/80580.got.cif
#   From: 2010.06.25/outbox.cif.g09.slc.cpg/sg15_41_cif.got.tgz:80580.got - 2010.06.28 07:06:18.
