data_PCOD8139856
_publ_section_title
;
Structure prediction by ZEFSAII (Michael W. Deem and Ramdas Pophale) SiO2 
 PCOD8139856
Probable space group: C 2/C
;
_chemical_formula_sum "Si O2"
_cell_formula_units_Z 64
_cell_length_a 26.994214
_cell_length_b 15.486456
_cell_length_c 17.751325
_cell_angle_alpha 90.000000
_cell_angle_beta 25.320976
_cell_angle_gamma 90.000000
_cell_volume 3173.813493
_symmetry_space_group_name_H-M "C 2/C"
_symmetry_group_IT_number 15
_symmetry_cell_setting 'monoclinic'
loop_
_space_group_symop_operation_xyz
x,y,z
-x,y,1/2-z
-x,-y,-z
x,-y,1/2+z
1/2+x,1/2+y,z
1/2-x,1/2+y,1/2-z
1/2-x,1/2-y,-z
1/2+x,1/2-y,1/2+z
loop_
_atom_site_type_symbol
_atom_site_label
_atom_site_fract_x
_atom_site_fract_y
_atom_site_fract_z
Si Si1 0.247433 0.570074 0.537956
Si Si2 0.779759 0.926058 0.171482
Si Si3 0.942436 0.752492 0.250996
Si Si4 0.044612 0.684813 0.842886
Si Si5 0.243551 0.375439 0.556170
Si Si6 0.300489 0.113487 0.208431
Si Si7 0.015673 0.862280 0.815435
Si Si8 0.852467 0.741412 0.642619
O O1 0.263828 0.578598 0.604334
O O2 0.134248 0.625882 0.672475
O O3 0.229166 0.470707 0.542729
O O4 0.355532 0.605476 0.340310
O O5 0.705477 0.847242 0.309108
O O6 0.734522 0.016205 0.267859
O O7 0.917075 0.912634 0.999391
O O8 0.859988 0.675905 0.338962
O O9 0.869137 0.840416 0.359292
O O10 0.000000 0.725172 0.250000
O O11 0.039131 0.769161 0.056176
O O12 0.000482 0.760301 0.849115
O O13 0.106167 0.730609 0.828931
O O14 0.938960 0.623753 0.013749
O O15 0.239314 0.368768 0.651952
O O16 0.240232 0.181038 0.234825
O O17 0.000000 0.884011 0.750000
#
# Coordination Sequence:
#
# PCOD8139856 Si02
#       8
#     8   8   8   8   8   8   8   8
#     4   9  21  36  61  85 111 152 203 244 283 348
#     4   9  21  36  61  89 113 153 204 240 287 351
#     4  11  22  36  58  84 121 156 189 236 296 351
#     4  11  22  39  63  86 119 156 195 245 300 346
#     4  10  22  38  58  89 113 153 201 239 287 349
#     4  11  21  38  63  88 118 156 202 244 290 352
#     4  10  20  40  62  85 116 152 196 247 290 351
#     4  11  22  38  61  89 119 155 198 243 297 352
#
# _framework density 20.165016000000001
#
# number of rings (size 3 to 8) (size 9 to 14) (size 15 to 20)
#    0.000    1.750    3.750    0.375    3.500    2.000 
#    0.000    2.500    0.000    0.000    0.000    0.000 
#    0.000    0.000    0.000    0.000    0.000    0.000 
#
# Total GULP energy -396821.963032 kJ/mol
# GULP energy per Si atom -12400.686345 kJ/mol
# Density = 2.011912 g / cm^3
# Si number density = 20.165016 Si / 1000 Ang^3
#
#
#
# Elastic Constant Matrix: (Units=GPa)
#
#
# Indices 1 2 3 4 5 6 
#
# 1 24.0305 11.0224 13.1167 0.0000 -9.1837 0.0000
# 2 11.0224 135.8978 48.1877 0.0000 -16.2706 0.0000
# 3 13.1167 48.1877 121.3969 0.0000 -19.6128 0.0000
# 4 0.0000 0.0000 0.0000 35.3415 0.0000 -0.4164
# 5 -9.1837 -16.2706 -19.6128 0.0000 20.5876 0.0000
# 6 0.0000 0.0000 0.0000 -0.4164 0.0000 25.0181
#
#
#
# Elastic Compliance Matrix: (Units=1/GPa)
#
#
# Indices 1 2 3 4 5 6 
#
# 1 0.050766 -0.001070 -0.001818 0.000000 0.020068 0.000000
# 2 -0.001070 0.008901 -0.002787 0.000000 0.003902 0.000000
# 3 -0.001818 -0.002787 0.010700 0.000000 0.007180 0.000000
# 4 0.000000 0.000000 0.000000 0.028301 0.000000 0.000471
# 5 0.020068 0.003902 0.007180 0.000000 0.067448 0.000000
# 6 0.000000 0.000000 0.000000 0.000471 0.000000 0.039979
#
#
# Mechanical properties :
#
#
# Convention : Reuss Voigt Hill
#
# Bulk Modulus (GPa) = 16.94449 47.33099 32.13774
# Shear Modulus (GPa) = 21.08651 30.12267 25.60459
#
# Velocity S-wave (km/s) = 3.23723 3.86917 3.56723
# Velocity P-wave (km/s) = 4.73224 6.59420 5.73923
#
# Compressibility (1/GPa) = 0.05901624
#
# Stress axis : x y z
#
# Youngs Moduli (GPa) = 19.69807 112.35101 93.45647
#
# Poissons Ratio (x) = 0.12023 0.16993
# Poissons Ratio (y) = 0.02108 0.26047
# Poissons Ratio (z) = 0.03582 0.31313
#
# Static dielectric constant tensor:
#      x y z
#    x 3.316690 0.000000 -0.139950 
#    y 0.000000 3.777980 0.000000 
#    z -0.139950 0.000000 4.027560 
# 
# 
# High freq. dielectric constant tensor:
#      x y z
#    x 1.749370 0.000000 -0.011890 
#    y 0.000000 1.792180 0.000000 
#    z -0.011890 0.000000 1.808310 
# 
# From -- ./inp_files/259427.got.cif
#   From: 2010.06.25/outbox.cif.g09.slc.cpg/sg15_130_cif.got.tgz:259427.got - 2010.06.28 07:06:18.
