data_PCOD8139460
_publ_section_title
;
Structure prediction by ZEFSAII (Michael W. Deem and Ramdas Pophale) SiO2 
 PCOD8139460
Probable space group: C 2/C
;
_chemical_formula_sum "Si O2"
_cell_formula_units_Z 56
_cell_length_a 8.951060
_cell_length_b 19.529602
_cell_length_c 17.035826
_cell_angle_alpha 90.000000
_cell_angle_beta 111.086462
_cell_angle_gamma 90.000000
_cell_volume 2778.629573
_symmetry_space_group_name_H-M "C 2/C"
_symmetry_group_IT_number 15
_symmetry_cell_setting 'monoclinic'
loop_
_space_group_symop_operation_xyz
x,y,z
-x,y,1/2-z
-x,-y,-z
x,-y,1/2+z
1/2+x,1/2+y,z
1/2-x,1/2+y,1/2-z
1/2-x,1/2-y,-z
1/2+x,1/2-y,1/2+z
loop_
_atom_site_type_symbol
_atom_site_label
_atom_site_fract_x
_atom_site_fract_y
_atom_site_fract_z
Si Si1 0.927503 0.424070 0.993601
Si Si2 0.715228 0.941390 0.859651
Si Si3 0.348938 0.036828 0.321036
Si Si4 0.387863 0.330291 0.981722
Si Si5 0.328177 0.811998 0.420538
Si Si6 0.686602 0.394867 0.263682
Si Si7 0.685171 0.582690 0.584707
O O1 0.814996 0.418883 0.893905
O O2 0.834640 0.407270 0.055601
O O3 0.000000 0.500000 0.000000
O O4 0.067117 0.369030 0.016282
O O5 0.728981 0.926035 0.768996
O O6 0.540298 0.970602 0.846833
O O7 0.748714 0.871640 0.910885
O O8 0.842608 0.001023 0.908206
O O9 0.274137 0.961493 0.315376
O O10 0.420842 0.260945 0.938078
O O11 0.333621 0.307377 0.058115
O O12 0.539685 0.379469 0.015234
O O13 0.272381 0.830658 0.322119
O O14 0.500000 0.399380 0.250000
O O15 0.717404 0.385152 0.176790
#
# Coordination Sequence:
#
# PCOD8139460 Si02
#       7
#     8   8   8   8   8   8   8
#     4  12  21  40  67  92 127 169 206 263 322 377
#     4  10  20  39  62  93 123 160 209 264 316 372
#     4  10  21  36  61  93 121 157 207 258 318 371
#     4  11  23  41  62  96 124 170 214 260 315 388
#     4  11  23  41  63  90 132 166 213 257 323 385
#     4  11  22  40  62  96 125 161 211 271 315 371
#     4  11  23  38  69  94 122 168 217 264 320 375
#
# _framework density 20.153818999999999
#
# number of rings (size 3 to 8) (size 9 to 14) (size 15 to 20)
#    0.000    1.143    5.714    0.429    0.000    3.429 
#    5.143    0.000    3.143    0.000    0.000    0.000 
#    0.000    0.000    0.000    0.000    0.000    0.000 
#
# Total GULP energy -347053.001063 kJ/mol
# GULP energy per Si atom -12394.750038 kJ/mol
# Density = 2.010795 g / cm^3
# Si number density = 20.153819 Si / 1000 Ang^3
#
#
#
# Elastic Constant Matrix: (Units=GPa)
#
#
# Indices 1 2 3 4 5 6 
#
# 1 81.2090 34.7056 50.1916 0.0000 -11.5173 0.0000
# 2 34.7056 118.3009 61.1839 0.0000 10.5856 0.0000
# 3 50.1916 61.1839 129.0415 0.0000 -16.7018 0.0000
# 4 0.0000 0.0000 0.0000 28.9310 0.0000 -1.8698
# 5 -11.5173 10.5856 -16.7018 0.0000 39.1839 0.0000
# 6 0.0000 0.0000 0.0000 -1.8698 0.0000 16.7090
#
#
#
# Elastic Compliance Matrix: (Units=1/GPa)
#
#
# Indices 1 2 3 4 5 6 
#
# 1 0.017019 -0.002853 -0.004784 0.000000 0.003734 0.000000
# 2 -0.002853 0.012972 -0.005930 0.000000 -0.006870 0.000000
# 3 -0.004784 -0.005930 0.013174 0.000000 0.005811 0.000000
# 4 0.000000 0.000000 0.000000 0.034817 0.000000 0.003896
# 5 0.003734 -0.006870 0.005811 0.000000 0.030951 0.000000
# 6 0.000000 0.000000 0.000000 0.003896 0.000000 0.060284
#
#
# Mechanical properties :
#
#
# Convention : Reuss Voigt Hill
#
# Bulk Modulus (GPa) = 62.37701 68.96817 65.67259
# Shear Modulus (GPa) = 24.78999 29.12946 26.95973
#
# Velocity S-wave (km/s) = 3.51100 3.80591 3.66142
# Velocity P-wave (km/s) = 6.88867 7.32178 7.10852
#
# Compressibility (1/GPa) = 0.01603155
#
# Stress axis : x y z
#
# Youngs Moduli (GPa) = 58.75649 77.09111 75.90755
#
# Poissons Ratio (x) = 0.21994 0.36313
# Poissons Ratio (y) = 0.16763 0.45013
# Poissons Ratio (z) = 0.28108 0.45715
#
# Static dielectric constant tensor:
#      x y z
#    x 3.530700 0.000000 -0.272270 
#    y 0.000000 3.522150 0.000000 
#    z -0.272270 0.000000 4.250530 
# 
# 
# High freq. dielectric constant tensor:
#      x y z
#    x 1.769750 0.000000 -0.010290 
#    y 0.000000 1.763380 0.000000 
#    z -0.010290 0.000000 1.807780 
# 
# From -- ./inp_files/192249.got.cif
#   From: 2010.06.25/outbox.cif.g09.slc.cpg/sg15_97_cif.got.tgz:192249.got - 2010.06.28 07:06:18.
