data_PCOD8139370
_publ_section_title
;
Structure prediction by ZEFSAII (Michael W. Deem and Ramdas Pophale) SiO2 
 PCOD8139370
Probable space group: C 2/C
;
_chemical_formula_sum "Si O2"
_cell_formula_units_Z 64
_cell_length_a 24.824759
_cell_length_b 10.658606
_cell_length_c 11.907459
_cell_angle_alpha 90.000000
_cell_angle_beta 96.421063
_cell_angle_gamma 90.000000
_cell_volume 3130.917178
_symmetry_space_group_name_H-M "C 2/C"
_symmetry_group_IT_number 15
_symmetry_cell_setting 'monoclinic'
loop_
_space_group_symop_operation_xyz
x,y,z
-x,y,1/2-z
-x,-y,-z
x,-y,1/2+z
1/2+x,1/2+y,z
1/2-x,1/2+y,1/2-z
1/2-x,1/2-y,-z
1/2+x,1/2-y,1/2+z
loop_
_atom_site_type_symbol
_atom_site_label
_atom_site_fract_x
_atom_site_fract_y
_atom_site_fract_z
Si Si1 0.998710 0.302299 0.550511
Si Si2 0.740681 0.215824 0.689634
Si Si3 0.118182 0.735577 0.721355
Si Si4 0.907135 0.841959 0.545353
Si Si5 0.717852 0.596863 0.000307
Si Si6 0.038391 0.462782 0.161489
Si Si7 0.706474 0.685026 0.568806
Si Si8 0.902073 0.136478 0.512170
O O1 0.974171 0.403380 0.460906
O O2 0.948239 0.218956 0.588465
O O3 0.039161 0.211013 0.497032
O O4 0.031305 0.385159 0.651773
O O5 0.682653 0.223395 0.734644
O O6 0.750803 0.329398 0.604698
O O7 0.749438 0.093441 0.610924
O O8 0.784439 0.218346 0.798960
O O9 0.097247 0.806966 0.825827
O O10 0.097592 0.590578 0.709661
O O11 0.094539 0.823461 0.617494
O O12 0.855120 0.777777 0.473367
O O13 0.913018 0.990242 0.531717
O O14 0.710702 0.461628 0.049245
O O15 0.659469 0.663581 0.961295
O O16 0.000000 0.409982 0.250000
O O17 0.750000 0.750000 0.500000
#
# Coordination Sequence:
#
# PCOD8139370 Si02
#       8
#     8   8   8   8   8   8   8   8
#     4  10  21  39  61  87 119 152 203 247 305 366
#     4  10  21  42  61  86 123 162 208 249 312 367
#     4  10  20  39  62  85 118 164 201 244 318 369
#     4  11  21  38  61  90 122 159 205 249 308 363
#     4   9  22  40  63  86 120 167 200 257 311 359
#     4  10  20  39  61  83 119 160 192 251 304 364
#     4  11  23  36  60  90 125 161 208 256 301 363
#     4   9  21  38  62  87 117 157 201 258 302 365
#
# _framework density 20.441295
#
# number of rings (size 3 to 8) (size 9 to 14) (size 15 to 20)
#    0.000    2.000    2.500    0.375    1.750    4.000 
#    4.500    2.500    0.000    0.000    0.000    0.000 
#    0.000    0.000    0.000    0.000    0.000    0.000 
#
# Total GULP energy -396496.530052 kJ/mol
# GULP energy per Si atom -12390.516564 kJ/mol
# Density = 2.039477 g / cm^3
# Si number density = 20.441295 Si / 1000 Ang^3
#
#
#
# Elastic Constant Matrix: (Units=GPa)
#
#
# Indices 1 2 3 4 5 6 
#
# 1 74.8299 52.8386 23.5713 0.0000 2.4692 0.0000
# 2 52.8386 89.6787 36.9173 0.0000 3.7942 0.0000
# 3 23.5713 36.9173 89.4110 0.0000 1.1033 0.0000
# 4 0.0000 0.0000 0.0000 359.3024 0.0000 502.0641
# 5 2.4692 3.7942 1.1033 0.0000 27.2848 0.0000
# 6 0.0000 0.0000 0.0000 502.0641 0.0000 777.9795
#
#
#
# Elastic Compliance Matrix: (Units=1/GPa)
#
#
# Indices 1 2 3 4 5 6 
#
# 1 0.022909 -0.013258 -0.000563 0.000000 -0.000207 0.000000
# 2 -0.013258 0.021181 -0.005231 0.000000 -0.001534 0.000000
# 3 -0.000563 -0.005231 0.013490 0.000000 0.000233 0.000000
# 4 0.000000 0.000000 0.000000 0.028330 0.000000 -0.018282
# 5 -0.000207 -0.001534 0.000233 0.000000 0.036873 0.000000
# 6 0.000000 0.000000 0.000000 -0.018282 0.000000 0.013084
#
#
# Mechanical properties :
#
#
# Convention : Reuss Voigt Hill
#
# Bulk Modulus (GPa) = 51.34555 53.39711 52.37133
# Shear Modulus (GPa) = 27.70660 242.28614 134.99637
#
# Velocity S-wave (km/s) = 3.68560 10.89886 8.13538
# Velocity P-wave (km/s) = 6.57910 13.58525 10.67342
#
# Compressibility (1/GPa) = 0.01947588
#
# Stress axis : x y z
#
# Youngs Moduli (GPa) = 43.65059 47.21267 74.12964
#
# Poissons Ratio (x) = 0.62593 0.04173
# Poissons Ratio (y) = 0.57870 0.38780
# Poissons Ratio (z) = 0.02457 0.24699
#
# Static dielectric constant tensor:
#      x y z
#    x 4.075590 0.000000 0.089540 
#    y 0.000000 3.915220 0.000000 
#    z 0.089540 0.000000 3.749210 
# 
# 
# High freq. dielectric constant tensor:
#      x y z
#    x 1.802650 0.000000 -0.002820 
#    y 0.000000 1.793260 0.000000 
#    z -0.002820 0.000000 1.795210 
# 
# From -- ./inp_files/117581.got.cif
#   From: 2010.06.25/outbox.cif.g09.slc.cpg/sg15_59_cif.got.tgz:117581.got - 2010.06.28 07:06:18.
