data_PCOD8139569
_publ_section_title
;
Structure prediction by ZEFSAII (Michael W. Deem and Ramdas Pophale) SiO2 
 PCOD8139569
Probable space group: C 2/C
;
_chemical_formula_sum "Si O2"
_cell_formula_units_Z 64
_cell_length_a 19.172633
_cell_length_b 17.426524
_cell_length_c 25.158171
_cell_angle_alpha 90.000000
_cell_angle_beta 158.445368
_cell_angle_gamma 90.000000
_cell_volume 3088.138860
_symmetry_space_group_name_H-M "C 2/C"
_symmetry_group_IT_number 15
_symmetry_cell_setting 'monoclinic'
loop_
_space_group_symop_operation_xyz
x,y,z
-x,y,1/2-z
-x,-y,-z
x,-y,1/2+z
1/2+x,1/2+y,z
1/2-x,1/2+y,1/2-z
1/2-x,1/2-y,-z
1/2+x,1/2-y,1/2+z
loop_
_atom_site_type_symbol
_atom_site_label
_atom_site_fract_x
_atom_site_fract_y
_atom_site_fract_z
Si Si1 0.893013 0.476552 0.622349
Si Si2 0.265247 0.902459 0.681538
Si Si3 0.294682 0.732386 0.108769
Si Si4 0.681786 0.626306 0.469151
Si Si5 0.035734 0.092241 0.910799
Si Si6 0.811043 0.760685 0.252011
Si Si7 0.598150 0.185574 0.072367
Si Si8 0.824777 0.053521 0.267582
O O1 0.858397 0.567892 0.601793
O O2 0.690261 0.432338 0.475529
O O3 0.000000 0.446083 0.750000
O O4 0.039659 0.453378 0.679278
O O5 0.129502 0.917796 0.535428
O O6 0.327695 0.813060 0.725927
O O7 0.145710 0.922830 0.649737
O O8 0.500000 0.770986 0.250000
O O9 0.294865 0.654121 0.074740
O O10 0.251290 0.711286 0.137921
O O11 0.162008 0.799723 0.993173
O O12 0.489909 0.582694 0.345940
O O13 0.973168 0.178074 0.851941
O O14 0.844654 0.038625 0.775696
O O15 0.849093 0.737921 0.339872
O O16 0.608289 0.800968 0.098557
O O17 0.629849 0.094631 0.109013
#
# Coordination Sequence:
#
# PCOD8139569 Si02
#       8
#     8   8   8   8   8   8   8   8
#     4   9  20  39  61  89 121 157 214 263 305 370
#     4  10  20  39  64  91 121 163 211 256 312 367
#     4  11  21  35  57  85 126 170 199 244 314 367
#     4  10  21  36  57  89 123 166 204 251 303 378
#     4  10  21  39  63  90 122 165 201 264 312 364
#     4  11  23  40  65  91 125 162 214 257 312 361
#     4  11  23  40  61  93 128 166 204 256 297 386
#     4  10  21  39  60  88 127 158 208 253 310 369
#
# _framework density 20.724457999999998
#
# number of rings (size 3 to 8) (size 9 to 14) (size 15 to 20)
#    0.000    1.750    2.500    2.250    1.750    2.000 
#    0.000    1.250    0.000    0.000    0.000    0.000 
#    0.000    0.000    0.000    0.000    0.000    0.000 
#
# Total GULP energy -396477.474710 kJ/mol
# GULP energy per Si atom -12389.921085 kJ/mol
# Density = 2.067729 g / cm^3
# Si number density = 20.724458 Si / 1000 Ang^3
#
#
#
# Elastic Constant Matrix: (Units=GPa)
#
#
# Indices 1 2 3 4 5 6 
#
# 1 59.2226 35.0278 21.4925 0.0079 3.2644 0.0072
# 2 35.0278 117.4621 28.4023 0.0992 11.4857 -0.0095
# 3 21.4925 28.4023 75.1343 0.1728 4.8229 0.0121
# 4 0.0079 0.0992 0.1728 36.9812 0.0423 6.7659
# 5 3.2644 11.4857 4.8229 0.0423 23.7217 -0.0112
# 6 0.0072 -0.0095 0.0121 6.7659 -0.0112 19.9964
#
#
#
# Elastic Compliance Matrix: (Units=1/GPa)
#
#
# Indices 1 2 3 4 5 6 
#
# 1 0.021608 -0.005495 -0.004138 0.000032 0.000528 -0.000019
# 2 -0.005495 0.011131 -0.002369 -0.000015 -0.004151 0.000011
# 3 -0.004138 -0.002369 0.015481 -0.000066 -0.001431 0.000012
# 4 0.000032 -0.000015 -0.000066 0.028826 -0.000040 -0.009753
# 5 0.000528 -0.004151 -0.001431 -0.000040 0.044384 0.000037
# 6 -0.000019 0.000011 0.000012 -0.009753 0.000037 0.053309
#
#
# Mechanical properties :
#
#
# Convention : Reuss Voigt Hill
#
# Bulk Modulus (GPa) = 41.29571 46.85158 44.07365
# Shear Modulus (GPa) = 24.17631 27.26628 25.72129
#
# Velocity S-wave (km/s) = 3.41920 3.63113 3.52676
# Velocity P-wave (km/s) = 5.96299 6.34320 6.15603
#
# Compressibility (1/GPa) = 0.02421559
#
# Stress axis : x y z
#
# Youngs Moduli (GPa) = 46.27926 89.84070 64.59605
#
# Poissons Ratio (x) = 0.49365 0.26729
# Poissons Ratio (y) = 0.25429 0.15305
# Poissons Ratio (z) = 0.19150 0.21287
#
# Static dielectric constant tensor:
#      x y z
#    x 3.669680 -0.000030 0.082740 
#    y -0.000030 3.937690 -0.000390 
#    z 0.082740 -0.000390 3.731640 
# 
# 
# High freq. dielectric constant tensor:
#      x y z
#    x 1.798770 0.000000 0.005780 
#    y 0.000000 1.816310 -0.000040 
#    z 0.005780 -0.000040 1.801520 
# 
# From -- ./inp_files/301354.got.cif
#   From: 2010.06.25/outbox.cif.g09.slc.cpg/sg15_151_cif.got.tgz:301354.got - 2010.06.28 07:06:18.
