data_PCOD8139037
_publ_section_title
;
Structure prediction by ZEFSAII (Michael W. Deem and Ramdas Pophale) SiO2 
 PCOD8139037
Probable space group: C 2/C
;
_chemical_formula_sum "Si O2"
_cell_formula_units_Z 56
_cell_length_a 19.330467
_cell_length_b 8.391575
_cell_length_c 19.523795
_cell_angle_alpha 90.000000
_cell_angle_beta 60.102988
_cell_angle_gamma 90.000000
_cell_volume 2745.556988
_symmetry_space_group_name_H-M "C 2/C"
_symmetry_group_IT_number 15
_symmetry_cell_setting 'monoclinic'
loop_
_space_group_symop_operation_xyz
x,y,z
-x,y,1/2-z
-x,-y,-z
x,-y,1/2+z
1/2+x,1/2+y,z
1/2-x,1/2+y,1/2-z
1/2-x,1/2-y,-z
1/2+x,1/2-y,1/2+z
loop_
_atom_site_type_symbol
_atom_site_label
_atom_site_fract_x
_atom_site_fract_y
_atom_site_fract_z
Si Si1 0.985012 0.203823 0.053494
Si Si2 0.254781 0.910498 0.870525
Si Si3 0.802324 0.411083 0.472736
Si Si4 0.841804 0.403815 0.089373
Si Si5 0.477714 0.884307 0.336157
Si Si6 0.887230 0.602099 0.197034
Si Si7 0.109984 0.888717 0.395902
O O1 0.926715 0.314734 0.035655
O O2 0.983935 0.258201 0.131748
O O3 0.956099 0.024400 0.076369
O O4 0.074050 0.219068 0.976482
O O5 0.225243 0.731592 0.873528
O O6 0.339657 0.923674 0.791073
O O7 0.258705 0.951759 0.949440
O O8 0.196959 0.042634 0.866107
O O9 0.750000 0.250000 0.500000
O O10 0.819825 0.474677 0.539834
O O11 0.883530 0.383783 0.391539
O O12 0.843494 0.500954 0.159178
O O13 0.500000 0.824655 0.250000
O O14 0.521278 0.052265 0.332407
O O15 0.887572 0.786613 0.174732
#
# Coordination Sequence:
#
# PCOD8139037 Si02
#       7
#     8   8   8   8   8   8   8
#     4   9  20  39  64  87 116 157 202 251 293 355
#     4  11  22  38  58  89 127 153 197 252 300 354
#     4  12  24  40  62  90 121 163 201 248 301 361
#     4  10  22  38  62  89 119 158 201 245 297 360
#     4  11  22  41  60  85 124 157 201 250 304 357
#     4  11  21  39  62  88 118 162 198 249 298 359
#     4  10  20  38  64  89 116 155 206 246 295 359
#
# _framework density 20.396591000000001
#
# number of rings (size 3 to 8) (size 9 to 14) (size 15 to 20)
#    0.000    1.429    1.429    4.714    0.000    2.286 
#    5.143    2.143    0.000    0.000    0.000    0.000 
#    0.000    0.000    0.000    0.000    0.000    0.000 
#
# Total GULP energy -347123.514062 kJ/mol
# GULP energy per Si atom -12397.268359 kJ/mol
# Density = 2.035017 g / cm^3
# Si number density = 20.396591 Si / 1000 Ang^3
#
#
#
# Elastic Constant Matrix: (Units=GPa)
#
#
# Indices 1 2 3 4 5 6 
#
# 1 87.1506 38.4125 38.3218 0.0001 -8.6967 0.0003
# 2 38.4125 88.5441 31.1442 0.0004 1.4627 0.0006
# 3 38.3218 31.1442 103.6736 -0.0001 3.8029 -0.0006
# 4 0.0001 0.0004 -0.0001 21.6578 -0.0001 -0.4003
# 5 -8.6967 1.4627 3.8029 -0.0001 40.6828 0.0002
# 6 0.0003 0.0006 -0.0006 -0.4003 0.0002 17.6357
#
#
#
# Elastic Compliance Matrix: (Units=1/GPa)
#
#
# Indices 1 2 3 4 5 6 
#
# 1 0.016320 -0.005560 -0.004513 0.000000 0.004110 0.000000
# 2 -0.005560 0.014523 -0.002252 0.000000 -0.001500 0.000000
# 3 -0.004513 -0.002252 0.012064 0.000000 -0.002011 0.000001
# 4 0.000000 0.000000 0.000000 0.046192 0.000000 0.001049
# 5 0.004110 -0.001500 -0.002011 0.000000 0.025701 0.000000
# 6 0.000000 0.000000 0.000001 0.001049 0.000000 0.056727
#
#
# Mechanical properties :
#
#
# Convention : Reuss Voigt Hill
#
# Bulk Modulus (GPa) = 54.77757 55.01395 54.89576
# Shear Modulus (GPa) = 24.72020 27.42792 26.07406
#
# Velocity S-wave (km/s) = 3.48512 3.67104 3.57929
# Velocity P-wave (km/s) = 6.56577 6.70816 6.63734
#
# Compressibility (1/GPa) = 0.01825565
#
# Stress axis : x y z
#
# Youngs Moduli (GPa) = 61.27536 68.85574 82.88993
#
# Poissons Ratio (x) = 0.38287 0.37407
# Poissons Ratio (y) = 0.34072 0.18670
# Poissons Ratio (z) = 0.27652 0.15509
#
# Static dielectric constant tensor:
#      x y z
#    x 3.871070 0.000000 -0.017720 
#    y 0.000000 3.705560 0.000000 
#    z -0.017720 0.000000 3.745750 
# 
# 
# High freq. dielectric constant tensor:
#      x y z
#    x 1.801830 0.000000 -0.001480 
#    y 0.000000 1.799040 0.000000 
#    z -0.001480 0.000000 1.796410 
# 
# From -- ./inp_files/209501.got.cif
#   From: 2010.06.25/outbox.cif.g09.slc.cpg/sg15_105_cif.got.tgz:209501.got - 2010.06.28 07:06:18.
