data_PCOD8139177
_publ_section_title
;
Structure prediction by ZEFSAII (Michael W. Deem and Ramdas Pophale) SiO2 
 PCOD8139177
Probable space group: C 2/C
;
_chemical_formula_sum "Si O2"
_cell_formula_units_Z 60
_cell_length_a 17.590966
_cell_length_b 9.923389
_cell_length_c 21.311795
_cell_angle_alpha 90.000000
_cell_angle_beta 54.005025
_cell_angle_gamma 90.000000
_cell_volume 3009.920678
_symmetry_space_group_name_H-M "C 2/C"
_symmetry_group_IT_number 15
_symmetry_cell_setting 'monoclinic'
loop_
_space_group_symop_operation_xyz
x,y,z
-x,y,1/2-z
-x,-y,-z
x,-y,1/2+z
1/2+x,1/2+y,z
1/2-x,1/2+y,1/2-z
1/2-x,1/2-y,-z
1/2+x,1/2-y,1/2+z
loop_
_atom_site_type_symbol
_atom_site_label
_atom_site_fract_x
_atom_site_fract_y
_atom_site_fract_z
Si Si1 0.034256 0.771442 0.846205
Si Si2 0.811239 0.017045 0.215882
Si Si3 0.850466 0.625000 0.284506
Si Si4 0.952967 0.356301 0.024014
Si Si5 0.932942 0.992506 0.343188
Si Si6 0.041344 0.210809 0.866052
Si Si7 0.500000 0.068514 0.750000
Si Si8 0.259774 0.606154 0.866654
O O1 0.032552 0.707881 0.915325
O O2 0.019056 0.656398 0.802197
O O3 0.133973 0.847958 0.788477
O O4 0.950109 0.879714 0.880103
O O5 0.882670 0.904717 0.156459
O O6 0.749891 0.958758 0.302702
O O7 0.742658 0.048080 0.192085
O O8 0.913164 0.664455 0.193518
O O9 0.820163 0.757105 0.336793
O O10 0.908983 0.527775 0.302484
O O11 0.843972 0.370662 0.056739
O O12 0.000000 0.500000 0.000000
O O13 0.002290 0.259009 0.950955
O O14 0.822487 0.993140 0.379376
O O15 0.000000 0.008868 0.250000
O O16 0.957915 0.852934 0.365346
#
# Coordination Sequence:
#
# PCOD8139177 Si02
#       8
#     8   8   8   8   8   8   4   8
#     4  11  22  41  66  93 132 172 213 265 330 375
#     4  10  20  38  66  94 118 172 232 263 305 386
#     4  11  21  37  64 100 122 165 227 272 316 377
#     4  12  26  45  62  95 140 174 210 266 333 399
#     4  11  19  41  68  97 128 168 221 280 319 372
#     4  10  23  40  65  90 134 173 208 270 331 389
#     4  12  22  34  64 102 132 154 214 288 320 354
#     4  11  21  39  66  95 127 168 221 274 317 379
#
# _framework density 19.934080000000002
#
# number of rings (size 3 to 8) (size 9 to 14) (size 15 to 20)
#    0.000    1.067    6.000    3.200    1.867    2.667 
#    2.400    0.667    0.000    0.000    0.000    0.000 
#    0.000    0.000    0.000    0.000    0.000    0.000 
#
# Total GULP energy -372041.841128 kJ/mol
# GULP energy per Si atom -12401.394704 kJ/mol
# Density = 1.988871 g / cm^3
# Si number density = 19.934080 Si / 1000 Ang^3
#
#
#
# Elastic Constant Matrix: (Units=GPa)
#
#
# Indices 1 2 3 4 5 6 
#
# 1 136.1005 48.4719 25.8182 0.0000 -7.8286 0.0000
# 2 48.4719 103.8232 37.8182 0.0000 -2.5927 0.0001
# 3 25.8182 37.8182 79.8931 0.0000 -6.7372 0.0000
# 4 0.0000 0.0000 0.0000 23.7024 0.0000 10.1442
# 5 -7.8286 -2.5927 -6.7372 0.0000 19.7234 0.0000
# 6 0.0000 0.0001 0.0000 10.1442 0.0000 41.2451
#
#
#
# Elastic Compliance Matrix: (Units=1/GPa)
#
#
# Indices 1 2 3 4 5 6 
#
# 1 0.009038 -0.003833 -0.000872 0.000000 0.002786 0.000000
# 2 -0.003833 0.013266 -0.005171 0.000000 -0.001544 0.000000
# 3 -0.000872 -0.005171 0.015609 0.000000 0.004306 0.000000
# 4 0.000000 0.000000 0.000000 0.047153 0.000000 -0.011597
# 5 0.002786 -0.001544 0.004306 0.000000 0.053075 0.000000
# 6 0.000000 0.000000 0.000000 -0.011597 0.000000 0.027098
#
#
# Mechanical properties :
#
#
# Convention : Reuss Voigt Hill
#
# Bulk Modulus (GPa) = 55.05805 60.44818 57.75311
# Shear Modulus (GPa) = 26.17186 30.78141 28.47663
#
# Velocity S-wave (km/s) = 3.62736 3.93384 3.78370
# Velocity P-wave (km/s) = 6.72485 7.14306 6.93711
#
# Compressibility (1/GPa) = 0.01816265
#
# Stress axis : x y z
#
# Youngs Moduli (GPa) = 110.64328 75.37959 64.06373
#
# Poissons Ratio (x) = 0.28889 0.05584
# Poissons Ratio (y) = 0.42404 0.33130
# Poissons Ratio (z) = 0.09644 0.38981
#
# Static dielectric constant tensor:
#      x y z
#    x 3.981680 0.000000 0.092220 
#    y 0.000000 4.321180 0.000000 
#    z 0.092220 0.000000 3.393660 
# 
# 
# High freq. dielectric constant tensor:
#      x y z
#    x 1.796440 0.000000 0.003510 
#    y 0.000000 1.794290 0.000000 
#    z 0.003510 0.000000 1.737260 
# 
# From -- ./inp_files/247804.got.cif
#   From: 2010.06.25/outbox.cif.g09.slc.cpg/sg15_124_cif.got.tgz:247804.got - 2010.06.28 07:06:18.
