data_PCOD8139733
_publ_section_title
;
Structure prediction by ZEFSAII (Michael W. Deem and Ramdas Pophale) SiO2 
 PCOD8139733
Probable space group: C 2/C
;
_chemical_formula_sum "Si O2"
_cell_formula_units_Z 60
_cell_length_a 16.466997
_cell_length_b 17.888858
_cell_length_c 16.803551
_cell_angle_alpha 90.000000
_cell_angle_beta 32.223791
_cell_angle_gamma 90.000000
_cell_volume 2639.433404
_symmetry_space_group_name_H-M "C 2/C"
_symmetry_group_IT_number 15
_symmetry_cell_setting 'monoclinic'
loop_
_space_group_symop_operation_xyz
x,y,z
-x,y,1/2-z
-x,-y,-z
x,-y,1/2+z
1/2+x,1/2+y,z
1/2-x,1/2+y,1/2-z
1/2-x,1/2-y,-z
1/2+x,1/2-y,1/2+z
loop_
_atom_site_type_symbol
_atom_site_label
_atom_site_fract_x
_atom_site_fract_y
_atom_site_fract_z
Si Si1 0.689261 0.031104 0.003549
Si Si2 0.431249 0.907087 0.608181
Si Si3 0.649350 0.520362 0.277798
Si Si4 0.539229 0.385535 0.461362
Si Si5 0.793262 0.775942 0.661832
Si Si6 0.500000 0.080396 0.750000
Si Si7 0.322602 0.687643 0.886964
Si Si8 0.619201 0.847443 0.306474
O O1 0.533349 0.057721 0.091982
O O2 0.643956 0.974381 0.111841
O O3 0.770820 0.107155 0.963475
O O4 0.809536 0.986220 0.848827
O O5 0.308595 0.972051 0.693226
O O6 0.350449 0.829796 0.702300
O O7 0.532375 0.893517 0.446484
O O8 0.548412 0.449673 0.387283
O O9 0.549283 0.592515 0.383485
O O10 0.437202 0.320577 0.504141
O O11 0.706382 0.367814 0.350180
O O12 0.736274 0.705549 0.654525
O O13 0.868516 0.740106 0.679394
O O14 0.466475 0.136124 0.704819
O O15 0.500000 0.694298 0.750000
O O16 0.250000 0.750000 0.000000
#
# Coordination Sequence:
#
# PCOD8139733 Si02
#       8
#     8   8   8   8   8   4   8   8
#     4  12  24  44  70  99 147 185 232 297 360 438
#     4  11  21  41  76 100 133 187 242 286 363 428
#     4  10  20  39  69 105 134 174 236 296 352 420
#     4  10  22  39  72 106 132 182 241 296 350 431
#     4  11  25  45  73 102 144 192 239 291 365 438
#     4  12  30  44  70 112 144 194 246 306 360 412
#     4  12  29  44  66 106 149 182 229 298 374 442
#     4  12  23  46  71 100 141 190 246 296 349 433
#
# _framework density 22.732150000000001
#
# number of rings (size 3 to 8) (size 9 to 14) (size 15 to 20)
#    0.000    0.800    4.000    2.800    6.533    1.067 
#    0.000    2.667    0.000    0.000    0.000    0.000 
#    0.000    0.000    0.000    0.000    0.000    0.000 
#
# Total GULP energy -371797.957374 kJ/mol
# GULP energy per Si atom -12393.265246 kJ/mol
# Density = 2.268041 g / cm^3
# Si number density = 22.732150 Si / 1000 Ang^3
#
#
#
# Elastic Constant Matrix: (Units=GPa)
#
#
# Indices 1 2 3 4 5 6 
#
# 1 81.6699 28.7585 30.1793 0.0007 -9.2244 -0.0021
# 2 28.7585 84.4655 33.2893 -0.0029 -1.5490 -0.0028
# 3 30.1793 33.2893 129.4512 -0.0054 -14.5758 -0.0009
# 4 0.0007 -0.0029 -0.0054 22.7687 0.0028 -4.0134
# 5 -9.2244 -1.5490 -14.5758 0.0028 37.6693 0.0006
# 6 -0.0021 -0.0028 -0.0009 -4.0134 0.0006 37.0747
#
#
#
# Elastic Compliance Matrix: (Units=1/GPa)
#
#
# Indices 1 2 3 4 5 6 
#
# 1 0.014777 -0.004164 -0.002076 -0.000002 0.002644 0.000000
# 2 -0.004164 0.014371 -0.002899 0.000002 -0.001551 0.000001
# 3 -0.002076 -0.002899 0.009289 0.000002 0.002966 0.000000
# 4 -0.000002 0.000002 0.000002 0.044774 -0.000003 0.004847
# 5 0.002644 -0.001551 0.002966 -0.000003 0.028278 -0.000001
# 6 0.000000 0.000001 0.000000 0.004847 -0.000001 0.027497
#
#
# Mechanical properties :
#
#
# Convention : Reuss Voigt Hill
#
# Bulk Modulus (GPa) = 49.61211 53.33786 51.47499
# Shear Modulus (GPa) = 30.49050 33.05984 31.77517
#
# Velocity S-wave (km/s) = 3.66634 3.81769 3.74278
# Velocity P-wave (km/s) = 6.30831 6.55344 6.43204
#
# Compressibility (1/GPa) = 0.02015637
#
# Stress axis : x y z
#
# Youngs Moduli (GPa) = 67.67428 69.58321 107.65867
#
# Poissons Ratio (x) = 0.28976 0.22354
# Poissons Ratio (y) = 0.28181 0.31215
# Poissons Ratio (z) = 0.14052 0.20175
#
# Static dielectric constant tensor:
#      x y z
#    x 4.000040 -0.000020 -0.095630 
#    y -0.000020 4.484330 0.000010 
#    z -0.095630 0.000010 4.557350 
# 
# 
# High freq. dielectric constant tensor:
#      x y z
#    x 1.861210 0.000000 -0.018390 
#    y 0.000000 1.905160 0.000000 
#    z -0.018390 0.000000 1.923400 
# 
# From -- ./inp_files/156349.got.cif
#   From: 2010.06.25/outbox.cif.g09.slc.cpg/sg15_79_cif.got.tgz:156349.got - 2010.06.28 07:06:18.
