data_PCOD8139901
_publ_section_title
;
Structure prediction by ZEFSAII (Michael W. Deem and Ramdas Pophale) SiO2 
 PCOD8139901
Probable space group: C 2/C
;
_chemical_formula_sum "Si O2"
_cell_formula_units_Z 40
_cell_length_a 25.851193
_cell_length_b 6.839864
_cell_length_c 13.798985
_cell_angle_alpha 90.000000
_cell_angle_beta 58.348682
_cell_angle_gamma 90.000000
_cell_volume 2076.997796
_symmetry_space_group_name_H-M "C 2/C"
_symmetry_group_IT_number 15
_symmetry_cell_setting 'monoclinic'
loop_
_space_group_symop_operation_xyz
x,y,z
-x,y,1/2-z
-x,-y,-z
x,-y,1/2+z
1/2+x,1/2+y,z
1/2-x,1/2+y,1/2-z
1/2-x,1/2-y,-z
1/2+x,1/2-y,1/2+z
loop_
_atom_site_type_symbol
_atom_site_label
_atom_site_fract_x
_atom_site_fract_y
_atom_site_fract_z
Si Si1 0.490189 0.419910 0.871597
Si Si2 0.420516 0.708626 0.064243
Si Si3 0.813746 0.052083 0.696424
Si Si4 0.266790 0.817529 0.590020
Si Si5 0.390421 0.135129 0.046457
O O1 0.500000 0.452966 0.750000
O O2 0.554444 0.359682 0.855837
O O3 0.466120 0.625491 0.937916
O O4 0.441959 0.249562 0.938139
O O5 0.351942 0.630850 0.116885
O O6 0.419834 0.941693 0.060623
O O7 0.764455 0.127249 0.664560
O O8 0.862452 0.231290 0.662509
O O9 0.779838 0.985913 0.827695
O O10 0.250000 0.750000 0.500000
O O11 0.335160 0.906741 0.524944
#
# Coordination Sequence:
#
# PCOD8139901 Si02
#       5
#     8   8   8   8   8
#     4  10  22  38  61  91 123 158 202 251 306 367
#     4  10  20  40  63  85 126 159 197 257 306 366
#     4   9  21  37  61  88 120 164 199 257 308 361
#     4  10  21  40  62  87 126 161 208 257 305 365
#     4   9  21  39  61  89 120 161 207 241 315 365
#
# _framework density 19.258565999999998
#
# number of rings (size 3 to 8) (size 9 to 14) (size 15 to 20)
#    1.200    1.200    0.000    1.800    2.800    0.800 
#    0.000    8.000    0.000    0.000    0.000    0.000 
#    0.000    0.000    0.000    0.000    0.000    0.000 
#
# Total GULP energy -247787.916716 kJ/mol
# GULP energy per Si atom -12389.395836 kJ/mol
# Density = 1.921473 g / cm^3
# Si number density = 19.258566 Si / 1000 Ang^3
#
#
#
# Elastic Constant Matrix: (Units=GPa)
#
#
# Indices 1 2 3 4 5 6 
#
# 1 82.1965 34.0388 50.4184 0.0000 9.6905 -0.0001
# 2 34.0388 107.0323 57.1994 -0.0001 4.0888 -0.0007
# 3 50.4184 57.1994 99.0830 0.0001 20.2814 -0.0001
# 4 0.0000 -0.0001 0.0001 20.0305 0.0000 -6.0918
# 5 9.6905 4.0888 20.2814 0.0000 35.2250 0.0000
# 6 -0.0001 -0.0007 -0.0001 -6.0918 0.0000 27.8492
#
#
#
# Elastic Compliance Matrix: (Units=1/GPa)
#
#
# Indices 1 2 3 4 5 6 
#
# 1 0.017790 -0.001178 -0.008387 0.000000 0.000072 0.000000
# 2 -0.001178 0.013939 -0.008142 0.000000 0.003394 0.000000
# 3 -0.008387 -0.008142 0.020852 0.000000 -0.008754 0.000000
# 4 0.000000 0.000000 0.000000 0.053482 0.000000 0.011699
# 5 0.000072 0.003394 -0.008754 0.000000 0.033015 0.000000
# 6 0.000000 0.000000 0.000000 0.011699 0.000000 0.038467
#
#
# Mechanical properties :
#
#
# Convention : Reuss Voigt Hill
#
# Bulk Modulus (GPa) = 58.25133 63.51390 60.88262
# Shear Modulus (GPa) = 22.86421 26.39795 24.63108
#
# Velocity S-wave (km/s) = 3.44935 3.70633 3.58015
# Velocity P-wave (km/s) = 6.79534 7.16708 6.98368
#
# Compressibility (1/GPa) = 0.01716699
#
# Stress axis : x y z
#
# Youngs Moduli (GPa) = 56.21181 71.73957 47.95619
#
# Poissons Ratio (x) = 0.08453 0.40220
# Poissons Ratio (y) = 0.06624 0.39047
# Poissons Ratio (z) = 0.47144 0.58411
#
# Static dielectric constant tensor:
#      x y z
#    x 3.523880 0.000000 -0.268390 
#    y 0.000000 3.479410 0.000000 
#    z -0.268390 0.000000 3.227760 
# 
# 
# High freq. dielectric constant tensor:
#      x y z
#    x 1.745370 0.000000 -0.028470 
#    y 0.000000 1.748210 0.000000 
#    z -0.028470 0.000000 1.726840 
# 
# From -- ./inp_files/179598.got.cif
#   From: 2010.06.25/outbox.cif.g09.slc.cpg/sg15_90_cif.got.tgz:179598.got - 2010.06.28 07:06:18.
