data_PCOD8139031
_publ_section_title
;
Structure prediction by ZEFSAII (Michael W. Deem and Ramdas Pophale) SiO2 
 PCOD8139031
Probable space group: C 2/C
;
_chemical_formula_sum "Si O2"
_cell_formula_units_Z 44
_cell_length_a 32.573850
_cell_length_b 6.487352
_cell_length_c 9.779876
_cell_angle_alpha 90.000000
_cell_angle_beta 96.846277
_cell_angle_gamma 90.000000
_cell_volume 2051.927896
_symmetry_space_group_name_H-M "C 2/C"
_symmetry_group_IT_number 15
_symmetry_cell_setting 'monoclinic'
loop_
_space_group_symop_operation_xyz
x,y,z
-x,y,1/2-z
-x,-y,-z
x,-y,1/2+z
1/2+x,1/2+y,z
1/2-x,1/2+y,1/2-z
1/2-x,1/2-y,-z
1/2+x,1/2-y,1/2+z
loop_
_atom_site_type_symbol
_atom_site_label
_atom_site_fract_x
_atom_site_fract_y
_atom_site_fract_z
Si Si1 0.041046 0.944903 0.595555
Si Si2 0.000000 0.601388 0.750000
Si Si3 0.233496 0.945783 0.913334
Si Si4 0.925885 0.646118 0.258170
Si Si5 0.892930 0.657739 0.969685
Si Si6 0.801628 0.230020 0.372415
O O1 0.080160 0.868852 0.523573
O O2 0.026274 0.739126 0.661044
O O3 0.058260 0.124430 0.699801
O O4 0.000000 0.000000 0.500000
O O5 0.963683 0.451158 0.682456
O O6 0.205712 0.884425 0.773476
O O7 0.272269 0.072686 0.872235
O O8 0.250000 0.750000 0.000000
O O9 0.205089 0.078518 0.002853
O O10 0.888759 0.623968 0.132601
O O11 0.913121 0.533617 0.394162
O O12 0.848269 0.692700 0.888365
#
# Coordination Sequence:
#
# PCOD8139031 Si02
#       6
#     8   4   8   8   8   8
#     4  11  22  40  65  92 132 178 222 272 333 399
#     4  10  20  38  64  88 122 172 226 260 332 388
#     4  11  24  46  72  99 137 177 226 274 341 411
#     4  11  24  43  63  96 135 172 221 283 330 399
#     4  11  27  41  65 100 133 174 222 277 339 396
#     4  11  26  45  71 103 134 180 224 281 343 408
#
# _framework density 21.443249999999999
#
# number of rings (size 3 to 8) (size 9 to 14) (size 15 to 20)
#    0.000    1.091    1.818    3.818    5.091    5.818 
#    0.000    0.000    0.000    0.000    0.000    0.000 
#    0.000    0.000    0.000    0.000    0.000    0.000 
#
# Total GULP energy -272545.943473 kJ/mol
# GULP energy per Si atom -12388.451976 kJ/mol
# Density = 2.139444 g / cm^3
# Si number density = 21.443250 Si / 1000 Ang^3
#
#
#
# Elastic Constant Matrix: (Units=GPa)
#
#
# Indices 1 2 3 4 5 6 
#
# 1 70.3306 7.7419 12.7139 0.0000 10.8389 0.0000
# 2 7.7419 83.4611 23.1217 0.0000 -0.9582 0.0000
# 3 12.7139 23.1217 132.0002 0.0000 14.6911 0.0000
# 4 0.0000 0.0000 0.0000 30.7735 0.0000 3.5831
# 5 10.8389 -0.9582 14.6911 0.0000 31.4895 0.0000
# 6 0.0000 0.0000 0.0000 3.5831 0.0000 24.9466
#
#
#
# Elastic Compliance Matrix: (Units=1/GPa)
#
#
# Indices 1 2 3 4 5 6 
#
# 1 0.015250 -0.001280 -0.000692 0.000000 -0.004965 0.000000
# 2 -0.001280 0.012767 -0.002326 0.000000 0.001914 0.000000
# 3 -0.000692 -0.002326 0.008471 0.000000 -0.003785 0.000000
# 4 0.000000 0.000000 0.000000 0.033048 0.000000 -0.004747
# 5 -0.004965 0.001914 -0.003785 0.000000 0.035290 0.000000
# 6 0.000000 0.000000 0.000000 -0.004747 0.000000 0.040767
#
#
# Mechanical properties :
#
#
# Convention : Reuss Voigt Hill
#
# Bulk Modulus (GPa) = 35.85300 41.43856 38.64578
# Shear Modulus (GPa) = 30.58368 33.58954 32.08661
#
# Velocity S-wave (km/s) = 3.78069 3.96212 3.87247
# Velocity P-wave (km/s) = 5.98451 6.34806 6.16896
#
# Compressibility (1/GPa) = 0.02789167
#
# Stress axis : x y z
#
# Youngs Moduli (GPa) = 65.57482 78.32866 118.04902
#
# Poissons Ratio (x) = 0.10025 0.08169
# Poissons Ratio (y) = 0.08393 0.27459
# Poissons Ratio (z) = 0.04538 0.18220
#
# Static dielectric constant tensor:
#      x y z
#    x 3.856380 0.000000 -0.091810 
#    y 0.000000 3.886160 0.000000 
#    z -0.091810 0.000000 3.778010 
# 
# 
# High freq. dielectric constant tensor:
#      x y z
#    x 1.840650 0.000000 0.003460 
#    y 0.000000 1.858920 0.000000 
#    z 0.003460 0.000000 1.847560 
# 
# From -- ./inp_files/125047.got.cif
#   From: 2010.06.25/outbox.cif.g09.slc.cpg/sg15_63_cif.got.tgz:125047.got - 2010.06.28 07:06:18.
