data_PCOD8139784
_publ_section_title
;
Structure prediction by ZEFSAII (Michael W. Deem and Ramdas Pophale) SiO2 
 PCOD8139784
Probable space group: C 2/C
;
_chemical_formula_sum "Si O2"
_cell_formula_units_Z 40
_cell_length_a 12.028810
_cell_length_b 30.878741
_cell_length_c 5.193615
_cell_angle_alpha 90.000000
_cell_angle_beta 78.136840
_cell_angle_gamma 90.000000
_cell_volume 1887.885158
_symmetry_space_group_name_H-M "C 2/C"
_symmetry_group_IT_number 15
_symmetry_cell_setting 'monoclinic'
loop_
_space_group_symop_operation_xyz
x,y,z
-x,y,1/2-z
-x,-y,-z
x,-y,1/2+z
1/2+x,1/2+y,z
1/2-x,1/2+y,1/2-z
1/2-x,1/2-y,-z
1/2+x,1/2-y,1/2+z
loop_
_atom_site_type_symbol
_atom_site_label
_atom_site_fract_x
_atom_site_fract_y
_atom_site_fract_z
Si Si1 0.132108 0.526191 0.702267
Si Si2 0.255646 0.387406 0.311114
Si Si3 0.197579 0.335195 0.846486
Si Si4 0.093391 0.784849 0.892414
Si Si5 0.000000 0.285518 0.750000
Si Si6 0.500000 0.361717 0.250000
O O1 0.162542 0.510554 0.399566
O O2 0.204113 0.566936 0.757964
O O3 0.000000 0.538882 0.750000
O O4 0.216218 0.371332 0.613071
O O5 0.392853 0.391678 0.223536
O O6 0.213420 0.352947 0.124054
O O7 0.283376 0.294552 0.779973
O O8 0.069209 0.317318 0.905967
O O9 0.000000 0.764300 0.750000
O O10 0.100045 0.746017 0.095043
O O11 0.041500 0.830851 0.002402
#
# Coordination Sequence:
#
# PCOD8139784 Si02
#       6
#     8   8   8   8   4   4
#     4  10  22  41  65  93 125 160 190 236 305 369
#     4  11  23  41  66  89 125 155 207 249 300 361
#     4  11  25  39  60  92 120 163 206 256 303 353
#     4  10  20  40  59  79 123 167 205 247 312 358
#     4  11  26  36  58  88 122 160 212 264 300 352
#     4   9  20  40  60  90 114 170 202 248 296 362
#
# _framework density 21.187728
#
# number of rings (size 3 to 8) (size 9 to 14) (size 15 to 20)
#    0.000    1.600    2.000    1.800    5.600    0.800 
#    0.000    1.000    0.000    0.000    0.000    0.000 
#    0.000    0.000    0.000    0.000    0.000    0.000 
#
# Total GULP energy -247818.043433 kJ/mol
# GULP energy per Si atom -12390.902172 kJ/mol
# Density = 2.113950 g / cm^3
# Si number density = 21.187728 Si / 1000 Ang^3
#
#
#
# Elastic Constant Matrix: (Units=GPa)
#
#
# Indices 1 2 3 4 5 6 
#
# 1 112.2565 51.1361 0.3302 0.0000 14.6761 0.0000
# 2 51.1361 81.4350 1.4509 0.0000 3.2897 0.0000
# 3 0.3302 1.4509 56.5642 0.0000 13.2754 0.0000
# 4 0.0000 0.0000 0.0000 31.7794 0.0000 3.3337
# 5 14.6761 3.2897 13.2754 0.0000 28.4201 0.0000
# 6 0.0000 0.0000 0.0000 3.3337 0.0000 37.4448
#
#
#
# Elastic Compliance Matrix: (Units=1/GPa)
#
#
# Indices 1 2 3 4 5 6 
#
# 1 0.013570 -0.008275 0.001744 0.000000 -0.006864 0.000000
# 2 -0.008275 0.017383 -0.001043 0.000000 0.002748 0.000000
# 3 0.001744 -0.001043 0.020080 0.000000 -0.010160 0.000000
# 4 0.000000 0.000000 0.000000 0.031764 0.000000 -0.002828
# 5 -0.006864 0.002748 -0.010160 0.000000 0.043159 0.000000
# 6 0.000000 0.000000 0.000000 -0.002828 0.000000 0.026958
#
#
# Mechanical properties :
#
#
# Convention : Reuss Voigt Hill
#
# Bulk Modulus (GPa) = 27.86543 39.56555 33.71549
# Shear Modulus (GPa) = 27.77438 32.68478 30.22958
#
# Velocity S-wave (km/s) = 3.62452 3.93189 3.78133
# Velocity P-wave (km/s) = 5.54044 6.27115 5.91709
#
# Compressibility (1/GPa) = 0.03588677
#
# Stress axis : x y z
#
# Youngs Moduli (GPa) = 73.69256 57.52626 49.80073
#
# Poissons Ratio (x) = 0.47602 -0.08686
# Poissons Ratio (y) = 0.60979 0.05192
# Poissons Ratio (z) = -0.12853 0.05997
#
# Static dielectric constant tensor:
#      x y z
#    x 3.995720 0.000000 0.171100 
#    y 0.000000 3.553900 0.000000 
#    z 0.171100 0.000000 3.886560 
# 
# 
# High freq. dielectric constant tensor:
#      x y z
#    x 1.841740 0.000000 0.015240 
#    y 0.000000 1.809430 0.000000 
#    z 0.015240 0.000000 1.830390 
# 
# From -- ./inp_files/4987.got.cif
#   From: 2010.06.25/outbox.cif.g09.slc.cpg/sg15_3_cif.got.tgz:4987.got - 2010.06.28 07:06:18.
