data_PCOD8139903
_publ_section_title
;
Structure prediction by ZEFSAII (Michael W. Deem and Ramdas Pophale) SiO2 
 PCOD8139903
Probable space group: C 2/C
;
_chemical_formula_sum "Si O2"
_cell_formula_units_Z 64
_cell_length_a 27.931327
_cell_length_b 11.295104
_cell_length_c 20.821932
_cell_angle_alpha 90.000000
_cell_angle_beta 29.941174
_cell_angle_gamma 90.000000
_cell_volume 3278.684329
_symmetry_space_group_name_H-M "C 2/C"
_symmetry_group_IT_number 15
_symmetry_cell_setting 'monoclinic'
loop_
_space_group_symop_operation_xyz
x,y,z
-x,y,1/2-z
-x,-y,-z
x,-y,1/2+z
1/2+x,1/2+y,z
1/2-x,1/2+y,1/2-z
1/2-x,1/2-y,-z
1/2+x,1/2-y,1/2+z
loop_
_atom_site_type_symbol
_atom_site_label
_atom_site_fract_x
_atom_site_fract_y
_atom_site_fract_z
Si Si1 0.840939 0.514531 0.200437
Si Si2 0.274442 0.205813 0.369721
Si Si3 0.240453 0.137137 0.143727
Si Si4 0.896652 0.277460 0.554516
Si Si5 0.892036 0.451813 0.365613
Si Si6 0.105380 0.725555 0.149774
Si Si7 0.405555 0.831533 0.220304
Si Si8 0.702454 0.591927 0.756053
O O1 0.778531 0.580919 0.327744
O O2 0.909406 0.613713 0.089371
O O3 0.903965 0.411928 0.158837
O O4 0.779443 0.447662 0.218720
O O5 0.183052 0.194192 0.522755
O O6 0.370884 0.232297 0.300988
O O7 0.254898 0.309557 0.341363
O O8 0.294954 0.206083 0.137146
O O9 0.163786 0.220437 0.200279
O O10 0.179502 0.024841 0.240944
O O11 0.320122 0.104790 0.999317
O O12 0.889650 0.151629 0.600989
O O13 0.986013 0.279828 0.401569
O O14 0.883083 0.591037 0.385896
O O15 0.867771 0.411884 0.322176
O O16 0.000000 0.406697 0.250000
O O17 0.000000 0.771334 0.250000
#
# Coordination Sequence:
#
# PCOD8139903 Si02
#       8
#     8   8   8   8   8   8   8   8
#     4  10  21  37  61  89 117 159 197 247 302 356
#     4  10  20  40  63  86 126 156 195 259 303 358
#     4  11  22  39  60  86 121 158 200 243 305 360
#     4  10  22  39  59  87 120 151 201 249 290 362
#     4  11  21  38  62  88 118 152 203 260 296 355
#     4  10  21  37  64  92 115 154 206 255 306 360
#     4  12  22  38  61  87 118 157 201 240 302 359
#     4  10  21  41  61  85 126 161 195 246 306 361
#
# _framework density 19.520025
#
# number of rings (size 3 to 8) (size 9 to 14) (size 15 to 20)
#    0.000    1.500    5.000    0.750    0.000    0.500 
#    4.500    1.250    0.000    1.500    0.000    0.000 
#    0.000    0.000    0.000    0.000    0.000    0.000 
#
# Total GULP energy -396610.158432 kJ/mol
# GULP energy per Si atom -12394.067451 kJ/mol
# Density = 1.947560 g / cm^3
# Si number density = 19.520025 Si / 1000 Ang^3
#
#
#
# Elastic Constant Matrix: (Units=GPa)
#
#
# Indices 1 2 3 4 5 6 
#
# 1 91.4635 24.0113 22.9253 0.0000 2.3354 -0.0001
# 2 24.0113 63.3596 33.3904 -0.0003 -8.2451 0.0003
# 3 22.9253 33.3904 87.4619 -0.0001 2.6480 0.0001
# 4 0.0000 -0.0003 -0.0001 23.9301 0.0001 8.8515
# 5 2.3354 -8.2451 2.6480 0.0001 27.9131 0.0000
# 6 -0.0001 0.0003 0.0001 8.8515 0.0000 38.0082
#
#
#
# Elastic Compliance Matrix: (Units=1/GPa)
#
#
# Indices 1 2 3 4 5 6 
#
# 1 0.012484 -0.004151 -0.001623 0.000000 -0.002117 0.000000
# 2 -0.004151 0.022418 -0.007704 0.000000 0.007700 0.000000
# 3 -0.001623 -0.007704 0.014908 0.000000 -0.003554 0.000000
# 4 0.000000 0.000000 0.000000 0.045727 0.000000 -0.010649
# 5 -0.002117 0.007700 -0.003554 0.000000 0.038614 0.000000
# 6 0.000000 0.000000 0.000000 -0.010649 0.000000 0.028790
#
#
# Mechanical properties :
#
#
# Convention : Reuss Voigt Hill
#
# Bulk Modulus (GPa) = 43.75686 44.77098 44.26392
# Shear Modulus (GPa) = 25.31457 28.76749 27.04103
#
# Velocity S-wave (km/s) = 3.60509 3.84310 3.72600
# Velocity P-wave (km/s) = 6.30824 6.53286 6.42153
#
# Compressibility (1/GPa) = 0.02285356
#
# Stress axis : x y z
#
# Youngs Moduli (GPa) = 80.10258 44.60754 67.07949
#
# Poissons Ratio (x) = 0.18516 0.10890
# Poissons Ratio (y) = 0.33250 0.51675
# Poissons Ratio (z) = 0.13005 0.34364
#
# Static dielectric constant tensor:
#      x y z
#    x 3.707910 0.000000 0.113800 
#    y 0.000000 3.646340 0.000000 
#    z 0.113800 0.000000 3.435470 
# 
# 
# High freq. dielectric constant tensor:
#      x y z
#    x 1.765810 0.000000 0.016120 
#    y 0.000000 1.757260 0.000000 
#    z 0.016120 0.000000 1.746060 
# 
# From -- ./inp_files/181747.got.cif
#   From: 2010.06.25/outbox.cif.g09.slc.cpg/sg15_91_cif.got.tgz:181747.got - 2010.06.28 07:06:18.
