data_PCOD8139365
_publ_section_title
;
Structure prediction by ZEFSAII (Michael W. Deem and Ramdas Pophale) SiO2 
 PCOD8139365
Probable space group: C 2/C
;
_chemical_formula_sum "Si O2"
_cell_formula_units_Z 44
_cell_length_a 7.717399
_cell_length_b 13.544382
_cell_length_c 22.346093
_cell_angle_alpha 90.000000
_cell_angle_beta 64.180548
_cell_angle_gamma 90.000000
_cell_volume 2102.600423
_symmetry_space_group_name_H-M "C 2/C"
_symmetry_group_IT_number 15
_symmetry_cell_setting 'monoclinic'
loop_
_space_group_symop_operation_xyz
x,y,z
-x,y,1/2-z
-x,-y,-z
x,-y,1/2+z
1/2+x,1/2+y,z
1/2-x,1/2+y,1/2-z
1/2-x,1/2-y,-z
1/2+x,1/2-y,1/2+z
loop_
_atom_site_type_symbol
_atom_site_label
_atom_site_fract_x
_atom_site_fract_y
_atom_site_fract_z
Si Si1 0.662473 0.774988 0.683923
Si Si2 0.429030 0.446847 0.650909
Si Si3 0.943429 0.255965 0.934709
Si Si4 0.835422 0.580680 0.029074
Si Si5 0.000000 0.917231 0.250000
Si Si6 0.643751 0.565267 0.940386
O O1 0.500000 0.825835 0.750000
O O2 0.862988 0.832092 0.668785
O O3 0.601925 0.792252 0.624753
O O4 0.669191 0.656595 0.698766
O O5 0.645592 0.455746 0.592563
O O6 0.411922 0.510028 0.713763
O O7 0.279319 0.493813 0.624375
O O8 0.091084 0.326215 0.946055
O O9 0.038642 0.149587 0.918651
O O10 0.750000 0.250000 0.000000
O O11 0.797131 0.608531 0.964764
O O12 0.000000 0.500000 0.000000
O O13 0.500000 0.500000 0.000000
#
# Coordination Sequence:
#
# PCOD8139365 Si02
#       6
#     8   8   8   8   4   8
#     4  10  24  44  68  98 134 185 227 280 357 407
#     4  11  22  45  69  97 139 175 230 284 340 421
#     4  12  22  41  66  94 137 178 224 289 339 405
#     4  11  24  38  66 102 132 178 227 282 344 411
#     4  10  24  44  74  90 138 184 228 282 346 408
#     4  10  20  39  60  97 128 171 220 276 345 401
#
# _framework density 20.926468
#
# number of rings (size 3 to 8) (size 9 to 14) (size 15 to 20)
#    0.545    0.727    1.818    6.000    2.545    0.000 
#    0.000    0.000    0.000    0.000    0.000    0.000 
#    0.000    0.000    0.000    0.000    0.000    0.000 
#
# Total GULP energy -272539.526215 kJ/mol
# GULP energy per Si atom -12388.160283 kJ/mol
# Density = 2.087884 g / cm^3
# Si number density = 20.926468 Si / 1000 Ang^3
#
#
#
# Elastic Constant Matrix: (Units=GPa)
#
#
# Indices 1 2 3 4 5 6 
#
# 1 99.6718 51.7435 60.4569 -0.0001 19.1525 0.0000
# 2 51.7435 121.6479 34.4858 0.0000 15.8041 0.0000
# 3 60.4569 34.4858 122.6468 -0.0001 28.4505 0.0001
# 4 -0.0001 0.0000 -0.0001 33.6808 0.0001 5.1562
# 5 19.1525 15.8041 28.4505 0.0001 42.2651 -0.0001
# 6 0.0000 0.0000 0.0001 5.1562 -0.0001 50.7556
#
#
#
# Elastic Compliance Matrix: (Units=1/GPa)
#
#
# Indices 1 2 3 4 5 6 
#
# 1 0.016984 -0.005180 -0.006612 0.000000 -0.001309 0.000000
# 2 -0.005180 0.010651 -0.000074 0.000000 -0.001586 0.000000
# 3 -0.006612 -0.000074 0.012718 0.000000 -0.005537 0.000000
# 4 0.000000 0.000000 0.000000 0.030160 0.000000 -0.003064
# 5 -0.001309 -0.001586 -0.005537 0.000000 0.028574 0.000000
# 6 0.000000 0.000000 0.000000 -0.003064 0.000000 0.020014
#
#
# Mechanical properties :
#
#
# Convention : Reuss Voigt Hill
#
# Bulk Modulus (GPa) = 60.16185 70.81543 65.48864
# Shear Modulus (GPa) = 33.69948 38.49233 36.09590
#
# Velocity S-wave (km/s) = 4.01730 4.29349 4.15769
# Velocity P-wave (km/s) = 7.09435 7.64802 7.37639
#
# Compressibility (1/GPa) = 0.01662183
#
# Stress axis : x y z
#
# Youngs Moduli (GPa) = 58.87908 93.89167 78.62912
#
# Poissons Ratio (x) = 0.48634 0.51989
# Poissons Ratio (y) = 0.30498 0.00579
# Poissons Ratio (z) = 0.38931 0.00691
#
# Static dielectric constant tensor:
#      x y z
#    x 4.001660 0.000000 0.404440 
#    y 0.000000 4.159960 0.000000 
#    z 0.404440 0.000000 3.947090 
# 
# 
# High freq. dielectric constant tensor:
#      x y z
#    x 1.803820 0.000000 0.027820 
#    y 0.000000 1.830680 0.000000 
#    z 0.027820 0.000000 1.822830 
# 
# From -- ./inp_files/263428.got.cif
#   From: 2010.06.25/outbox.cif.g09.slc.cpg/sg15_132_cif.got.tgz:263428.got - 2010.06.28 07:06:18.
