data_PCOD8139178
_publ_section_title
;
Structure prediction by ZEFSAII (Michael W. Deem and Ramdas Pophale) SiO2 
 PCOD8139178
Probable space group: C 2/C
;
_chemical_formula_sum "Si O2"
_cell_formula_units_Z 60
_cell_length_a 14.227206
_cell_length_b 11.585839
_cell_length_c 16.327920
_cell_angle_alpha 90.000000
_cell_angle_beta 94.780660
_cell_angle_gamma 90.000000
_cell_volume 2682.035048
_symmetry_space_group_name_H-M "C 2/C"
_symmetry_group_IT_number 15
_symmetry_cell_setting 'monoclinic'
loop_
_space_group_symop_operation_xyz
x,y,z
-x,y,1/2-z
-x,-y,-z
x,-y,1/2+z
1/2+x,1/2+y,z
1/2-x,1/2+y,1/2-z
1/2-x,1/2-y,-z
1/2+x,1/2-y,1/2+z
loop_
_atom_site_type_symbol
_atom_site_label
_atom_site_fract_x
_atom_site_fract_y
_atom_site_fract_z
Si Si1 0.496465 0.102337 0.075035
Si Si2 0.138396 0.029448 0.955302
Si Si3 0.480176 0.681718 0.016649
Si Si4 0.812196 0.825834 0.188614
Si Si5 0.020638 0.364247 0.130592
Si Si6 0.000000 0.699684 0.250000
Si Si7 0.343975 0.089330 0.717021
Si Si8 0.291170 0.891639 0.595133
O O1 0.516894 0.115446 0.174159
O O2 0.385875 0.127876 0.049210
O O3 0.518067 0.964433 0.058902
O O4 0.557552 0.201383 0.032511
O O5 0.178206 0.058843 0.867754
O O6 0.107235 0.895243 0.957832
O O7 0.212831 0.049999 0.033036
O O8 0.046079 0.108281 0.961700
O O9 0.540991 0.735929 0.096759
O O10 0.753461 0.846484 0.267778
O O11 0.758598 0.732461 0.127115
O O12 0.913166 0.783916 0.226174
O O13 0.101050 0.414093 0.193607
O O14 0.915068 0.348038 0.159959
O O15 0.315817 0.966135 0.677909
#
# Coordination Sequence:
#
# PCOD8139178 Si02
#       8
#     8   8   8   8   8   4   8   8
#     4  10  20  39  66  89 119 175 214 268 323 384
#     4  11  24  40  60  96 134 167 219 264 333 400
#     4  11  23  39  63  93 130 174 207 269 333 389
#     4  11  22  39  67  91 127 179 216 270 332 392
#     4  10  21  42  63  92 126 164 220 269 324 391
#     4  10  20  38  66  94 124 164 234 262 316 398
#     4  10  23  39  65  93 124 166 219 270 326 379
#     4  10  21  39  62  93 127 166 222 267 320 397
#
# _framework density 22.371072999999999
#
# number of rings (size 3 to 8) (size 9 to 14) (size 15 to 20)
#    0.000    1.600    2.667    4.000    3.733    1.067 
#    0.000    4.000    0.000    0.000    0.000    0.000 
#    0.000    0.000    0.000    0.000    0.000    0.000 
#
# Total GULP energy -371719.763880 kJ/mol
# GULP energy per Si atom -12390.658796 kJ/mol
# Density = 2.232016 g / cm^3
# Si number density = 22.371073 Si / 1000 Ang^3
#
#
#
# Elastic Constant Matrix: (Units=GPa)
#
#
# Indices 1 2 3 4 5 6 
#
# 1 69.9310 29.5942 26.4592 0.0000 4.8197 0.0000
# 2 29.5942 128.4239 26.1208 0.0000 3.3357 0.0000
# 3 26.4592 26.1208 62.9802 0.0000 12.6857 0.0000
# 4 0.0000 0.0000 0.0000 38.6450 0.0000 -1.7641
# 5 4.8197 3.3357 12.6857 0.0000 32.8117 0.0000
# 6 0.0000 0.0000 0.0000 -1.7641 0.0000 25.7666
#
#
#
# Elastic Compliance Matrix: (Units=1/GPa)
#
#
# Indices 1 2 3 4 5 6 
#
# 1 0.017900 -0.002833 -0.006370 0.000000 0.000121 0.000000
# 2 -0.002833 0.008961 -0.002632 0.000000 0.000523 0.000000
# 3 -0.006370 -0.002632 0.021042 0.000000 -0.006932 0.000000
# 4 0.000000 0.000000 0.000000 0.025958 0.000000 0.001777
# 5 0.000121 0.000523 -0.006932 0.000000 0.033086 0.000000
# 6 0.000000 0.000000 0.000000 0.001777 0.000000 0.038932
#
#
# Mechanical properties :
#
#
# Convention : Reuss Voigt Hill
#
# Bulk Modulus (GPa) = 41.26300 47.29819 44.28060
# Shear Modulus (GPa) = 28.14908 31.38872 29.76890
#
# Velocity S-wave (km/s) = 3.55107 3.74985 3.65182
# Velocity P-wave (km/s) = 5.94124 6.31957 6.13332
#
# Compressibility (1/GPa) = 0.02423478
#
# Stress axis : x y z
#
# Youngs Moduli (GPa) = 55.86509 111.59244 47.52403
#
# Poissons Ratio (x) = 0.31609 0.30272
# Poissons Ratio (y) = 0.15824 0.12508
# Poissons Ratio (z) = 0.35586 0.29370
#
# Static dielectric constant tensor:
#      x y z
#    x 4.042310 0.000000 -0.176320 
#    y 0.000000 4.191450 0.000000 
#    z -0.176320 0.000000 4.162560 
# 
# 
# High freq. dielectric constant tensor:
#      x y z
#    x 1.864280 0.000000 -0.006310 
#    y 0.000000 1.882070 0.000000 
#    z -0.006310 0.000000 1.895690 
# 
# From -- ./inp_files/204092.got.cif
#   From: 2010.06.25/outbox.cif.g09.slc.cpg/sg15_103_cif.got.tgz:204092.got - 2010.06.28 07:06:18.
