data_PCOD8139284
_publ_section_title
;
Structure prediction by ZEFSAII (Michael W. Deem and Ramdas Pophale) SiO2 
 PCOD8139284
Probable space group: C 2/C
;
_chemical_formula_sum "Si O2"
_cell_formula_units_Z 56
_cell_length_a 32.143969
_cell_length_b 11.781241
_cell_length_c 9.115612
_cell_angle_alpha 90.000000
_cell_angle_beta 124.081963
_cell_angle_gamma 90.000000
_cell_volume 2859.110152
_symmetry_space_group_name_H-M "C 2/C"
_symmetry_group_IT_number 15
_symmetry_cell_setting 'monoclinic'
loop_
_space_group_symop_operation_xyz
x,y,z
-x,y,1/2-z
-x,-y,-z
x,-y,1/2+z
1/2+x,1/2+y,z
1/2-x,1/2+y,1/2-z
1/2-x,1/2-y,-z
1/2+x,1/2-y,1/2+z
loop_
_atom_site_type_symbol
_atom_site_label
_atom_site_fract_x
_atom_site_fract_y
_atom_site_fract_z
Si Si1 0.880773 0.705975 0.780601
Si Si2 0.119251 0.359641 0.550895
Si Si3 0.229502 0.969444 0.364048
Si Si4 0.134033 0.925453 0.577967
Si Si5 0.700842 0.047554 0.753609
Si Si6 0.963951 0.541644 0.053110
Si Si7 0.867259 0.861712 0.254932
O O1 0.874045 0.699807 0.592777
O O2 0.884540 0.834840 0.839064
O O3 0.833074 0.652586 0.767520
O O4 0.931191 0.643903 0.928279
O O5 0.168496 0.432621 0.683628
O O6 0.070225 0.438479 0.454921
O O7 0.113299 0.263176 0.663881
O O8 0.252603 0.035703 0.546074
O O9 0.193761 0.866544 0.349669
O O10 0.194806 0.060105 0.206169
O O11 0.275482 0.922928 0.357481
O O12 0.116707 0.890562 0.380575
O O13 0.109215 0.044282 0.586204
O O14 0.000000 0.589848 0.250000
O O15 0.000000 0.500000 0.000000
#
# Coordination Sequence:
#
# PCOD8139284 Si02
#       7
#     8   8   8   8   8   8   8
#     4  11  24  38  62  89 122 156 193 252 302 354
#     4  11  24  38  62  90 121 156 193 253 300 355
#     4  10  20  39  52  82 121 169 208 246 277 343
#     4  10  22  39  58  84 118 169 206 243 290 341
#     4  11  22  36  54  86 125 159 210 244 299 338
#     4  11  24  45  68  94 121 147 187 239 311 373
#     4  10  22  39  58  83 120 167 207 242 290 342
#
# _framework density 19.586514000000001
#
# number of rings (size 3 to 8) (size 9 to 14) (size 15 to 20)
#    0.857    0.571    4.286    0.857    6.000    2.286 
#    0.000    0.000    0.000    1.714    0.000    0.000 
#    0.000    0.000    0.000    0.000    0.000    0.000 
#
# Total GULP energy -347105.650471 kJ/mol
# GULP energy per Si atom -12396.630374 kJ/mol
# Density = 1.954193 g / cm^3
# Si number density = 19.586514 Si / 1000 Ang^3
#
#
#
# Elastic Constant Matrix: (Units=GPa)
#
#
# Indices 1 2 3 4 5 6 
#
# 1 57.3639 2.0021 -2.3411 0.0000 -7.6069 0.0000
# 2 2.0021 69.2916 9.2031 0.0000 1.8197 0.0000
# 3 -2.3411 9.2031 79.0247 0.0000 -6.1764 0.0000
# 4 0.0000 0.0000 0.0000 27.4734 0.0000 -13.3178
# 5 -7.6069 1.8197 -6.1764 0.0000 36.3819 0.0000
# 6 0.0000 0.0000 0.0000 -13.3178 0.0000 17.8003
#
#
#
# Elastic Compliance Matrix: (Units=1/GPa)
#
#
# Indices 1 2 3 4 5 6 
#
# 1 0.018022 -0.000748 0.000931 0.000000 0.003964 0.000000
# 2 -0.000748 0.014728 -0.001832 0.000000 -0.001204 0.000000
# 3 0.000931 -0.001832 0.013091 0.000000 0.002509 0.000000
# 4 0.000000 0.000000 0.000000 0.057113 0.000000 0.042730
# 5 0.003964 -0.001204 0.002509 0.000000 0.028801 0.000000
# 6 0.000000 0.000000 0.000000 0.042730 0.000000 0.088149
#
#
# Mechanical properties :
#
#
# Convention : Reuss Voigt Hill
#
# Bulk Modulus (GPa) = 23.50532 24.82316 24.16424
# Shear Modulus (GPa) = 21.06295 29.45218 25.25756
#
# Velocity S-wave (km/s) = 3.28286 3.88196 3.59491
# Velocity P-wave (km/s) = 5.13774 5.72660 5.44014
#
# Compressibility (1/GPa) = 0.04254356
#
# Stress axis : x y z
#
# Youngs Moduli (GPa) = 55.48683 67.89663 76.38712
#
# Poissons Ratio (x) = 0.05082 -0.07111
# Poissons Ratio (y) = 0.04153 0.13990
# Poissons Ratio (z) = -0.05165 0.12435
#
# Static dielectric constant tensor:
#      x y z
#    x 3.429090 0.000000 -0.139320 
#    y 0.000000 3.237060 0.000000 
#    z -0.139320 0.000000 3.480250 
# 
# 
# High freq. dielectric constant tensor:
#      x y z
#    x 1.752250 0.000000 -0.019580 
#    y 0.000000 1.749430 0.000000 
#    z -0.019580 0.000000 1.768080 
# 
# From -- ./inp_files/69435.got.cif
#   From: 2010.06.25/outbox.cif.g09.slc.cpg/sg15_35_cif.got.tgz:69435.got - 2010.06.28 07:06:18.
