data_PCOD8139728
_publ_section_title
;
Structure prediction by ZEFSAII (Michael W. Deem and Ramdas Pophale) SiO2 
 PCOD8139728
Probable space group: C 2/C
;
_chemical_formula_sum "Si O2"
_cell_formula_units_Z 36
_cell_length_a 14.994998
_cell_length_b 21.054612
_cell_length_c 7.969014
_cell_angle_alpha 90.000000
_cell_angle_beta 34.753427
_cell_angle_gamma 90.000000
_cell_volume 1434.194576
_symmetry_space_group_name_H-M "C 2/C"
_symmetry_group_IT_number 15
_symmetry_cell_setting 'monoclinic'
loop_
_space_group_symop_operation_xyz
x,y,z
-x,y,1/2-z
-x,-y,-z
x,-y,1/2+z
1/2+x,1/2+y,z
1/2-x,1/2+y,1/2-z
1/2-x,1/2-y,-z
1/2+x,1/2-y,1/2+z
loop_
_atom_site_type_symbol
_atom_site_label
_atom_site_fract_x
_atom_site_fract_y
_atom_site_fract_z
Si Si1 0.500000 0.099759 0.250000
Si Si2 0.116653 0.678632 0.345953
Si Si3 0.932046 0.188917 0.681044
Si Si4 0.702626 0.404467 0.708173
Si Si5 0.678318 0.984203 0.278290
O O1 0.487174 0.138267 0.446205
O O2 0.345125 0.054377 0.508609
O O3 0.064663 0.751771 0.454459
O O4 0.165980 0.649955 0.451628
O O5 0.254969 0.670101 0.993334
O O6 0.000000 0.216139 0.750000
O O7 0.032476 0.128691 0.461437
O O8 0.731188 0.439034 0.490281
O O9 0.716050 0.454224 0.842722
O O10 0.500000 0.000000 0.500000
#
# Coordination Sequence:
#
# PCOD8139728 Si02
#       5
#     4   8   8   8   8
#     4  12  22  38  70  94 126 188 222 274 342 408
#     4  10  20  39  68  96 135 174 221 268 349 405
#     4   9  20  40  67  98 134 177 219 282 336 402
#     4  11  22  41  71 101 134 177 230 279 337 403
#     4  12  22  40  67  96 134 178 226 281 332 406
#
# _framework density 25.101196999999999
#
# number of rings (size 3 to 8) (size 9 to 14) (size 15 to 20)
#    0.000    1.333    5.556    0.000    0.000    0.000 
#    0.000   20.000    9.778    0.000    0.000    0.000 
#    0.000    0.000    0.000    0.000    0.000    0.000 
#
# Total GULP energy -222994.670135 kJ/mol
# GULP energy per Si atom -12388.592785 kJ/mol
# Density = 2.504407 g / cm^3
# Si number density = 25.101197 Si / 1000 Ang^3
#
#
#
# Elastic Constant Matrix: (Units=GPa)
#
#
# Indices 1 2 3 4 5 6 
#
# 1 43.2815 38.0253 22.9974 0.0001 6.3680 0.0001
# 2 38.0253 177.4133 66.7150 0.0000 3.1307 0.0000
# 3 22.9974 66.7150 79.2340 0.0001 -3.1108 0.0000
# 4 0.0001 0.0000 0.0001 42.6769 -0.0001 -16.1513
# 5 6.3680 3.1307 -3.1108 -0.0001 34.6947 0.0000
# 6 0.0001 0.0000 0.0000 -16.1513 0.0000 35.6495
#
#
#
# Elastic Compliance Matrix: (Units=1/GPa)
#
#
# Indices 1 2 3 4 5 6 
#
# 1 0.030726 -0.004458 -0.005389 0.000000 -0.005721 0.000000
# 2 -0.004458 0.008961 -0.006273 0.000000 -0.000553 0.000000
# 3 -0.005389 -0.006273 0.019597 0.000000 0.003312 0.000000
# 4 0.000000 0.000000 0.000000 0.028281 0.000000 0.012813
# 5 -0.005721 -0.000553 0.003312 0.000000 0.030220 0.000000
# 6 0.000000 0.000000 0.000000 0.012813 0.000000 0.033856
#
#
# Mechanical properties :
#
#
# Convention : Reuss Voigt Hill
#
# Bulk Modulus (GPa) = 36.97680 61.71160 49.34420
# Shear Modulus (GPa) = 25.92093 34.08363 30.00228
#
# Velocity S-wave (km/s) = 3.21698 3.68890 3.46099
# Velocity P-wave (km/s) = 5.34432 6.54083 5.97261
#
# Compressibility (1/GPa) = 0.02704398
#
# Stress axis : x y z
#
# Youngs Moduli (GPa) = 32.54526 111.59990 51.02949
#
# Poissons Ratio (x) = 0.49753 0.27500
# Poissons Ratio (y) = 0.14509 0.32008
# Poissons Ratio (z) = 0.17539 0.70001
#
# Static dielectric constant tensor:
#      x y z
#    x 4.342140 0.000000 -0.152380 
#    y 0.000000 4.850210 0.000000 
#    z -0.152380 0.000000 4.261700 
# 
# 
# High freq. dielectric constant tensor:
#      x y z
#    x 1.980590 0.000000 0.002340 
#    y 0.000000 2.023670 0.000000 
#    z 0.002340 0.000000 1.971750 
# 
# From -- ./inp_files/50543.got.cif
#   From: 2010.06.25/outbox.cif.g09.slc.cpg/sg15_26_cif.got.tgz:50543.got - 2010.06.28 07:06:18.
