data_PCOD8139927
_publ_section_title
;
Structure prediction by ZEFSAII (Michael W. Deem and Ramdas Pophale) SiO2 
 PCOD8139927
Probable space group: C 2/C
;
_chemical_formula_sum "Si O2"
_cell_formula_units_Z 60
_cell_length_a 24.357596
_cell_length_b 20.180912
_cell_length_c 7.663986
_cell_angle_alpha 90.000000
_cell_angle_beta 134.349532
_cell_angle_gamma 90.000000
_cell_volume 2693.951810
_symmetry_space_group_name_H-M "C 2/C"
_symmetry_group_IT_number 15
_symmetry_cell_setting 'monoclinic'
loop_
_space_group_symop_operation_xyz
x,y,z
-x,y,1/2-z
-x,-y,-z
x,-y,1/2+z
1/2+x,1/2+y,z
1/2-x,1/2+y,1/2-z
1/2-x,1/2-y,-z
1/2+x,1/2-y,1/2+z
loop_
_atom_site_type_symbol
_atom_site_label
_atom_site_fract_x
_atom_site_fract_y
_atom_site_fract_z
Si Si1 0.575457 0.455142 0.006587
Si Si2 0.057801 0.226962 0.747684
Si Si3 0.703638 0.211676 0.678590
Si Si4 0.604689 0.589625 0.958478
Si Si5 0.157029 0.699404 0.962096
Si Si6 0.243598 0.928655 0.309725
Si Si7 0.228170 0.429625 0.724800
Si Si8 0.000000 0.245940 0.250000
O O1 0.500000 0.422080 0.750000
O O2 0.562711 0.535588 0.988847
O O3 0.589854 0.429857 0.227955
O O4 0.652701 0.439404 0.066004
O O5 0.073729 0.163406 0.908661
O O6 0.000000 0.267141 0.750000
O O7 0.026759 0.206229 0.484724
O O8 0.135497 0.269736 0.891013
O O9 0.665842 0.223941 0.783469
O O10 0.727848 0.135288 0.729374
O O11 0.775891 0.258901 0.790043
O O12 0.694105 0.588313 0.206080
O O13 0.072316 0.711336 0.848162
O O14 0.165490 0.620194 0.006814
O O15 0.260880 0.915353 0.548469
O O16 0.291617 0.992991 0.351357
#
# Coordination Sequence:
#
# PCOD8139927 Si02
#       8
#     8   8   8   8   8   8   8   4
#     4  10  21  37  54  91 130 171 222 269 335 395
#     4  12  25  46  66 100 139 177 229 285 344 397
#     4  11  24  45  69  97 137 182 224 284 341 412
#     4  10  22  38  60  89 131 180 220 275 328 404
#     4  11  24  44  70 101 133 177 232 279 348 408
#     4  10  22  37  65  91 126 176 224 277 337 403
#     4  10  20  40  63  95 126 173 225 275 331 408
#     4  12  28  42  72 102 134 180 228 288 340 414
#
# _framework density 22.272114999999999
#
# number of rings (size 3 to 8) (size 9 to 14) (size 15 to 20)
#    0.000    1.333    2.667    2.400    4.667    2.133 
#    0.000    0.000    1.467    2.400    0.000    0.000 
#    0.000    0.000    0.000    0.000    0.000    0.000 
#
# Total GULP energy -371784.616036 kJ/mol
# GULP energy per Si atom -12392.820535 kJ/mol
# Density = 2.222142 g / cm^3
# Si number density = 22.272115 Si / 1000 Ang^3
#
#
#
# Elastic Constant Matrix: (Units=GPa)
#
#
# Indices 1 2 3 4 5 6 
#
# 1 75.4702 11.9691 17.9894 0.0000 22.1055 0.0000
# 2 11.9691 118.3632 26.6177 0.0000 21.7023 0.0000
# 3 17.9894 26.6177 88.6706 0.0000 15.2022 0.0000
# 4 0.0000 0.0000 0.0000 41.5690 0.0000 20.3415
# 5 22.1055 21.7023 15.2022 0.0000 33.8384 0.0000
# 6 0.0000 0.0000 0.0000 20.3415 0.0000 76.6243
#
#
#
# Elastic Compliance Matrix: (Units=1/GPa)
#
#
# Indices 1 2 3 4 5 6 
#
# 1 0.016642 0.000638 -0.001770 0.000000 -0.010486 0.000000
# 2 0.000638 0.009929 -0.002109 0.000000 -0.005837 0.000000
# 3 -0.001770 -0.002109 0.012828 0.000000 -0.003254 0.000000
# 4 0.000000 0.000000 0.000000 0.027648 0.000000 -0.007340
# 5 -0.010486 -0.005837 -0.003254 0.000000 0.041607 0.000000
# 6 0.000000 0.000000 0.000000 -0.007340 0.000000 0.014999
#
#
# Mechanical properties :
#
#
# Convention : Reuss Voigt Hill
#
# Bulk Modulus (GPa) = 30.38058 43.96182 37.17120
# Shear Modulus (GPa) = 35.43378 45.46818 40.45098
#
# Velocity S-wave (km/s) = 3.99300 4.52318 4.26633
# Velocity P-wave (km/s) = 5.91007 6.86005 6.40270
#
# Compressibility (1/GPa) = 0.03291577
#
# Stress axis : x y z
#
# Youngs Moduli (GPa) = 60.08770 100.71930 77.95560
#
# Poissons Ratio (x) = -0.06423 0.13799
# Poissons Ratio (y) = -0.03832 0.16442
# Poissons Ratio (z) = 0.10636 0.21243
#
# Static dielectric constant tensor:
#      x y z
#    x 3.948030 0.000000 0.105670 
#    y 0.000000 3.985200 0.000000 
#    z 0.105670 0.000000 4.135280 
# 
# 
# High freq. dielectric constant tensor:
#      x y z
#    x 1.875060 0.000000 -0.006580 
#    y 0.000000 1.863650 0.000000 
#    z -0.006580 0.000000 1.873670 
# 
# From -- ./inp_files/63532.got.cif
#   From: 2010.06.25/outbox.cif.g09.slc.cpg/sg15_32_cif.got.tgz:63532.got - 2010.06.28 07:06:18.
