data_PCOD8139874
_publ_section_title
;
Structure prediction by ZEFSAII (Michael W. Deem and Ramdas Pophale) SiO2 
 PCOD8139874
Probable space group: C 2/C
;
_chemical_formula_sum "Si O2"
_cell_formula_units_Z 60
_cell_length_a 20.399329
_cell_length_b 21.992409
_cell_length_c 8.857992
_cell_angle_alpha 90.000000
_cell_angle_beta 46.017980
_cell_angle_gamma 90.000000
_cell_volume 2859.496888
_symmetry_space_group_name_H-M "C 2/C"
_symmetry_group_IT_number 15
_symmetry_cell_setting 'monoclinic'
loop_
_space_group_symop_operation_xyz
x,y,z
-x,y,1/2-z
-x,-y,-z
x,-y,1/2+z
1/2+x,1/2+y,z
1/2-x,1/2+y,1/2-z
1/2-x,1/2-y,-z
1/2+x,1/2-y,1/2+z
loop_
_atom_site_type_symbol
_atom_site_label
_atom_site_fract_x
_atom_site_fract_y
_atom_site_fract_z
Si Si1 0.435960 0.627011 0.072266
Si Si2 0.868777 0.583503 0.074852
Si Si3 0.566148 0.980398 0.760367
Si Si4 0.900650 0.030353 0.359883
Si Si5 0.184684 0.903936 0.983661
Si Si6 0.500000 0.180174 0.750000
Si Si7 0.862781 0.139009 0.640723
Si Si8 0.346623 0.271514 0.906739
O O1 0.411983 0.560442 0.177270
O O2 0.407571 0.624162 0.942093
O O3 0.375032 0.677049 0.248104
O O4 0.539014 0.645106 0.939135
O O5 0.861403 0.558613 0.261854
O O6 0.765061 0.607239 0.230531
O O7 0.889049 0.536009 0.906371
O O8 0.943202 0.637029 0.954833
O O9 0.500000 0.943473 0.750000
O O10 0.500000 0.000000 0.000000
O O11 0.859940 0.080508 0.538194
O O12 0.000000 0.006357 0.250000
O O13 0.830289 0.975317 0.458962
O O14 0.205948 0.870101 0.108625
O O15 0.424594 0.219313 0.780926
O O16 0.838037 0.200383 0.589629
O O17 0.250000 0.250000 0.000000
#
# Coordination Sequence:
#
# PCOD8139874 Si02
#       8
#     8   8   8   8   8   4   8   8
#     4  10  20  40  62  90 130 179 213 271 341 384
#     4  11  24  38  65  99 128 177 206 273 322 403
#     4   9  18  42  62  83 132 165 210 252 328 380
#     4   9  19  35  59  93 132 180 215 252 326 412
#     4  12  23  34  61 101 139 165 214 264 333 410
#     4  12  22  48  72  90 124 168 234 270 334 388
#     4  10  21  41  62  93 137 171 217 276 333 391
#     4  11  23  45  73  91 119 175 232 285 331 393
#
# _framework density 20.982713
#
# number of rings (size 3 to 8) (size 9 to 14) (size 15 to 20)
#    0.000    1.600    3.333    3.600    3.733    2.133 
#    2.400    2.667    0.000    0.000    0.000    0.000 
#    0.000    0.000    0.000    0.000    0.000    0.000 
#
# Total GULP energy -371650.790308 kJ/mol
# GULP energy per Si atom -12388.359677 kJ/mol
# Density = 2.093496 g / cm^3
# Si number density = 20.982713 Si / 1000 Ang^3
#
#
#
# Elastic Constant Matrix: (Units=GPa)
#
#
# Indices 1 2 3 4 5 6 
#
# 1 110.5511 45.1616 39.1313 0.0000 6.0989 0.0000
# 2 45.1616 93.9357 40.5657 0.0000 -5.1560 0.0000
# 3 39.1313 40.5657 106.9656 0.0000 -0.7048 0.0000
# 4 0.0000 0.0000 0.0000 15.8524 0.0000 -6.4275
# 5 6.0989 -5.1560 -0.7048 0.0000 42.1707 0.0000
# 6 0.0000 0.0000 0.0000 -6.4275 0.0000 25.1502
#
#
#
# Elastic Compliance Matrix: (Units=1/GPa)
#
#
# Indices 1 2 3 4 5 6 
#
# 1 0.012062 -0.004804 -0.002606 0.000000 -0.002375 0.000000
# 2 -0.004804 0.014736 -0.003815 0.000000 0.002433 0.000000
# 3 -0.002606 -0.003815 0.011750 0.000000 0.000107 0.000000
# 4 0.000000 0.000000 0.000000 0.070374 0.000000 0.017985
# 5 -0.002375 0.002433 0.000107 0.000000 0.024356 0.000000
# 6 0.000000 0.000000 0.000000 0.017985 0.000000 0.044357
#
#
# Mechanical properties :
#
#
# Convention : Reuss Voigt Hill
#
# Bulk Modulus (GPa) = 62.12302 62.35215 62.23759
# Shear Modulus (GPa) = 24.33668 29.07426 26.70547
#
# Velocity S-wave (km/s) = 3.40934 3.72644 3.57141
# Velocity P-wave (km/s) = 6.72080 6.94951 6.83611
#
# Compressibility (1/GPa) = 0.01609709
#
# Stress axis : x y z
#
# Youngs Moduli (GPa) = 82.90800 67.86040 85.10730
#
# Poissons Ratio (x) = 0.32598 0.22182
# Poissons Ratio (y) = 0.39826 0.32470
# Poissons Ratio (z) = 0.21609 0.25890
#
# Static dielectric constant tensor:
#      x y z
#    x 6.335270 0.000000 0.232770 
#    y 0.000000 4.381760 0.000000 
#    z 0.232770 0.000000 4.152240 
# 
# 
# High freq. dielectric constant tensor:
#      x y z
#    x 1.830070 0.000000 0.001170 
#    y 0.000000 1.797570 0.000000 
#    z 0.001170 0.000000 1.826000 
# 
# From -- ./inp_files/58748.got.cif
#   From: 2010.06.25/outbox.cif.g09.slc.cpg/sg15_30_cif.got.tgz:58748.got - 2010.06.28 07:06:18.
