data_PCOD8139281
_publ_section_title
;
Structure prediction by ZEFSAII (Michael W. Deem and Ramdas Pophale) SiO2 
 PCOD8139281
Probable space group: C 2/C
;
_chemical_formula_sum "Si O2"
_cell_formula_units_Z 36
_cell_length_a 10.902057
_cell_length_b 17.780078
_cell_length_c 9.077670
_cell_angle_alpha 90.000000
_cell_angle_beta 60.587778
_cell_angle_gamma 90.000000
_cell_volume 1532.812520
_symmetry_space_group_name_H-M "C 2/C"
_symmetry_group_IT_number 15
_symmetry_cell_setting 'monoclinic'
loop_
_space_group_symop_operation_xyz
x,y,z
-x,y,1/2-z
-x,-y,-z
x,-y,1/2+z
1/2+x,1/2+y,z
1/2-x,1/2+y,1/2-z
1/2-x,1/2-y,-z
1/2+x,1/2-y,1/2+z
loop_
_atom_site_type_symbol
_atom_site_label
_atom_site_fract_x
_atom_site_fract_y
_atom_site_fract_z
Si Si1 0.000715 0.081518 0.926924
Si Si2 0.808187 0.603258 0.361436
Si Si3 0.597552 0.707788 0.061284
Si Si4 0.494357 0.148733 0.496455
Si Si5 0.000000 0.534023 0.750000
O O1 0.000000 0.075990 0.750000
O O2 0.854295 0.116704 0.064054
O O3 0.117166 0.139126 0.929742
O O4 0.000000 0.000000 0.000000
O O5 0.880592 0.654277 0.195930
O O6 0.861537 0.517275 0.306774
O O7 0.848024 0.629878 0.502693
O O8 0.500000 0.673452 0.250000
O O9 0.750000 0.750000 0.000000
O O10 0.486589 0.770111 0.072446
O O11 0.530623 0.084127 0.590793
#
# Coordination Sequence:
#
# PCOD8139281 Si02
#       5
#     8   8   8   8   4
#     4  12  31  47  74 104 151 196 240 306 377 448
#     4  10  23  42  68 104 147 175 252 284 378 424
#     4  12  28  49  75 107 150 193 252 305 375 440
#     4  10  22  41  74 104 135 188 238 311 352 441
#     4  10  20  38  76 104 136 190 236 308 360 440
#
# _framework density 23.486239000000001
#
# number of rings (size 3 to 8) (size 9 to 14) (size 15 to 20)
#    0.000    1.333    1.111    4.667   15.556    0.889 
#    0.000    0.000    0.000    0.000    0.000    0.000 
#    0.000    0.000    0.000    0.000    0.000    0.000 
#
# Total GULP energy -222995.099450 kJ/mol
# GULP energy per Si atom -12388.616636 kJ/mol
# Density = 2.343278 g / cm^3
# Si number density = 23.486239 Si / 1000 Ang^3
#
#
#
# Elastic Constant Matrix: (Units=GPa)
#
#
# Indices 1 2 3 4 5 6 
#
# 1 101.6747 30.9638 32.1227 0.0000 1.5494 0.0000
# 2 30.9638 133.9283 22.2406 0.0000 27.4523 0.0000
# 3 32.1227 22.2406 95.4400 0.0000 26.1541 0.0000
# 4 0.0000 0.0000 0.0000 32.9551 0.0000 7.3145
# 5 1.5494 27.4523 26.1541 0.0000 35.3300 0.0000
# 6 0.0000 0.0000 0.0000 7.3145 0.0000 13.5031
#
#
#
# Elastic Compliance Matrix: (Units=1/GPa)
#
#
# Indices 1 2 3 4 5 6 
#
# 1 0.012265 -0.003158 -0.004914 0.000000 0.005554 0.000000
# 2 -0.003158 0.009698 0.001041 0.000000 -0.008168 0.000000
# 3 -0.004914 0.001041 0.015119 0.000000 -0.011786 0.000000
# 4 0.000000 0.000000 0.000000 0.034491 0.000000 -0.018683
# 5 0.005554 -0.008168 -0.011786 0.000000 0.043132 0.000000
# 6 0.000000 0.000000 0.000000 -0.018683 0.000000 0.084177
#
#
# Mechanical properties :
#
#
# Convention : Reuss Voigt Hill
#
# Bulk Modulus (GPa) = 43.43994 55.74414 49.59204
# Shear Modulus (GPa) = 22.66363 32.73871 27.70117
#
# Velocity S-wave (km/s) = 3.10977 3.73762 3.43806
# Velocity P-wave (km/s) = 5.60628 6.51251 6.07631
#
# Compressibility (1/GPa) = 0.02302029
#
# Stress axis : x y z
#
# Youngs Moduli (GPa) = 81.53344 103.11259 66.14275
#
# Poissons Ratio (x) = 0.32562 0.32503
# Poissons Ratio (y) = 0.25748 -0.06887
# Poissons Ratio (z) = 0.40066 -0.10736
#
# Static dielectric constant tensor:
#      x y z
#    x 5.867070 0.000000 1.087560 
#    y 0.000000 4.226590 0.000000 
#    z 1.087560 0.000000 4.889570 
# 
# 
# High freq. dielectric constant tensor:
#      x y z
#    x 1.924420 0.000000 0.013560 
#    y 0.000000 1.931270 0.000000 
#    z 0.013560 0.000000 1.942060 
# 
# From -- ./inp_files/28987.got.cif
#   From: 2010.06.25/outbox.cif.g09.slc.cpg/sg15_15_cif.got.tgz:28987.got - 2010.06.28 07:06:18.
