data_PCOD8139575
_publ_section_title
;
Structure prediction by ZEFSAII (Michael W. Deem and Ramdas Pophale) SiO2 
 PCOD8139575
Probable space group: C 2/C
;
_chemical_formula_sum "Si O2"
_cell_formula_units_Z 40
_cell_length_a 11.952552
_cell_length_b 7.549452
_cell_length_c 16.192043
_cell_angle_alpha 90.000000
_cell_angle_beta 73.107647
_cell_angle_gamma 90.000000
_cell_volume 1398.049850
_symmetry_space_group_name_H-M "C 2/C"
_symmetry_group_IT_number 15
_symmetry_cell_setting 'monoclinic'
loop_
_space_group_symop_operation_xyz
x,y,z
-x,y,1/2-z
-x,-y,-z
x,-y,1/2+z
1/2+x,1/2+y,z
1/2-x,1/2+y,1/2-z
1/2-x,1/2-y,-z
1/2+x,1/2-y,1/2+z
loop_
_atom_site_type_symbol
_atom_site_label
_atom_site_fract_x
_atom_site_fract_y
_atom_site_fract_z
Si Si1 0.876796 0.899895 0.812735
Si Si2 0.340154 0.945391 0.218672
Si Si3 0.932891 0.626019 0.928330
Si Si4 0.433073 0.670559 0.987999
Si Si5 0.194912 0.672322 0.119162
O O1 0.826912 0.737278 0.769455
O O2 0.000000 0.970783 0.750000
O O3 0.890827 0.819345 0.901808
O O4 0.772132 0.049068 0.822320
O O5 0.465852 0.957018 0.150721
O O6 0.335408 0.110899 0.282871
O O7 0.976700 0.664703 0.013239
O O8 0.829514 0.482609 0.945385
O O9 0.332138 0.706503 0.078035
O O10 0.500000 0.500000 0.000000
O O11 0.388920 0.667477 0.901211
#
# Coordination Sequence:
#
# PCOD8139575 Si02
#       5
#     8   8   8   8   8
#     4   9  19  35  57  87 123 158 200 253 308 367
#     4  10  20  39  64  92 126 162 208 265 317 368
#     4  10  22  41  63  92 126 163 211 264 314 373
#     4  11  25  42  63  93 129 169 213 256 310 382
#     4  10  22  41  63  92 128 167 211 259 312 376
#
# _framework density 28.611283
#
# number of rings (size 3 to 8) (size 9 to 14) (size 15 to 20)
#    0.000    2.000    0.000    4.800    0.000    8.800 
#    0.000    9.000    0.000    2.400    0.000    0.000 
#    0.000    0.000    0.000    0.000    0.000    0.000 
#
# Total GULP energy -247941.706424 kJ/mol
# GULP energy per Si atom -12397.085321 kJ/mol
# Density = 2.854616 g / cm^3
# Si number density = 28.611283 Si / 1000 Ang^3
#
#
#
# Elastic Constant Matrix: (Units=GPa)
#
#
# Indices 1 2 3 4 5 6 
#
# 1 145.2259 60.1808 25.5978 0.0000 31.2008 0.0000
# 2 60.1808 59.6270 -3.5629 0.0000 -2.1790 0.0000
# 3 25.5978 -3.5629 74.6124 0.0000 31.8980 0.0000
# 4 0.0000 0.0000 0.0000 24.4247 0.0000 1.2395
# 5 31.2008 -2.1790 31.8980 0.0000 46.6488 0.0000
# 6 0.0000 0.0000 0.0000 1.2395 0.0000 64.0868
#
#
#
# Elastic Compliance Matrix: (Units=1/GPa)
#
#
# Indices 1 2 3 4 5 6 
#
# 1 0.016736 -0.017401 -0.002034 0.000000 -0.010615 0.000000
# 2 -0.017401 0.034915 0.002776 0.000000 0.011371 0.000000
# 3 -0.002034 0.002776 0.019212 0.000000 -0.011647 0.000000
# 4 0.000000 0.000000 0.000000 0.040982 0.000000 -0.000793
# 5 -0.010615 0.011371 -0.011647 0.000000 0.037032 0.000000
# 6 0.000000 0.000000 0.000000 -0.000793 0.000000 0.015619
#
#
# Mechanical properties :
#
#
# Convention : Reuss Voigt Hill
#
# Bulk Modulus (GPa) = 26.63553 49.32185 37.97869
# Shear Modulus (GPa) = 23.77215 40.18203 31.97709
#
# Velocity S-wave (km/s) = 2.88560 3.75161 3.34674
# Velocity P-wave (km/s) = 4.52017 6.00351 5.31385
#
# Compressibility (1/GPa) = 0.03754384
#
# Stress axis : x y z
#
# Youngs Moduli (GPa) = 59.75209 28.64125 52.04992
#
# Poissons Ratio (x) = 0.49838 0.10588
# Poissons Ratio (y) = 1.03973 -0.14447
# Poissons Ratio (z) = 0.12155 -0.07950
#
# Static dielectric constant tensor:
#      x y z
#    x 5.893270 0.000000 0.836010 
#    y 0.000000 5.843860 0.000000 
#    z 0.836010 0.000000 5.161060 
# 
# 
# High freq. dielectric constant tensor:
#      x y z
#    x 2.185390 0.000000 0.052700 
#    y 0.000000 2.199510 0.000000 
#    z 0.052700 0.000000 2.142240 
# 
# From -- ./inp_files/195066.got.cif
#   From: 2010.06.25/outbox.cif.g09.slc.cpg/sg15_98_cif.got.tgz:195066.got - 2010.06.28 07:06:18.
