data_PCOD8139846
_publ_section_title
;
Structure prediction by ZEFSAII (Michael W. Deem and Ramdas Pophale) SiO2 
 PCOD8139846
Probable space group: C 2/C
;
_chemical_formula_sum "Si O2"
_cell_formula_units_Z 60
_cell_length_a 15.412446
_cell_length_b 20.162030
_cell_length_c 14.126987
_cell_angle_alpha 90.000000
_cell_angle_beta 38.869768
_cell_angle_gamma 90.000000
_cell_volume 2754.896693
_symmetry_space_group_name_H-M "C 2/C"
_symmetry_group_IT_number 15
_symmetry_cell_setting 'monoclinic'
loop_
_space_group_symop_operation_xyz
x,y,z
-x,y,1/2-z
-x,-y,-z
x,-y,1/2+z
1/2+x,1/2+y,z
1/2-x,1/2+y,1/2-z
1/2-x,1/2-y,-z
1/2+x,1/2-y,1/2+z
loop_
_atom_site_type_symbol
_atom_site_label
_atom_site_fract_x
_atom_site_fract_y
_atom_site_fract_z
Si Si1 0.744960 0.554901 0.832035
Si Si2 0.004751 0.894509 0.852158
Si Si3 0.287784 0.578148 0.036466
Si Si4 0.548711 0.193903 0.400146
Si Si5 0.462477 0.061581 0.966726
Si Si6 0.000000 0.360456 0.750000
Si Si7 0.358676 0.688779 0.111076
Si Si8 0.806636 0.012466 0.827981
O O1 0.723894 0.559230 0.736211
O O2 0.907137 0.571578 0.715962
O O3 0.647342 0.607369 0.969683
O O4 0.700043 0.481505 0.900032
O O5 0.000000 0.865440 0.750000
O O6 0.114294 0.851801 0.816617
O O7 0.054964 0.970766 0.807741
O O8 0.340147 0.560299 0.887516
O O9 0.373354 0.640446 0.006686
O O10 0.126379 0.593174 0.169158
O O11 0.557214 0.127806 0.455703
O O12 0.467050 0.183288 0.370689
O O13 0.467813 0.252017 0.520707
O O14 0.704291 0.218122 0.246522
O O15 0.500000 0.000000 0.000000
O O16 0.318709 0.039263 0.038429
#
# Coordination Sequence:
#
# PCOD8139846 Si02
#       8
#     8   8   8   8   8   4   8   8
#     4  11  22  36  66  99 133 174 225 275 349 404
#     4  12  24  44  64  95 133 175 228 293 343 401
#     4  11  21  39  67 104 142 174 219 290 341 412
#     4  11  24  45  70  96 141 188 229 280 343 416
#     4  10  20  40  68  99 129 178 230 284 334 401
#     4  10  20  40  62 100 140 176 226 272 336 410
#     4  11  26  47  67  96 141 184 229 286 343 414
#     4  11  20  39  64  99 137 172 219 277 353 399
#
# _framework density 21.779402000000001
#
# number of rings (size 3 to 8) (size 9 to 14) (size 15 to 20)
#    0.000    1.067    4.000    5.200    1.867    2.133 
#    2.400    0.667    2.933    0.000    0.000    0.000 
#    0.000    0.000    0.000    0.000    0.000    0.000 
#
# Total GULP energy -371964.767867 kJ/mol
# GULP energy per Si atom -12398.825596 kJ/mol
# Density = 2.172983 g / cm^3
# Si number density = 21.779402 Si / 1000 Ang^3
#
#
#
# Elastic Constant Matrix: (Units=GPa)
#
#
# Indices 1 2 3 4 5 6 
#
# 1 102.8560 34.4854 37.8011 -0.0001 11.7989 0.0001
# 2 34.4854 85.5232 28.6612 0.0039 8.3611 -0.0033
# 3 37.8011 28.6612 122.6584 -0.0009 0.2689 -0.0039
# 4 -0.0001 0.0039 -0.0009 31.7008 -0.0030 -0.7262
# 5 11.7989 8.3611 0.2689 -0.0030 35.0747 0.0028
# 6 0.0001 -0.0033 -0.0039 -0.7262 0.0028 23.7643
#
#
#
# Elastic Compliance Matrix: (Units=1/GPa)
#
#
# Indices 1 2 3 4 5 6 
#
# 1 0.012425 -0.003699 -0.002958 0.000000 -0.003275 -0.000001
# 2 -0.003699 0.014111 -0.002153 -0.000002 -0.002103 0.000002
# 3 -0.002958 -0.002153 0.009564 0.000001 0.001435 0.000001
# 4 0.000000 -0.000002 0.000001 0.031567 0.000003 0.000965
# 5 -0.003275 -0.002103 0.001435 0.000003 0.030103 -0.000004
# 6 -0.000001 0.000002 0.000001 0.000965 -0.000004 0.042109
#
#
# Mechanical properties :
#
#
# Convention : Reuss Voigt Hill
#
# Bulk Modulus (GPa) = 54.10696 56.99255 55.54976
# Shear Modulus (GPa) = 30.55132 32.11396 31.33264
#
# Velocity S-wave (km/s) = 3.74941 3.84410 3.79705
# Velocity P-wave (km/s) = 6.60615 6.77700 6.69212
#
# Compressibility (1/GPa) = 0.01848191
#
# Stress axis : x y z
#
# Youngs Moduli (GPa) = 80.48164 70.86540 104.55703
#
# Poissons Ratio (x) = 0.26211 0.30926
# Poissons Ratio (y) = 0.29768 0.22509
# Poissons Ratio (z) = 0.23805 0.15256
#
# Static dielectric constant tensor:
#      x y z
#    x 4.456510 -0.000010 -0.167420 
#    y -0.000010 3.645400 0.000000 
#    z -0.167420 0.000000 4.321190 
# 
# 
# High freq. dielectric constant tensor:
#      x y z
#    x 1.860110 0.000000 -0.010570 
#    y 0.000000 1.818590 0.000000 
#    z -0.010570 0.000000 1.866670 
# 
# From -- ./inp_files/156361.got.cif
#   From: 2010.06.25/outbox.cif.g09.slc.cpg/sg15_79_cif.got.tgz:156361.got - 2010.06.28 07:06:18.
