data_PCOD8139404
_publ_section_title
;
Structure prediction by ZEFSAII (Michael W. Deem and Ramdas Pophale) SiO2 
 PCOD8139404
Probable space group: C 2/C
;
_chemical_formula_sum "Si O2"
_cell_formula_units_Z 60
_cell_length_a 15.922830
_cell_length_b 9.405199
_cell_length_c 19.596008
_cell_angle_alpha 90.000000
_cell_angle_beta 111.273064
_cell_angle_gamma 90.000000
_cell_volume 2734.685637
_symmetry_space_group_name_H-M "C 2/C"
_symmetry_group_IT_number 15
_symmetry_cell_setting 'monoclinic'
loop_
_space_group_symop_operation_xyz
x,y,z
-x,y,1/2-z
-x,-y,-z
x,-y,1/2+z
1/2+x,1/2+y,z
1/2-x,1/2+y,1/2-z
1/2-x,1/2-y,-z
1/2+x,1/2-y,1/2+z
loop_
_atom_site_type_symbol
_atom_site_label
_atom_site_fract_x
_atom_site_fract_y
_atom_site_fract_z
Si Si1 0.672593 0.088137 0.627486
Si Si2 0.084028 0.645181 0.874634
Si Si3 0.579816 0.324515 0.518929
Si Si4 0.000000 0.747374 0.250000
Si Si5 0.574041 0.580139 0.432300
Si Si6 0.370326 0.512229 0.690980
Si Si7 0.885809 0.719192 0.760925
Si Si8 0.506104 0.110101 0.107039
O O1 0.652521 0.212619 0.566854
O O2 0.767766 0.022054 0.634453
O O3 0.686232 0.159064 0.706243
O O4 0.596360 0.965534 0.605462
O O5 0.125022 0.767453 0.937297
O O6 0.136406 0.638536 0.817790
O O7 0.982435 0.687630 0.822442
O O8 0.078315 0.501977 0.918176
O O9 0.625043 0.461342 0.493977
O O10 0.524202 0.387944 0.565657
O O11 0.513574 0.245665 0.445689
O O12 0.908368 0.838940 0.228893
O O13 0.989389 0.647747 0.312220
O O14 0.563435 0.520729 0.352831
O O15 0.376711 0.388527 0.749103
#
# Coordination Sequence:
#
# PCOD8139404 Si02
#       8
#     8   8   8   4   8   8   8   8
#     4  11  24  39  62  95 133 159 200 271 320 359
#     4   9  17  36  65  87 120 159 215 249 307 369
#     4  11  22  39  68  88 127 169 217 247 308 383
#     4  12  24  40  66  94 122 160 218 258 310 382
#     4  10  20  39  61  91 117 174 213 242 298 385
#     4  11  24  40  63  93 126 162 212 265 313 368
#     4   9  18  36  61  85 120 166 199 253 315 368
#     4  11  22  39  65  98 121 165 209 263 311 371
#
# _framework density 21.940365
#
# number of rings (size 3 to 8) (size 9 to 14) (size 15 to 20)
#    0.000    1.600    4.000    3.600    1.867    0.533 
#    0.000    0.667    0.000    0.000    0.000    0.000 
#    0.000    0.000    0.000    0.000    0.000    0.000 
#
# Total GULP energy -371669.216721 kJ/mol
# GULP energy per Si atom -12388.973891 kJ/mol
# Density = 2.189043 g / cm^3
# Si number density = 21.940365 Si / 1000 Ang^3
#
#
#
# Elastic Constant Matrix: (Units=GPa)
#
#
# Indices 1 2 3 4 5 6 
#
# 1 47.3413 27.6591 25.9428 0.0000 0.8939 0.0000
# 2 27.6591 106.5066 34.7092 0.0000 -8.3235 0.0000
# 3 25.9428 34.7092 71.6952 0.0000 -18.3766 0.0000
# 4 0.0000 0.0000 0.0000 41.9827 0.0000 -9.7044
# 5 0.8939 -8.3235 -18.3766 0.0000 21.1804 0.0000
# 6 0.0000 0.0000 0.0000 -9.7044 0.0000 14.7297
#
#
#
# Elastic Compliance Matrix: (Units=1/GPa)
#
#
# Indices 1 2 3 4 5 6 
#
# 1 0.031207 -0.005163 -0.012410 0.000000 -0.014113 0.000000
# 2 -0.005163 0.012005 -0.003444 0.000000 0.001947 0.000000
# 3 -0.012410 -0.003444 0.025583 0.000000 0.021366 0.000000
# 4 0.000000 0.000000 0.000000 0.028098 0.000000 0.018512
# 5 -0.014113 0.001947 0.021366 0.000000 0.067112 0.000000
# 6 0.000000 0.000000 0.000000 0.018512 0.000000 0.080087
#
#
# Mechanical properties :
#
#
# Convention : Reuss Voigt Hill
#
# Bulk Modulus (GPa) = 37.37058 44.68503 41.02781
# Shear Modulus (GPa) = 16.94654 24.72735 20.83694
#
# Velocity S-wave (km/s) = 2.78221 3.36076 3.08508
# Velocity P-wave (km/s) = 5.23361 5.95571 5.60630
#
# Compressibility (1/GPa) = 0.02675902
#
# Stress axis : x y z
#
# Youngs Moduli (GPa) = 32.04435 83.30206 39.08918
#
# Poissons Ratio (x) = 0.43008 0.48510
# Poissons Ratio (y) = 0.16544 0.13464
# Poissons Ratio (z) = 0.39767 0.28693
#
# Static dielectric constant tensor:
#      x y z
#    x 3.609730 0.000000 -0.556560 
#    y 0.000000 4.457880 0.000000 
#    z -0.556560 0.000000 4.131460 
# 
# 
# High freq. dielectric constant tensor:
#      x y z
#    x 1.809860 0.000000 -0.038680 
#    y 0.000000 1.885210 0.000000 
#    z -0.038680 0.000000 1.860990 
# 
# From -- ./inp_files/247498.got.cif
#   From: 2010.06.25/outbox.cif.g09.slc.cpg/sg15_124_cif.got.tgz:247498.got - 2010.06.28 07:06:18.
