data_PCOD8139430
_publ_section_title
;
Structure prediction by ZEFSAII (Michael W. Deem and Ramdas Pophale) SiO2 
 PCOD8139430
Probable space group: C 2/C
;
_chemical_formula_sum "Si O2"
_cell_formula_units_Z 52
_cell_length_a 8.612736
_cell_length_b 17.714653
_cell_length_c 23.962464
_cell_angle_alpha 90.000000
_cell_angle_beta 46.366479
_cell_angle_gamma 90.000000
_cell_volume 2646.091153
_symmetry_space_group_name_H-M "C 2/C"
_symmetry_group_IT_number 15
_symmetry_cell_setting 'monoclinic'
loop_
_space_group_symop_operation_xyz
x,y,z
-x,y,1/2-z
-x,-y,-z
x,-y,1/2+z
1/2+x,1/2+y,z
1/2-x,1/2+y,1/2-z
1/2-x,1/2-y,-z
1/2+x,1/2-y,1/2+z
loop_
_atom_site_type_symbol
_atom_site_label
_atom_site_fract_x
_atom_site_fract_y
_atom_site_fract_z
Si Si1 0.824520 0.901482 0.890413
Si Si2 0.358589 0.848779 0.026559
Si Si3 0.569653 0.240823 0.669993
Si Si4 0.609810 0.894822 0.355294
Si Si5 0.348921 0.558039 0.506468
Si Si6 0.000000 0.993952 0.250000
Si Si7 0.984718 0.813283 0.468752
O O1 0.942198 0.820181 0.860549
O O2 0.914143 0.953497 0.820014
O O3 0.569176 0.887859 0.948428
O O4 0.866854 0.949594 0.935703
O O5 0.317561 0.874575 0.099805
O O6 0.161163 0.868362 0.034163
O O7 0.361915 0.757905 0.025026
O O8 0.500000 0.254611 0.750000
O O9 0.425273 0.180429 0.672544
O O10 0.812353 0.213181 0.617254
O O11 0.396476 0.946921 0.410712
O O12 0.801299 0.941923 0.279047
O O13 0.500000 0.500000 0.500000
O O14 0.433243 0.641766 0.498031
#
# Coordination Sequence:
#
# PCOD8139430 Si02
#       7
#     8   8   8   8   8   4   8
#     4  10  22  41  63  86 122 163 205 245 312 369
#     4   9  19  38  65  87 115 155 206 253 288 359
#     4  10  20  39  62  87 122 166 199 247 309 368
#     4  10  24  38  60  88 121 158 203 248 303 361
#     4  10  22  38  63  86 118 159 203 255 303 357
#     4  12  26  38  60  94 128 160 196 254 314 374
#     4   9  19  35  62  92 114 148 211 252 289 357
#
# _framework density 19.651627000000001
#
# number of rings (size 3 to 8) (size 9 to 14) (size 15 to 20)
#    0.000    2.154    0.769    0.923    6.462    6.154 
#    0.000    0.000    3.385    0.000    0.000    0.000 
#    0.000    0.000    0.000    0.000    0.000    0.000 
#
# Total GULP energy -322316.228837 kJ/mol
# GULP energy per Si atom -12396.778032 kJ/mol
# Density = 1.960690 g / cm^3
# Si number density = 19.651627 Si / 1000 Ang^3
#
#
#
# Elastic Constant Matrix: (Units=GPa)
#
#
# Indices 1 2 3 4 5 6 
#
# 1 104.9547 40.4595 36.3897 0.0049 -7.0805 -0.0013
# 2 40.4595 86.2360 38.8455 0.0012 -10.9755 -0.0011
# 3 36.3897 38.8455 88.6705 0.0023 -2.9354 0.0026
# 4 0.0049 0.0012 0.0023 27.9809 -0.0047 0.6882
# 5 -7.0805 -10.9755 -2.9354 -0.0047 22.7393 0.0003
# 6 -0.0013 -0.0011 0.0026 0.6882 0.0003 40.2245
#
#
#
# Elastic Compliance Matrix: (Units=1/GPa)
#
#
# Indices 1 2 3 4 5 6 
#
# 1 0.012337 -0.004172 -0.003189 -0.000001 0.001416 0.000001
# 2 -0.004172 0.016778 -0.005436 0.000001 0.006098 0.000001
# 3 -0.003189 -0.005436 0.014912 -0.000001 -0.001692 -0.000001
# 4 -0.000001 0.000001 -0.000001 0.035754 0.000007 -0.000612
# 5 0.001416 0.006098 -0.001692 0.000007 0.047142 0.000000
# 6 0.000001 0.000001 -0.000001 -0.000612 0.000000 0.024871
#
#
# Mechanical properties :
#
#
# Convention : Reuss Voigt Hill
#
# Bulk Modulus (GPa) = 54.24809 56.80563 55.52686
# Shear Modulus (GPa) = 27.24309 29.13337 28.18823
#
# Velocity S-wave (km/s) = 3.72735 3.85449 3.79145
# Velocity P-wave (km/s) = 6.79625 6.98416 6.89085
#
# Compressibility (1/GPa) = 0.01843383
#
# Stress axis : x y z
#
# Youngs Moduli (GPa) = 81.05583 59.60092 67.06027
#
# Poissons Ratio (x) = 0.24863 0.21383
# Poissons Ratio (y) = 0.33814 0.36457
# Poissons Ratio (z) = 0.25846 0.32402
#
# Static dielectric constant tensor:
#      x y z
#    x 3.757770 0.000010 -0.095500 
#    y 0.000010 3.760740 0.000010 
#    z -0.095500 0.000010 3.513090 
# 
# 
# High freq. dielectric constant tensor:
#      x y z
#    x 1.766430 0.000000 -0.001520 
#    y 0.000000 1.776170 0.000000 
#    z -0.001520 0.000000 1.757550 
# 
# From -- ./inp_files/190465.got.cif
#   From: 2010.06.25/outbox.cif.g09.slc.cpg/sg15_96_cif.got.tgz:190465.got - 2010.06.28 07:06:18.
