data_PCOD8139112
_publ_section_title
;
Structure prediction by ZEFSAII (Michael W. Deem and Ramdas Pophale) SiO2 
 PCOD8139112
Probable space group: C 2/C
;
_chemical_formula_sum "Si O2"
_cell_formula_units_Z 60
_cell_length_a 17.819364
_cell_length_b 14.592560
_cell_length_c 14.358312
_cell_angle_alpha 90.000000
_cell_angle_beta 123.287005
_cell_angle_gamma 90.000000
_cell_volume 3121.030061
_symmetry_space_group_name_H-M "C 2/C"
_symmetry_group_IT_number 15
_symmetry_cell_setting 'monoclinic'
loop_
_space_group_symop_operation_xyz
x,y,z
-x,y,1/2-z
-x,-y,-z
x,-y,1/2+z
1/2+x,1/2+y,z
1/2-x,1/2+y,1/2-z
1/2-x,1/2-y,-z
1/2+x,1/2-y,1/2+z
loop_
_atom_site_type_symbol
_atom_site_label
_atom_site_fract_x
_atom_site_fract_y
_atom_site_fract_z
Si Si1 0.807437 0.290808 0.810009
Si Si2 0.500000 0.656181 0.250000
Si Si3 0.245306 0.087731 0.734250
Si Si4 0.578094 0.194899 0.933331
Si Si5 0.328604 0.564637 0.200559
Si Si6 0.941916 0.552109 0.885178
Si Si7 0.208685 0.457638 0.443206
Si Si8 0.091870 0.402048 0.778812
O O1 0.772169 0.192841 0.753749
O O2 0.725652 0.352910 0.788527
O O3 0.855264 0.336107 0.754264
O O4 0.877656 0.274437 0.940331
O O5 0.436963 0.716529 0.140052
O O6 0.432343 0.592820 0.262160
O O7 0.339334 0.061052 0.848654
O O8 0.247337 0.068807 0.625536
O O9 0.170943 0.023515 0.731481
O O10 0.481287 0.151881 0.890360
O O11 0.638958 0.122038 0.921037
O O12 0.287251 0.537236 0.072523
O O13 0.944987 0.493737 0.794110
O O14 0.000000 0.500000 0.000000
O O15 0.159276 0.557808 0.404379
O O16 0.000000 0.351095 0.750000
#
# Coordination Sequence:
#
# PCOD8139112 Si02
#       8
#     8   4   8   8   8   8   8   8
#     4  11  22  40  61  89 122 160 199 250 318 366
#     4  12  24  38  60  90 122 162 212 252 294 364
#     4  11  23  38  62  86 126 161 196 251 312 367
#     4  11  20  35  63  96 119 148 204 268 310 358
#     4  11  23  42  62  85 124 163 207 254 297 366
#     4  11  18  34  60  91 116 147 195 256 316 353
#     4  10  20  38  65  91 118 154 200 258 318 349
#     4  11  20  34  61  91 124 153 195 251 303 372
#
# _framework density 19.224422000000001
#
# number of rings (size 3 to 8) (size 9 to 14) (size 15 to 20)
#    0.000    1.067    5.333    4.800    0.000    2.133 
#    1.200    3.333    0.000    0.000    0.000    0.000 
#    0.000    0.000    0.000    0.000    0.000    0.000 
#
# Total GULP energy -372016.841158 kJ/mol
# GULP energy per Si atom -12400.561372 kJ/mol
# Density = 1.918067 g / cm^3
# Si number density = 19.224422 Si / 1000 Ang^3
#
#
#
# Elastic Constant Matrix: (Units=GPa)
#
#
# Indices 1 2 3 4 5 6 
#
# 1 118.6197 43.7808 28.7292 0.0000 -14.6633 0.0000
# 2 43.7808 97.8671 37.3709 0.0000 -10.9482 0.0000
# 3 28.7292 37.3709 74.6763 0.0000 -4.7539 0.0000
# 4 0.0000 0.0000 0.0000 22.8148 0.0000 2.9221
# 5 -14.6633 -10.9482 -4.7539 0.0000 16.9084 0.0000
# 6 0.0000 0.0000 0.0000 2.9221 0.0000 29.7734
#
#
#
# Elastic Compliance Matrix: (Units=1/GPa)
#
#
# Indices 1 2 3 4 5 6 
#
# 1 0.011025 -0.003360 -0.002128 0.000000 0.006787 0.000000
# 2 -0.003360 0.014403 -0.005607 0.000000 0.004836 0.000000
# 3 -0.002128 -0.005607 0.016971 0.000000 -0.000705 0.000000
# 4 0.000000 0.000000 0.000000 0.044389 0.000000 -0.004357
# 5 0.006787 0.004836 -0.000705 0.000000 0.067961 0.000000
# 6 0.000000 0.000000 0.000000 -0.004357 0.000000 0.034015
#
#
# Mechanical properties :
#
#
# Convention : Reuss Voigt Hill
#
# Bulk Modulus (GPa) = 49.48449 56.76941 53.12695
# Shear Modulus (GPa) = 22.96837 25.98482 24.47660
#
# Velocity S-wave (km/s) = 3.46027 3.68048 3.57207
# Velocity P-wave (km/s) = 6.46227 6.90327 6.68641
#
# Compressibility (1/GPa) = 0.02020835
#
# Stress axis : x y z
#
# Youngs Moduli (GPa) = 90.70441 69.42874 58.92394
#
# Poissons Ratio (x) = 0.23329 0.12538
# Poissons Ratio (y) = 0.30478 0.33041
# Poissons Ratio (z) = 0.19300 0.38931
#
# Static dielectric constant tensor:
#      x y z
#    x 3.289940 0.000000 -0.167050 
#    y 0.000000 3.460820 0.000000 
#    z -0.167050 0.000000 3.579130 
# 
# 
# High freq. dielectric constant tensor:
#      x y z
#    x 1.748350 0.000000 -0.004130 
#    y 0.000000 1.731460 0.000000 
#    z -0.004130 0.000000 1.746860 
# 
# From -- ./inp_files/105765.got.cif
#   From: 2010.06.25/outbox.cif.g09.slc.cpg/sg15_53_cif.got.tgz:105765.got - 2010.06.28 07:06:18.
