data_PCOD8139523
_publ_section_title
;
Structure prediction by ZEFSAII (Michael W. Deem and Ramdas Pophale) SiO2 
 PCOD8139523
Probable space group: C 2/C
;
_chemical_formula_sum "Si O2"
_cell_formula_units_Z 64
_cell_length_a 5.706248
_cell_length_b 18.269681
_cell_length_c 28.439819
_cell_angle_alpha 90.000000
_cell_angle_beta 86.111339
_cell_angle_gamma 90.000000
_cell_volume 2958.062969
_symmetry_space_group_name_H-M "C 2/C"
_symmetry_group_IT_number 15
_symmetry_cell_setting 'monoclinic'
loop_
_space_group_symop_operation_xyz
x,y,z
-x,y,1/2-z
-x,-y,-z
x,-y,1/2+z
1/2+x,1/2+y,z
1/2-x,1/2+y,1/2-z
1/2-x,1/2-y,-z
1/2+x,1/2-y,1/2+z
loop_
_atom_site_type_symbol
_atom_site_label
_atom_site_fract_x
_atom_site_fract_y
_atom_site_fract_z
Si Si1 0.516880 0.086457 0.361154
Si Si2 0.463174 0.074373 0.638824
Si Si3 0.129580 0.815040 0.391412
Si Si4 0.393633 0.320396 0.900936
Si Si5 0.149642 0.067275 0.556158
Si Si6 0.669057 0.570251 0.449314
Si Si7 0.806456 0.275864 0.831060
Si Si8 0.256226 0.150142 0.726091
O O1 0.775671 0.117808 0.368744
O O2 0.387204 0.088035 0.413296
O O3 0.397654 0.140961 0.324708
O O4 0.494955 0.005942 0.338804
O O5 0.690768 0.125092 0.632076
O O6 0.365333 0.054181 0.588390
O O7 0.270087 0.113325 0.674133
O O8 0.231290 0.746675 0.420064
O O9 0.956124 0.853828 0.430105
O O10 0.007384 0.777946 0.348382
O O11 0.487772 0.362300 0.945574
O O12 0.587257 0.276488 0.868749
O O13 0.252559 0.067003 0.502078
O O14 0.950294 0.005694 0.564849
O O15 0.740344 0.238740 0.781785
O O16 0.500000 0.127755 0.750000
O O17 0.000000 0.125186 0.750000
#
# Coordination Sequence:
#
# PCOD8139523 Si02
#       8
#     8   8   8   8   8   8   8   8
#     4  10  22  39  69  91 136 177 223 273 335 410
#     4  12  23  42  68  98 130 182 220 279 356 406
#     4  11  20  38  66  89 127 179 225 272 335 410
#     4  10  20  39  63  92 124 177 221 271 330 404
#     4  11  22  36  61  93 137 181 228 280 332 406
#     4  10  22  37  56  99 135 176 235 277 327 391
#     4  10  22  43  67  95 126 175 223 266 350 413
#     4  12  27  46  78 105 136 170 228 290 348 426
#
# _framework density 21.635781999999999
#
# number of rings (size 3 to 8) (size 9 to 14) (size 15 to 20)
#    0.000    1.250    5.000    0.750    1.750    2.000 
#    0.000    9.375    0.000    0.000    0.000    0.000 
#    0.000    0.000    0.000    0.000    0.000    0.000 
#
# Total GULP energy -396536.188160 kJ/mol
# GULP energy per Si atom -12391.755880 kJ/mol
# Density = 2.158654 g / cm^3
# Si number density = 21.635782 Si / 1000 Ang^3
#
#
#
# Elastic Constant Matrix: (Units=GPa)
#
#
# Indices 1 2 3 4 5 6 
#
# 1 79.0307 24.3575 8.5791 0.0000 6.7298 0.0000
# 2 24.3575 133.8963 5.8957 0.0000 4.4948 0.0000
# 3 8.5791 5.8957 37.7552 0.0000 1.4916 0.0000
# 4 0.0000 0.0000 0.0000 21.0545 0.0000 3.6568
# 5 6.7298 4.4948 1.4916 0.0000 24.8026 0.0000
# 6 0.0000 0.0000 0.0000 3.6568 0.0000 41.6808
#
#
#
# Elastic Compliance Matrix: (Units=1/GPa)
#
#
# Indices 1 2 3 4 5 6 
#
# 1 0.013928 -0.002308 -0.002678 0.000000 -0.003200 0.000000
# 2 -0.002308 0.007944 -0.000686 0.000000 -0.000772 0.000000
# 3 -0.002678 -0.000686 0.027233 0.000000 -0.000787 0.000000
# 4 0.000000 0.000000 0.000000 0.048231 0.000000 -0.004231
# 5 -0.003200 -0.000772 -0.000787 0.000000 0.041374 0.000000
# 6 0.000000 0.000000 0.000000 -0.004231 0.000000 0.024363
#
#
# Mechanical properties :
#
#
# Convention : Reuss Voigt Hill
#
# Bulk Modulus (GPa) = 26.48182 36.48299 31.48240
# Shear Modulus (GPa) = 26.73739 31.63091 29.18415
#
# Velocity S-wave (km/s) = 3.51920 3.82772 3.67670
# Velocity P-wave (km/s) = 5.36465 6.03608 5.71024
#
# Compressibility (1/GPa) = 0.03776176
#
# Stress axis : x y z
#
# Youngs Moduli (GPa) = 71.79818 125.87337 36.72007
#
# Poissons Ratio (x) = 0.29056 0.09833
# Poissons Ratio (y) = 0.16574 0.02517
# Poissons Ratio (z) = 0.19227 0.08629
#
# Static dielectric constant tensor:
#      x y z
#    x 3.992950 0.000000 0.116220 
#    y 0.000000 4.291070 0.000000 
#    z 0.116220 0.000000 3.565320 
# 
# 
# High freq. dielectric constant tensor:
#      x y z
#    x 1.857210 0.000000 0.003620 
#    y 0.000000 1.871220 0.000000 
#    z 0.003620 0.000000 1.807070 
# 
# From -- ./inp_files/305807.got.cif
#   From: 2010.06.25/outbox.cif.g09.slc.cpg/sg15_153_cif.got.tgz:305807.got - 2010.06.28 07:06:18.
