data_PCOD8139632
_publ_section_title
;
Structure prediction by ZEFSAII (Michael W. Deem and Ramdas Pophale) SiO2 
 PCOD8139632
Probable space group: C 2/C
;
_chemical_formula_sum "Si O2"
_cell_formula_units_Z 44
_cell_length_a 17.409104
_cell_length_b 14.062268
_cell_length_c 11.759239
_cell_angle_alpha 90.000000
_cell_angle_beta 48.865755
_cell_angle_gamma 90.000000
_cell_volume 2168.224381
_symmetry_space_group_name_H-M "C 2/C"
_symmetry_group_IT_number 15
_symmetry_cell_setting 'monoclinic'
loop_
_space_group_symop_operation_xyz
x,y,z
-x,y,1/2-z
-x,-y,-z
x,-y,1/2+z
1/2+x,1/2+y,z
1/2-x,1/2+y,1/2-z
1/2-x,1/2-y,-z
1/2+x,1/2-y,1/2+z
loop_
_atom_site_type_symbol
_atom_site_label
_atom_site_fract_x
_atom_site_fract_y
_atom_site_fract_z
Si Si1 0.251947 0.156788 0.229308
Si Si2 0.000000 0.903111 0.250000
Si Si3 0.329502 0.491279 0.055821
Si Si4 0.388852 0.678612 0.651280
Si Si5 0.550056 0.274501 0.814499
Si Si6 0.808887 0.350117 0.441165
O O1 0.243817 0.075922 0.331399
O O2 0.287190 0.255722 0.254383
O O3 0.141183 0.163363 0.277446
O O4 0.332001 0.126551 0.051343
O O5 0.066869 0.834138 0.265463
O O6 0.928850 0.968984 0.396568
O O7 0.364643 0.425776 0.126337
O O8 0.260315 0.433206 0.037755
O O9 0.467042 0.735261 0.494023
O O10 0.500000 0.324347 0.750000
O O11 0.590303 0.169657 0.733267
O O12 0.750000 0.250000 0.500000
#
# Coordination Sequence:
#
# PCOD8139632 Si02
#       6
#     8   4   8   8   8   8
#     4  11  23  42  66  98 132 175 217 276 337 383
#     4  12  28  38  66 106 132 172 222 282 340 390
#     4  12  24  41  66 100 134 172 225 274 328 400
#     4  12  24  44  68  96 139 173 221 278 333 394
#     4  11  20  39  71  96 124 171 226 266 322 389
#     4  10  20  39  65  95 129 175 215 267 327 382
#
# _framework density 20.293104
#
# number of rings (size 3 to 8) (size 9 to 14) (size 15 to 20)
#    0.000    0.727    7.273    2.727    6.364    0.727 
#    0.000    0.909    2.000    0.000    0.000    0.000 
#    0.000    0.000    0.000    0.000    0.000    0.000 
#
# Total GULP energy -272655.471447 kJ/mol
# GULP energy per Si atom -12393.430520 kJ/mol
# Density = 2.024692 g / cm^3
# Si number density = 20.293104 Si / 1000 Ang^3
#
#
#
# Elastic Constant Matrix: (Units=GPa)
#
#
# Indices 1 2 3 4 5 6 
#
# 1 123.1947 59.7827 15.6571 0.0000 16.0436 0.0000
# 2 59.7827 113.2908 59.5946 0.0000 3.1642 0.0000
# 3 15.6571 59.5946 81.9728 0.0000 5.6694 0.0000
# 4 0.0000 0.0000 0.0000 38.8135 0.0000 4.0151
# 5 16.0436 3.1642 5.6694 0.0000 31.0812 0.0000
# 6 0.0000 0.0000 0.0000 4.0151 0.0000 37.0524
#
#
#
# Elastic Compliance Matrix: (Units=1/GPa)
#
#
# Indices 1 2 3 4 5 6 
#
# 1 0.012696 -0.008871 0.004472 0.000000 -0.006466 0.000000
# 2 -0.008871 0.020498 -0.013551 0.000000 0.004964 0.000000
# 3 0.004472 -0.013551 0.021532 0.000000 -0.004856 0.000000
# 4 0.000000 0.000000 0.000000 0.026056 0.000000 -0.002824
# 5 -0.006466 0.004964 -0.004856 0.000000 0.035892 0.000000
# 6 0.000000 0.000000 0.000000 -0.002824 0.000000 0.027295
#
#
# Mechanical properties :
#
#
# Convention : Reuss Voigt Hill
#
# Bulk Modulus (GPa) = 53.12004 65.39188 59.25596
# Shear Modulus (GPa) = 26.86087 33.61767 30.23927
#
# Velocity S-wave (km/s) = 3.64214 4.07456 3.86440
# Velocity P-wave (km/s) = 6.62723 7.37765 7.01248
#
# Compressibility (1/GPa) = 0.01882529
#
# Stress axis : x y z
#
# Youngs Moduli (GPa) = 78.76577 48.78634 46.44166
#
# Poissons Ratio (x) = 0.43279 -0.20767
# Poissons Ratio (y) = 0.69874 0.62932
# Poissons Ratio (z) = -0.35221 0.66109
#
# Static dielectric constant tensor:
#      x y z
#    x 3.816630 0.000000 -0.029080 
#    y 0.000000 3.561770 0.000000 
#    z -0.029080 0.000000 4.227900 
# 
# 
# High freq. dielectric constant tensor:
#      x y z
#    x 1.793920 0.000000 0.004360 
#    y 0.000000 1.764900 0.000000 
#    z 0.004360 0.000000 1.797860 
# 
# From -- ./inp_files/105192.got.cif
#   From: 2010.06.25/outbox.cif.g09.slc.cpg/sg15_53_cif.got.tgz:105192.got - 2010.06.28 07:06:18.
