data_PCOD8139424
_publ_section_title
;
Structure prediction by ZEFSAII (Michael W. Deem and Ramdas Pophale) SiO2 
 PCOD8139424
Probable space group: C 2/C
;
_chemical_formula_sum "Si O2"
_cell_formula_units_Z 44
_cell_length_a 16.364237
_cell_length_b 8.310191
_cell_length_c 18.322603
_cell_angle_alpha 90.000000
_cell_angle_beta 53.487922
_cell_angle_gamma 90.000000
_cell_volume 2002.649297
_symmetry_space_group_name_H-M "C 2/C"
_symmetry_group_IT_number 15
_symmetry_cell_setting 'monoclinic'
loop_
_space_group_symop_operation_xyz
x,y,z
-x,y,1/2-z
-x,-y,-z
x,-y,1/2+z
1/2+x,1/2+y,z
1/2-x,1/2+y,1/2-z
1/2-x,1/2-y,-z
1/2+x,1/2-y,1/2+z
loop_
_atom_site_type_symbol
_atom_site_label
_atom_site_fract_x
_atom_site_fract_y
_atom_site_fract_z
Si Si1 0.127281 0.992301 0.777031
Si Si2 0.000000 0.773463 0.250000
Si Si3 0.362399 0.960907 0.915851
Si Si4 0.441712 0.140224 0.653915
Si Si5 0.733985 0.026484 0.170114
Si Si6 0.300742 0.877060 0.105085
O O1 0.073549 0.820155 0.809093
O O2 0.171113 0.046955 0.834204
O O3 0.225836 0.978621 0.670811
O O4 0.046275 0.118290 0.790158
O O5 0.085474 0.670735 0.163941
O O6 0.439828 0.098950 0.900065
O O7 0.272370 0.034286 0.911485
O O8 0.312822 0.875874 0.011988
O O9 0.374314 0.016426 0.736310
O O10 0.411156 0.116596 0.585202
O O11 0.745100 0.218719 0.165034
#
# Coordination Sequence:
#
# PCOD8139424 Si02
#       6
#     8   4   8   8   8   8
#     4  10  23  40  60  89 121 161 199 247 301 356
#     4  12  24  38  64  86 120 166 206 248 292 364
#     4  12  21  39  67  91 117 161 206 245 300 356
#     4  10  21  39  63  91 125 159 194 247 307 359
#     4  10  20  39  62  86 122 162 196 240 302 359
#     4  10  21  40  65  91 121 158 203 246 294 365
#
# _framework density 21.970897000000001
#
# number of rings (size 3 to 8) (size 9 to 14) (size 15 to 20)
#    0.000    1.455    3.636    1.091    2.545    0.000 
#    0.000    6.364    0.000    0.000    0.000    0.000 
#    0.000    0.000    0.000    0.000    0.000    0.000 
#
# Total GULP energy -272630.045393 kJ/mol
# GULP energy per Si atom -12392.274791 kJ/mol
# Density = 2.192089 g / cm^3
# Si number density = 21.970897 Si / 1000 Ang^3
#
#
#
# Elastic Constant Matrix: (Units=GPa)
#
#
# Indices 1 2 3 4 5 6 
#
# 1 163.7799 32.5608 28.4261 0.0000 37.1735 0.0001
# 2 32.5608 51.3961 19.9838 0.0000 3.2548 0.0002
# 3 28.4261 19.9838 75.6225 0.0000 34.3948 0.0000
# 4 0.0000 0.0000 0.0000 14.3859 0.0000 8.4301
# 5 37.1735 3.2548 34.3948 0.0000 39.8069 0.0000
# 6 0.0001 0.0002 0.0000 8.4301 0.0000 29.1689
#
#
#
# Elastic Compliance Matrix: (Units=1/GPa)
#
#
# Indices 1 2 3 4 5 6 
#
# 1 0.009310 -0.006436 0.003157 0.000000 -0.010896 0.000000
# 2 -0.006436 0.026817 -0.010549 0.000000 0.012932 0.000000
# 3 0.003157 -0.010549 0.025985 0.000000 -0.024537 0.000000
# 4 0.000000 0.000000 0.000000 0.083685 0.000000 -0.024186
# 5 -0.010896 0.012932 -0.024537 0.000000 0.055440 0.000000
# 6 0.000000 0.000000 0.000000 -0.024186 0.000000 0.041273
#
#
# Mechanical properties :
#
#
# Convention : Reuss Voigt Hill
#
# Bulk Modulus (GPa) = 29.02332 50.30442 39.66387
# Shear Modulus (GPa) = 17.75239 30.66084 24.20661
#
# Velocity S-wave (km/s) = 2.84561 3.73972 3.32288
# Velocity P-wave (km/s) = 4.90257 6.44926 5.72836
#
# Compressibility (1/GPa) = 0.03445505
#
# Stress axis : x y z
#
# Youngs Moduli (GPa) = 107.40712 37.29013 38.48394
#
# Poissons Ratio (x) = 0.23999 -0.12148
# Poissons Ratio (y) = 0.69124 0.40598
# Poissons Ratio (z) = -0.33904 0.39339
#
# Static dielectric constant tensor:
#      x y z
#    x 4.726540 0.000000 0.353890 
#    y 0.000000 3.712280 0.000000 
#    z 0.353890 0.000000 3.639630 
# 
# 
# High freq. dielectric constant tensor:
#      x y z
#    x 1.900740 0.000000 0.022460 
#    y 0.000000 1.845570 0.000000 
#    z 0.022460 0.000000 1.830730 
# 
# From -- ./inp_files/159197.got.cif
#   From: 2010.06.25/outbox.cif.g09.slc.cpg/sg15_80_cif.got.tgz:159197.got - 2010.06.28 07:06:18.
