data_PCOD8139810
_publ_section_title
;
Structure prediction by ZEFSAII (Michael W. Deem and Ramdas Pophale) SiO2 
 PCOD8139810
Probable space group: C 2/C
;
_chemical_formula_sum "Si O2"
_cell_formula_units_Z 52
_cell_length_a 11.368029
_cell_length_b 16.527431
_cell_length_c 14.440662
_cell_angle_alpha 90.000000
_cell_angle_beta 111.021773
_cell_angle_gamma 90.000000
_cell_volume 2532.596362
_symmetry_space_group_name_H-M "C 2/C"
_symmetry_group_IT_number 15
_symmetry_cell_setting 'monoclinic'
loop_
_space_group_symop_operation_xyz
x,y,z
-x,y,1/2-z
-x,-y,-z
x,-y,1/2+z
1/2+x,1/2+y,z
1/2-x,1/2+y,1/2-z
1/2-x,1/2-y,-z
1/2+x,1/2-y,1/2+z
loop_
_atom_site_type_symbol
_atom_site_label
_atom_site_fract_x
_atom_site_fract_y
_atom_site_fract_z
Si Si1 0.500000 0.122335 0.750000
Si Si2 0.138433 0.649918 0.415978
Si Si3 0.870990 0.892983 0.326003
Si Si4 0.298369 0.172273 0.565622
Si Si5 0.085501 0.574180 0.056311
Si Si6 0.148084 0.834912 0.378010
Si Si7 0.310589 0.979902 0.729041
O O1 0.434715 0.181580 0.655701
O O2 0.390734 0.063005 0.754930
O O3 0.138285 0.737990 0.370723
O O4 0.253214 0.635693 0.518059
O O5 0.143306 0.581426 0.337549
O O6 0.009774 0.644359 0.437859
O O7 0.813960 0.845419 0.396150
O O8 0.810470 0.860659 0.212776
O O9 0.019687 0.880031 0.369199
O O10 0.833420 0.988659 0.325957
O O11 0.250000 0.250000 0.500000
O O12 0.321596 0.099718 0.499797
O O13 0.178841 0.558799 0.167654
O O14 0.000000 0.500000 0.000000
#
# Coordination Sequence:
#
# PCOD8139810 Si02
#       7
#     4   8   8   8   8   8   8
#     4  10  20  40  60  92 126 168 212 272 320 390
#     4  11  23  39  68  99 123 170 233 270 322 397
#     4  10  23  42  61  91 132 173 213 269 335 389
#     4  11  24  38  61  97 135 169 209 274 340 392
#     4  12  21  38  67  99 128 165 220 274 327 385
#     4  10  24  43  65  90 130 180 216 272 328 399
#     4  11  21  39  67 100 125 165 226 280 315 388
#
# _framework density 20.532288999999999
#
# number of rings (size 3 to 8) (size 9 to 14) (size 15 to 20)
#    0.000    1.231    3.077    2.769    8.615    0.615 
#    0.000    1.538    0.000    0.000    0.000    0.000 
#    0.000    0.000    0.000    0.000    0.000    0.000 
#
# Total GULP energy -322257.090351 kJ/mol
# GULP energy per Si atom -12394.503475 kJ/mol
# Density = 2.048556 g / cm^3
# Si number density = 20.532289 Si / 1000 Ang^3
#
#
#
# Elastic Constant Matrix: (Units=GPa)
#
#
# Indices 1 2 3 4 5 6 
#
# 1 110.6859 43.5613 51.4319 0.0000 -12.7688 0.0000
# 2 43.5613 76.4519 38.9169 0.0000 1.3265 0.0000
# 3 51.4319 38.9169 125.4161 0.0000 -4.3783 0.0000
# 4 0.0000 0.0000 0.0000 36.2667 0.0000 4.4887
# 5 -12.7688 1.3265 -4.3783 0.0000 44.0632 0.0000
# 6 0.0000 0.0000 0.0000 4.4887 0.0000 31.3193
#
#
#
# Elastic Compliance Matrix: (Units=1/GPa)
#
#
# Indices 1 2 3 4 5 6 
#
# 1 0.013440 -0.005918 -0.003546 0.000000 0.003721 0.000000
# 2 -0.005918 0.018179 -0.003305 0.000000 -0.002591 0.000000
# 3 -0.003546 -0.003305 0.010457 0.000000 0.000111 0.000000
# 4 0.000000 0.000000 0.000000 0.028071 0.000000 -0.004023
# 5 0.003721 -0.002591 0.000111 0.000000 0.023862 0.000000
# 6 0.000000 0.000000 0.000000 -0.004023 0.000000 0.032506
#
#
# Mechanical properties :
#
#
# Convention : Reuss Voigt Hill
#
# Bulk Modulus (GPa) = 60.45868 64.48599 62.47233
# Shear Modulus (GPa) = 31.73300 34.23944 32.98622
#
# Velocity S-wave (km/s) = 3.93557 4.08804 4.01253
# Velocity P-wave (km/s) = 7.08246 7.33199 7.20830
#
# Compressibility (1/GPa) = 0.01654022
#
# Stress axis : x y z
#
# Youngs Moduli (GPa) = 74.40316 55.00804 95.63203
#
# Poissons Ratio (x) = 0.32553 0.33907
# Poissons Ratio (y) = 0.44031 0.31603
# Poissons Ratio (z) = 0.26380 0.18178
#
# Static dielectric constant tensor:
#      x y z
#    x 3.856670 0.000000 0.071010 
#    y 0.000000 3.646620 0.000000 
#    z 0.071010 0.000000 4.026850 
# 
# 
# High freq. dielectric constant tensor:
#      x y z
#    x 1.801910 0.000000 -0.006910 
#    y 0.000000 1.788760 0.000000 
#    z -0.006910 0.000000 1.823740 
# 
# From -- ./inp_files/144323.got.cif
#   From: 2010.06.25/outbox.cif.g09.slc.cpg/sg15_73_cif.got.tgz:144323.got - 2010.06.28 07:06:18.
