data_PCOD8139510
_publ_section_title
;
Structure prediction by ZEFSAII (Michael W. Deem and Ramdas Pophale) SiO2 
 PCOD8139510
Probable space group: C 2/C
;
_chemical_formula_sum "Si O2"
_cell_formula_units_Z 52
_cell_length_a 10.034065
_cell_length_b 27.685336
_cell_length_c 14.633884
_cell_angle_alpha 90.000000
_cell_angle_beta 40.890047
_cell_angle_gamma 90.000000
_cell_volume 2661.145510
_symmetry_space_group_name_H-M "C 2/C"
_symmetry_group_IT_number 15
_symmetry_cell_setting 'monoclinic'
loop_
_space_group_symop_operation_xyz
x,y,z
-x,y,1/2-z
-x,-y,-z
x,-y,1/2+z
1/2+x,1/2+y,z
1/2-x,1/2+y,1/2-z
1/2-x,1/2-y,-z
1/2+x,1/2-y,1/2+z
loop_
_atom_site_type_symbol
_atom_site_label
_atom_site_fract_x
_atom_site_fract_y
_atom_site_fract_z
Si Si1 0.256871 0.956541 0.381811
Si Si2 0.460802 0.472552 0.374702
Si Si3 0.000000 0.708599 0.750000
Si Si4 0.889631 0.137406 0.899179
Si Si5 0.856728 0.770275 0.660904
Si Si6 0.079121 0.283870 0.551570
Si Si7 0.614890 0.351183 0.465238
O O1 0.500000 0.950048 0.250000
O O2 0.142048 0.907645 0.472498
O O3 0.169301 0.972276 0.327246
O O4 0.205247 0.994601 0.487927
O O5 0.500000 0.490946 0.250000
O O6 0.359161 0.419870 0.422108
O O7 0.904052 0.744245 0.728638
O O8 0.827415 0.673812 0.877906
O O9 0.000000 0.153298 0.750000
O O10 0.037639 0.157181 0.901697
O O11 0.664840 0.161307 0.014561
O O12 0.956147 0.735259 0.532940
O O13 0.615068 0.778802 0.782130
O O14 0.949923 0.824484 0.614128
O O15 0.250000 0.250000 0.500000
#
# Coordination Sequence:
#
# PCOD8139510 Si02
#       7
#     8   8   4   8   8   8   8
#     4  10  21  42  67  89 123 166 204 252 318 369
#     4   9  21  42  64  95 124 153 206 264 308 369
#     4  12  22  42  56  82 122 164 208 240 292 366
#     4  10  20  39  63  90 121 156 201 251 311 362
#     4  12  25  39  58  87 125 160 205 252 297 359
#     4  12  22  38  60  88 118 157 198 249 307 360
#     4  11  22  39  63  84 120 168 204 247 299 367
#
# _framework density 19.540458000000001
#
# number of rings (size 3 to 8) (size 9 to 14) (size 15 to 20)
#    0.000    1.231    3.846    2.769    0.000    0.615 
#    9.692    0.000    0.000    0.000    0.000    0.000 
#    0.000    0.000    0.000    0.000    0.000    0.000 
#
# Total GULP energy -322278.530588 kJ/mol
# GULP energy per Si atom -12395.328100 kJ/mol
# Density = 1.949598 g / cm^3
# Si number density = 19.540458 Si / 1000 Ang^3
#
#
#
# Elastic Constant Matrix: (Units=GPa)
#
#
# Indices 1 2 3 4 5 6 
#
# 1 48.3522 22.4002 18.6943 0.0000 -11.3046 0.0000
# 2 22.4002 91.5457 43.9750 0.0000 -7.8356 0.0000
# 3 18.6943 43.9750 104.7158 0.0000 -20.6286 0.0000
# 4 0.0000 0.0000 0.0000 96.1176 0.0000 36.0582
# 5 -11.3046 -7.8356 -20.6286 0.0000 28.2550 0.0000
# 6 0.0000 0.0000 0.0000 36.0582 0.0000 51.1015
#
#
#
# Elastic Compliance Matrix: (Units=1/GPa)
#
#
# Indices 1 2 3 4 5 6 
#
# 1 0.025246 -0.005118 -0.000756 0.000000 0.008129 0.000000
# 2 -0.005118 0.014727 -0.005688 0.000000 -0.002116 0.000000
# 3 -0.000756 -0.005688 0.013669 0.000000 0.008100 0.000000
# 4 0.000000 0.000000 0.000000 0.014149 0.000000 -0.009984
# 5 0.008129 -0.002116 0.008100 0.000000 0.043971 0.000000
# 6 0.000000 0.000000 0.000000 -0.009984 0.000000 0.026614
#
#
# Mechanical properties :
#
#
# Convention : Reuss Voigt Hill
#
# Bulk Modulus (GPa) = 32.76850 46.08363 39.42607
# Shear Modulus (GPa) = 29.12530 45.73110 37.42820
#
# Velocity S-wave (km/s) = 3.86490 4.84294 4.38130
# Velocity P-wave (km/s) = 6.05992 7.40993 6.76866
#
# Compressibility (1/GPa) = 0.03051711
#
# Stress axis : x y z
#
# Youngs Moduli (GPa) = 39.61068 67.90292 73.15970
#
# Poissons Ratio (x) = 0.34755 0.05532
# Poissons Ratio (y) = 0.20274 0.41611
# Poissons Ratio (z) = 0.02995 0.38621
#
# Static dielectric constant tensor:
#      x y z
#    x 3.243390 0.000000 -0.488520 
#    y 0.000000 3.551230 0.000000 
#    z -0.488520 0.000000 2.307140 
# 
# 
# High freq. dielectric constant tensor:
#      x y z
#    x 1.767670 0.000000 -0.002600 
#    y 0.000000 1.766070 0.000000 
#    z -0.002600 0.000000 1.750310 
# 
# From -- ./inp_files/138769.got.cif
#   From: 2010.06.25/outbox.cif.g09.slc.cpg/sg15_70_cif.got.tgz:138769.got - 2010.06.28 07:06:18.
