data_PCOD8139070
_publ_section_title
;
Structure prediction by ZEFSAII (Michael W. Deem and Ramdas Pophale) SiO2 
 PCOD8139070
Probable space group: C 2/C
;
_chemical_formula_sum "Si O2"
_cell_formula_units_Z 40
_cell_length_a 16.039582
_cell_length_b 7.281836
_cell_length_c 16.029123
_cell_angle_alpha 90.000000
_cell_angle_beta 95.178638
_cell_angle_gamma 90.000000
_cell_volume 1864.521242
_symmetry_space_group_name_H-M "C 2/C"
_symmetry_group_IT_number 15
_symmetry_cell_setting 'monoclinic'
loop_
_space_group_symop_operation_xyz
x,y,z
-x,y,1/2-z
-x,-y,-z
x,-y,1/2+z
1/2+x,1/2+y,z
1/2-x,1/2+y,1/2-z
1/2-x,1/2-y,-z
1/2+x,1/2-y,1/2+z
loop_
_atom_site_type_symbol
_atom_site_label
_atom_site_fract_x
_atom_site_fract_y
_atom_site_fract_z
Si Si1 0.945516 0.028667 0.669336
Si Si2 0.158564 0.765643 0.735819
Si Si3 0.799386 0.908808 0.050932
Si Si4 0.894337 0.962874 0.404935
Si Si5 0.682718 0.889382 0.661390
O O1 0.865935 0.152492 0.630581
O O2 0.000000 0.122151 0.750000
O O3 0.007197 0.986579 0.596748
O O4 0.908732 0.835679 0.701899
O O5 0.252873 0.772792 0.777438
O O6 0.139455 0.555849 0.708183
O O7 0.158884 0.895559 0.655063
O O8 0.729031 0.037744 0.083063
O O9 0.750000 0.750000 0.000000
O O10 0.858833 0.023988 0.994635
O O11 0.887959 0.752591 0.373442
#
# Coordination Sequence:
#
# PCOD8139070 Si02
#       5
#     8   8   8   8   8
#     4   9  22  41  64  90 129 168 207 264 320 375
#     4  10  20  38  64  93 127 169 219 258 316 384
#     4  11  22  39  68  96 128 169 215 264 323 384
#     4  11  21  39  65  92 133 164 212 268 325 377
#     4  11  21  38  67  97 124 175 216 265 318 384
#
# _framework density 21.453227999999999
#
# number of rings (size 3 to 8) (size 9 to 14) (size 15 to 20)
#    0.000    1.600    4.000    1.200    0.000    0.000 
#    0.000   10.000    8.800    0.000    0.000    0.000 
#    0.000    0.000    0.000    0.000    0.000    0.000 
#
# Total GULP energy -247810.397368 kJ/mol
# GULP energy per Si atom -12390.519868 kJ/mol
# Density = 2.140440 g / cm^3
# Si number density = 21.453228 Si / 1000 Ang^3
#
#
#
# Elastic Constant Matrix: (Units=GPa)
#
#
# Indices 1 2 3 4 5 6 
#
# 1 111.6523 38.5056 48.4738 0.0000 -6.9224 0.0000
# 2 38.5056 116.9754 39.8622 0.0000 10.7214 0.0000
# 3 48.4738 39.8622 62.2112 0.0000 4.6353 0.0000
# 4 0.0000 0.0000 0.0000 31.8141 0.0000 -1.7560
# 5 -6.9224 10.7214 4.6353 0.0000 46.9868 0.0000
# 6 0.0000 0.0000 0.0000 -1.7560 0.0000 17.8628
#
#
#
# Elastic Compliance Matrix: (Units=1/GPa)
#
#
# Indices 1 2 3 4 5 6 
#
# 1 0.014171 -0.001446 -0.010372 0.000000 0.003441 0.000000
# 2 -0.001446 0.011241 -0.005913 0.000000 -0.002195 0.000000
# 3 -0.010372 -0.005913 0.028165 0.000000 -0.002957 0.000000
# 4 0.000000 0.000000 0.000000 0.031604 0.000000 0.003107
# 5 0.003441 -0.002195 -0.002957 0.000000 0.022582 0.000000
# 6 0.000000 0.000000 0.000000 0.003107 0.000000 0.056288
#
#
# Mechanical properties :
#
#
# Convention : Reuss Voigt Hill
#
# Bulk Modulus (GPa) = 55.19917 60.50248 57.85082
# Shear Modulus (GPa) = 24.32497 30.26590 27.29543
#
# Velocity S-wave (km/s) = 3.37094 3.76012 3.57083
# Velocity P-wave (km/s) = 6.39819 6.86401 6.63519
#
# Compressibility (1/GPa) = 0.01811621
#
# Stress axis : x y z
#
# Youngs Moduli (GPa) = 70.56502 88.96248 35.50525
#
# Poissons Ratio (x) = 0.12862 0.36826
# Poissons Ratio (y) = 0.10202 0.20993
# Poissons Ratio (z) = 0.73190 0.52599
#
# Static dielectric constant tensor:
#      x y z
#    x 4.009860 0.000000 -0.059360 
#    y 0.000000 3.548120 0.000000 
#    z -0.059360 0.000000 4.199800 
# 
# 
# High freq. dielectric constant tensor:
#      x y z
#    x 1.851050 0.000000 -0.008060 
#    y 0.000000 1.803740 0.000000 
#    z -0.008060 0.000000 1.854970 
# 
# From -- ./inp_files/208062.got.cif
#   From: 2010.06.25/outbox.cif.g09.slc.cpg/sg15_105_cif.got.tgz:208062.got - 2010.06.28 07:06:18.
