data_PCOD8139855
_publ_section_title
;
Structure prediction by ZEFSAII (Michael W. Deem and Ramdas Pophale) SiO2 
 PCOD8139855
Probable space group: C 2/C
;
_chemical_formula_sum "Si O2"
_cell_formula_units_Z 48
_cell_length_a 10.178997
_cell_length_b 10.175969
_cell_length_c 22.881694
_cell_angle_alpha 90.000000
_cell_angle_beta 76.631055
_cell_angle_gamma 90.000000
_cell_volume 2305.885504
_symmetry_space_group_name_H-M "C 2/C"
_symmetry_group_IT_number 15
_symmetry_cell_setting 'monoclinic'
loop_
_space_group_symop_operation_xyz
x,y,z
-x,y,1/2-z
-x,-y,-z
x,-y,1/2+z
1/2+x,1/2+y,z
1/2-x,1/2+y,1/2-z
1/2-x,1/2-y,-z
1/2+x,1/2-y,1/2+z
loop_
_atom_site_type_symbol
_atom_site_label
_atom_site_fract_x
_atom_site_fract_y
_atom_site_fract_z
Si Si1 0.863877 0.027141 0.229730
Si Si2 0.621444 0.341865 0.502721
Si Si3 0.674184 0.266957 0.097263
Si Si4 0.033391 0.025447 0.902675
Si Si5 0.593258 0.127137 0.997244
Si Si6 0.343074 0.234017 0.270520
O O1 0.886307 0.041537 0.158003
O O2 0.746094 0.131390 0.258424
O O3 0.000000 0.065195 0.250000
O O4 0.814704 0.881396 0.251399
O O5 0.750000 0.250000 0.500000
O O6 0.587585 0.430198 0.562504
O O7 0.637792 0.436870 0.444403
O O8 0.490244 0.257330 0.504744
O O9 0.533000 0.343809 0.117377
O O10 0.787356 0.370087 0.062510
O O11 0.709921 0.217822 0.157797
O O12 0.658118 0.140969 0.055487
O O13 0.500000 0.000000 0.000000
O O14 0.500000 0.195228 0.250000
#
# Coordination Sequence:
#
# PCOD8139855 Si02
#       6
#     8   8   8   8   8   8
#     4  11  24  44  67  94 129 173 225 277 337 396
#     4  10  21  35  59  93 125 163 210 261 321 387
#     4  10  20  40  62  84 125 169 208 261 328 388
#     4  10  20  40  62  84 125 171 206 263 330 388
#     4  10  21  35  59  93 125 163 208 261 321 385
#     4  11  24  44  67  94 127 175 223 277 335 398
#
# _framework density 20.816299000000001
#
# number of rings (size 3 to 8) (size 9 to 14) (size 15 to 20)
#    0.000    1.667    3.333    2.000    0.000    7.333 
#    0.000    0.000    0.000    0.000    0.000    0.000 
#    0.000    0.000    0.000    0.000    0.000    0.000 
#
# Total GULP energy -297511.791550 kJ/mol
# GULP energy per Si atom -12396.324648 kJ/mol
# Density = 2.076892 g / cm^3
# Si number density = 20.816299 Si / 1000 Ang^3
#
#
#
# Elastic Constant Matrix: (Units=GPa)
#
#
# Indices 1 2 3 4 5 6 
#
# 1 110.3959 76.9641 33.4989 0.0000 -2.6843 0.0000
# 2 76.9641 111.0540 33.4336 0.0000 4.0260 0.0000
# 3 33.4989 33.4336 121.6168 0.0000 6.3873 0.0000
# 4 0.0000 0.0000 0.0000 17.1710 0.0000 -2.5591
# 5 -2.6843 4.0260 6.3873 0.0000 20.3688 0.0000
# 6 0.0000 0.0000 0.0000 -2.5591 0.0000 63.8413
#
#
#
# Elastic Compliance Matrix: (Units=1/GPa)
#
#
# Indices 1 2 3 4 5 6 
#
# 1 0.018407 -0.012366 -0.001959 0.000000 0.005484 0.000000
# 2 -0.012366 0.018149 -0.001331 0.000000 -0.004799 0.000000
# 3 -0.001959 -0.001331 0.009281 0.000000 -0.002905 0.000000
# 4 0.000000 0.000000 0.000000 0.058588 0.000000 0.002349
# 5 0.005484 -0.004799 -0.002905 0.000000 0.051677 0.000000
# 6 0.000000 0.000000 0.000000 0.002349 0.000000 0.015758
#
#
# Mechanical properties :
#
#
# Convention : Reuss Voigt Hill
#
# Bulk Modulus (GPa) = 68.84456 70.09554 69.47005
# Shear Modulus (GPa) = 24.03696 33.55424 28.79560
#
# Velocity S-wave (km/s) = 3.40180 4.01923 3.72334
# Velocity P-wave (km/s) = 6.96950 7.43542 7.20622
#
# Compressibility (1/GPa) = 0.01452548
#
# Stress axis : x y z
#
# Youngs Moduli (GPa) = 54.32711 55.09856 107.75145
#
# Poissons Ratio (x) = 0.68134 0.21105
# Poissons Ratio (y) = 0.67180 0.14344
# Poissons Ratio (z) = 0.10641 0.07335
#
# Static dielectric constant tensor:
#      x y z
#    x 3.786990 0.000000 0.095850 
#    y 0.000000 3.817770 0.000000 
#    z 0.095850 0.000000 3.773870 
# 
# 
# High freq. dielectric constant tensor:
#      x y z
#    x 1.815230 0.000000 0.001400 
#    y 0.000000 1.815010 0.000000 
#    z 0.001400 0.000000 1.812120 
# 
# From -- ./inp_files/268020.got.cif
#   From: 2010.06.25/outbox.cif.g09.slc.cpg/sg15_135_cif.got.tgz:268020.got - 2010.06.28 07:06:18.
