data_PCOD8139448
_publ_section_title
;
Structure prediction by ZEFSAII (Michael W. Deem and Ramdas Pophale) SiO2 
 PCOD8139448
Probable space group: C 2/C
;
_chemical_formula_sum "Si O2"
_cell_formula_units_Z 60
_cell_length_a 13.844979
_cell_length_b 15.030032
_cell_length_c 14.388534
_cell_angle_alpha 90.000000
_cell_angle_beta 95.555554
_cell_angle_gamma 90.000000
_cell_volume 2980.052939
_symmetry_space_group_name_H-M "C 2/C"
_symmetry_group_IT_number 15
_symmetry_cell_setting 'monoclinic'
loop_
_space_group_symop_operation_xyz
x,y,z
-x,y,1/2-z
-x,-y,-z
x,-y,1/2+z
1/2+x,1/2+y,z
1/2-x,1/2+y,1/2-z
1/2-x,1/2-y,-z
1/2+x,1/2-y,1/2+z
loop_
_atom_site_type_symbol
_atom_site_label
_atom_site_fract_x
_atom_site_fract_y
_atom_site_fract_z
Si Si1 0.175310 0.119542 0.732489
Si Si2 0.158905 0.539307 0.861005
Si Si3 0.941919 0.919943 0.445044
Si Si4 0.231180 0.645050 0.401186
Si Si5 0.500000 0.937280 0.750000
Si Si6 0.248637 0.647212 0.015163
Si Si7 0.121308 0.187045 0.925955
Si Si8 0.180787 0.676166 0.202978
O O1 0.281482 0.075910 0.724086
O O2 0.097353 0.061026 0.664432
O O3 0.153752 0.124965 0.840813
O O4 0.168071 0.218251 0.686249
O O5 0.210957 0.457116 0.917201
O O6 0.051690 0.506510 0.825155
O O7 0.160318 0.613263 0.941369
O O8 0.850658 0.898250 0.500799
O O9 0.011470 0.833919 0.442713
O O10 0.000000 0.000000 0.500000
O O11 0.135270 0.708502 0.404799
O O12 0.317030 0.670369 0.476326
O O13 0.256665 0.659439 0.294638
O O14 0.421436 0.873035 0.789373
O O15 0.227147 0.626510 0.119873
O O16 0.250000 0.750000 0.000000
#
# Coordination Sequence:
#
# PCOD8139448 Si02
#       8
#     8   8   8   8   4   8   8   8
#     4  10  21  37  68  84 126 170 208 254 323 377
#     4  10  21  39  59  97 125 159 206 268 311 371
#     4  11  23  37  60  96 126 160 219 263 299 389
#     4   9  21  36  61  91 131 155 208 276 313 362
#     4  10  24  38  66  94 124 152 222 274 292 384
#     4  11  22  41  66  87 127 175 201 251 328 386
#     4  10  20  39  62  91 123 173 213 256 321 380
#     4  10  21  41  65  89 120 171 211 249 323 384
#
# _framework density 20.133870999999999
#
# number of rings (size 3 to 8) (size 9 to 14) (size 15 to 20)
#    0.000    1.867    2.667    2.000    5.600    4.800 
#    0.000    7.333    0.000    0.000    0.000    0.000 
#    0.000    0.000    0.000    0.000    0.000    0.000 
#
# Total GULP energy -371645.250717 kJ/mol
# GULP energy per Si atom -12388.175024 kJ/mol
# Density = 2.008805 g / cm^3
# Si number density = 20.133871 Si / 1000 Ang^3
#
#
#
# Elastic Constant Matrix: (Units=GPa)
#
#
# Indices 1 2 3 4 5 6 
#
# 1 95.5577 30.0052 53.7774 0.0000 -2.0985 0.0000
# 2 30.0052 96.2619 31.9693 0.0000 2.9984 0.0000
# 3 53.7774 31.9693 138.9406 0.0000 -3.2185 0.0000
# 4 0.0000 0.0000 0.0000 30.6684 0.0000 5.9089
# 5 -2.0985 2.9984 -3.2185 0.0000 29.3272 0.0000
# 6 0.0000 0.0000 0.0000 5.9089 0.0000 34.6452
#
#
#
# Elastic Compliance Matrix: (Units=1/GPa)
#
#
# Indices 1 2 3 4 5 6 
#
# 1 0.014053 -0.002819 -0.004773 0.000000 0.000770 0.000000
# 2 -0.002819 0.011874 -0.001678 0.000000 -0.001600 0.000000
# 3 -0.004773 -0.001678 0.009451 0.000000 0.000867 0.000000
# 4 0.000000 0.000000 0.000000 0.033715 0.000000 -0.005750
# 5 0.000770 -0.001600 0.000867 0.000000 0.034412 0.000000
# 6 0.000000 0.000000 0.000000 -0.005750 0.000000 0.029845
#
#
# Mechanical properties :
#
#
# Convention : Reuss Voigt Hill
#
# Bulk Modulus (GPa) = 59.38963 62.47377 60.93170
# Shear Modulus (GPa) = 31.74560 33.26206 32.50383
#
# Velocity S-wave (km/s) = 3.97511 4.06894 4.02230
# Velocity P-wave (km/s) = 7.11548 7.29189 7.20422
#
# Compressibility (1/GPa) = 0.01683796
#
# Stress axis : x y z
#
# Youngs Moduli (GPa) = 71.15913 84.21596 105.81108
#
# Poissons Ratio (x) = 0.23743 0.50501
# Poissons Ratio (y) = 0.20062 0.17755
# Poissons Ratio (z) = 0.33962 0.14132
#
# Static dielectric constant tensor:
#      x y z
#    x 4.320760 0.000000 -0.331900 
#    y 0.000000 3.882180 0.000000 
#    z -0.331900 0.000000 4.281370 
# 
# 
# High freq. dielectric constant tensor:
#      x y z
#    x 1.764420 0.000000 0.012760 
#    y 0.000000 1.792940 0.000000 
#    z 0.012760 0.000000 1.795960 
# 
# From -- ./inp_files/153958.got.cif
#   From: 2010.06.25/outbox.cif.g09.slc.cpg/sg15_77_cif.got.tgz:153958.got - 2010.06.28 07:06:18.
