data_PCOD8139022
_publ_section_title
;
Structure prediction by ZEFSAII (Michael W. Deem and Ramdas Pophale) SiO2 
 PCOD8139022
Probable space group: C 2/C
;
_chemical_formula_sum "Si O2"
_cell_formula_units_Z 48
_cell_length_a 12.394120
_cell_length_b 22.757001
_cell_length_c 9.089985
_cell_angle_alpha 90.000000
_cell_angle_beta 73.783283
_cell_angle_gamma 90.000000
_cell_volume 2461.847413
_symmetry_space_group_name_H-M "C 2/C"
_symmetry_group_IT_number 15
_symmetry_cell_setting 'monoclinic'
loop_
_space_group_symop_operation_xyz
x,y,z
-x,y,1/2-z
-x,-y,-z
x,-y,1/2+z
1/2+x,1/2+y,z
1/2-x,1/2+y,1/2-z
1/2-x,1/2-y,-z
1/2+x,1/2-y,1/2+z
loop_
_atom_site_type_symbol
_atom_site_label
_atom_site_fract_x
_atom_site_fract_y
_atom_site_fract_z
Si Si1 0.779070 0.495812 0.138919
Si Si2 0.611665 0.400043 0.303012
Si Si3 0.377919 0.072045 0.339110
Si Si4 0.885543 0.098729 0.363262
Si Si5 0.779001 0.178783 0.165499
Si Si6 0.870560 0.216842 0.830361
O O1 0.689660 0.456094 0.257851
O O2 0.862548 0.521636 0.225681
O O3 0.710576 0.549233 0.090351
O O4 0.861515 0.459560 0.001484
O O5 0.500000 0.410555 0.250000
O O6 0.581055 0.385621 0.483207
O O7 0.678110 0.343003 0.220216
O O8 0.500000 0.098887 0.250000
O O9 0.283630 0.121871 0.373616
O O10 0.846530 0.157100 0.285440
O O11 0.000000 0.073038 0.250000
O O12 0.688071 0.229219 0.232652
O O13 0.856290 0.210412 0.012446
O O14 0.000000 0.224549 0.750000
#
# Coordination Sequence:
#
# PCOD8139022 Si02
#       6
#     8   8   8   8   8   8
#     4  11  22  37  58  86 117 154 194 242 292 347
#     4  11  22  36  60  86 118 152 192 243 294 350
#     4  11  22  39  59  84 116 156 197 239 290 352
#     4  11  23  37  59  89 120 153 192 241 296 349
#     4  10  22  39  60  87 117 152 196 239 289 348
#     4  10  20  38  64  88 114 153 194 237 289 348
#
# _framework density 19.497554999999998
#
# number of rings (size 3 to 8) (size 9 to 14) (size 15 to 20)
#    0.000    1.333    3.333    3.500    2.333    2.000 
#    0.000    0.000    0.000    1.000    0.000    0.000 
#    0.000    0.000    0.000    0.000    0.000    0.000 
#
# Total GULP energy -297420.415487 kJ/mol
# GULP energy per Si atom -12392.517312 kJ/mol
# Density = 1.945318 g / cm^3
# Si number density = 19.497555 Si / 1000 Ang^3
#
#
#
# Elastic Constant Matrix: (Units=GPa)
#
#
# Indices 1 2 3 4 5 6 
#
# 1 70.0212 17.3001 39.3045 0.0000 -1.3918 0.0000
# 2 17.3001 72.7789 11.6694 0.0000 4.4128 0.0000
# 3 39.3045 11.6694 102.2858 0.0000 9.4400 0.0000
# 4 0.0000 0.0000 0.0000 21.1702 0.0000 -2.6586
# 5 -1.3918 4.4128 9.4400 0.0000 33.4400 0.0000
# 6 0.0000 0.0000 0.0000 -2.6586 0.0000 0.6362
#
#
#
# Elastic Compliance Matrix: (Units=1/GPa)
#
#
# Indices 1 2 3 4 5 6 
#
# 1 0.019363 -0.003630 -0.007336 0.000000 0.003356 0.000000
# 2 -0.003630 0.014744 -0.000096 0.000000 -0.002070 0.000000
# 3 -0.007336 -0.000096 0.012971 0.000000 -0.003954 0.000000
# 4 0.000000 0.000000 0.000000 0.099401 0.000000 0.415383
# 5 0.003356 -0.002070 -0.003954 0.000000 0.031433 0.000000
# 6 0.000000 0.000000 0.000000 0.415383 0.000000 3.307634
#
#
# Mechanical properties :
#
#
# Convention : Reuss Voigt Hill
#
# Bulk Modulus (GPa) = 40.07384 42.40378 41.23881
# Shear Modulus (GPa) = 1.42207 22.83673 12.12940
#
# Velocity S-wave (km/s) = 0.85495 3.42608 2.49690
# Velocity P-wave (km/s) = 4.64462 6.11933 5.43225
#
# Compressibility (1/GPa) = 0.02495394
#
# Stress axis : x y z
#
# Youngs Moduli (GPa) = 51.64547 67.82414 77.09269
#
# Poissons Ratio (x) = 0.24620 0.56555
# Poissons Ratio (y) = 0.18747 0.00742
# Poissons Ratio (z) = 0.37887 0.00653
#
# Static dielectric constant tensor:
#      x y z
#    x 3.506900 0.000000 -0.101480 
#    y 0.000000 3.739620 0.000000 
#    z -0.101480 0.000000 3.678790 
# 
# 
# High freq. dielectric constant tensor:
#      x y z
#    x 1.748200 0.000000 -0.007930 
#    y 0.000000 1.762530 0.000000 
#    z -0.007930 0.000000 1.766590 
# 
# From -- ./inp_files/31931.got.cif
#   From: 2010.06.25/outbox.cif.g09.slc.cpg/sg15_16_cif.got.tgz:31931.got - 2010.06.28 07:06:18.
