data_PCOD8139151
_publ_section_title
;
Structure prediction by ZEFSAII (Michael W. Deem and Ramdas Pophale) SiO2 
 PCOD8139151
Probable space group: C 2/C
;
_chemical_formula_sum "Si O2"
_cell_formula_units_Z 48
_cell_length_a 15.206997
_cell_length_b 13.139350
_cell_length_c 19.925219
_cell_angle_alpha 90.000000
_cell_angle_beta 35.914513
_cell_angle_gamma 90.000000
_cell_volume 2335.317109
_symmetry_space_group_name_H-M "C 2/C"
_symmetry_group_IT_number 15
_symmetry_cell_setting 'monoclinic'
loop_
_space_group_symop_operation_xyz
x,y,z
-x,y,1/2-z
-x,-y,-z
x,-y,1/2+z
1/2+x,1/2+y,z
1/2-x,1/2+y,1/2-z
1/2-x,1/2-y,-z
1/2+x,1/2-y,1/2+z
loop_
_atom_site_type_symbol
_atom_site_label
_atom_site_fract_x
_atom_site_fract_y
_atom_site_fract_z
Si Si1 0.500000 0.197811 0.250000
Si Si2 0.754443 0.655293 0.648392
Si Si3 0.500000 0.718193 0.250000
Si Si4 0.251219 0.552989 0.288266
Si Si5 0.056186 0.566588 0.088616
Si Si6 0.799911 0.633254 0.041092
Si Si7 0.560263 0.737828 0.351981
O O1 0.373926 0.268977 0.295766
O O2 0.574065 0.127603 0.146961
O O3 0.682260 0.552596 0.723954
O O4 0.868440 0.632950 0.517225
O O5 0.838556 0.700297 0.660173
O O6 0.623184 0.646975 0.136685
O O7 0.581772 0.778027 0.260528
O O8 0.168187 0.608220 0.401167
O O9 0.391612 0.618931 0.173563
O O10 0.120077 0.543054 0.314310
O O11 0.139082 0.457737 0.043883
O O12 0.885748 0.740260 0.975362
#
# Coordination Sequence:
#
# PCOD8139151 Si02
#       7
#     4   8   4   8   8   8   8
#     4  12  26  40  66 102 134 166 230 278 326 382
#     4  11  22  41  65  92 134 180 218 267 326 403
#     4  10  24  36  62 100 122 170 218 274 328 390
#     4  10  20  38  66  89 123 179 218 253 332 398
#     4  11  21  40  65  93 126 179 218 266 332 397
#     4  10  20  40  65  91 126 169 218 267 327 392
#     4  11  20  38  65  92 128 167 223 268 317 389
#
# _framework density 20.553954000000001
#
# number of rings (size 3 to 8) (size 9 to 14) (size 15 to 20)
#    0.000    1.333    5.000    2.000    0.000    6.667 
#    0.000    0.000    0.000   10.000    0.000    0.000 
#    0.000    0.000    0.000    0.000    0.000    0.000 
#
# Total GULP energy -297326.421365 kJ/mol
# GULP energy per Si atom -12388.600890 kJ/mol
# Density = 2.050717 g / cm^3
# Si number density = 20.553954 Si / 1000 Ang^3
#
#
#
# Elastic Constant Matrix: (Units=GPa)
#
#
# Indices 1 2 3 4 5 6 
#
# 1 113.5613 46.8782 57.6908 -0.0007 8.8507 0.0001
# 2 46.8782 124.6603 85.4478 -0.0005 1.2366 0.0001
# 3 57.6908 85.4478 104.9105 -0.0016 -15.1757 0.0006
# 4 -0.0007 -0.0005 -0.0016 41.5961 0.0005 3.7423
# 5 8.8507 1.2366 -15.1757 0.0005 34.3112 -0.0001
# 6 0.0001 0.0001 0.0006 3.7423 -0.0001 28.1972
#
#
#
# Elastic Compliance Matrix: (Units=1/GPa)
#
#
# Indices 1 2 3 4 5 6 
#
# 1 0.013982 0.002096 -0.010607 0.000000 -0.008373 0.000000
# 2 0.002096 0.020595 -0.019350 0.000000 -0.009841 0.000000
# 3 -0.010607 -0.019350 0.033783 0.000001 0.018375 -0.000001
# 4 0.000000 0.000000 0.000001 0.024331 0.000000 -0.003229
# 5 -0.008373 -0.009841 0.018375 0.000000 0.039787 0.000000
# 6 0.000000 0.000000 -0.000001 -0.003229 0.000000 0.035893
#
#
# Mechanical properties :
#
#
# Convention : Reuss Voigt Hill
#
# Bulk Modulus (GPa) = 79.13164 80.35176 79.74170
# Shear Modulus (GPa) = 21.90048 31.02858 26.46453
#
# Velocity S-wave (km/s) = 3.26776 3.88959 3.59216
# Velocity P-wave (km/s) = 7.26779 7.70389 7.48901
#
# Compressibility (1/GPa) = 0.01263717
#
# Stress axis : x y z
#
# Youngs Moduli (GPa) = 71.52191 48.55599 29.60070
#
# Poissons Ratio (x) = -0.10175 0.31397
# Poissons Ratio (y) = -0.14988 0.57277
# Poissons Ratio (z) = 0.75861 0.93956
#
# Static dielectric constant tensor:
#      x y z
#    x 4.092930 0.000000 -0.128450 
#    y 0.000000 3.861940 0.000000 
#    z -0.128450 0.000000 3.927700 
# 
# 
# High freq. dielectric constant tensor:
#      x y z
#    x 1.818210 0.000000 -0.001270 
#    y 0.000000 1.792930 0.000000 
#    z -0.001270 0.000000 1.789290 
# 
# From -- ./inp_files/96362.got.cif
#   From: 2010.06.25/outbox.cif.g09.slc.cpg/sg15_49_cif.got.tgz:96362.got - 2010.06.28 07:06:18.
