data_PCOD8139165
_publ_section_title
;
Structure prediction by ZEFSAII (Michael W. Deem and Ramdas Pophale) SiO2 
 PCOD8139165
Probable space group: C 2/C
;
_chemical_formula_sum "Si O2"
_cell_formula_units_Z 60
_cell_length_a 25.053937
_cell_length_b 8.303517
_cell_length_c 23.318775
_cell_angle_alpha 90.000000
_cell_angle_beta 34.390992
_cell_angle_gamma 90.000000
_cell_volume 2740.104586
_symmetry_space_group_name_H-M "C 2/C"
_symmetry_group_IT_number 15
_symmetry_cell_setting 'monoclinic'
loop_
_space_group_symop_operation_xyz
x,y,z
-x,y,1/2-z
-x,-y,-z
x,-y,1/2+z
1/2+x,1/2+y,z
1/2-x,1/2+y,1/2-z
1/2-x,1/2-y,-z
1/2+x,1/2-y,1/2+z
loop_
_atom_site_type_symbol
_atom_site_label
_atom_site_fract_x
_atom_site_fract_y
_atom_site_fract_z
Si Si1 0.547982 0.881211 0.763603
Si Si2 0.761067 0.875874 0.588603
Si Si3 0.080258 0.339172 0.517118
Si Si4 0.413975 0.794514 0.503541
Si Si5 0.833610 0.166697 0.459213
Si Si6 0.000000 0.303802 0.250000
Si Si7 0.109627 0.212763 0.372494
Si Si8 0.781391 0.074065 0.686009
O O1 0.500000 0.800705 0.750000
O O2 0.655939 0.826719 0.664933
O O3 0.536192 0.077453 0.769545
O O4 0.502694 0.818371 0.862805
O O5 0.820787 0.711657 0.541015
O O6 0.808017 0.983352 0.496866
O O7 0.756589 0.973989 0.651436
O O8 0.082976 0.516329 0.488646
O O9 0.064117 0.222250 0.476953
O O10 0.359466 0.764770 0.493086
O O11 0.521180 0.722448 0.407180
O O12 0.353646 0.718637 0.608736
O O13 0.750000 0.250000 0.500000
O O14 0.921465 0.177818 0.338929
O O15 0.183797 0.358674 0.298169
O O16 0.165803 0.044087 0.315408
#
# Coordination Sequence:
#
# PCOD8139165 Si02
#       8
#     8   8   8   8   8   4   8   8
#     4  10  20  40  64  87 124 179 222 273 342 404
#     4  10  23  41  63  94 137 168 227 287 330 412
#     4  11  23  40  62  98 128 177 221 276 345 405
#     4  11  22  40  67  92 129 180 224 274 340 410
#     4  11  21  41  65  97 128 175 231 287 335 405
#     4  10  20  38  66  92 120 178 232 266 356 398
#     4  11  23  41  64  98 133 175 226 277 339 414
#     4  10  23  40  64  97 133 177 222 281 337 400
#
# _framework density 21.896972999999999
#
# number of rings (size 3 to 8) (size 9 to 14) (size 15 to 20)
#    0.400    1.067    2.667    2.400    0.000    2.667 
#    1.200    4.000    0.000    0.000    0.000    0.000 
#    0.000    0.000    0.000    0.000    0.000    0.000 
#
# Total GULP energy -371938.219213 kJ/mol
# GULP energy per Si atom -12397.940640 kJ/mol
# Density = 2.184713 g / cm^3
# Si number density = 21.896973 Si / 1000 Ang^3
#
#
#
# Elastic Constant Matrix: (Units=GPa)
#
#
# Indices 1 2 3 4 5 6 
#
# 1 97.9119 22.8430 38.7756 0.0036 -22.6487 -0.0024
# 2 22.8430 47.2921 23.6814 0.0143 -5.3306 -0.0103
# 3 38.7756 23.6814 139.8600 0.0040 -8.8427 -0.0032
# 4 0.0036 0.0143 0.0040 39.2269 0.0000 1.5045
# 5 -22.6487 -5.3306 -8.8427 0.0000 41.9739 0.0003
# 6 -0.0024 -0.0103 -0.0032 1.5045 0.0003 23.7612
#
#
#
# Elastic Compliance Matrix: (Units=1/GPa)
#
#
# Indices 1 2 3 4 5 6 
#
# 1 0.013798 -0.004631 -0.002643 0.000001 0.006300 -0.000001
# 2 -0.004631 0.024849 -0.002921 -0.000009 0.000042 0.000010
# 3 -0.002643 -0.002921 0.008375 0.000000 -0.000033 0.000000
# 4 0.000001 -0.000009 0.000000 0.025555 -0.000001 -0.001618
# 5 0.006300 0.000042 -0.000033 -0.000001 0.027222 0.000000
# 6 -0.000001 0.000010 0.000000 -0.001618 0.000000 0.042188
#
#
# Mechanical properties :
#
#
# Convention : Reuss Voigt Hill
#
# Bulk Modulus (GPa) = 37.54800 50.62934 44.08867
# Shear Modulus (GPa) = 29.19632 34.31002 31.75317
#
# Velocity S-wave (km/s) = 3.65547 3.96268 3.81217
# Velocity P-wave (km/s) = 5.91620 6.64146 6.28929
#
# Compressibility (1/GPa) = 0.02663258
#
# Stress axis : x y z
#
# Youngs Moduli (GPa) = 72.47606 40.24237 119.39921
#
# Poissons Ratio (x) = 0.18636 0.31556
# Poissons Ratio (y) = 0.33564 0.34877
# Poissons Ratio (z) = 0.19155 0.11755
#
# Static dielectric constant tensor:
#      x y z
#    x 3.921540 -0.000040 -0.054370 
#    y -0.000040 3.903060 0.000060 
#    z -0.054370 0.000060 3.896850 
# 
# 
# High freq. dielectric constant tensor:
#      x y z
#    x 1.857990 0.000000 -0.007030 
#    y 0.000000 1.842070 0.000000 
#    z -0.007030 0.000000 1.868940 
# 
# From -- ./inp_files/303090.got.cif
#   From: 2010.06.25/outbox.cif.g09.slc.cpg/sg15_152_cif.got.tgz:303090.got - 2010.06.28 07:06:18.
