data_PCOD8139153
_publ_section_title
;
Structure prediction by ZEFSAII (Michael W. Deem and Ramdas Pophale) SiO2 
 PCOD8139153
Probable space group: C 2/C
;
_chemical_formula_sum "Si O2"
_cell_formula_units_Z 56
_cell_length_a 14.646115
_cell_length_b 13.289307
_cell_length_c 16.775898
_cell_angle_alpha 90.000000
_cell_angle_beta 131.640921
_cell_angle_gamma 90.000000
_cell_volume 2440.165698
_symmetry_space_group_name_H-M "C 2/C"
_symmetry_group_IT_number 15
_symmetry_cell_setting 'monoclinic'
loop_
_space_group_symop_operation_xyz
x,y,z
-x,y,1/2-z
-x,-y,-z
x,-y,1/2+z
1/2+x,1/2+y,z
1/2-x,1/2+y,1/2-z
1/2-x,1/2-y,-z
1/2+x,1/2-y,1/2+z
loop_
_atom_site_type_symbol
_atom_site_label
_atom_site_fract_x
_atom_site_fract_y
_atom_site_fract_z
Si Si1 0.724533 0.995274 0.837377
Si Si2 0.527079 0.903820 0.627234
Si Si3 0.168532 0.495080 0.576961
Si Si4 0.514370 0.316110 0.113196
Si Si5 0.128043 0.000125 0.421662
Si Si6 0.292906 0.169746 0.781153
Si Si7 0.935083 0.130707 0.392167
O O1 0.601008 0.930388 0.751280
O O2 0.831858 0.954978 0.840763
O O3 0.699254 0.110818 0.798458
O O4 0.764653 0.985151 0.951346
O O5 0.425808 0.989739 0.551333
O O6 0.459559 0.795772 0.593752
O O7 0.624987 0.904547 0.609424
O O8 0.304694 0.472965 0.622448
O O9 0.160695 0.598847 0.621251
O O10 0.445174 0.395084 0.130329
O O11 0.654265 0.300448 0.219264
O O12 0.500454 0.354605 0.014909
O O13 0.037238 0.091014 0.390177
O O14 0.378637 0.266948 0.825898
#
# Coordination Sequence:
#
# PCOD8139153 Si02
#       7
#     8   8   8   8   8   8   8
#     4  10  20  38  66  89 126 175 211 250 320 392
#     4  10  21  41  64  88 126 177 211 248 328 389
#     4  10  24  41  62  92 133 165 210 270 317 372
#     4  11  20  38  66  91 123 169 217 255 313 389
#     4  11  23  41  64  98 129 160 218 275 311 362
#     4  11  20  38  65  92 125 176 209 249 323 394
#     4  11  20  38  67  94 124 171 211 261 315 388
#
# _framework density 22.949261
#
# number of rings (size 3 to 8) (size 9 to 14) (size 15 to 20)
#    0.000    1.429    5.714    0.857    0.000    1.714 
#    0.000    2.143    0.000    3.429    0.000    0.000 
#    0.000    0.000    0.000    0.000    0.000    0.000 
#
# Total GULP energy -347180.329672 kJ/mol
# GULP energy per Si atom -12399.297488 kJ/mol
# Density = 2.289703 g / cm^3
# Si number density = 22.949261 Si / 1000 Ang^3
#
#
#
# Elastic Constant Matrix: (Units=GPa)
#
#
# Indices 1 2 3 4 5 6 
#
# 1 99.7521 30.3308 -4.7253 0.0000 12.6909 0.0000
# 2 30.3308 104.0465 16.9120 0.0000 5.1216 0.0000
# 3 -4.7253 16.9120 81.3462 0.0000 22.5108 0.0000
# 4 0.0000 0.0000 0.0000 37.0421 0.0000 11.3518
# 5 12.6909 5.1216 22.5108 0.0000 18.7397 0.0000
# 6 0.0000 0.0000 0.0000 11.3518 0.0000 18.3727
#
#
#
# Elastic Compliance Matrix: (Units=1/GPa)
#
#
# Indices 1 2 3 4 5 6 
#
# 1 0.013447 -0.004123 0.005762 0.000000 -0.014901 0.000000
# 2 -0.004123 0.011213 -0.003738 0.000000 0.004218 0.000000
# 3 0.005762 -0.003738 0.021274 0.000000 -0.028435 0.000000
# 4 0.000000 0.000000 0.000000 0.033302 0.000000 -0.020576
# 5 -0.014901 0.004218 -0.028435 0.000000 0.096459 0.000000
# 6 0.000000 0.000000 0.000000 -0.020576 0.000000 0.067142
#
#
# Mechanical properties :
#
#
# Convention : Reuss Voigt Hill
#
# Bulk Modulus (GPa) = 23.96013 41.13109 32.54561
# Shear Modulus (GPa) = 19.16103 31.00605 25.08354
#
# Velocity S-wave (km/s) = 2.89265 3.67968 3.30964
# Velocity P-wave (km/s) = 4.64970 6.00124 5.36818
#
# Compressibility (1/GPa) = 0.04173599
#
# Stress axis : x y z
#
# Youngs Moduli (GPa) = 74.36458 89.18248 47.00621
#
# Poissons Ratio (x) = 0.36771 -0.27085
# Poissons Ratio (y) = 0.30661 0.17570
# Poissons Ratio (z) = -0.42848 0.33335
#
# Static dielectric constant tensor:
#      x y z
#    x 3.759930 0.000000 0.256850 
#    y 0.000000 4.091940 0.000000 
#    z 0.256850 0.000000 4.314500 
# 
# 
# High freq. dielectric constant tensor:
#      x y z
#    x 1.873420 0.000000 0.021360 
#    y 0.000000 1.895420 0.000000 
#    z 0.021360 0.000000 1.925600 
# 
# From -- ./inp_files/205475.got.cif
#   From: 2010.06.25/outbox.cif.g09.slc.cpg/sg15_103_cif.got.tgz:205475.got - 2010.06.28 07:06:18.
