data_PCOD8139642
_publ_section_title
;
Structure prediction by ZEFSAII (Michael W. Deem and Ramdas Pophale) SiO2 
 PCOD8139642
Probable space group: C 2/C
;
_chemical_formula_sum "Si O2"
_cell_formula_units_Z 60
_cell_length_a 11.870673
_cell_length_b 25.853062
_cell_length_c 9.493288
_cell_angle_alpha 90.000000
_cell_angle_beta 100.902897
_cell_angle_gamma 90.000000
_cell_volume 2860.836147
_symmetry_space_group_name_H-M "C 2/C"
_symmetry_group_IT_number 15
_symmetry_cell_setting 'monoclinic'
loop_
_space_group_symop_operation_xyz
x,y,z
-x,y,1/2-z
-x,-y,-z
x,-y,1/2+z
1/2+x,1/2+y,z
1/2-x,1/2+y,1/2-z
1/2-x,1/2-y,-z
1/2+x,1/2-y,1/2+z
loop_
_atom_site_type_symbol
_atom_site_label
_atom_site_fract_x
_atom_site_fract_y
_atom_site_fract_z
Si Si1 0.214441 0.479387 0.114914
Si Si2 0.384790 0.648688 0.027253
Si Si3 0.103574 0.197882 0.996369
Si Si4 0.000000 0.275998 0.750000
Si Si5 0.434900 0.466514 0.595817
Si Si6 0.221949 0.333404 0.744689
Si Si7 0.130469 0.114046 0.776163
Si Si8 0.626282 0.060653 0.309987
O O1 0.301780 0.518655 0.061807
O O2 0.282950 0.433516 0.206969
O O3 0.144450 0.510465 0.216030
O O4 0.132753 0.456210 0.974766
O O5 0.443251 0.593951 0.072007
O O6 0.283517 0.665410 0.107429
O O7 0.490572 0.688238 0.063917
O O8 0.341149 0.648527 0.855256
O O9 0.072171 0.244391 0.883638
O O10 0.146569 0.149310 0.915835
O O11 0.207892 0.204786 0.132023
O O12 0.094400 0.310955 0.692654
O O13 0.500000 0.481733 0.750000
O O14 0.500000 0.500000 0.500000
O O15 0.215855 0.392814 0.799502
O O16 0.000000 0.092913 0.750000
O O17 0.500000 0.082394 0.250000
#
# Coordination Sequence:
#
# PCOD8139642 Si02
#       8
#     8   8   8   4   8   8   8   8
#     4  12  23  39  65  92 136 186 217 260 324 393
#     4  11  22  39  65 101 140 166 216 282 333 403
#     4  11  22  46  69  99 128 172 214 284 357 402
#     4  12  26  48  76  90 130 180 230 280 356 402
#     4  12  22  33  56  98 135 169 205 253 321 398
#     4  12  25  44  71  98 135 174 231 283 335 400
#     4  10  20  39  66 100 140 168 208 270 342 407
#     4  12  26  45  62  93 134 185 235 270 310 390
#
# _framework density 20.972888000000001
#
# number of rings (size 3 to 8) (size 9 to 14) (size 15 to 20)
#    0.000    0.533    5.333    6.400    0.000    0.533 
#    0.000    0.000    0.000    0.000    0.000    0.000 
#    0.000    0.000    0.000    0.000    0.000    0.000 
#
# Total GULP energy -371930.209702 kJ/mol
# GULP energy per Si atom -12397.673657 kJ/mol
# Density = 2.092515 g / cm^3
# Si number density = 20.972888 Si / 1000 Ang^3
#
#
#
# Elastic Constant Matrix: (Units=GPa)
#
#
# Indices 1 2 3 4 5 6 
#
# 1 108.4901 28.8908 48.7925 0.0000 -8.6944 0.0000
# 2 28.8908 68.1427 15.1804 0.0000 -7.7317 0.0000
# 3 48.7925 15.1804 98.0105 0.0000 -5.3267 0.0000
# 4 0.0000 0.0000 0.0000 26.1283 0.0000 -1.4195
# 5 -8.6944 -7.7317 -5.3267 0.0000 36.2868 0.0000
# 6 0.0000 0.0000 0.0000 -1.4195 0.0000 32.5820
#
#
#
# Elastic Compliance Matrix: (Units=1/GPa)
#
#
# Indices 1 2 3 4 5 6 
#
# 1 0.013009 -0.004071 -0.005769 0.000000 0.001403 0.000000
# 2 -0.004071 0.016786 -0.000435 0.000000 0.002537 0.000000
# 3 -0.005769 -0.000435 0.013167 0.000000 0.000458 0.000000
# 4 0.000000 0.000000 0.000000 0.038363 0.000000 0.001671
# 5 0.001403 0.002537 0.000458 0.000000 0.028502 0.000000
# 6 0.000000 0.000000 0.000000 0.001671 0.000000 0.030765
#
#
# Mechanical properties :
#
#
# Convention : Reuss Voigt Hill
#
# Bulk Modulus (GPa) = 44.62141 51.15228 47.88685
# Shear Modulus (GPa) = 29.65359 31.11807 30.38583
#
# Velocity S-wave (km/s) = 3.76427 3.85610 3.81046
# Velocity P-wave (km/s) = 6.34152 6.65347 6.49937
#
# Compressibility (1/GPa) = 0.02241076
#
# Stress axis : x y z
#
# Youngs Moduli (GPa) = 76.87211 59.57368 75.94493
#
# Poissons Ratio (x) = 0.24252 0.43815
# Poissons Ratio (y) = 0.31294 0.03306
# Poissons Ratio (z) = 0.44350 0.02594
#
# Static dielectric constant tensor:
#      x y z
#    x 3.712980 0.000000 -0.030270 
#    y 0.000000 4.677060 0.000000 
#    z -0.030270 0.000000 4.043880 
# 
# 
# High freq. dielectric constant tensor:
#      x y z
#    x 1.813670 0.000000 -0.001670 
#    y 0.000000 1.812300 0.000000 
#    z -0.001670 0.000000 1.830720 
# 
# From -- ./inp_files/34263.got.cif
#   From: 2010.06.25/outbox.cif.g09.slc.cpg/sg15_18_cif.got.tgz:34263.got - 2010.06.28 07:06:18.
