data_PCOD8139042
_publ_section_title
;
Structure prediction by ZEFSAII (Michael W. Deem and Ramdas Pophale) SiO2 
 PCOD8139042
Probable space group: C 2/C
;
_chemical_formula_sum "Si O2"
_cell_formula_units_Z 48
_cell_length_a 23.183478
_cell_length_b 6.350872
_cell_length_c 31.272785
_cell_angle_alpha 90.000000
_cell_angle_beta 147.362048
_cell_angle_gamma 90.000000
_cell_volume 2483.316289
_symmetry_space_group_name_H-M "C 2/C"
_symmetry_group_IT_number 15
_symmetry_cell_setting 'monoclinic'
loop_
_space_group_symop_operation_xyz
x,y,z
-x,y,1/2-z
-x,-y,-z
x,-y,1/2+z
1/2+x,1/2+y,z
1/2-x,1/2+y,1/2-z
1/2-x,1/2-y,-z
1/2+x,1/2-y,1/2+z
loop_
_atom_site_type_symbol
_atom_site_label
_atom_site_fract_x
_atom_site_fract_y
_atom_site_fract_z
Si Si1 0.239099 0.439316 0.961056
Si Si2 0.114899 0.678748 0.946406
Si Si3 0.210789 0.524887 0.163698
Si Si4 0.471128 0.351164 0.443065
Si Si5 0.612410 0.296582 0.668684
Si Si6 0.193443 0.357194 0.062538
O O1 0.137398 0.578618 0.913120
O O2 0.230260 0.329465 0.908797
O O3 0.250000 0.250000 0.000000
O O4 0.346503 0.580291 0.029148
O O5 0.989128 0.666428 0.877428
O O6 0.185711 0.557368 0.026188
O O7 0.113967 0.682051 0.093548
O O8 0.312097 0.652966 0.244173
O O9 0.176908 0.344220 0.175453
O O10 0.243732 0.420171 0.139312
O O11 0.500000 0.500000 0.500000
O O12 0.422763 0.484428 0.374143
O O13 0.573914 0.228019 0.491703
#
# Coordination Sequence:
#
# PCOD8139042 Si02
#       6
#     8   8   8   8   8   8
#     4   9  20  37  63  92 113 152 213 263 302 348
#     4  10  20  38  64  90 118 156 212 257 306 369
#     4  12  25  38  57  95 133 162 200 248 320 384
#     4  12  22  36  61  92 124 159 204 250 303 370
#     4  12  23  39  59  92 129 167 196 249 321 381
#     4  11  21  36  63  93 118 158 209 263 298 365
#
# _framework density 19.328990999999998
#
# number of rings (size 3 to 8) (size 9 to 14) (size 15 to 20)
#    0.000    1.000    6.667    1.500    0.000    0.000 
#    0.000    0.000    0.000   11.000    0.000    0.000 
#    0.000    0.000    0.000    0.000    0.000    0.000 
#
# Total GULP energy -297575.960209 kJ/mol
# GULP energy per Si atom -12398.998342 kJ/mol
# Density = 1.928500 g / cm^3
# Si number density = 19.328991 Si / 1000 Ang^3
#
#
#
# Elastic Constant Matrix: (Units=GPa)
#
#
# Indices 1 2 3 4 5 6 
#
# 1 124.0863 44.3519 46.8241 -0.0011 -16.3231 -0.0006
# 2 44.3519 100.8515 34.8212 -0.0065 -16.0269 0.0127
# 3 46.8241 34.8212 76.6451 0.0002 -21.2878 -0.0047
# 4 -0.0011 -0.0065 0.0002 30.8443 0.0003 -5.5155
# 5 -16.3231 -16.0269 -21.2878 0.0003 19.5400 -0.0024
# 6 -0.0006 0.0127 -0.0047 -5.5155 -0.0024 47.0715
#
#
#
# Elastic Compliance Matrix: (Units=1/GPa)
#
#
# Indices 1 2 3 4 5 6 
#
# 1 0.011233 -0.002947 -0.005146 0.000000 0.001360 0.000000
# 2 -0.002947 0.012958 -0.002607 0.000002 0.005326 -0.000003
# 3 -0.005146 -0.002607 0.022351 0.000000 0.017912 0.000004
# 4 0.000000 0.000002 0.000000 0.033115 0.000001 0.003880
# 5 0.001360 0.005326 0.017912 0.000001 0.076197 0.000004
# 6 0.000000 -0.000003 0.000004 0.003880 0.000004 0.021699
#
#
# Mechanical properties :
#
#
# Convention : Reuss Voigt Hill
#
# Bulk Modulus (GPa) = 39.77532 61.50859 50.64195
# Shear Modulus (GPa) = 24.11579 31.19687 27.65633
#
# Velocity S-wave (km/s) = 3.53604 4.02181 3.78672
# Velocity P-wave (km/s) = 6.10689 7.31147 6.73616
#
# Compressibility (1/GPa) = 0.02514122
#
# Stress axis : x y z
#
# Youngs Moduli (GPa) = 89.02353 77.17062 44.74171
#
# Poissons Ratio (x) = 0.22743 0.23023
# Poissons Ratio (y) = 0.26236 0.11666
# Poissons Ratio (z) = 0.45809 0.20122
#
# Static dielectric constant tensor:
#      x y z
#    x 3.556550 0.000300 0.077780 
#    y 0.000300 3.786670 -0.000100 
#    z 0.077780 -0.000100 3.197240 
# 
# 
# High freq. dielectric constant tensor:
#      x y z
#    x 1.766540 0.000000 -0.002440 
#    y 0.000000 1.777270 0.000000 
#    z -0.002440 0.000000 1.708560 
# 
# From -- ./inp_files/217463.got.cif
#   From: 2010.06.25/outbox.cif.g09.slc.cpg/sg15_109_cif.got.tgz:217463.got - 2010.06.28 07:06:18.
