data_PCOD8139791
_publ_section_title
;
Structure prediction by ZEFSAII (Michael W. Deem and Ramdas Pophale) SiO2 
 PCOD8139791
Probable space group: C 2/C
;
_chemical_formula_sum "Si O2"
_cell_formula_units_Z 40
_cell_length_a 10.628282
_cell_length_b 15.339332
_cell_length_c 12.695405
_cell_angle_alpha 90.000000
_cell_angle_beta 81.799088
_cell_angle_gamma 90.000000
_cell_volume 2048.576094
_symmetry_space_group_name_H-M "C 2/C"
_symmetry_group_IT_number 15
_symmetry_cell_setting 'monoclinic'
loop_
_space_group_symop_operation_xyz
x,y,z
-x,y,1/2-z
-x,-y,-z
x,-y,1/2+z
1/2+x,1/2+y,z
1/2-x,1/2+y,1/2-z
1/2-x,1/2-y,-z
1/2+x,1/2-y,1/2+z
loop_
_atom_site_type_symbol
_atom_site_label
_atom_site_fract_x
_atom_site_fract_y
_atom_site_fract_z
Si Si1 0.154148 0.467995 0.367763
Si Si2 0.473017 0.305883 0.131063
Si Si3 0.042891 0.373897 0.984486
Si Si4 0.264907 0.930630 0.365573
Si Si5 0.125529 0.050143 0.518616
O O1 0.064616 0.552025 0.393555
O O2 0.149436 0.442835 0.246862
O O3 0.300418 0.486602 0.386424
O O4 0.094895 0.388538 0.444601
O O5 0.500000 0.285776 0.250000
O O6 0.444577 0.217975 0.073345
O O7 0.355537 0.371100 0.144133
O O8 0.590349 0.350314 0.051938
O O9 0.152245 0.380023 0.058806
O O10 0.223029 0.028238 0.410852
O O11 0.000000 0.000000 0.500000
#
# Coordination Sequence:
#
# PCOD8139791 Si02
#       5
#     8   8   8   8   8
#     4  10  20  40  60  84 117 165 198 239 305 365
#     4  11  21  38  60  88 123 151 199 258 304 346
#     4  10  23  36  60  89 121 154 202 250 300 360
#     4  10  20  40  63  81 122 160 203 242 303 360
#     4   9  20  36  61  87 113 156 197 247 292 362
#
# _framework density 19.525756999999999
#
# number of rings (size 3 to 8) (size 9 to 14) (size 15 to 20)
#    0.000    2.000    2.000    1.200    0.000    5.600 
#    3.600    0.000    8.800    0.000    0.000    0.000 
#    0.000    0.000    0.000    0.000    0.000    0.000 
#
# Total GULP energy -247767.951659 kJ/mol
# GULP energy per Si atom -12388.397583 kJ/mol
# Density = 1.948132 g / cm^3
# Si number density = 19.525757 Si / 1000 Ang^3
#
#
#
# Elastic Constant Matrix: (Units=GPa)
#
#
# Indices 1 2 3 4 5 6 
#
# 1 80.6141 17.5170 46.3995 0.0000 2.7663 0.0000
# 2 17.5170 86.8182 80.2144 0.0000 -8.9034 0.0000
# 3 46.3995 80.2144 157.2565 0.0000 -0.8765 0.0000
# 4 0.0000 0.0000 0.0000 24.3155 0.0000 4.8789
# 5 2.7663 -8.9034 -0.8765 0.0000 26.9284 0.0000
# 6 0.0000 0.0000 0.0000 4.8789 0.0000 25.9290
#
#
#
# Elastic Compliance Matrix: (Units=1/GPa)
#
#
# Indices 1 2 3 4 5 6 
#
# 1 0.015161 0.001823 -0.005410 0.000000 -0.001131 0.000000
# 2 0.001823 0.023343 -0.012405 0.000000 0.007127 0.000000
# 3 -0.005410 -0.012405 0.014266 0.000000 -0.003081 0.000000
# 4 0.000000 0.000000 0.000000 0.042740 0.000000 -0.008042
# 5 -0.001131 0.007127 -0.003081 0.000000 0.039508 0.000000
# 6 0.000000 0.000000 0.000000 -0.008042 0.000000 0.040080
#
#
# Mechanical properties :
#
#
# Convention : Reuss Voigt Hill
#
# Bulk Modulus (GPa) = 48.10809 68.10562 58.10686
# Shear Modulus (GPa) = 23.36351 27.47178 25.41764
#
# Velocity S-wave (km/s) = 3.46287 3.75500 3.61189
# Velocity P-wave (km/s) = 6.37812 7.33183 6.87154
#
# Compressibility (1/GPa) = 0.02078652
#
# Stress axis : x y z
#
# Youngs Moduli (GPa) = 65.95834 42.83972 70.09828
#
# Poissons Ratio (x) = -0.07811 0.37921
# Poissons Ratio (y) = -0.12026 0.86957
# Poissons Ratio (z) = 0.35681 0.53143
#
# Static dielectric constant tensor:
#      x y z
#    x 3.864690 0.000000 -0.046930 
#    y 0.000000 3.389030 0.000000 
#    z -0.046930 0.000000 3.708090 
# 
# 
# High freq. dielectric constant tensor:
#      x y z
#    x 1.782870 0.000000 0.006260 
#    y 0.000000 1.733510 0.000000 
#    z 0.006260 0.000000 1.763160 
# 
# From -- ./inp_files/85478.got.cif
#   From: 2010.06.25/outbox.cif.g09.slc.cpg/sg15_43_cif.got.tgz:85478.got - 2010.06.28 07:06:18.
