data_PCOD8139906
_publ_section_title
;
Structure prediction by ZEFSAII (Michael W. Deem and Ramdas Pophale) SiO2 
 PCOD8139906
Probable space group: C 2/C
;
_chemical_formula_sum "Si O2"
_cell_formula_units_Z 60
_cell_length_a 14.593476
_cell_length_b 14.749078
_cell_length_c 14.433056
_cell_angle_alpha 90.000000
_cell_angle_beta 108.694743
_cell_angle_gamma 90.000000
_cell_volume 2942.671645
_symmetry_space_group_name_H-M "C 2/C"
_symmetry_group_IT_number 15
_symmetry_cell_setting 'monoclinic'
loop_
_space_group_symop_operation_xyz
x,y,z
-x,y,1/2-z
-x,-y,-z
x,-y,1/2+z
1/2+x,1/2+y,z
1/2-x,1/2+y,1/2-z
1/2-x,1/2-y,-z
1/2+x,1/2-y,1/2+z
loop_
_atom_site_type_symbol
_atom_site_label
_atom_site_fract_x
_atom_site_fract_y
_atom_site_fract_z
Si Si1 0.613313 0.805717 0.430795
Si Si2 0.805449 0.889509 0.528729
Si Si3 0.390515 0.006796 0.873108
Si Si4 0.000000 0.393599 0.250000
Si Si5 0.934311 0.940947 0.410767
Si Si6 0.829840 0.033697 0.690153
Si Si7 0.937173 0.198809 0.643536
Si Si8 0.474927 0.857742 0.533891
O O1 0.688716 0.882643 0.493980
O O2 0.658409 0.708489 0.431989
O O3 0.585671 0.832187 0.317671
O O4 0.517085 0.798982 0.462323
O O5 0.837805 0.914035 0.434991
O O6 0.849998 0.961442 0.615516
O O7 0.458684 0.045529 0.817123
O O8 0.278801 0.018574 0.809252
O O9 0.427839 0.902811 0.890331
O O10 0.405631 0.061609 0.974875
O O11 0.901620 0.984901 0.300998
O O12 0.996695 0.853135 0.408492
O O13 0.000000 0.000000 0.500000
O O14 0.848968 0.134635 0.651867
O O15 0.000000 0.231071 0.750000
O O16 0.910858 0.293002 0.581512
#
# Coordination Sequence:
#
# PCOD8139906 Si02
#       8
#     8   8   8   4   8   8   8   8
#     4  10  21  37  62  90 120 159 204 256 308 371
#     4  11  21  38  63  89 126 160 206 260 312 363
#     4  10  22  40  63  88 124 158 210 259 306 374
#     4  10  22  40  62  90 118 160 206 254 308 372
#     4  11  22  38  61  87 122 168 206 252 319 377
#     4  11  23  40  61  95 126 159 213 259 309 382
#     4  10  22  39  61  89 125 167 207 257 315 381
#     4  10  20  40  63  87 118 166 203 249 315 375
#
# _framework density 20.389635999999999
#
# number of rings (size 3 to 8) (size 9 to 14) (size 15 to 20)
#    0.000    1.600    4.000    0.800    0.933    1.600 
#    0.000    0.000    0.000    0.000    0.000    0.000 
#    0.000    0.000    0.000    0.000    0.000    0.000 
#
# Total GULP energy -371717.647237 kJ/mol
# GULP energy per Si atom -12390.588241 kJ/mol
# Density = 2.034323 g / cm^3
# Si number density = 20.389636 Si / 1000 Ang^3
#
#
#
# Elastic Constant Matrix: (Units=GPa)
#
#
# Indices 1 2 3 4 5 6 
#
# 1 61.2599 14.8892 18.2211 0.0000 -2.1091 0.0000
# 2 14.8892 92.3426 47.9746 0.0000 2.4202 0.0000
# 3 18.2211 47.9746 112.8097 0.0000 2.2406 0.0000
# 4 0.0000 0.0000 0.0000 17.4007 0.0000 2.3907
# 5 -2.1091 2.4202 2.2406 0.0000 32.8329 0.0000
# 6 0.0000 0.0000 0.0000 2.3907 0.0000 26.9598
#
#
#
# Elastic Compliance Matrix: (Units=1/GPa)
#
#
# Indices 1 2 3 4 5 6 
#
# 1 0.017422 -0.001758 -0.002094 0.000000 0.001392 0.000000
# 2 -0.001758 0.014090 -0.005693 0.000000 -0.000763 0.000000
# 3 -0.002094 -0.005693 0.011634 0.000000 -0.000509 0.000000
# 4 0.000000 0.000000 0.000000 0.058178 0.000000 -0.005159
# 5 0.001392 -0.000763 -0.000509 0.000000 0.030638 0.000000
# 6 0.000000 0.000000 0.000000 -0.005159 0.000000 0.037550
#
#
# Mechanical properties :
#
#
# Convention : Reuss Voigt Hill
#
# Bulk Modulus (GPa) = 41.56900 47.62021 44.59460
# Shear Modulus (GPa) = 25.42976 27.79384 26.61180
#
# Velocity S-wave (km/s) = 3.53539 3.69607 3.61662
# Velocity P-wave (km/s) = 6.09072 6.45139 6.27365
#
# Compressibility (1/GPa) = 0.02405639
#
# Stress axis : x y z
#
# Youngs Moduli (GPa) = 57.39908 70.97033 85.95505
#
# Poissons Ratio (x) = 0.12473 0.18001
# Poissons Ratio (y) = 0.10088 0.48936
# Poissons Ratio (z) = 0.12021 0.40405
#
# Static dielectric constant tensor:
#      x y z
#    x 3.588390 0.000000 0.194990 
#    y 0.000000 3.638920 0.000000 
#    z 0.194990 0.000000 3.511610 
# 
# 
# High freq. dielectric constant tensor:
#      x y z
#    x 1.790780 0.000000 -0.011220 
#    y 0.000000 1.790500 0.000000 
#    z -0.011220 0.000000 1.799000 
# 
# From -- ./inp_files/154024.got.cif
#   From: 2010.06.25/outbox.cif.g09.slc.cpg/sg15_78_cif.got.tgz:154024.got - 2010.06.28 07:06:18.
