data_PCOD8139455
_publ_section_title
;
Structure prediction by ZEFSAII (Michael W. Deem and Ramdas Pophale) SiO2 
 PCOD8139455
Probable space group: C 2/C
;
_chemical_formula_sum "Si O2"
_cell_formula_units_Z 56
_cell_length_a 15.103277
_cell_length_b 15.908115
_cell_length_c 12.249636
_cell_angle_alpha 90.000000
_cell_angle_beta 58.253250
_cell_angle_gamma 90.000000
_cell_volume 2502.806009
_symmetry_space_group_name_H-M "C 2/C"
_symmetry_group_IT_number 15
_symmetry_cell_setting 'monoclinic'
loop_
_space_group_symop_operation_xyz
x,y,z
-x,y,1/2-z
-x,-y,-z
x,-y,1/2+z
1/2+x,1/2+y,z
1/2-x,1/2+y,1/2-z
1/2-x,1/2-y,-z
1/2+x,1/2-y,1/2+z
loop_
_atom_site_type_symbol
_atom_site_label
_atom_site_fract_x
_atom_site_fract_y
_atom_site_fract_z
Si Si1 0.536919 0.815480 0.408464
Si Si2 0.000000 0.445884 0.250000
Si Si3 0.742477 0.309085 0.294957
Si Si4 0.500000 0.682431 0.250000
Si Si5 0.097244 0.060444 0.464441
Si Si6 0.295678 0.623525 0.319114
Si Si7 0.777357 0.542525 0.938509
Si Si8 0.977368 0.785825 0.140320
O O1 0.491052 0.891779 0.367668
O O2 0.660461 0.826200 0.348538
O O3 0.518126 0.732141 0.349711
O O4 0.485164 0.799079 0.560532
O O5 0.109992 0.496683 0.174978
O O6 0.742397 0.213685 0.337670
O O7 0.754589 0.371033 0.389174
O O8 0.637486 0.325791 0.295539
O O9 0.396692 0.627714 0.333993
O O10 0.167486 0.078843 0.314066
O O11 0.059738 0.145732 0.545369
O O12 0.181407 0.020531 0.490715
O O13 0.000000 0.000000 0.500000
O O14 0.214206 0.565432 0.438047
O O15 0.000000 0.760381 0.250000
#
# Coordination Sequence:
#
# PCOD8139455 Si02
#       8
#     8   4   8   4   8   8   8   8
#     4   9  18  36  60  95 121 156 210 276 315 357
#     4   9  20  40  70  98 128 153 222 288 319 368
#     4  10  20  39  62  92 123 165 222 274 315 369
#     4   9  14  30  58  88 120 151 200 262 315 362
#     4  12  25  41  58  97 142 171 209 259 334 401
#     4  11  21  38  66  92 132 169 216 272 324 385
#     4  11  22  37  67  95 128 169 216 271 333 377
#     4  12  24  39  62  91 133 176 216 255 323 401
#
# _framework density 22.374887000000001
#
# number of rings (size 3 to 8) (size 9 to 14) (size 15 to 20)
#    0.000    1.429    4.286    3.857    2.000    0.571 
#    0.000    0.714    1.571    0.000    0.000    0.000 
#    0.000    0.000    0.000    0.000    0.000    0.000 
#
# Total GULP energy -346979.039843 kJ/mol
# GULP energy per Si atom -12392.108566 kJ/mol
# Density = 2.232396 g / cm^3
# Si number density = 22.374887 Si / 1000 Ang^3
#
#
#
# Elastic Constant Matrix: (Units=GPa)
#
#
# Indices 1 2 3 4 5 6 
#
# 1 109.2673 8.2342 42.7365 0.0000 -14.4982 0.0000
# 2 8.2342 30.6970 3.3649 0.0000 -0.2834 0.0000
# 3 42.7365 3.3649 107.1744 0.0000 11.3377 0.0000
# 4 0.0000 0.0000 0.0000 14.6320 0.0000 -10.4826
# 5 -14.4982 -0.2834 11.3377 0.0000 36.2628 0.0000
# 6 0.0000 0.0000 0.0000 -10.4826 0.0000 24.8801
#
#
#
# Elastic Compliance Matrix: (Units=1/GPa)
#
#
# Indices 1 2 3 4 5 6 
#
# 1 0.012421 -0.002659 -0.005577 0.000000 0.006689 0.000000
# 2 -0.002659 0.033270 0.000104 0.000000 -0.000835 0.000000
# 3 -0.005577 0.000104 0.012190 0.000000 -0.006040 0.000000
# 4 0.000000 0.000000 0.000000 0.097891 0.000000 0.041244
# 5 0.006689 -0.000835 -0.006040 0.000000 0.032133 0.000000
# 6 0.000000 0.000000 0.000000 0.041244 0.000000 0.057570
#
#
# Mechanical properties :
#
#
# Convention : Reuss Voigt Hill
#
# Bulk Modulus (GPa) = 24.02804 39.53445 31.78124
# Shear Modulus (GPa) = 18.14149 28.00853 23.07501
#
# Velocity S-wave (km/s) = 2.85054 3.54189 3.21486
# Velocity P-wave (km/s) = 4.64718 5.86806 5.29294
#
# Compressibility (1/GPa) = 0.04161805
#
# Stress axis : x y z
#
# Youngs Moduli (GPa) = 80.50831 30.05666 82.03293
#
# Poissons Ratio (x) = 0.07991 0.45751
# Poissons Ratio (y) = 0.21405 -0.00853
# Poissons Ratio (z) = 0.44900 -0.00313
#
# Static dielectric constant tensor:
#      x y z
#    x 4.300420 0.000000 -0.362330 
#    y 0.000000 3.656790 0.000000 
#    z -0.362330 0.000000 4.129200 
# 
# 
# High freq. dielectric constant tensor:
#      x y z
#    x 1.885890 0.000000 -0.023230 
#    y 0.000000 1.839860 0.000000 
#    z -0.023230 0.000000 1.884320 
# 
# From -- ./inp_files/98695.got.cif
#   From: 2010.06.25/outbox.cif.g09.slc.cpg/sg15_50_cif.got.tgz:98695.got - 2010.06.28 07:06:18.
