data_PCOD8139833
_publ_section_title
;
Structure prediction by ZEFSAII (Michael W. Deem and Ramdas Pophale) SiO2 
 PCOD8139833
Probable space group: C 2/C
;
_chemical_formula_sum "Si O2"
_cell_formula_units_Z 64
_cell_length_a 22.312879
_cell_length_b 6.582562
_cell_length_c 22.390888
_cell_angle_alpha 90.000000
_cell_angle_beta 75.030869
_cell_angle_gamma 90.000000
_cell_volume 3177.081037
_symmetry_space_group_name_H-M "C 2/C"
_symmetry_group_IT_number 15
_symmetry_cell_setting 'monoclinic'
loop_
_space_group_symop_operation_xyz
x,y,z
-x,y,1/2-z
-x,-y,-z
x,-y,1/2+z
1/2+x,1/2+y,z
1/2-x,1/2+y,1/2-z
1/2-x,1/2-y,-z
1/2+x,1/2-y,1/2+z
loop_
_atom_site_type_symbol
_atom_site_label
_atom_site_fract_x
_atom_site_fract_y
_atom_site_fract_z
Si Si1 0.180487 0.209211 0.449928
Si Si2 0.631761 0.015740 0.868546
Si Si3 0.046392 0.750806 0.322277
Si Si4 0.682954 0.383021 0.081905
Si Si5 0.413032 0.146797 0.319265
Si Si6 0.212949 0.132327 0.852375
Si Si7 0.653031 0.752420 0.160077
Si Si8 0.131412 0.100952 0.289499
O O1 0.129337 0.350412 0.429821
O O2 0.244932 0.331086 0.432094
O O3 0.157238 0.171544 0.522972
O O4 0.185889 0.991853 0.415929
O O5 0.636817 0.170546 0.811890
O O6 0.570156 0.881681 0.872797
O O7 0.690810 0.866117 0.858116
O O8 0.079006 0.667181 0.253752
O O9 0.067937 0.984985 0.326141
O O10 0.972634 0.735459 0.338431
O O11 0.670784 0.622794 0.096662
O O12 0.647166 0.261439 0.141943
O O13 0.403002 0.909144 0.338254
O O14 0.286960 0.122004 0.833947
O O15 0.190521 0.026760 0.797123
O O16 0.631622 0.600408 0.217863
#
# Coordination Sequence:
#
# PCOD8139833 Si02
#       8
#     8   8   8   8   8   8   8   8
#     4  10  22  40  61  86 126 163 203 249 301 361
#     4  10  20  40  61  89 117 162 200 249 308 361
#     4  10  22  41  61  85 124 157 204 251 305 369
#     4  11  23  39  59  90 125 163 203 249 301 366
#     4  11  23  40  59  90 123 160 201 252 307 371
#     4  10  22  34  59  90 126 156 197 251 310 375
#     4  12  22  35  58  93 125 157 199 246 321 370
#     4  10  22  35  59  90 122 157 196 254 310 375
#
# _framework density 20.144276000000001
#
# number of rings (size 3 to 8) (size 9 to 14) (size 15 to 20)
#    0.000    1.500    5.000    0.000    1.750    2.500 
#    0.000    0.625    0.000    7.500    0.000    0.000 
#    0.000    0.000    0.000    0.000    0.000    0.000 
#
# Total GULP energy -396731.074727 kJ/mol
# GULP energy per Si atom -12397.846085 kJ/mol
# Density = 2.009843 g / cm^3
# Si number density = 20.144276 Si / 1000 Ang^3
#
#
#
# Elastic Constant Matrix: (Units=GPa)
#
#
# Indices 1 2 3 4 5 6 
#
# 1 61.9985 17.5365 12.1577 0.0000 8.8714 0.0000
# 2 17.5365 111.4532 18.8712 -0.0001 1.9671 0.0000
# 3 12.1577 18.8712 50.4972 0.0000 8.7650 0.0000
# 4 0.0000 -0.0001 0.0000 25.0490 0.0000 3.9702
# 5 8.8714 1.9671 8.7650 0.0000 23.5350 0.0000
# 6 0.0000 0.0000 0.0000 3.9702 0.0000 30.9227
#
#
#
# Elastic Compliance Matrix: (Units=1/GPa)
#
#
# Indices 1 2 3 4 5 6 
#
# 1 0.018091 -0.002323 -0.002499 0.000000 -0.005695 0.000000
# 2 -0.002323 0.009884 -0.003360 0.000000 0.001301 0.000000
# 3 -0.002499 -0.003360 0.022931 0.000000 -0.007317 0.000000
# 4 0.000000 0.000000 0.000000 0.040751 0.000000 -0.005232
# 5 -0.005695 0.001301 -0.007317 0.000000 0.047253 0.000000
# 6 0.000000 0.000000 0.000000 -0.005232 0.000000 0.033011
#
#
# Mechanical properties :
#
#
# Convention : Reuss Voigt Hill
#
# Bulk Modulus (GPa) = 28.95091 35.67553 32.31322
# Shear Modulus (GPa) = 25.02522 27.59356 26.30939
#
# Velocity S-wave (km/s) = 3.52845 3.70509 3.61785
# Velocity P-wave (km/s) = 5.56803 6.00434 5.79029
#
# Compressibility (1/GPa) = 0.03454123
#
# Stress axis : x y z
#
# Youngs Moduli (GPa) = 55.27490 101.17502 43.60987
#
# Poissons Ratio (x) = 0.23502 0.10899
# Poissons Ratio (y) = 0.12840 0.14654
# Poissons Ratio (z) = 0.13814 0.33997
#
# Static dielectric constant tensor:
#      x y z
#    x 3.532200 0.000000 0.242500 
#    y 0.000000 3.873850 0.000000 
#    z 0.242500 0.000000 3.452030 
# 
# 
# High freq. dielectric constant tensor:
#      x y z
#    x 1.773180 0.000000 0.022460 
#    y 0.000000 1.804460 0.000000 
#    z 0.022460 0.000000 1.756000 
# 
# From -- ./inp_files/281196.got.cif
#   From: 2010.06.25/outbox.cif.g09.slc.cpg/sg15_141_cif.got.tgz:281196.got - 2010.06.28 07:06:18.
