data_PCOD8139274
_publ_section_title
;
Structure prediction by ZEFSAII (Michael W. Deem and Ramdas Pophale) SiO2 
 PCOD8139274
Probable space group: C 2/C
;
_chemical_formula_sum "Si O2"
_cell_formula_units_Z 56
_cell_length_a 8.298348
_cell_length_b 18.436166
_cell_length_c 23.172273
_cell_angle_alpha 90.000000
_cell_angle_beta 134.080740
_cell_angle_gamma 90.000000
_cell_volume 2546.672775
_symmetry_space_group_name_H-M "C 2/C"
_symmetry_group_IT_number 15
_symmetry_cell_setting 'monoclinic'
loop_
_space_group_symop_operation_xyz
x,y,z
-x,y,1/2-z
-x,-y,-z
x,-y,1/2+z
1/2+x,1/2+y,z
1/2-x,1/2+y,1/2-z
1/2-x,1/2-y,-z
1/2+x,1/2-y,1/2+z
loop_
_atom_site_type_symbol
_atom_site_label
_atom_site_fract_x
_atom_site_fract_y
_atom_site_fract_z
Si Si1 0.291157 0.189268 0.557420
Si Si2 0.338083 0.078150 0.858509
Si Si3 0.467478 0.914793 0.905683
Si Si4 0.980412 0.925147 0.031161
Si Si5 0.608278 0.555872 0.690101
Si Si6 0.203097 0.403987 0.759221
Si Si7 0.085835 0.813063 0.836535
O O1 0.250000 0.250000 0.500000
O O2 0.485813 0.138971 0.580273
O O3 0.074875 0.139531 0.515320
O O4 0.357377 0.230668 0.632981
O O5 0.308785 0.085409 0.781274
O O6 0.114049 0.091635 0.838943
O O7 0.424390 0.000046 0.900373
O O8 0.424392 0.885435 0.831172
O O9 0.300665 0.865734 0.903452
O O10 0.728225 0.904304 0.986675
O O11 0.129886 0.928504 0.127163
O O12 0.000000 0.000000 0.000000
O O13 0.619226 0.469600 0.702970
O O14 0.367395 0.338474 0.819895
O O15 0.000000 0.423387 0.750000
O O16 0.000000 0.819167 0.750000
#
# Coordination Sequence:
#
# PCOD8139274 Si02
#       7
#     8   8   8   8   8   8   8
#     4  12  30  46  67 101 153 181 234 292 366 418
#     4  10  22  47  69 102 138 191 233 295 344 422
#     4  10  21  42  70  98 135 179 233 279 345 411
#     4  12  26  43  70 107 138 187 237 296 350 414
#     4  10  23  41  75 101 136 177 253 285 341 413
#     4  10  20  38  71 102 132 173 232 285 334 410
#     4  10  24  46  69  98 143 190 227 279 359 429
#
# _framework density 21.989474999999999
#
# number of rings (size 3 to 8) (size 9 to 14) (size 15 to 20)
#    0.000    1.429    2.857    0.857   10.000    1.143 
#    2.571    0.000    0.000    0.000    0.000    0.000 
#    0.000    0.000    0.000    0.000    0.000    0.000 
#
# Total GULP energy -346965.323902 kJ/mol
# GULP energy per Si atom -12391.618711 kJ/mol
# Density = 2.193943 g / cm^3
# Si number density = 21.989475 Si / 1000 Ang^3
#
#
#
# Elastic Constant Matrix: (Units=GPa)
#
#
# Indices 1 2 3 4 5 6 
#
# 1 73.6499 34.5817 23.3020 0.0000 11.3330 0.0001
# 2 34.5817 126.9918 34.9101 0.0001 14.9349 0.0000
# 3 23.3020 34.9101 67.2744 -0.0005 0.4710 0.0001
# 4 0.0000 0.0001 -0.0005 39.2846 -0.0001 6.4692
# 5 11.3330 14.9349 0.4710 -0.0001 44.3116 0.0001
# 6 0.0001 0.0000 0.0001 6.4692 0.0001 32.9341
#
#
#
# Elastic Compliance Matrix: (Units=1/GPa)
#
#
# Indices 1 2 3 4 5 6 
#
# 1 0.016844 -0.003042 -0.004233 0.000000 -0.003237 0.000000
# 2 -0.003042 0.010164 -0.004202 0.000000 -0.002603 0.000000
# 3 -0.004233 -0.004202 0.018495 0.000000 0.002302 0.000000
# 4 0.000000 0.000000 0.000000 0.026306 0.000000 -0.005167
# 5 -0.003237 -0.002603 0.002302 0.000000 0.024248 0.000000
# 6 0.000000 0.000000 0.000000 -0.005167 0.000000 0.031379
#
#
# Mechanical properties :
#
#
# Convention : Reuss Voigt Hill
#
# Bulk Modulus (GPa) = 44.34983 50.38929 47.36956
# Shear Modulus (GPa) = 31.66403 34.98086 33.32244
#
# Velocity S-wave (km/s) = 3.79880 3.99281 3.89701
# Velocity P-wave (km/s) = 6.28121 6.64994 6.46820
#
# Compressibility (1/GPa) = 0.02254800
#
# Stress axis : x y z
#
# Youngs Moduli (GPa) = 59.36950 98.38233 54.06798
#
# Poissons Ratio (x) = 0.29932 0.22885
# Poissons Ratio (y) = 0.18063 0.22722
# Poissons Ratio (z) = 0.25129 0.41345
#
# Static dielectric constant tensor:
#      x y z
#    x 3.931990 0.000000 0.073090 
#    y 0.000000 4.010180 0.000000 
#    z 0.073090 0.000000 4.161450 
# 
# 
# High freq. dielectric constant tensor:
#      x y z
#    x 1.861700 0.000000 0.006060 
#    y 0.000000 1.847500 0.000000 
#    z 0.006060 0.000000 1.874880 
# 
# From -- ./inp_files/289756.got.cif
#   From: 2010.06.25/outbox.cif.g09.slc.cpg/sg15_145_cif.got.tgz:289756.got - 2010.06.28 07:06:18.
