data_PCOD8139615
_publ_section_title
;
Structure prediction by ZEFSAII (Michael W. Deem and Ramdas Pophale) SiO2 
 PCOD8139615
Probable space group: C 2/C
;
_chemical_formula_sum "Si O2"
_cell_formula_units_Z 40
_cell_length_a 20.832221
_cell_length_b 11.039087
_cell_length_c 13.275862
_cell_angle_alpha 90.000000
_cell_angle_beta 35.643230
_cell_angle_gamma 90.000000
_cell_volume 1779.112975
_symmetry_space_group_name_H-M "C 2/C"
_symmetry_group_IT_number 15
_symmetry_cell_setting 'monoclinic'
loop_
_space_group_symop_operation_xyz
x,y,z
-x,y,1/2-z
-x,-y,-z
x,-y,1/2+z
1/2+x,1/2+y,z
1/2-x,1/2+y,1/2-z
1/2-x,1/2-y,-z
1/2+x,1/2-y,1/2+z
loop_
_atom_site_type_symbol
_atom_site_label
_atom_site_fract_x
_atom_site_fract_y
_atom_site_fract_z
Si Si1 0.096983 0.793750 0.683247
Si Si2 0.966390 0.191301 0.535116
Si Si3 0.150055 0.965948 0.890301
Si Si4 0.301289 0.853708 0.866795
Si Si5 0.292681 0.068622 0.012751
O O1 0.201335 0.880545 0.551380
O O2 0.116436 0.673014 0.591678
O O3 0.000000 0.867381 0.750000
O O4 0.058488 0.752025 0.843998
O O5 0.901484 0.298679 0.674058
O O6 0.035725 0.109170 0.525309
O O7 0.883180 0.108314 0.573585
O O8 0.209385 0.919478 0.915289
O O9 0.239108 0.954752 0.688082
O O10 0.250000 0.750000 0.000000
O O11 0.345738 0.951195 0.891588
#
# Coordination Sequence:
#
# PCOD8139615 Si02
#       5
#     8   8   8   8   8
#     4  10  20  39  65  91 129 171 212 260 321 398
#     4  10  22  41  64  98 124 175 220 259 330 387
#     4  10  22  42  65  88 135 170 217 265 317 406
#     4  12  24  42  67 100 133 169 221 279 333 381
#     4  10  22  41  63  98 125 168 218 260 331 383
#
# _framework density 22.483112999999999
#
# number of rings (size 3 to 8) (size 9 to 14) (size 15 to 20)
#    0.000    1.600    2.000    2.400    0.000    4.800 
#    3.600    0.000    0.000    0.000    0.000    0.000 
#    0.000    0.000    0.000    0.000    0.000    0.000 
#
# Total GULP energy -247835.957626 kJ/mol
# GULP energy per Si atom -12391.797881 kJ/mol
# Density = 2.243194 g / cm^3
# Si number density = 22.483113 Si / 1000 Ang^3
#
#
#
# Elastic Constant Matrix: (Units=GPa)
#
#
# Indices 1 2 3 4 5 6 
#
# 1 59.2967 9.1157 -1.7905 0.0000 2.2090 0.0000
# 2 9.1157 92.7805 38.7988 0.0000 16.3190 0.0000
# 3 -1.7905 38.7988 101.9825 0.0000 7.1354 0.0000
# 4 0.0000 0.0000 0.0000 45.1562 0.0000 13.1268
# 5 2.2090 16.3190 7.1354 0.0000 24.9329 0.0000
# 6 0.0000 0.0000 0.0000 13.1268 0.0000 28.0256
#
#
#
# Elastic Compliance Matrix: (Units=1/GPa)
#
#
# Indices 1 2 3 4 5 6 
#
# 1 0.017236 -0.002079 0.001128 0.000000 -0.000489 0.000000
# 2 -0.002079 0.014446 -0.004984 0.000000 -0.007845 0.000000
# 3 0.001128 -0.004984 0.011735 0.000000 -0.000196 0.000000
# 4 0.000000 0.000000 0.000000 0.025636 0.000000 -0.012008
# 5 -0.000489 -0.007845 -0.000196 0.000000 0.045342 0.000000
# 6 0.000000 0.000000 0.000000 -0.012008 0.000000 0.041306
#
#
# Mechanical properties :
#
#
# Convention : Reuss Voigt Hill
#
# Bulk Modulus (GPa) = 31.69788 38.47864 35.08826
# Shear Modulus (GPa) = 28.07618 33.48531 30.78075
#
# Velocity S-wave (km/s) = 3.53762 3.86340 3.70410
# Velocity P-wave (km/s) = 5.55117 6.08710 5.82530
#
# Compressibility (1/GPa) = 0.03154785
#
# Stress axis : x y z
#
# Youngs Moduli (GPa) = 58.01736 69.22210 85.21408
#
# Poissons Ratio (x) = 0.14392 -0.09610
# Poissons Ratio (y) = 0.12062 0.42468
# Poissons Ratio (z) = -0.06543 0.34498
#
# Static dielectric constant tensor:
#      x y z
#    x 3.925610 0.000000 0.016790 
#    y 0.000000 4.275210 0.000000 
#    z 0.016790 0.000000 4.307890 
# 
# 
# High freq. dielectric constant tensor:
#      x y z
#    x 1.874680 0.000000 0.010450 
#    y 0.000000 1.878760 0.000000 
#    z 0.010450 0.000000 1.899240 
# 
# From -- ./inp_files/111358.got.cif
#   From: 2010.06.25/outbox.cif.g09.slc.cpg/sg15_56_cif.got.tgz:111358.got - 2010.06.28 07:06:18.
