data_PCOD8139793
_publ_section_title
;
Structure prediction by ZEFSAII (Michael W. Deem and Ramdas Pophale) SiO2 
 PCOD8139793
Probable space group: C 2/C
;
_chemical_formula_sum "Si O2"
_cell_formula_units_Z 60
_cell_length_a 11.547261
_cell_length_b 22.156295
_cell_length_c 12.242842
_cell_angle_alpha 90.000000
_cell_angle_beta 109.428328
_cell_angle_gamma 90.000000
_cell_volume 2953.907661
_symmetry_space_group_name_H-M "C 2/C"
_symmetry_group_IT_number 15
_symmetry_cell_setting 'monoclinic'
loop_
_space_group_symop_operation_xyz
x,y,z
-x,y,1/2-z
-x,-y,-z
x,-y,1/2+z
1/2+x,1/2+y,z
1/2-x,1/2+y,1/2-z
1/2-x,1/2-y,-z
1/2+x,1/2-y,1/2+z
loop_
_atom_site_type_symbol
_atom_site_label
_atom_site_fract_x
_atom_site_fract_y
_atom_site_fract_z
Si Si1 0.251641 0.777196 0.842459
Si Si2 0.668257 0.902338 0.903260
Si Si3 0.607017 0.100984 0.141872
Si Si4 0.000000 0.974649 0.250000
Si Si5 0.573617 0.561798 0.551440
Si Si6 0.077704 0.193691 0.472282
Si Si7 0.261450 0.485428 0.554094
Si Si8 0.809687 0.216640 0.418908
O O1 0.330895 0.837548 0.877051
O O2 0.122306 0.793452 0.861803
O O3 0.238182 0.759291 0.712237
O O4 0.314723 0.718534 0.915831
O O5 0.536824 0.883156 0.910654
O O6 0.646101 0.924645 0.772704
O O7 0.771961 0.852033 0.926047
O O8 0.724187 0.947906 0.008319
O O9 0.646823 0.047152 0.074241
O O10 0.060019 0.930688 0.177332
O O11 0.113131 0.015298 0.332410
O O12 0.500000 0.500000 0.500000
O O13 0.538192 0.623982 0.479782
O O14 0.711491 0.549640 0.551493
O O15 0.954410 0.229556 0.461987
O O16 0.750000 0.250000 0.500000
#
# Coordination Sequence:
#
# PCOD8139793 Si02
#       8
#     8   8   8   4   8   8   8   8
#     4  10  23  40  63  91 121 166 208 255 314 382
#     4  10  22  37  60  88 119 156 208 256 308 373
#     4  10  20  40  60  85 119 159 207 252 306 373
#     4  10  22  34  54  88 128 152 206 256 316 382
#     4  10  21  37  57  89 123 162 202 255 315 372
#     4  11  22  41  64  90 127 162 209 259 316 381
#     4  11  20  36  57  86 120 165 201 252 312 374
#     4  11  23  40  63  92 120 160 207 261 316 372
#
# _framework density 20.312076999999999
#
# number of rings (size 3 to 8) (size 9 to 14) (size 15 to 20)
#    0.000    1.600    1.333    4.000    0.000    6.933 
#    0.000    0.000    0.000    0.000    0.000    0.000 
#    0.000    0.000    0.000    0.000    0.000    0.000 
#
# Total GULP energy -371649.982392 kJ/mol
# GULP energy per Si atom -12388.332746 kJ/mol
# Density = 2.026585 g / cm^3
# Si number density = 20.312077 Si / 1000 Ang^3
#
#
#
# Elastic Constant Matrix: (Units=GPa)
#
#
# Indices 1 2 3 4 5 6 
#
# 1 153.0648 27.4614 51.1505 0.0000 -24.1123 0.0000
# 2 27.4614 74.7670 39.8176 0.0000 -5.4367 0.0000
# 3 51.1505 39.8176 90.5539 0.0000 -26.2710 0.0000
# 4 0.0000 0.0000 0.0000 28.8276 0.0000 -6.5394
# 5 -24.1123 -5.4367 -26.2710 0.0000 41.4822 0.0000
# 6 0.0000 0.0000 0.0000 -6.5394 0.0000 34.2868
#
#
#
# Elastic Compliance Matrix: (Units=1/GPa)
#
#
# Indices 1 2 3 4 5 6 
#
# 1 0.008275 -0.000979 -0.003535 0.000000 0.002443 0.000000
# 2 -0.000979 0.017924 -0.008345 0.000000 -0.003505 0.000000
# 3 -0.003535 -0.008345 0.019351 0.000000 0.009107 0.000000
# 4 0.000000 0.000000 0.000000 0.036258 0.000000 0.006915
# 5 0.002443 -0.003505 0.009107 0.000000 0.030835 0.000000
# 6 0.000000 0.000000 0.000000 0.006915 0.000000 0.030485
#
#
# Mechanical properties :
#
#
# Convention : Reuss Voigt Hill
#
# Bulk Modulus (GPa) = 50.42400 61.69385 56.05892
# Shear Modulus (GPa) = 28.49711 34.24974 31.37342
#
# Velocity S-wave (km/s) = 3.74968 4.11076 3.93437
# Velocity P-wave (km/s) = 6.60495 7.27805 6.94965
#
# Compressibility (1/GPa) = 0.01983183
#
# Stress axis : x y z
#
# Youngs Moduli (GPa) = 120.84617 55.79154 51.67590
#
# Poissons Ratio (x) = 0.05463 0.18267
# Poissons Ratio (y) = 0.11832 0.43124
# Poissons Ratio (z) = 0.42719 0.46559
#
# Static dielectric constant tensor:
#      x y z
#    x 3.989570 0.000000 -0.509500 
#    y 0.000000 3.064570 0.000000 
#    z -0.509500 0.000000 3.612080 
# 
# 
# High freq. dielectric constant tensor:
#      x y z
#    x 1.816750 0.000000 -0.024810 
#    y 0.000000 1.777130 0.000000 
#    z -0.024810 0.000000 1.783520 
# 
# From -- ./inp_files/90876.got.cif
#   From: 2010.06.25/outbox.cif.g09.slc.cpg/sg15_46_cif.got.tgz:90876.got - 2010.06.28 07:06:18.
