data_PCOD8139021
_publ_section_title
;
Structure prediction by ZEFSAII (Michael W. Deem and Ramdas Pophale) SiO2 
 PCOD8139021
Probable space group: C 2/C
;
_chemical_formula_sum "Si O2"
_cell_formula_units_Z 56
_cell_length_a 20.113185
_cell_length_b 8.579982
_cell_length_c 15.210929
_cell_angle_alpha 90.000000
_cell_angle_beta 87.250213
_cell_angle_gamma 90.000000
_cell_volume 2621.939185
_symmetry_space_group_name_H-M "C 2/C"
_symmetry_group_IT_number 15
_symmetry_cell_setting 'monoclinic'
loop_
_space_group_symop_operation_xyz
x,y,z
-x,y,1/2-z
-x,-y,-z
x,-y,1/2+z
1/2+x,1/2+y,z
1/2-x,1/2+y,1/2-z
1/2-x,1/2-y,-z
1/2+x,1/2-y,1/2+z
loop_
_atom_site_type_symbol
_atom_site_label
_atom_site_fract_x
_atom_site_fract_y
_atom_site_fract_z
Si Si1 0.154753 0.936891 0.327543
Si Si2 0.301947 0.981922 0.802325
Si Si3 0.505832 0.055595 0.155053
Si Si4 0.144934 0.406464 0.877045
Si Si5 0.889552 0.191326 0.841950
Si Si6 0.117277 0.363405 0.062634
Si Si7 0.421162 0.480367 0.997214
O O1 0.223096 0.032000 0.314982
O O2 0.174286 0.762452 0.353584
O O3 0.116839 0.935321 0.236079
O O4 0.108217 0.014503 0.404288
O O5 0.333668 0.123799 0.856822
O O6 0.322679 0.018499 0.698796
O O7 0.330941 0.819218 0.837167
O O8 0.500000 0.968146 0.250000
O O9 0.434799 0.095124 0.120642
O O10 0.540509 0.221253 0.171566
O O11 0.547750 0.951027 0.085068
O O12 0.158094 0.446120 0.978703
O O13 0.887308 0.106468 0.935600
O O14 0.099573 0.187657 0.038581
O O15 0.500000 0.500000 0.000000
#
# Coordination Sequence:
#
# PCOD8139021 Si02
#       7
#     8   8   8   8   8   8   8
#     4  10  22  40  61  88 124 166 204 252 307 372
#     4  10  22  40  63  90 118 167 222 245 300 377
#     4  11  18  40  69  88 118 159 211 254 312 376
#     4  10  20  38  64  87 124 162 200 258 319 360
#     4  10  22  41  66  86 125 170 201 260 319 368
#     4  10  22  39  63  93 122 159 208 260 304 374
#     4  11  25  41  61  94 130 160 202 258 326 373
#
# _framework density 21.358239000000001
#
# number of rings (size 3 to 8) (size 9 to 14) (size 15 to 20)
#    0.000    1.714    4.286    2.143    0.000    7.429 
#    2.571   10.000    0.000    0.000    0.000    0.000 
#    0.000    0.000    0.000    0.000    0.000    0.000 
#
# Total GULP energy -347043.664576 kJ/mol
# GULP energy per Si atom -12394.416592 kJ/mol
# Density = 2.130963 g / cm^3
# Si number density = 21.358239 Si / 1000 Ang^3
#
#
#
# Elastic Constant Matrix: (Units=GPa)
#
#
# Indices 1 2 3 4 5 6 
#
# 1 108.5290 18.0692 28.8411 0.0000 -26.5544 0.0000
# 2 18.0692 41.3995 21.2313 0.0000 -1.3651 0.0000
# 3 28.8411 21.2313 120.9998 0.0000 -21.5832 0.0000
# 4 0.0000 0.0000 0.0000 34.9783 0.0000 4.4908
# 5 -26.5544 -1.3651 -21.5832 0.0000 23.6635 0.0000
# 6 0.0000 0.0000 0.0000 4.4908 0.0000 27.0221
#
#
#
# Elastic Compliance Matrix: (Units=1/GPa)
#
#
# Indices 1 2 3 4 5 6 
#
# 1 0.013891 -0.005807 0.000512 0.000000 0.015720 0.000000
# 2 -0.005807 0.029181 -0.005492 0.000000 -0.009842 0.000000
# 3 0.000512 -0.005492 0.010930 0.000000 0.010227 0.000000
# 4 0.000000 0.000000 0.000000 0.029212 0.000000 -0.004855
# 5 0.015720 -0.009842 0.010227 0.000000 0.068660 0.000000
# 6 0.000000 0.000000 0.000000 -0.004855 0.000000 0.037814
#
#
# Mechanical properties :
#
#
# Convention : Reuss Voigt Hill
#
# Bulk Modulus (GPa) = 30.83656 45.24572 38.04114
# Shear Modulus (GPa) = 22.51512 30.65190 26.58351
#
# Velocity S-wave (km/s) = 3.25031 3.79242 3.53179
# Velocity P-wave (km/s) = 5.34370 6.35664 5.87205
#
# Compressibility (1/GPa) = 0.03242904
#
# Stress axis : x y z
#
# Youngs Moduli (GPa) = 71.98740 34.26841 91.48875
#
# Poissons Ratio (x) = 0.19901 -0.04684
# Poissons Ratio (y) = 0.41805 0.50243
# Poissons Ratio (z) = -0.03686 0.18819
#
# Static dielectric constant tensor:
#      x y z
#    x 3.713050 0.000000 -0.044620 
#    y 0.000000 3.588450 0.000000 
#    z -0.044620 0.000000 4.532660 
# 
# 
# High freq. dielectric constant tensor:
#      x y z
#    x 1.832710 0.000000 -0.003030 
#    y 0.000000 1.802800 0.000000 
#    z -0.003030 0.000000 1.864240 
# 
# From -- ./inp_files/166694.got.cif
#   From: 2010.06.25/outbox.cif.g09.slc.cpg/sg15_84_cif.got.tgz:166694.got - 2010.06.28 07:06:18.
