data_PCOD8139418
_publ_section_title
;
Structure prediction by ZEFSAII (Michael W. Deem and Ramdas Pophale) SiO2 
 PCOD8139418
Probable space group: C 2/C
;
_chemical_formula_sum "Si O2"
_cell_formula_units_Z 40
_cell_length_a 12.289982
_cell_length_b 12.415581
_cell_length_c 13.237451
_cell_angle_alpha 90.000000
_cell_angle_beta 115.055368
_cell_angle_gamma 90.000000
_cell_volume 1829.794945
_symmetry_space_group_name_H-M "C 2/C"
_symmetry_group_IT_number 15
_symmetry_cell_setting 'monoclinic'
loop_
_space_group_symop_operation_xyz
x,y,z
-x,y,1/2-z
-x,-y,-z
x,-y,1/2+z
1/2+x,1/2+y,z
1/2-x,1/2+y,1/2-z
1/2-x,1/2-y,-z
1/2+x,1/2-y,1/2+z
loop_
_atom_site_type_symbol
_atom_site_label
_atom_site_fract_x
_atom_site_fract_y
_atom_site_fract_z
Si Si1 0.776387 0.882909 0.438194
Si Si2 0.060883 0.722382 0.376038
Si Si3 0.419303 0.823626 0.999742
Si Si4 0.307420 0.623886 0.421387
Si Si5 0.397488 0.236853 0.782025
O O1 0.693912 0.894913 0.507692
O O2 0.886237 0.803045 0.503920
O O3 0.699474 0.831985 0.317010
O O4 0.831786 0.996776 0.429511
O O5 0.168386 0.641481 0.393988
O O6 0.107251 0.822712 0.460552
O O7 0.000000 0.766802 0.250000
O O8 0.958767 0.656291 0.399293
O O9 0.536474 0.845860 0.115003
O O10 0.331701 0.669515 0.319041
O O11 0.500000 0.287834 0.750000
#
# Coordination Sequence:
#
# PCOD8139418 Si02
#       5
#     8   8   8   8   8
#     4  10  20  39  62  85 119 158 198 242 292 355
#     4  10  21  39  58  85 125 156 194 252 297 340
#     4   9  20  38  57  83 119 154 195 240 290 357
#     4  10  22  39  61  90 118 154 203 245 291 353
#     4   9  19  38  59  84 119 155 193 240 293 353
#
# _framework density 21.860372999999999
#
# number of rings (size 3 to 8) (size 9 to 14) (size 15 to 20)
#    0.000    2.400    0.000    1.200    0.000    6.400 
#    0.000   38.000    0.000    0.000    0.000    0.000 
#    0.000    0.000    0.000    0.000    0.000    0.000 
#
# Total GULP energy -247906.112064 kJ/mol
# GULP energy per Si atom -12395.305603 kJ/mol
# Density = 2.181062 g / cm^3
# Si number density = 21.860373 Si / 1000 Ang^3
#
#
#
# Elastic Constant Matrix: (Units=GPa)
#
#
# Indices 1 2 3 4 5 6 
#
# 1 98.3699 -10.1853 29.3068 0.0000 -32.5352 0.0000
# 2 -10.1853 65.3698 15.4934 0.0000 -6.9379 0.0000
# 3 29.3068 15.4934 128.4575 0.0000 -11.5464 0.0000
# 4 0.0000 0.0000 0.0000 22.3353 0.0000 -6.3276
# 5 -32.5352 -6.9379 -11.5464 0.0000 43.5267 0.0000
# 6 0.0000 0.0000 0.0000 -6.3276 0.0000 15.4727
#
#
#
# Elastic Compliance Matrix: (Units=1/GPa)
#
#
# Indices 1 2 3 4 5 6 
#
# 1 0.015222 0.004273 -0.002975 0.000000 0.011270 0.000000
# 2 0.004273 0.017129 -0.002570 0.000000 0.005243 0.000000
# 3 -0.002975 -0.002570 0.008745 0.000000 -0.000314 0.000000
# 4 0.000000 0.000000 0.000000 0.050639 0.000000 0.020709
# 5 0.011270 0.005243 -0.000314 0.000000 0.032151 0.000000
# 6 0.000000 0.000000 0.000000 0.020709 0.000000 0.073099
#
#
# Mechanical properties :
#
#
# Convention : Reuss Voigt Hill
#
# Bulk Modulus (GPa) = 25.93867 40.15856 33.04862
# Shear Modulus (GPa) = 23.54276 33.43908 28.49092
#
# Velocity S-wave (km/s) = 3.28527 3.91534 3.61406
# Velocity P-wave (km/s) = 5.12660 6.23299 5.70667
#
# Compressibility (1/GPa) = 0.03855247
#
# Stress axis : x y z
#
# Youngs Moduli (GPa) = 65.69455 58.38126 114.34881
#
# Poissons Ratio (x) = -0.24946 0.34021
# Poissons Ratio (y) = -0.28071 0.29382
# Poissons Ratio (z) = 0.19545 0.15001
#
# Static dielectric constant tensor:
#      x y z
#    x 4.343050 0.000000 -0.131970 
#    y 0.000000 3.325730 0.000000 
#    z -0.131970 0.000000 4.081790 
# 
# 
# High freq. dielectric constant tensor:
#      x y z
#    x 1.885110 0.000000 -0.002660 
#    y 0.000000 1.802970 0.000000 
#    z -0.002660 0.000000 1.868990 
# 
# From -- ./inp_files/151213.got.cif
#   From: 2010.06.25/outbox.cif.g09.slc.cpg/sg15_76_cif.got.tgz:151213.got - 2010.06.28 07:06:18.
