data_PCOD8139487
_publ_section_title
;
Structure prediction by ZEFSAII (Michael W. Deem and Ramdas Pophale) SiO2 
 PCOD8139487
Probable space group: C 2/C
;
_chemical_formula_sum "Si O2"
_cell_formula_units_Z 52
_cell_length_a 10.911536
_cell_length_b 22.978665
_cell_length_c 12.108187
_cell_angle_alpha 90.000000
_cell_angle_beta 124.313811
_cell_angle_gamma 90.000000
_cell_volume 2507.552870
_symmetry_space_group_name_H-M "C 2/C"
_symmetry_group_IT_number 15
_symmetry_cell_setting 'monoclinic'
loop_
_space_group_symop_operation_xyz
x,y,z
-x,y,1/2-z
-x,-y,-z
x,-y,1/2+z
1/2+x,1/2+y,z
1/2-x,1/2+y,1/2-z
1/2-x,1/2-y,-z
1/2+x,1/2-y,1/2+z
loop_
_atom_site_type_symbol
_atom_site_label
_atom_site_fract_x
_atom_site_fract_y
_atom_site_fract_z
Si Si1 0.652808 0.416672 0.259079
Si Si2 0.044140 0.134397 0.494932
Si Si3 0.754821 0.350968 0.895863
Si Si4 0.500000 0.811499 0.750000
Si Si5 0.113388 0.956165 0.710835
Si Si6 0.423305 0.848308 0.471711
Si Si7 0.196122 0.226650 0.165885
O O1 0.500000 0.413281 0.250000
O O2 0.686424 0.480963 0.225384
O O3 0.799211 0.398758 0.401969
O O4 0.642341 0.370474 0.154014
O O5 0.145203 0.153052 0.443333
O O6 0.970513 0.070477 0.438401
O O7 0.917792 0.182338 0.450570
O O8 0.729763 0.407569 0.807572
O O9 0.720777 0.292432 0.806567
O O10 0.925123 0.357938 0.021186
O O11 0.475880 0.848655 0.626301
O O12 0.645947 0.772417 0.814900
O O13 0.000000 0.968337 0.750000
O O14 0.362466 0.790584 0.383753
#
# Coordination Sequence:
#
# PCOD8139487 Si02
#       7
#     8   8   8   4   8   8   8
#     4  11  23  36  60  92 118 150 206 245 290 359
#     4  10  20  39  63  87 119 160 194 247 295 347
#     4   9  21  41  59  83 120 156 199 240 299 351
#     4  10  22  40  58  78 126 158 194 242 298 350
#     4   8  17  38  63  85 115 155 194 243 294 347
#     4  11  24  37  57  88 118 160 195 245 297 352
#     4  10  21  37  60  84 114 162 195 238 293 349
#
# _framework density 20.737348999999998
#
# number of rings (size 3 to 8) (size 9 to 14) (size 15 to 20)
#    0.000    2.154    0.000    3.231    5.385    1.846 
#    2.769    0.000    0.000    1.846    0.000    0.000 
#    0.000    0.000    0.000    0.000    0.000    0.000 
#
# Total GULP energy -322194.478093 kJ/mol
# GULP energy per Si atom -12392.095311 kJ/mol
# Density = 2.069015 g / cm^3
# Si number density = 20.737349 Si / 1000 Ang^3
#
#
#
# Elastic Constant Matrix: (Units=GPa)
#
#
# Indices 1 2 3 4 5 6 
#
# 1 101.5408 39.9044 41.8697 0.0000 22.6611 0.0000
# 2 39.9044 88.5958 29.7992 0.0000 13.0609 0.0000
# 3 41.8697 29.7992 89.4151 0.0000 17.3215 0.0000
# 4 0.0000 0.0000 0.0000 8.3649 0.0000 15.4272
# 5 22.6611 13.0609 17.3215 0.0000 39.4281 0.0000
# 6 0.0000 0.0000 0.0000 15.4272 0.0000 -11.8250
#
#
#
# Elastic Compliance Matrix: (Units=1/GPa)
#
#
# Indices 1 2 3 4 5 6 
#
# 1 0.014450 -0.004307 -0.004370 0.000000 -0.004958 0.000000
# 2 -0.004307 0.014239 -0.002508 0.000000 -0.001139 0.000000
# 3 -0.004370 -0.002508 0.014667 0.000000 -0.003101 0.000000
# 4 0.000000 0.000000 0.000000 0.035098 0.000000 0.045790
# 5 -0.004958 -0.001139 -0.003101 0.000000 0.029952 0.000000
# 6 0.000000 0.000000 0.000000 0.045790 0.000000 -0.024828
#
#
# Mechanical properties :
#
#
# Convention : Reuss Voigt Hill
#
# Bulk Modulus (GPa) = 47.65420 55.85536 51.75478
# Shear Modulus (GPa) = 44.27051 18.39215 31.33133
#
# Velocity S-wave (km/s) = 4.62542 2.98133 3.89120
# Velocity P-wave (km/s) = 7.18024 6.23252 6.72310
#
# Compressibility (1/GPa) = 0.02098451
#
# Stress axis : x y z
#
# Youngs Moduli (GPa) = 69.20650 70.23112 68.18217
#
# Poissons Ratio (x) = 0.30251 0.29797
# Poissons Ratio (y) = 0.29810 0.17097
# Poissons Ratio (z) = 0.30244 0.17611
#
# Static dielectric constant tensor:
#      x y z
#    x 3.834580 0.000000 0.168040 
#    y 0.000000 3.826010 0.000000 
#    z 0.168040 0.000000 3.530580 
# 
# 
# High freq. dielectric constant tensor:
#      x y z
#    x 1.807520 0.000000 0.011950 
#    y 0.000000 1.801810 0.000000 
#    z 0.011950 0.000000 1.813890 
# 
# From -- ./inp_files/91315.got.cif
#   From: 2010.06.25/outbox.cif.g09.slc.cpg/sg15_46_cif.got.tgz:91315.got - 2010.06.28 07:06:18.
