data_PCOD8139785
_publ_section_title
;
Structure prediction by ZEFSAII (Michael W. Deem and Ramdas Pophale) SiO2 
 PCOD8139785
Probable space group: C 2/C
;
_chemical_formula_sum "Si O2"
_cell_formula_units_Z 36
_cell_length_a 21.595186
_cell_length_b 4.989173
_cell_length_c 18.478285
_cell_angle_alpha 90.000000
_cell_angle_beta 127.506506
_cell_angle_gamma 90.000000
_cell_volume 1579.341267
_symmetry_space_group_name_H-M "C 2/C"
_symmetry_group_IT_number 15
_symmetry_cell_setting 'monoclinic'
loop_
_space_group_symop_operation_xyz
x,y,z
-x,y,1/2-z
-x,-y,-z
x,-y,1/2+z
1/2+x,1/2+y,z
1/2-x,1/2+y,1/2-z
1/2-x,1/2-y,-z
1/2+x,1/2-y,1/2+z
loop_
_atom_site_type_symbol
_atom_site_label
_atom_site_fract_x
_atom_site_fract_y
_atom_site_fract_z
Si Si1 0.500000 0.359341 0.750000
Si Si2 0.483191 0.823388 0.080617
Si Si3 0.406009 0.690045 0.455969
Si Si4 0.831032 0.983269 0.118241
Si Si5 0.237042 0.974983 0.081310
O O1 0.509545 0.182768 0.828355
O O2 0.578296 0.532250 0.795236
O O3 0.569916 0.817003 0.105149
O O4 0.445611 0.583357 0.009093
O O5 0.431259 0.087825 0.032598
O O6 0.313534 0.613909 0.390429
O O7 0.779978 0.193483 0.130931
O O8 0.804427 0.680032 0.107774
O O9 0.822218 0.076047 0.028285
#
# Coordination Sequence:
#
# PCOD8139785 Si02
#       5
#     4   8   8   8   8
#     4  12  24  42  58 102 124 156 198 286 300 370
#     4  10  23  36  64  89 124 158 205 251 318 352
#     4  10  20  42  61  88 117 170 206 245 294 400
#     4  10  23  34  61  88 123 155 204 248 316 350
#     4  10  20  40  59  86 116 169 202 244 292 394
#
# _framework density 22.794314
#
# number of rings (size 3 to 8) (size 9 to 14) (size 15 to 20)
#    0.000    1.778    2.222    1.333    6.222    3.556 
#    0.000    2.222    0.000    0.000    0.000    0.000 
#    0.000    0.000    0.000    0.000    0.000    0.000 
#
# Total GULP energy -223007.995532 kJ/mol
# GULP energy per Si atom -12389.333085 kJ/mol
# Density = 2.274243 g / cm^3
# Si number density = 22.794314 Si / 1000 Ang^3
#
#
#
# Elastic Constant Matrix: (Units=GPa)
#
#
# Indices 1 2 3 4 5 6 
#
# 1 108.9712 5.0093 31.9048 -0.0009 7.5060 0.0002
# 2 5.0093 130.2566 43.9017 -0.0057 -3.0610 0.0017
# 3 31.9048 43.9017 100.1931 -0.0002 -0.4379 0.0012
# 4 -0.0009 -0.0057 -0.0002 17.8496 0.0003 2.7125
# 5 7.5060 -3.0610 -0.4379 0.0003 53.6441 -0.0012
# 6 0.0002 0.0017 0.0012 2.7125 -0.0012 24.3596
#
#
#
# Elastic Compliance Matrix: (Units=1/GPa)
#
#
# Indices 1 2 3 4 5 6 
#
# 1 0.010303 0.000796 -0.003636 0.000001 -0.001426 0.000000
# 2 0.000796 0.009081 -0.004231 0.000003 0.000372 -0.000001
# 3 -0.003636 -0.004231 0.012994 -0.000001 0.000373 0.000000
# 4 0.000001 0.000003 -0.000001 0.056988 0.000000 -0.006346
# 5 -0.001426 0.000372 0.000373 0.000000 0.018865 0.000001
# 6 0.000000 -0.000001 0.000000 -0.006346 0.000001 0.041758
#
#
# Mechanical properties :
#
#
# Convention : Reuss Voigt Hill
#
# Bulk Modulus (GPa) = 54.83576 55.67249 55.25412
# Shear Modulus (GPa) = 29.37550 36.41100 32.89325
#
# Velocity S-wave (km/s) = 3.59377 4.00105 3.80287
# Velocity P-wave (km/s) = 6.42878 6.76915 6.60116
#
# Compressibility (1/GPa) = 0.01823628
#
# Stress axis : x y z
#
# Youngs Moduli (GPa) = 97.06089 110.11657 76.95919
#
# Poissons Ratio (x) = -0.08761 0.27979
# Poissons Ratio (y) = -0.07722 0.32561
# Poissons Ratio (z) = 0.35287 0.46589
#
# Static dielectric constant tensor:
#      x y z
#    x 4.370840 0.000060 0.208700 
#    y 0.000060 3.771650 0.000000 
#    z 0.208700 0.000000 3.634940 
# 
# 
# High freq. dielectric constant tensor:
#      x y z
#    x 1.916780 0.000000 0.020810 
#    y 0.000000 1.905890 0.000000 
#    z 0.020810 0.000000 1.845760 
# 
# From -- ./inp_files/250919.got.cif
#   From: 2010.06.25/outbox.cif.g09.slc.cpg/sg15_126_cif.got.tgz:250919.got - 2010.06.28 07:06:18.
