data_PCOD8139366
_publ_section_title
;
Structure prediction by ZEFSAII (Michael W. Deem and Ramdas Pophale) SiO2 
 PCOD8139366
Probable space group: C 2/C
;
_chemical_formula_sum "Si O2"
_cell_formula_units_Z 64
_cell_length_a 19.338434
_cell_length_b 8.758313
_cell_length_c 30.889322
_cell_angle_alpha 90.000000
_cell_angle_beta 142.444569
_cell_angle_gamma 90.000000
_cell_volume 3188.924836
_symmetry_space_group_name_H-M "C 2/C"
_symmetry_group_IT_number 15
_symmetry_cell_setting 'monoclinic'
loop_
_space_group_symop_operation_xyz
x,y,z
-x,y,1/2-z
-x,-y,-z
x,-y,1/2+z
1/2+x,1/2+y,z
1/2-x,1/2+y,1/2-z
1/2-x,1/2-y,-z
1/2+x,1/2-y,1/2+z
loop_
_atom_site_type_symbol
_atom_site_label
_atom_site_fract_x
_atom_site_fract_y
_atom_site_fract_z
Si Si1 0.465751 0.620178 0.556108
Si Si2 0.497146 0.535196 0.335145
Si Si3 0.712581 0.548158 0.670359
Si Si4 0.548416 0.765199 0.819537
Si Si5 0.758153 0.135354 0.235682
Si Si6 0.143381 0.317512 0.421835
Si Si7 0.005671 0.581527 0.119736
Si Si8 0.256039 0.033319 0.098111
O O1 0.463080 0.520775 0.598158
O O2 0.586976 0.598385 0.593818
O O3 0.442326 0.796784 0.557332
O O4 0.375421 0.561250 0.476790
O O5 0.538954 0.416752 0.319684
O O6 0.360588 0.549170 0.261651
O O7 0.559245 0.694741 0.359189
O O8 0.764135 0.685968 0.725489
O O9 0.715538 0.392224 0.700126
O O10 0.778819 0.515639 0.658952
O O11 0.500000 0.822047 0.750000
O O12 0.481857 0.849883 0.825513
O O13 0.680544 0.810903 0.884084
O O14 0.634028 0.060384 0.164791
O O15 0.250000 0.250000 0.500000
O O16 0.068400 0.426889 0.416297
O O17 0.192828 0.400164 0.405052
#
# Coordination Sequence:
#
# PCOD8139366 Si02
#       8
#     8   8   8   8   8   8   8   8
#     4   9  19  37  59  85 110 155 201 245 285 358
#     4  10  21  36  59  85 116 158 194 241 302 351
#     4  10  21  37  63  87 114 153 202 244 305 352
#     4  10  22  36  55  84 114 151 198 240 287 354
#     4  10  20  39  61  83 116 151 198 249 295 353
#     4  11  22  35  57  88 125 155 191 239 304 360
#     4   9  20  36  61  84 112 158 203 238 296 351
#     4  11  22  37  60  83 122 153 197 245 291 361
#
# _framework density 20.069458999999998
#
# number of rings (size 3 to 8) (size 9 to 14) (size 15 to 20)
#    0.000    2.000    1.250    2.625    1.750    3.500 
#    0.000    0.625    0.000    1.500    0.000    0.000 
#    0.000    0.000    0.000    0.000    0.000    0.000 
#
# Total GULP energy -396611.781396 kJ/mol
# GULP energy per Si atom -12394.118169 kJ/mol
# Density = 2.002378 g / cm^3
# Si number density = 20.069459 Si / 1000 Ang^3
#
#
#
# Elastic Constant Matrix: (Units=GPa)
#
#
# Indices 1 2 3 4 5 6 
#
# 1 105.2327 60.5185 44.7050 0.0000 5.8529 -0.0001
# 2 60.5185 125.4661 51.8730 0.0001 13.1876 -0.0003
# 3 44.7050 51.8730 89.7691 0.0000 13.3856 0.0000
# 4 0.0000 0.0001 0.0000 31.2896 0.0000 6.5908
# 5 5.8529 13.1876 13.3856 0.0000 30.6019 0.0000
# 6 -0.0001 -0.0003 0.0000 6.5908 0.0000 21.8849
#
#
#
# Elastic Compliance Matrix: (Units=1/GPa)
#
#
# Indices 1 2 3 4 5 6 
#
# 1 0.014266 -0.005262 -0.004274 0.000000 0.001409 0.000000
# 2 -0.005262 0.012529 -0.004241 0.000000 -0.002538 0.000000
# 3 -0.004274 -0.004241 0.016393 0.000000 -0.004526 0.000000
# 4 0.000000 0.000000 0.000000 0.034124 0.000000 -0.010277
# 5 0.001409 -0.002538 -0.004526 0.000000 0.035482 0.000000
# 6 0.000000 0.000000 0.000000 -0.010277 0.000000 0.048789
#
#
# Mechanical properties :
#
#
# Convention : Reuss Voigt Hill
#
# Bulk Modulus (GPa) = 63.96041 70.51790 67.23915
# Shear Modulus (GPa) = 25.72710 27.64672 26.68691
#
# Velocity S-wave (km/s) = 3.58425 3.71557 3.65050
# Velocity P-wave (km/s) = 7.00485 7.32260 7.16548
#
# Compressibility (1/GPa) = 0.01563467
#
# Stress axis : x y z
#
# Youngs Moduli (GPa) = 70.09476 79.81753 61.00073
#
# Poissons Ratio (x) = 0.42004 0.26070
# Poissons Ratio (y) = 0.36887 0.25867
# Poissons Ratio (z) = 0.29957 0.33847
#
# Static dielectric constant tensor:
#      x y z
#    x 3.642570 0.000000 0.220010 
#    y 0.000000 3.705160 0.000000 
#    z 0.220010 0.000000 3.620040 
# 
# 
# High freq. dielectric constant tensor:
#      x y z
#    x 1.779220 0.000000 0.020950 
#    y 0.000000 1.780710 0.000000 
#    z 0.020950 0.000000 1.774430 
# 
# From -- ./inp_files/279557.got.cif
#   From: 2010.06.25/outbox.cif.g09.slc.cpg/sg15_140_cif.got.tgz:279557.got - 2010.06.28 07:06:18.
