data_PCOD8139383
_publ_section_title
;
Structure prediction by ZEFSAII (Michael W. Deem and Ramdas Pophale) SiO2 
 PCOD8139383
Probable space group: C 2/C
;
_chemical_formula_sum "Si O2"
_cell_formula_units_Z 52
_cell_length_a 12.886631
_cell_length_b 8.450923
_cell_length_c 25.007181
_cell_angle_alpha 90.000000
_cell_angle_beta 110.419131
_cell_angle_gamma 90.000000
_cell_volume 2552.258098
_symmetry_space_group_name_H-M "C 2/C"
_symmetry_group_IT_number 15
_symmetry_cell_setting 'monoclinic'
loop_
_space_group_symop_operation_xyz
x,y,z
-x,y,1/2-z
-x,-y,-z
x,-y,1/2+z
1/2+x,1/2+y,z
1/2-x,1/2+y,1/2-z
1/2-x,1/2-y,-z
1/2+x,1/2-y,1/2+z
loop_
_atom_site_type_symbol
_atom_site_label
_atom_site_fract_x
_atom_site_fract_y
_atom_site_fract_z
Si Si1 0.254445 0.001445 0.006185
Si Si2 0.161454 0.365545 0.766757
Si Si3 0.023854 0.213455 0.823677
Si Si4 0.797349 0.726503 0.700656
Si Si5 0.000000 0.067136 0.250000
Si Si6 0.066581 0.243503 0.952281
Si Si7 0.682683 0.767353 0.569708
O O1 0.266965 0.923432 0.949655
O O2 0.146385 0.111621 0.991931
O O3 0.243242 0.877872 0.051990
O O4 0.369283 0.091327 0.037199
O O5 0.140190 0.250923 0.814427
O O6 0.184314 0.540284 0.791911
O O7 0.263358 0.294118 0.752314
O O8 0.056052 0.360320 0.707174
O O9 0.039546 0.189910 0.888130
O O10 0.965167 0.051324 0.792146
O O11 0.709998 0.765040 0.637717
O O12 0.908568 0.819891 0.707590
O O13 0.950534 0.259241 0.963166
#
# Coordination Sequence:
#
# PCOD8139383 Si02
#       7
#     8   8   8   8   4   8   8
#     4  10  24  40  64  92 120 154 210 254 304 358
#     4  10  21  36  57  87 119 156 195 243 290 369
#     4  10  20  39  61  86 124 154 196 246 301 355
#     4  12  22  38  60  87 122 161 200 243 306 355
#     4  10  22  36  58  88 124 156 198 246 292 368
#     4  11  21  42  66  89 122 162 196 257 306 360
#     4  11  23  42  64  89 121 162 202 255 304 362
#
# _framework density 20.374115
#
# number of rings (size 3 to 8) (size 9 to 14) (size 15 to 20)
#    0.000    1.538    1.538    5.538    0.000    0.000 
#    0.000    0.000    3.385    0.000    0.000    0.000 
#    0.000    0.000    0.000    0.000    0.000    0.000 
#
# Total GULP energy -322280.354123 kJ/mol
# GULP energy per Si atom -12395.398236 kJ/mol
# Density = 2.032774 g / cm^3
# Si number density = 20.374115 Si / 1000 Ang^3
#
#
#
# Elastic Constant Matrix: (Units=GPa)
#
#
# Indices 1 2 3 4 5 6 
#
# 1 96.5887 36.8644 9.9923 0.0000 9.1541 0.0000
# 2 36.8644 84.2176 5.0329 0.0000 5.8766 0.0000
# 3 9.9923 5.0329 50.8951 0.0000 1.9140 0.0000
# 4 0.0000 0.0000 0.0000 20.8816 0.0000 5.4639
# 5 9.1541 5.8766 1.9140 0.0000 33.9956 0.0000
# 6 0.0000 0.0000 0.0000 5.4639 0.0000 30.0307
#
#
#
# Elastic Compliance Matrix: (Units=1/GPa)
#
#
# Indices 1 2 3 4 5 6 
#
# 1 0.012812 -0.005326 -0.001898 0.000000 -0.002422 0.000000
# 2 -0.005326 0.014296 -0.000330 0.000000 -0.001019 0.000000
# 3 -0.001898 -0.000330 0.020075 0.000000 -0.000562 0.000000
# 4 0.000000 0.000000 0.000000 0.050283 0.000000 -0.009149
# 5 -0.002422 -0.001019 -0.000562 0.000000 0.030276 0.000000
# 6 0.000000 0.000000 0.000000 -0.009149 0.000000 0.034964
#
#
# Mechanical properties :
#
#
# Convention : Reuss Voigt Hill
#
# Bulk Modulus (GPa) = 31.17577 37.27563 34.22570
# Shear Modulus (GPa) = 26.52483 28.96902 27.74693
#
# Velocity S-wave (km/s) = 3.61208 3.77484 3.69436
# Velocity P-wave (km/s) = 5.72111 6.11020 5.91885
#
# Compressibility (1/GPa) = 0.03207620
#
# Stress axis : x y z
#
# Youngs Moduli (GPa) = 78.05396 69.94990 49.81426
#
# Poissons Ratio (x) = 0.37252 0.09453
# Poissons Ratio (y) = 0.41568 0.01643
# Poissons Ratio (z) = 0.14812 0.02307
#
# Static dielectric constant tensor:
#      x y z
#    x 3.879420 0.000000 -0.006720 
#    y 0.000000 3.727080 0.000000 
#    z -0.006720 0.000000 3.500920 
# 
# 
# High freq. dielectric constant tensor:
#      x y z
#    x 1.803430 0.000000 -0.003050 
#    y 0.000000 1.799870 0.000000 
#    z -0.003050 0.000000 1.783640 
# 
# From -- ./inp_files/294889.got.cif
#   From: 2010.06.25/outbox.cif.g09.slc.cpg/sg15_148_cif.got.tgz:294889.got - 2010.06.28 07:06:18.
