data_PCOD8139526
_publ_section_title
;
Structure prediction by ZEFSAII (Michael W. Deem and Ramdas Pophale) SiO2 
 PCOD8139526
Probable space group: C 2/C
;
_chemical_formula_sum "Si O2"
_cell_formula_units_Z 40
_cell_length_a 25.263880
_cell_length_b 9.023969
_cell_length_c 14.164124
_cell_angle_alpha 90.000000
_cell_angle_beta 145.893432
_cell_angle_gamma 90.000000
_cell_volume 1810.690356
_symmetry_space_group_name_H-M "C 2/C"
_symmetry_group_IT_number 15
_symmetry_cell_setting 'monoclinic'
loop_
_space_group_symop_operation_xyz
x,y,z
-x,y,1/2-z
-x,-y,-z
x,-y,1/2+z
1/2+x,1/2+y,z
1/2-x,1/2+y,1/2-z
1/2-x,1/2-y,-z
1/2+x,1/2-y,1/2+z
loop_
_atom_site_type_symbol
_atom_site_label
_atom_site_fract_x
_atom_site_fract_y
_atom_site_fract_z
Si Si1 0.374895 0.014067 0.471813
Si Si2 0.160857 0.833912 0.824564
Si Si3 0.734508 0.399041 0.533965
Si Si4 0.782217 0.785457 0.794664
Si Si5 0.081138 0.453596 0.246719
O O1 0.300185 0.890013 0.326982
O O2 0.329424 0.175342 0.382195
O O3 0.388654 0.000234 0.603819
O O4 0.475470 0.988604 0.568046
O O5 0.164067 0.853784 0.716218
O O6 0.074239 0.725925 0.724439
O O7 0.250000 0.750000 0.000000
O O8 0.159349 0.997000 0.868030
O O9 0.750000 0.250000 0.500000
O O10 0.684355 0.364109 0.559390
O O11 0.838389 0.476412 0.703093
#
# Coordination Sequence:
#
# PCOD8139526 Si02
#       5
#     8   8   8   8   8
#     4  11  23  40  68  98 124 174 218 270 321 398
#     4  10  20  39  63  93 130 172 208 270 317 387
#     4  11  21  38  64  98 133 168 209 274 324 381
#     4  12  22  38  67  96 125 171 222 254 333 390
#     4  10  22  43  65  93 134 170 214 265 331 374
#
# _framework density 22.091021999999999
#
# number of rings (size 3 to 8) (size 9 to 14) (size 15 to 20)
#    0.000    1.200    6.000    2.400    0.000    3.200 
#    0.000    2.000    0.000    4.800    0.000    0.000 
#    0.000    0.000    0.000    0.000    0.000    0.000 
#
# Total GULP energy -247831.736734 kJ/mol
# GULP energy per Si atom -12391.586837 kJ/mol
# Density = 2.204074 g / cm^3
# Si number density = 22.091022 Si / 1000 Ang^3
#
#
#
# Elastic Constant Matrix: (Units=GPa)
#
#
# Indices 1 2 3 4 5 6 
#
# 1 103.4102 38.9858 31.2007 0.0000 -17.8896 0.0000
# 2 38.9858 139.2237 51.4455 0.0000 5.4187 0.0000
# 3 31.2007 51.4455 80.0871 0.0000 6.0631 0.0000
# 4 0.0000 0.0000 0.0000 31.7378 0.0000 -5.7490
# 5 -17.8896 5.4187 6.0631 0.0000 41.3661 0.0000
# 6 0.0000 0.0000 0.0000 -5.7490 0.0000 35.5368
#
#
#
# Elastic Compliance Matrix: (Units=1/GPa)
#
#
# Indices 1 2 3 4 5 6 
#
# 1 0.012891 -0.002393 -0.003975 0.000000 0.006471 0.000000
# 2 -0.002393 0.009867 -0.005289 0.000000 -0.001552 0.000000
# 3 -0.003975 -0.005289 0.017707 0.000000 -0.003622 0.000000
# 4 0.000000 0.000000 0.000000 0.032459 0.000000 0.005251
# 5 0.006471 -0.001552 -0.003622 0.000000 0.027707 0.000000
# 6 0.000000 0.000000 0.000000 0.005251 0.000000 0.028989
#
#
# Mechanical properties :
#
#
# Convention : Reuss Voigt Hill
#
# Bulk Modulus (GPa) = 58.30289 62.88724 60.59506
# Shear Modulus (GPa) = 31.51561 35.13408 33.32485
#
# Velocity S-wave (km/s) = 3.78117 3.99234 3.88819
# Velocity P-wave (km/s) = 6.74629 7.05555 6.90265
#
# Compressibility (1/GPa) = 0.01715181
#
# Stress axis : x y z
#
# Youngs Moduli (GPa) = 77.57260 101.34326 56.47629
#
# Poissons Ratio (x) = 0.24250 0.22449
# Poissons Ratio (y) = 0.18562 0.29869
# Poissons Ratio (z) = 0.30835 0.53599
#
# Static dielectric constant tensor:
#      x y z
#    x 4.288430 0.000000 -0.157080 
#    y 0.000000 4.389750 0.000000 
#    z -0.157080 0.000000 3.957330 
# 
# 
# High freq. dielectric constant tensor:
#      x y z
#    x 1.871570 0.000000 -0.036820 
#    y 0.000000 1.865530 0.000000 
#    z -0.036820 0.000000 1.846750 
# 
# From -- ./inp_files/159105.got.cif
#   From: 2010.06.25/outbox.cif.g09.slc.cpg/sg15_80_cif.got.tgz:159105.got - 2010.06.28 07:06:18.
