data_PCOD8139842
_publ_section_title
;
Structure prediction by ZEFSAII (Michael W. Deem and Ramdas Pophale) SiO2 
 PCOD8139842
Probable space group: C 2/C
;
_chemical_formula_sum "Si O2"
_cell_formula_units_Z 64
_cell_length_a 22.448531
_cell_length_b 9.903846
_cell_length_c 29.540243
_cell_angle_alpha 90.000000
_cell_angle_beta 28.483854
_cell_angle_gamma 90.000000
_cell_volume 3132.155322
_symmetry_space_group_name_H-M "C 2/C"
_symmetry_group_IT_number 15
_symmetry_cell_setting 'monoclinic'
loop_
_space_group_symop_operation_xyz
x,y,z
-x,y,1/2-z
-x,-y,-z
x,-y,1/2+z
1/2+x,1/2+y,z
1/2-x,1/2+y,1/2-z
1/2-x,1/2-y,-z
1/2+x,1/2-y,1/2+z
loop_
_atom_site_type_symbol
_atom_site_label
_atom_site_fract_x
_atom_site_fract_y
_atom_site_fract_z
Si Si1 0.632821 0.464013 0.139872
Si Si2 0.778445 0.616198 0.288747
Si Si3 0.281986 0.709003 0.072767
Si Si4 0.282620 0.811434 0.298660
Si Si5 0.923867 0.099135 0.146995
Si Si6 0.315182 0.454876 0.996105
Si Si7 0.352299 0.240109 0.849486
Si Si8 0.427521 0.298974 0.127381
O O1 0.500000 0.421408 0.250000
O O2 0.729846 0.345998 0.085733
O O3 0.626079 0.500035 0.091012
O O4 0.680036 0.602047 0.130652
O O5 0.778364 0.678020 0.338653
O O6 0.819404 0.460808 0.258064
O O7 0.643248 0.644465 0.355095
O O8 0.890265 0.686046 0.187722
O O9 0.249374 0.586481 0.061125
O O10 0.429399 0.719744 0.980341
O O11 0.378154 0.695851 0.218069
O O12 0.283462 0.819983 0.351920
O O13 0.145014 0.778886 0.371590
O O14 0.074369 0.105380 0.045592
O O15 0.891914 0.940821 0.175388
O O16 0.208235 0.337990 0.066670
O O17 0.500000 0.214288 0.750000
#
# Coordination Sequence:
#
# PCOD8139842 Si02
#       8
#     8   8   8   8   8   8   8   8
#     4  11  26  44  64  89 125 169 210 259 313 372
#     4  10  21  38  62  97 127 163 202 258 319 366
#     4  11  24  40  64  96 123 165 207 257 314 385
#     4  10  20  40  61  92 125 163 205 251 317 365
#     4   9  20  37  67  88 125 163 208 251 313 379
#     4  11  23  43  65  93 119 167 210 263 311 372
#     4  11  24  40  63  92 124 167 210 259 307 369
#     4   9  22  38  65  91 130 160 204 256 312 381
#
# _framework density 20.433215000000001
#
# number of rings (size 3 to 8) (size 9 to 14) (size 15 to 20)
#    0.000    1.750    1.250    2.250    7.000    4.000 
#    0.000    0.625    0.000    0.000    0.000    0.000 
#    0.000    0.000    0.000    0.000    0.000    0.000 
#
# Total GULP energy -396636.845347 kJ/mol
# GULP energy per Si atom -12394.901417 kJ/mol
# Density = 2.038671 g / cm^3
# Si number density = 20.433215 Si / 1000 Ang^3
#
#
#
# Elastic Constant Matrix: (Units=GPa)
#
#
# Indices 1 2 3 4 5 6 
#
# 1 67.1428 29.1467 32.8548 -0.0020 7.8019 0.0179
# 2 29.1467 103.5760 46.1749 -0.0040 -16.0166 0.0111
# 3 32.8548 46.1749 75.7073 -0.0026 -0.7633 0.0073
# 4 -0.0020 -0.0040 -0.0026 39.4514 0.0005 -0.3428
# 5 7.8019 -16.0166 -0.7633 0.0005 29.3468 -0.0066
# 6 0.0179 0.0111 0.0073 -0.3428 -0.0066 30.8330
#
#
#
# Elastic Compliance Matrix: (Units=1/GPa)
#
#
# Indices 1 2 3 4 5 6 
#
# 1 0.020855 -0.004166 -0.006590 0.000000 -0.007990 -0.000011
# 2 -0.004166 0.015720 -0.007684 0.000001 0.009487 0.000001
# 3 -0.006590 -0.007684 0.020736 0.000000 -0.001902 0.000001
# 4 0.000000 0.000001 0.000000 0.025350 0.000000 0.000282
# 5 -0.007990 0.009487 -0.001902 0.000000 0.041328 0.000011
# 6 -0.000011 0.000001 0.000001 0.000282 0.000011 0.032436
#
#
# Mechanical properties :
#
#
# Convention : Reuss Voigt Hill
#
# Bulk Modulus (GPa) = 48.94672 51.41988 50.18330
# Shear Modulus (GPa) = 24.98550 29.14286 27.06418
#
# Velocity S-wave (km/s) = 3.50063 3.78067 3.64334
# Velocity P-wave (km/s) = 6.35183 6.65413 6.50474
#
# Compressibility (1/GPa) = 0.02043038
#
# Stress axis : x y z
#
# Youngs Moduli (GPa) = 47.94926 63.61398 48.22514
#
# Poissons Ratio (x) = 0.26504 0.31781
# Poissons Ratio (y) = 0.19977 0.37056
# Poissons Ratio (z) = 0.31599 0.48881
#
# Static dielectric constant tensor:
#      x y z
#    x 3.746760 -0.000030 0.034900 
#    y -0.000030 3.872630 0.000010 
#    z 0.034900 0.000010 3.523250 
# 
# 
# High freq. dielectric constant tensor:
#      x y z
#    x 1.801230 0.000000 0.001560 
#    y 0.000000 1.811520 0.000000 
#    z 0.001560 0.000000 1.787160 
# 
# From -- ./inp_files/318618.got.cif
#   From: 2010.06.25/outbox.cif.g09.slc.cpg/sg15_160_cif.got.tgz:318618.got - 2010.06.28 07:06:18.
