data_PCOD8139494
_publ_section_title
;
Structure prediction by ZEFSAII (Michael W. Deem and Ramdas Pophale) SiO2 
 PCOD8139494
Probable space group: C 2/C
;
_chemical_formula_sum "Si O2"
_cell_formula_units_Z 48
_cell_length_a 11.257062
_cell_length_b 8.111079
_cell_length_c 22.048048
_cell_angle_alpha 90.000000
_cell_angle_beta 89.419487
_cell_angle_gamma 90.000000
_cell_volume 2013.036009
_symmetry_space_group_name_H-M "C 2/C"
_symmetry_group_IT_number 15
_symmetry_cell_setting 'monoclinic'
loop_
_space_group_symop_operation_xyz
x,y,z
-x,y,1/2-z
-x,-y,-z
x,-y,1/2+z
1/2+x,1/2+y,z
1/2-x,1/2+y,1/2-z
1/2-x,1/2-y,-z
1/2+x,1/2-y,1/2+z
loop_
_atom_site_type_symbol
_atom_site_label
_atom_site_fract_x
_atom_site_fract_y
_atom_site_fract_z
Si Si1 0.404686 0.870072 0.563659
Si Si2 0.177898 0.606396 0.033688
Si Si3 0.852147 0.966030 0.122960
Si Si4 0.724311 0.745541 0.772554
Si Si5 0.118178 0.549783 0.812551
Si Si6 0.538325 0.343662 0.686968
O O1 0.544184 0.845523 0.550772
O O2 0.363814 0.686328 0.577923
O O3 0.332009 0.940558 0.506866
O O4 0.372181 0.994236 0.618160
O O5 0.248394 0.576970 0.095793
O O6 0.250000 0.750000 0.000000
O O7 0.820895 0.914792 0.191768
O O8 0.976079 0.069298 0.129319
O O9 0.779747 0.685864 0.708149
O O10 0.819195 0.841377 0.816769
O O11 0.622769 0.887899 0.767862
O O12 0.994894 0.648300 0.808065
O O13 0.500000 0.433539 0.750000
#
# Coordination Sequence:
#
# PCOD8139494 Si02
#       6
#     8   8   8   8   8   8
#     4  10  24  43  64  95 126 164 216 264 316 378
#     4  11  24  43  67  92 125 168 215 267 321 375
#     4  11  23  40  64  93 127 165 206 259 315 374
#     4  10  21  38  61  90 125 161 202 253 312 377
#     4  10  20  39  63  88 124 163 203 253 311 373
#     4  10  21  37  57  87 124 163 204 248 302 368
#
# _framework density 23.844581000000002
#
# number of rings (size 3 to 8) (size 9 to 14) (size 15 to 20)
#    0.000    1.667    0.000    4.500    0.000    6.000 
#    0.000   23.333    0.000    0.000    0.000    0.000 
#    0.000    0.000    0.000    0.000    0.000    0.000 
#
# Total GULP energy -297353.797228 kJ/mol
# GULP energy per Si atom -12389.741551 kJ/mol
# Density = 2.379031 g / cm^3
# Si number density = 23.844581 Si / 1000 Ang^3
#
#
#
# Elastic Constant Matrix: (Units=GPa)
#
#
# Indices 1 2 3 4 5 6 
#
# 1 94.7692 36.5281 29.8491 0.0000 4.1475 0.0000
# 2 36.5281 90.2820 24.4609 0.0000 8.5999 0.0000
# 3 29.8491 24.4609 60.4691 0.0000 5.0755 0.0000
# 4 0.0000 0.0000 0.0000 39.8188 0.0000 0.8593
# 5 4.1475 8.5999 5.0755 0.0000 41.9309 0.0000
# 6 0.0000 0.0000 0.0000 0.8593 0.0000 36.5942
#
#
#
# Elastic Compliance Matrix: (Units=1/GPa)
#
#
# Indices 1 2 3 4 5 6 
#
# 1 0.013775 -0.004200 -0.005111 0.000000 0.000117 0.000000
# 2 -0.004200 0.013882 -0.003373 0.000000 -0.002024 0.000000
# 3 -0.005111 -0.003373 0.020533 0.000000 -0.001288 0.000000
# 4 0.000000 0.000000 0.000000 0.025126 0.000000 -0.000590
# 5 0.000117 -0.002024 -0.001288 0.000000 0.024408 0.000000
# 6 0.000000 0.000000 0.000000 -0.000590 0.000000 0.027341
#
#
# Mechanical properties :
#
#
# Convention : Reuss Voigt Hill
#
# Bulk Modulus (GPa) = 43.81440 47.46626 45.64033
# Shear Modulus (GPa) = 31.63759 33.98093 32.80926
#
# Velocity S-wave (km/s) = 3.64651 3.77915 3.71342
# Velocity P-wave (km/s) = 6.01201 6.24438 6.12930
#
# Compressibility (1/GPa) = 0.02282355
#
# Stress axis : x y z
#
# Youngs Moduli (GPa) = 72.59329 72.03450 48.70312
#
# Poissons Ratio (x) = 0.30254 0.24891
# Poissons Ratio (y) = 0.30489 0.16425
# Poissons Ratio (z) = 0.37101 0.24294
#
# Static dielectric constant tensor:
#      x y z
#    x 4.277050 0.000000 -0.034200 
#    y 0.000000 4.386690 0.000000 
#    z -0.034200 0.000000 4.168600 
# 
# 
# High freq. dielectric constant tensor:
#      x y z
#    x 1.944410 0.000000 -0.002600 
#    y 0.000000 1.955080 0.000000 
#    z -0.002600 0.000000 1.927030 
# 
# From -- ./inp_files/267778.got.cif
#   From: 2010.06.25/outbox.cif.g09.slc.cpg/sg15_134_cif.got.tgz:267778.got - 2010.06.28 07:06:18.
