data_PCOD8139667
_publ_section_title
;
Structure prediction by ZEFSAII (Michael W. Deem and Ramdas Pophale) SiO2 
 PCOD8139667
Probable space group: C 2/C
;
_chemical_formula_sum "Si O2"
_cell_formula_units_Z 60
_cell_length_a 9.268559
_cell_length_b 21.817027
_cell_length_c 14.215503
_cell_angle_alpha 90.000000
_cell_angle_beta 80.690509
_cell_angle_gamma 90.000000
_cell_volume 2836.690104
_symmetry_space_group_name_H-M "C 2/C"
_symmetry_group_IT_number 15
_symmetry_cell_setting 'monoclinic'
loop_
_space_group_symop_operation_xyz
x,y,z
-x,y,1/2-z
-x,-y,-z
x,-y,1/2+z
1/2+x,1/2+y,z
1/2-x,1/2+y,1/2-z
1/2-x,1/2-y,-z
1/2+x,1/2-y,1/2+z
loop_
_atom_site_type_symbol
_atom_site_label
_atom_site_fract_x
_atom_site_fract_y
_atom_site_fract_z
Si Si1 0.000000 0.555487 0.750000
Si Si2 0.601208 0.628610 0.320047
Si Si3 0.476155 0.843714 0.560722
Si Si4 0.538265 0.709066 0.854456
Si Si5 0.204272 0.633765 0.599872
Si Si6 0.602600 0.450585 0.533899
Si Si7 0.810778 0.452235 0.675453
Si Si8 0.789857 0.818220 0.514623
O O1 0.918236 0.602462 0.825292
O O2 0.890532 0.512044 0.704727
O O3 0.500000 0.659614 0.250000
O O4 0.496139 0.599539 0.407313
O O5 0.709676 0.577839 0.266469
O O6 0.682114 0.678926 0.375049
O O7 0.468827 0.781223 0.621533
O O8 0.370691 0.834889 0.482732
O O9 0.425422 0.900698 0.629818
O O10 0.643454 0.858393 0.509732
O O11 0.500000 0.698103 0.750000
O O12 0.703490 0.685534 0.854822
O O13 0.427551 0.667853 0.931464
O O14 0.309723 0.578716 0.560363
O O15 0.500000 0.500000 0.500000
O O16 0.713831 0.477714 0.599597
O O17 0.750000 0.750000 0.500000
#
# Coordination Sequence:
#
# PCOD8139667 Si02
#       8
#     4   8   8   8   8   8   8   8
#     4  12  26  40  66 100 140 174 226 278 344 400
#     4  10  20  39  66  95 131 169 223 271 327 399
#     4  10  24  44  71  96 137 176 226 281 339 400
#     4  11  25  44  70  99 131 183 230 275 342 403
#     4  11  25  45  64  96 141 179 217 282 342 406
#     4  10  21  39  65  95 126 175 217 275 334 392
#     4  10  23  40  67 100 131 174 227 275 332 401
#     4  10  22  40  64  99 128 167 221 276 329 391
#
# _framework density 21.151413000000002
#
# number of rings (size 3 to 8) (size 9 to 14) (size 15 to 20)
#    0.000    1.600    1.333    2.000    6.533    4.267 
#    0.000    0.000    0.000    0.000    0.000    0.000 
#    0.000    0.000    0.000    0.000    0.000    0.000 
#
# Total GULP energy -371865.106036 kJ/mol
# GULP energy per Si atom -12395.503535 kJ/mol
# Density = 2.110327 g / cm^3
# Si number density = 21.151413 Si / 1000 Ang^3
#
#
#
# Elastic Constant Matrix: (Units=GPa)
#
#
# Indices 1 2 3 4 5 6 
#
# 1 101.1265 18.5403 35.9194 0.0000 9.7309 0.0000
# 2 18.5403 31.0487 22.7945 0.0000 14.2608 0.0000
# 3 35.9194 22.7945 111.9151 0.0000 5.9747 0.0000
# 4 0.0000 0.0000 0.0000 -1.0212 0.0000 8.0170
# 5 9.7309 14.2608 5.9747 0.0000 47.6885 0.0000
# 6 0.0000 0.0000 0.0000 8.0170 0.0000 38.7899
#
#
#
# Elastic Compliance Matrix: (Units=1/GPa)
#
#
# Indices 1 2 3 4 5 6 
#
# 1 0.011806 -0.004695 -0.002798 0.000000 -0.000654 0.000000
# 2 -0.004695 0.045700 -0.007171 0.000000 -0.011810 0.000000
# 3 -0.002798 -0.007171 0.011224 0.000000 0.001309 0.000000
# 4 0.000000 0.000000 0.000000 -0.373401 0.000000 0.077173
# 5 -0.000654 -0.011810 0.001309 0.000000 0.024471 0.000000
# 6 0.000000 0.000000 0.000000 0.077173 0.000000 0.009830
#
#
# Mechanical properties :
#
#
# Convention : Reuss Voigt Hill
#
# Bulk Modulus (GPa) = 25.37916 44.28874 34.83395
# Shear Modulus (GPa) = -21.93860 28.21387 3.13764
#
# Velocity S-wave (km/s) = -3.22408 3.65622 1.21928
# Velocity P-wave (km/s) = 1.35452 6.22963 4.29963
#
# Compressibility (1/GPa) = 0.03940241
#
# Stress axis : x y z
#
# Youngs Moduli (GPa) = 84.70121 21.88201 89.09511
#
# Poissons Ratio (x) = 0.10274 0.24929
# Poissons Ratio (y) = 0.39769 0.63886
# Poissons Ratio (z) = 0.23699 0.15691
#
# Static dielectric constant tensor:
#      x y z
#    x 4.419330 0.000000 -0.390950 
#    y 0.000000 3.738940 0.000000 
#    z -0.390950 0.000000 4.363870 
# 
# 
# High freq. dielectric constant tensor:
#      x y z
#    x 1.855550 0.000000 -0.000220 
#    y 0.000000 1.806590 0.000000 
#    z -0.000220 0.000000 1.839430 
# 
# From -- ./inp_files/137342.got.cif
#   From: 2010.06.25/outbox.cif.g09.slc.cpg/sg15_69_cif.got.tgz:137342.got - 2010.06.28 07:06:18.
