data_PCOD8139240
_publ_section_title
;
Structure prediction by ZEFSAII (Michael W. Deem and Ramdas Pophale) SiO2 
 PCOD8139240
Probable space group: C 2/C
;
_chemical_formula_sum "Si O2"
_cell_formula_units_Z 48
_cell_length_a 10.338697
_cell_length_b 16.511406
_cell_length_c 19.805433
_cell_angle_alpha 90.000000
_cell_angle_beta 44.638137
_cell_angle_gamma 90.000000
_cell_volume 2375.521346
_symmetry_space_group_name_H-M "C 2/C"
_symmetry_group_IT_number 15
_symmetry_cell_setting 'monoclinic'
loop_
_space_group_symop_operation_xyz
x,y,z
-x,y,1/2-z
-x,-y,-z
x,-y,1/2+z
1/2+x,1/2+y,z
1/2-x,1/2+y,1/2-z
1/2-x,1/2-y,-z
1/2+x,1/2-y,1/2+z
loop_
_atom_site_type_symbol
_atom_site_label
_atom_site_fract_x
_atom_site_fract_y
_atom_site_fract_z
Si Si1 0.001967 0.749231 0.053809
Si Si2 0.703146 0.775939 0.262224
Si Si3 0.805356 0.022753 0.540492
Si Si4 0.000000 0.594390 0.750000
Si Si5 0.500000 0.646967 0.750000
Si Si6 0.728354 0.379871 0.046473
Si Si7 0.090228 0.186416 0.050354
O O1 0.801984 0.736608 0.160849
O O2 0.119847 0.800410 0.062784
O O3 0.995780 0.805506 0.991334
O O4 0.074053 0.659117 0.008279
O O5 0.591072 0.853929 0.276668
O O6 0.845433 0.798684 0.269373
O O7 0.567398 0.704636 0.336757
O O8 0.658118 0.040217 0.654980
O O9 0.829456 0.095709 0.477574
O O10 0.735137 0.948053 0.522033
O O11 0.000000 0.000000 0.500000
O O12 0.387310 0.590001 0.844878
O O13 0.250000 0.250000 0.000000
#
# Coordination Sequence:
#
# PCOD8139240 Si02
#       7
#     8   8   8   4   4   8   8
#     4  10  20  40  63  93 130 167 220 265 321 395
#     4  11  21  39  68  96 126 181 223 262 331 403
#     4  12  24  42  66  99 136 171 225 279 326 395
#     4  12  24  44  68  94 138 180 214 276 346 392
#     4  10  20  38  68  92 130 172 218 274 338 380
#     4  10  21  39  63  96 129 168 214 274 325 384
#     4  12  22  40  66  94 127 176 218 263 328 398
#
# _framework density 20.206092000000002
#
# number of rings (size 3 to 8) (size 9 to 14) (size 15 to 20)
#    0.000    1.000    6.667    1.000    0.000    1.333 
#    0.000    5.833    0.000    0.000    0.000    0.000 
#    0.000    0.000    0.000    0.000    0.000    0.000 
#
# Total GULP energy -297422.694272 kJ/mol
# GULP energy per Si atom -12392.612261 kJ/mol
# Density = 2.016010 g / cm^3
# Si number density = 20.206092 Si / 1000 Ang^3
#
#
#
# Elastic Constant Matrix: (Units=GPa)
#
#
# Indices 1 2 3 4 5 6 
#
# 1 60.2862 16.9786 7.7322 -0.0002 -5.8153 -0.0001
# 2 16.9786 89.3395 53.9973 -0.0008 -4.9437 0.0003
# 3 7.7322 53.9973 179.7114 -0.0018 -5.5424 0.0007
# 4 -0.0002 -0.0008 -0.0018 34.8294 0.0005 5.6558
# 5 -5.8153 -4.9437 -5.5424 0.0005 30.0466 0.0000
# 6 -0.0001 0.0003 0.0007 5.6558 0.0000 29.3675
#
#
#
# Elastic Compliance Matrix: (Units=1/GPa)
#
#
# Indices 1 2 3 4 5 6 
#
# 1 0.017793 -0.003434 0.000357 0.000000 0.002945 0.000000
# 2 -0.003434 0.014408 -0.004152 0.000000 0.000940 0.000000
# 3 0.000357 -0.004152 0.006817 0.000000 0.000643 0.000000
# 4 0.000000 0.000000 0.000000 0.029638 0.000000 -0.005708
# 5 0.002945 0.000940 0.000643 0.000000 0.034125 0.000000
# 6 0.000000 0.000000 0.000000 -0.005708 0.000000 0.035151
#
#
# Mechanical properties :
#
#
# Convention : Reuss Voigt Hill
#
# Bulk Modulus (GPa) = 40.71962 54.08370 47.40166
# Shear Modulus (GPa) = 31.13791 35.55729 33.34760
#
# Velocity S-wave (km/s) = 3.92984 4.19947 4.06689
# Velocity P-wave (km/s) = 6.38650 7.09494 6.75002
#
# Compressibility (1/GPa) = 0.02455818
#
# Stress axis : x y z
#
# Youngs Moduli (GPa) = 56.20187 69.40781 146.70144
#
# Poissons Ratio (x) = 0.23838 -0.05240
# Poissons Ratio (y) = 0.19302 0.60914
# Poissons Ratio (z) = -0.02007 0.28820
#
# Static dielectric constant tensor:
#      x y z
#    x 3.735140 0.000000 -0.212740 
#    y 0.000000 3.490880 0.000000 
#    z -0.212740 0.000000 4.198800 
# 
# 
# High freq. dielectric constant tensor:
#      x y z
#    x 1.790500 0.000000 -0.004660 
#    y 0.000000 1.756300 0.000000 
#    z -0.004660 0.000000 1.813140 
# 
# From -- ./inp_files/119514.got.cif
#   From: 2010.06.25/outbox.cif.g09.slc.cpg/sg15_60_cif.got.tgz:119514.got - 2010.06.28 07:06:18.
