data_PCOD8139864
_publ_section_title
;
Structure prediction by ZEFSAII (Michael W. Deem and Ramdas Pophale) SiO2 
 PCOD8139864
Probable space group: C 2/C
;
_chemical_formula_sum "Si O2"
_cell_formula_units_Z 48
_cell_length_a 14.185154
_cell_length_b 11.999065
_cell_length_c 14.661144
_cell_angle_alpha 90.000000
_cell_angle_beta 89.206935
_cell_angle_gamma 90.000000
_cell_volume 2495.213525
_symmetry_space_group_name_H-M "C 2/C"
_symmetry_group_IT_number 15
_symmetry_cell_setting 'monoclinic'
loop_
_space_group_symop_operation_xyz
x,y,z
-x,y,1/2-z
-x,-y,-z
x,-y,1/2+z
1/2+x,1/2+y,z
1/2-x,1/2+y,1/2-z
1/2-x,1/2-y,-z
1/2+x,1/2-y,1/2+z
loop_
_atom_site_type_symbol
_atom_site_label
_atom_site_fract_x
_atom_site_fract_y
_atom_site_fract_z
Si Si1 0.728845 0.975296 0.152050
Si Si2 0.533417 0.972392 0.598718
Si Si3 0.222275 0.122200 0.510352
Si Si4 0.668770 0.029867 0.348555
Si Si5 0.427428 0.720898 0.872506
Si Si6 0.638471 0.722322 0.828054
O O1 0.785250 0.862810 0.135995
O O2 0.620546 0.949689 0.126031
O O3 0.730731 0.009791 0.257905
O O4 0.780716 0.069208 0.090226
O O5 0.443850 0.991128 0.667387
O O6 0.575596 0.847959 0.593635
O O7 0.500000 0.000000 0.500000
O O8 0.250000 0.250000 0.500000
O O9 0.119290 0.130146 0.558765
O O10 0.293230 0.046721 0.569954
O O11 0.672484 0.161173 0.371858
O O12 0.535225 0.683489 0.861880
O O13 0.365698 0.724746 0.781201
#
# Coordination Sequence:
#
# PCOD8139864 Si02
#       6
#     8   8   8   8   8   8
#     4  12  23  37  66  95 122 165 213 254 316 368
#     4  11  20  39  64  95 118 164 213 258 311 361
#     4  12  22  39  67  94 122 163 212 262 311 371
#     4  11  22  40  64  90 131 160 209 265 306 376
#     4  10  20  40  62  87 126 166 209 249 314 382
#     4  10  22  39  64  89 123 173 206 249 323 371
#
# _framework density 19.236830999999999
#
# number of rings (size 3 to 8) (size 9 to 14) (size 15 to 20)
#    0.000    1.000    6.667    0.500    0.000    1.333 
#    0.000    0.000    3.667    0.000    0.000    0.000 
#    0.000    0.000    0.000    0.000    0.000    0.000 
#
# Total GULP energy -297473.352031 kJ/mol
# GULP energy per Si atom -12394.723001 kJ/mol
# Density = 1.919305 g / cm^3
# Si number density = 19.236831 Si / 1000 Ang^3
#
#
#
# Elastic Constant Matrix: (Units=GPa)
#
#
# Indices 1 2 3 4 5 6 
#
# 1 105.3948 73.0705 29.2335 0.0000 -6.7777 0.0000
# 2 73.0705 124.3556 48.4065 0.0000 0.1403 0.0000
# 3 29.2335 48.4065 85.3582 0.0000 -12.0621 0.0000
# 4 0.0000 0.0000 0.0000 25.9353 0.0000 2.4848
# 5 -6.7777 0.1403 -12.0621 0.0000 28.1480 0.0000
# 6 0.0000 0.0000 0.0000 2.4848 0.0000 44.0669
#
#
#
# Elastic Compliance Matrix: (Units=1/GPa)
#
#
# Indices 1 2 3 4 5 6 
#
# 1 0.016472 -0.009910 0.000581 0.000000 0.004265 0.000000
# 2 -0.009910 0.016481 -0.006708 0.000000 -0.005343 0.000000
# 3 0.000581 -0.006708 0.016334 0.000000 0.007173 0.000000
# 4 0.000000 0.000000 0.000000 0.038767 0.000000 -0.002186
# 5 0.004265 -0.005343 0.007173 0.000000 0.039654 0.000000
# 6 0.000000 0.000000 0.000000 -0.002186 0.000000 0.022816
#
#
# Mechanical properties :
#
#
# Convention : Reuss Voigt Hill
#
# Bulk Modulus (GPa) = 58.09067 68.50330 63.29699
# Shear Modulus (GPa) = 26.54861 30.58989 28.56925
#
# Velocity S-wave (km/s) = 3.71899 3.99202 3.85792
# Velocity P-wave (km/s) = 6.97885 7.54560 7.26775
#
# Compressibility (1/GPa) = 0.01721447
#
# Stress axis : x y z
#
# Youngs Moduli (GPa) = 60.71081 60.67474 61.22276
#
# Poissons Ratio (x) = 0.60126 -0.03558
# Poissons Ratio (y) = 0.60162 0.41066
# Poissons Ratio (z) = -0.03528 0.40699
#
# Static dielectric constant tensor:
#      x y z
#    x 3.796010 0.000000 -0.378830 
#    y 0.000000 3.351140 0.000000 
#    z -0.378830 0.000000 3.644360 
# 
# 
# High freq. dielectric constant tensor:
#      x y z
#    x 1.753130 0.000000 -0.022350 
#    y 0.000000 1.732920 0.000000 
#    z -0.022350 0.000000 1.753930 
# 
# From -- ./inp_files/152037.got.cif
#   From: 2010.06.25/outbox.cif.g09.slc.cpg/sg15_77_cif.got.tgz:152037.got - 2010.06.28 07:06:18.
