data_PCOD8139717
_publ_section_title
;
Structure prediction by ZEFSAII (Michael W. Deem and Ramdas Pophale) SiO2 
 PCOD8139717
Probable space group: C 2/C
;
_chemical_formula_sum "Si O2"
_cell_formula_units_Z 40
_cell_length_a 12.698905
_cell_length_b 6.949626
_cell_length_c 20.028387
_cell_angle_alpha 90.000000
_cell_angle_beta 116.170656
_cell_angle_gamma 90.000000
_cell_volume 1586.355708
_symmetry_space_group_name_H-M "C 2/C"
_symmetry_group_IT_number 15
_symmetry_cell_setting 'monoclinic'
loop_
_space_group_symop_operation_xyz
x,y,z
-x,y,1/2-z
-x,-y,-z
x,-y,1/2+z
1/2+x,1/2+y,z
1/2-x,1/2+y,1/2-z
1/2-x,1/2-y,-z
1/2+x,1/2-y,1/2+z
loop_
_atom_site_type_symbol
_atom_site_label
_atom_site_fract_x
_atom_site_fract_y
_atom_site_fract_z
Si Si1 0.734270 0.033951 0.049768
Si Si2 0.856677 0.598939 0.848769
Si Si3 0.523721 0.357753 0.827869
Si Si4 0.154065 0.164224 0.688178
Si Si5 0.365572 0.567882 0.961287
O O1 0.678103 0.869501 0.082389
O O2 0.642823 0.210055 0.014517
O O3 0.839122 0.118252 0.124724
O O4 0.785194 0.951250 0.993555
O O5 0.974805 0.719000 0.871928
O O6 0.884376 0.376185 0.844122
O O7 0.761078 0.677227 0.769455
O O8 0.500000 0.257673 0.750000
O O9 0.457523 0.563660 0.809134
O O10 0.185330 0.046144 0.628314
O O11 0.500000 0.500000 0.000000
#
# Coordination Sequence:
#
# PCOD8139717 Si02
#       5
#     8   8   8   8   8
#     4  10  22  41  65  93 132 175 212 272 327 376
#     4  11  23  42  68  98 129 170 223 266 326 395
#     4  12  22  41  68  95 132 170 217 280 323 380
#     4  11  21  39  68  94 129 169 214 269 322 385
#     4  10  20  39  68  92 132 176 212 266 329 383
#
# _framework density 25.215024
#
# number of rings (size 3 to 8) (size 9 to 14) (size 15 to 20)
#    0.000    1.200    6.000    1.200    0.000    0.800 
#    0.000   10.000    0.000    0.000    0.000    0.000 
#    0.000    0.000    0.000    0.000    0.000    0.000 
#
# Total GULP energy -247922.654087 kJ/mol
# GULP energy per Si atom -12396.132704 kJ/mol
# Density = 2.515763 g / cm^3
# Si number density = 25.215024 Si / 1000 Ang^3
#
#
#
# Elastic Constant Matrix: (Units=GPa)
#
#
# Indices 1 2 3 4 5 6 
#
# 1 114.4472 21.3968 16.0871 0.0000 -21.6569 0.0000
# 2 21.3968 25.9771 -11.7846 0.0000 -9.2940 0.0000
# 3 16.0871 -11.7846 112.1600 0.0000 -28.8382 0.0000
# 4 0.0000 0.0000 0.0000 32.4619 0.0000 -16.0266
# 5 -21.6569 -9.2940 -28.8382 0.0000 49.8138 0.0000
# 6 0.0000 0.0000 0.0000 -16.0266 0.0000 37.2525
#
#
#
# Elastic Compliance Matrix: (Units=1/GPa)
#
#
# Indices 1 2 3 4 5 6 
#
# 1 0.011161 -0.009493 -0.002122 0.000000 0.001853 0.000000
# 2 -0.009493 0.055340 0.010303 0.000000 0.012163 0.000000
# 3 -0.002122 0.010303 0.012407 0.000000 0.008182 0.000000
# 4 0.000000 0.000000 0.000000 0.039113 0.000000 0.016827
# 5 0.001853 0.012163 0.008182 0.000000 0.027886 0.000000
# 6 0.000000 0.000000 0.000000 0.016827 0.000000 0.034083
#
#
# Mechanical properties :
#
#
# Convention : Reuss Voigt Hill
#
# Bulk Modulus (GPa) = 13.10868 33.77587 23.44228
# Shear Modulus (GPa) = 24.03359 39.03130 31.53245
#
# Velocity S-wave (km/s) = 3.09066 3.93865 3.54014
# Velocity P-wave (km/s) = 4.23630 5.84022 5.10169
#
# Compressibility (1/GPa) = 0.07628533
#
# Stress axis : x y z
#
# Youngs Moduli (GPa) = 89.59495 18.06997 80.60265
#
# Poissons Ratio (x) = 0.17154 0.17103
# Poissons Ratio (y) = 0.85053 -0.83048
# Poissons Ratio (z) = 0.19011 -0.18618
#
# Static dielectric constant tensor:
#      x y z
#    x 4.529240 0.000000 -0.519760 
#    y 0.000000 4.404640 0.000000 
#    z -0.519760 0.000000 4.929110 
# 
# 
# High freq. dielectric constant tensor:
#      x y z
#    x 2.001740 0.000000 -0.023280 
#    y 0.000000 1.985130 0.000000 
#    z -0.023280 0.000000 2.027500 
# 
# From -- ./inp_files/235871.got.cif
#   From: 2010.06.25/outbox.cif.g09.slc.cpg/sg15_118_cif.got.tgz:235871.got - 2010.06.28 07:06:18.
