data_PCOD8139279
_publ_section_title
;
Structure prediction by ZEFSAII (Michael W. Deem and Ramdas Pophale) SiO2 
 PCOD8139279
Probable space group: C 2/C
;
_chemical_formula_sum "Si O2"
_cell_formula_units_Z 52
_cell_length_a 14.135129
_cell_length_b 7.422300
_cell_length_c 28.573903
_cell_angle_alpha 90.000000
_cell_angle_beta 133.863688
_cell_angle_gamma 90.000000
_cell_volume 2161.410916
_symmetry_space_group_name_H-M "C 2/C"
_symmetry_group_IT_number 15
_symmetry_cell_setting 'monoclinic'
loop_
_space_group_symop_operation_xyz
x,y,z
-x,y,1/2-z
-x,-y,-z
x,-y,1/2+z
1/2+x,1/2+y,z
1/2-x,1/2+y,1/2-z
1/2-x,1/2-y,-z
1/2+x,1/2-y,1/2+z
loop_
_atom_site_type_symbol
_atom_site_label
_atom_site_fract_x
_atom_site_fract_y
_atom_site_fract_z
Si Si1 0.922219 0.133789 0.939980
Si Si2 0.844738 0.390367 0.507287
Si Si3 0.000000 0.017670 0.250000
Si Si4 0.224164 0.096597 0.180898
Si Si5 0.823628 0.799836 0.130052
Si Si6 0.604442 0.210101 0.724887
Si Si7 0.161889 0.410852 0.405378
O O1 0.792671 0.176482 0.927084
O O2 0.010784 0.307166 0.955840
O O3 0.886324 0.037651 0.878235
O O4 0.000000 0.000000 0.000000
O O5 0.750000 0.250000 0.500000
O O6 0.771384 0.430762 0.432946
O O7 0.846581 0.573414 0.540018
O O8 0.116055 0.146739 0.271144
O O9 0.044264 0.902434 0.310133
O O10 0.250771 0.249956 0.152529
O O11 0.193122 0.216096 0.214521
O O12 0.351057 0.980482 0.238900
O O13 0.860650 0.618034 0.116241
O O14 0.456488 0.205680 0.654937
#
# Coordination Sequence:
#
# PCOD8139279 Si02
#       7
#     8   8   4   8   8   8   8
#     4  11  20  41  71  99 136 186 226 286 348 416
#     4  10  20  38  73 102 137 180 231 277 356 412
#     4  12  24  40  68  96 136 172 232 276 346 414
#     4  11  25  44  67  94 138 175 232 282 345 413
#     4  10  21  42  69 101 133 179 217 283 340 414
#     4  12  27  45  65 101 133 184 228 286 344 409
#     4  10  23  43  71 100 141 181 230 286 350 418
#
# _framework density 24.058357000000001
#
# number of rings (size 3 to 8) (size 9 to 14) (size 15 to 20)
#    0.000    1.231    4.615    3.692    6.462    0.000 
#    2.769    5.385    0.000    0.000    0.000    0.000 
#    0.000    0.000    0.000    0.000    0.000    0.000 
#
# Total GULP energy -322138.557739 kJ/mol
# GULP energy per Si atom -12389.944528 kJ/mol
# Density = 2.400360 g / cm^3
# Si number density = 24.058357 Si / 1000 Ang^3
#
#
#
# Elastic Constant Matrix: (Units=GPa)
#
#
# Indices 1 2 3 4 5 6 
#
# 1 111.8396 34.8783 40.9987 0.0000 -7.8113 0.0000
# 2 34.8783 44.2779 23.9373 0.0000 -0.9288 0.0000
# 3 40.9987 23.9373 129.1465 0.0000 -3.2871 0.0000
# 4 0.0000 0.0000 0.0000 20.6841 0.0000 -0.3731
# 5 -7.8113 -0.9288 -3.2871 0.0000 47.5233 0.0000
# 6 0.0000 0.0000 0.0000 -0.3731 0.0000 37.4842
#
#
#
# Elastic Compliance Matrix: (Units=1/GPa)
#
#
# Indices 1 2 3 4 5 6 
#
# 1 0.012620 -0.008627 -0.002363 0.000000 0.001742 0.000000
# 2 -0.008627 0.030998 -0.003033 0.000000 -0.001022 0.000000
# 3 -0.002363 -0.003033 0.009060 0.000000 0.000179 0.000000
# 4 0.000000 0.000000 0.000000 0.048355 0.000000 0.000481
# 5 0.001742 -0.001022 0.000179 0.000000 0.021321 0.000000
# 6 0.000000 0.000000 0.000000 0.000481 0.000000 0.026683
#
#
# Mechanical properties :
#
#
# Convention : Reuss Voigt Hill
#
# Bulk Modulus (GPa) = 40.59630 53.87697 47.23664
# Shear Modulus (GPa) = 26.98437 33.50162 30.24300
#
# Velocity S-wave (km/s) = 3.35270 3.73569 3.54936
# Velocity P-wave (km/s) = 5.64784 6.40703 6.03938
#
# Compressibility (1/GPa) = 0.02463278
#
# Stress axis : x y z
#
# Youngs Moduli (GPa) = 79.24205 32.25998 110.37558
#
# Poissons Ratio (x) = 0.27830 0.26081
# Poissons Ratio (y) = 0.68359 0.33476
# Poissons Ratio (z) = 0.18724 0.09784
#
# Static dielectric constant tensor:
#      x y z
#    x 5.093020 0.000000 -1.642110 
#    y 0.000000 4.147440 0.000000 
#    z -1.642110 0.000000 8.112920 
# 
# 
# High freq. dielectric constant tensor:
#      x y z
#    x 1.954090 0.000000 -0.018720 
#    y 0.000000 1.937650 0.000000 
#    z -0.018720 0.000000 1.970520 
# 
# From -- ./inp_files/313223.got.cif
#   From: 2010.06.25/outbox.cif.g09.slc.cpg/sg15_157_cif.got.tgz:313223.got - 2010.06.28 07:06:18.
