data_PCOD8139951
_publ_section_title
;
Structure prediction by ZEFSAII (Michael W. Deem and Ramdas Pophale) SiO2 
 PCOD8139951
Probable space group: C 2/C
;
_chemical_formula_sum "Si O2"
_cell_formula_units_Z 48
_cell_length_a 16.343744
_cell_length_b 10.628784
_cell_length_c 25.279924
_cell_angle_alpha 90.000000
_cell_angle_beta 148.920769
_cell_angle_gamma 90.000000
_cell_volume 2266.982513
_symmetry_space_group_name_H-M "C 2/C"
_symmetry_group_IT_number 15
_symmetry_cell_setting 'monoclinic'
loop_
_space_group_symop_operation_xyz
x,y,z
-x,y,1/2-z
-x,-y,-z
x,-y,1/2+z
1/2+x,1/2+y,z
1/2-x,1/2+y,1/2-z
1/2-x,1/2-y,-z
1/2+x,1/2-y,1/2+z
loop_
_atom_site_type_symbol
_atom_site_label
_atom_site_fract_x
_atom_site_fract_y
_atom_site_fract_z
Si Si1 0.899860 0.611268 0.072595
Si Si2 0.363229 0.068753 0.761984
Si Si3 0.346467 0.234460 0.606562
Si Si4 0.469183 0.618164 0.880988
Si Si5 0.237527 0.987195 0.588071
Si Si6 0.399645 0.513360 0.646660
O O1 0.840420 0.581288 0.099361
O O2 0.045638 0.515432 0.143594
O O3 0.954774 0.753654 0.098436
O O4 0.764665 0.587615 0.953849
O O5 0.476840 0.178188 0.802867
O O6 0.214462 0.135285 0.707580
O O7 0.307668 0.968650 0.685629
O O8 0.250000 0.250000 0.500000
O O9 0.242645 0.139103 0.584333
O O10 0.361352 0.369958 0.641983
O O11 0.495669 0.516272 0.849003
O O12 0.559159 0.567316 0.983549
O O13 0.500000 0.576102 0.750000
#
# Coordination Sequence:
#
# PCOD8139951 Si02
#       6
#     8   8   8   8   8   8
#     4  10  22  40  62  91 122 162 210 247 297 380
#     4  11  23  39  64  94 124 159 201 262 308 360
#     4  11  19  39  66  86 118 161 209 246 295 372
#     4  11  24  38  62  93 129 155 199 263 312 353
#     4  10  20  40  64  88 118 166 210 242 299 380
#     4  11  22  40  64  87 118 166 204 244 304 371
#
# _framework density 21.17352
#
# number of rings (size 3 to 8) (size 9 to 14) (size 15 to 20)
#    0.000    1.333    5.000    5.500    2.333    2.667 
#    0.000    2.500    0.000    0.000    0.000    0.000 
#    0.000    0.000    0.000    0.000    0.000    0.000 
#
# Total GULP energy -297493.295834 kJ/mol
# GULP energy per Si atom -12395.553993 kJ/mol
# Density = 2.112533 g / cm^3
# Si number density = 21.173520 Si / 1000 Ang^3
#
#
#
# Elastic Constant Matrix: (Units=GPa)
#
#
# Indices 1 2 3 4 5 6 
#
# 1 40.2516 19.2676 38.8919 0.0001 5.4131 0.0000
# 2 19.2676 96.6607 17.9189 0.0002 9.4997 0.0000
# 3 38.8919 17.9189 153.6092 0.0012 -2.6815 0.0003
# 4 0.0001 0.0002 0.0012 32.6498 0.0003 4.8412
# 5 5.4131 9.4997 -2.6815 0.0003 37.4440 0.0000
# 6 0.0000 0.0000 0.0003 4.8412 0.0000 14.7413
#
#
#
# Elastic Compliance Matrix: (Units=1/GPa)
#
#
# Indices 1 2 3 4 5 6 
#
# 1 0.036314 -0.005184 -0.008669 0.000000 -0.004555 0.000000
# 2 -0.005184 0.011610 -0.000080 0.000000 -0.002202 0.000000
# 3 -0.008669 -0.000080 0.008747 0.000000 0.001900 0.000000
# 4 0.000000 0.000000 0.000000 0.032196 0.000000 -0.010574
# 5 -0.004555 -0.002202 0.001900 0.000000 0.028060 0.000000
# 6 0.000000 0.000000 0.000000 -0.010574 0.000000 0.071309
#
#
# Mechanical properties :
#
#
# Convention : Reuss Voigt Hill
#
# Bulk Modulus (GPa) = 34.71597 49.18649 41.95123
# Shear Modulus (GPa) = 22.15286 31.26323 26.70804
#
# Velocity S-wave (km/s) = 3.23809 3.84673 3.55546
# Velocity P-wave (km/s) = 5.51469 6.55823 6.05897
#
# Compressibility (1/GPa) = 0.02880519
#
# Stress axis : x y z
#
# Youngs Moduli (GPa) = 27.53758 86.13230 114.31883
#
# Poissons Ratio (x) = 0.44649 0.99104
# Poissons Ratio (y) = 0.14275 0.00918
# Poissons Ratio (z) = 0.23873 0.00692
#
# Static dielectric constant tensor:
#      x y z
#    x 3.455480 0.000000 0.031660 
#    y 0.000000 3.964910 0.000000 
#    z 0.031660 0.000000 4.384050 
# 
# 
# High freq. dielectric constant tensor:
#      x y z
#    x 1.786600 0.000000 0.001540 
#    y 0.000000 1.826930 0.000000 
#    z 0.001540 0.000000 1.857720 
# 
# From -- ./inp_files/298790.got.cif
#   From: 2010.06.25/outbox.cif.g09.slc.cpg/sg15_150_cif.got.tgz:298790.got - 2010.06.28 07:06:18.
