data_PCOD8139003
_publ_section_title
;
Structure prediction by ZEFSAII (Michael W. Deem and Ramdas Pophale) SiO2 
 PCOD8139003
Probable space group: C 2/C
;
_chemical_formula_sum "Si O2"
_cell_formula_units_Z 40
_cell_length_a 18.383415
_cell_length_b 8.519503
_cell_length_c 11.896745
_cell_angle_alpha 90.000000
_cell_angle_beta 82.511258
_cell_angle_gamma 90.000000
_cell_volume 1847.346646
_symmetry_space_group_name_H-M "C 2/C"
_symmetry_group_IT_number 15
_symmetry_cell_setting 'monoclinic'
loop_
_space_group_symop_operation_xyz
x,y,z
-x,y,1/2-z
-x,-y,-z
x,-y,1/2+z
1/2+x,1/2+y,z
1/2-x,1/2+y,1/2-z
1/2-x,1/2-y,-z
1/2+x,1/2-y,1/2+z
loop_
_atom_site_type_symbol
_atom_site_label
_atom_site_fract_x
_atom_site_fract_y
_atom_site_fract_z
Si Si1 0.917822 0.276507 0.727798
Si Si2 0.336030 0.952138 0.156305
Si Si3 0.716000 0.723617 0.155089
Si Si4 0.836450 0.763380 0.470927
Si Si5 0.651977 0.601720 0.959255
O O1 0.903286 0.458515 0.701926
O O2 0.861140 0.227999 0.836731
O O3 0.905012 0.174224 0.618132
O O4 0.000000 0.249438 0.750000
O O5 0.317214 0.789169 0.223029
O O6 0.265684 0.067934 0.163214
O O7 0.365684 0.893285 0.028463
O O8 0.764353 0.867005 0.096635
O O9 0.648758 0.682799 0.083877
O O10 0.750000 0.750000 0.500000
O O11 0.865493 0.918635 0.527745
#
# Coordination Sequence:
#
# PCOD8139003 Si02
#       5
#     8   8   8   8   8
#     4  11  28  47  63  94 140 182 222 270 327 400
#     4  11  23  38  67  97 135 172 222 271 340 390
#     4  10  20  38  64 103 135 164 215 285 334 380
#     4  12  23  41  72 102 128 170 221 281 336 389
#     4  10  22  39  65  97 132 171 216 274 331 390
#
# _framework density 21.652676
#
# number of rings (size 3 to 8) (size 9 to 14) (size 15 to 20)
#    0.000    1.200    2.000    4.800    8.400    1.600 
#    0.000    1.000    0.000    0.000    0.000    0.000 
#    0.000    0.000    0.000    0.000    0.000    0.000 
#
# Total GULP energy -247895.574543 kJ/mol
# GULP energy per Si atom -12394.778727 kJ/mol
# Density = 2.160339 g / cm^3
# Si number density = 21.652676 Si / 1000 Ang^3
#
#
#
# Elastic Constant Matrix: (Units=GPa)
#
#
# Indices 1 2 3 4 5 6 
#
# 1 108.1366 26.3990 40.8401 0.0000 29.6929 0.0000
# 2 26.3990 126.0385 51.4625 0.0000 20.6244 0.0000
# 3 40.8401 51.4625 109.7316 0.0000 25.5495 0.0000
# 4 0.0000 0.0000 0.0000 47.1427 0.0000 11.1183
# 5 29.6929 20.6244 25.5495 0.0000 32.9248 0.0000
# 6 0.0000 0.0000 0.0000 11.1183 0.0000 17.2742
#
#
#
# Elastic Compliance Matrix: (Units=1/GPa)
#
#
# Indices 1 2 3 4 5 6 
#
# 1 0.012849 -0.000101 -0.002504 0.000000 -0.009581 0.000000
# 2 -0.000101 0.010088 -0.003959 0.000000 -0.003156 0.000000
# 3 -0.002504 -0.003959 0.013180 0.000000 -0.005490 0.000000
# 4 0.000000 0.000000 0.000000 0.025008 0.000000 -0.016096
# 5 -0.009581 -0.003156 -0.005490 0.000000 0.045250 0.000000
# 6 0.000000 0.000000 0.000000 -0.016096 0.000000 0.068250
#
#
# Mechanical properties :
#
#
# Convention : Reuss Voigt Hill
#
# Bulk Modulus (GPa) = 43.49802 64.59000 54.04401
# Shear Modulus (GPa) = 25.58653 34.48200 30.03427
#
# Velocity S-wave (km/s) = 3.44129 3.99495 3.72841
# Velocity P-wave (km/s) = 5.99354 7.15362 6.59912
#
# Compressibility (1/GPa) = 0.02298955
#
# Stress axis : x y z
#
# Youngs Moduli (GPa) = 77.82859 99.12694 75.87392
#
# Poissons Ratio (x) = 0.01001 0.18997
# Poissons Ratio (y) = 0.00786 0.30036
# Poissons Ratio (z) = 0.19487 0.39241
#
# Static dielectric constant tensor:
#      x y z
#    x 3.389960 0.000000 0.368050 
#    y 0.000000 4.210400 0.000000 
#    z 0.368050 0.000000 4.507690 
# 
# 
# High freq. dielectric constant tensor:
#      x y z
#    x 1.790020 0.000000 0.031850 
#    y 0.000000 1.864370 0.000000 
#    z 0.031850 0.000000 1.870370 
# 
# From -- ./inp_files/102690.got.cif
#   From: 2010.06.25/outbox.cif.g09.slc.cpg/sg15_52_cif.got.tgz:102690.got - 2010.06.28 07:06:18.
