data_PCOD8139192
_publ_section_title
;
Structure prediction by ZEFSAII (Michael W. Deem and Ramdas Pophale) SiO2 
 PCOD8139192
Probable space group: C 2/C
;
_chemical_formula_sum "Si O2"
_cell_formula_units_Z 64
_cell_length_a 17.877552
_cell_length_b 20.742392
_cell_length_c 15.288779
_cell_angle_alpha 90.000000
_cell_angle_beta 147.362244
_cell_angle_gamma 90.000000
_cell_volume 3057.672023
_symmetry_space_group_name_H-M "C 2/C"
_symmetry_group_IT_number 15
_symmetry_cell_setting 'monoclinic'
loop_
_space_group_symop_operation_xyz
x,y,z
-x,y,1/2-z
-x,-y,-z
x,-y,1/2+z
1/2+x,1/2+y,z
1/2-x,1/2+y,1/2-z
1/2-x,1/2-y,-z
1/2+x,1/2-y,1/2+z
loop_
_atom_site_type_symbol
_atom_site_label
_atom_site_fract_x
_atom_site_fract_y
_atom_site_fract_z
Si Si1 0.152517 0.821368 0.703921
Si Si2 0.632829 0.015351 0.024911
Si Si3 0.346529 0.407222 0.633203
Si Si4 0.339195 0.943725 0.202852
Si Si5 0.327451 0.121388 0.867045
Si Si6 0.547722 0.822726 0.698351
Si Si7 0.280002 0.927372 0.717991
Si Si8 0.876333 0.226263 0.855482
O O1 0.144773 0.843054 0.798256
O O2 0.161117 0.884607 0.647794
O O3 0.284055 0.774494 0.823720
O O4 0.019258 0.779986 0.548285
O O5 0.776352 0.037599 0.122519
O O6 0.611890 0.049705 0.099445
O O7 0.663920 0.939959 0.061676
O O8 0.493641 0.028646 0.830326
O O9 0.500000 0.426007 0.750000
O O10 0.238111 0.400747 0.445982
O O11 0.370149 0.894734 0.310928
O O12 0.237361 0.004678 0.129402
O O13 0.176827 0.153754 0.711649
O O14 0.424683 0.174824 0.006320
O O15 0.500000 0.817064 0.750000
O O16 0.645572 0.884855 0.782887
O O17 0.619216 0.756334 0.738355
#
# Coordination Sequence:
#
# PCOD8139192 Si02
#       8
#     8   8   8   8   8   8   8   8
#     4  10  23  44  68  90 127 177 220 263 327 382
#     4  10  20  38  66  97 122 167 217 255 319 395
#     4  11  25  41  59  97 139 162 210 276 330 380
#     4  11  20  38  68  96 125 164 220 267 313 385
#     4  11  21  39  67  92 127 170 212 259 325 377
#     4  11  22  37  62  94 128 156 214 265 311 369
#     4   9  19  38  64  93 127 157 207 263 327 384
#     4  11  23  44  67  89 129 177 219 264 315 385
#
# _framework density 20.930956999999999
#
# number of rings (size 3 to 8) (size 9 to 14) (size 15 to 20)
#    0.000    1.500    3.750    1.875    1.750    1.500 
#    0.000    6.875    0.000    0.000    0.000    0.000 
#    0.000    0.000    0.000    0.000    0.000    0.000 
#
# Total GULP energy -396423.323340 kJ/mol
# GULP energy per Si atom -12388.228854 kJ/mol
# Density = 2.088332 g / cm^3
# Si number density = 20.930957 Si / 1000 Ang^3
#
#
#
# Elastic Constant Matrix: (Units=GPa)
#
#
# Indices 1 2 3 4 5 6 
#
# 1 120.6440 52.4474 52.7193 0.0000 -6.6345 0.0000
# 2 52.4474 96.1818 44.6052 0.0000 1.8654 0.0000
# 3 52.7193 44.6052 84.3362 0.0000 -5.5850 0.0000
# 4 0.0000 0.0000 0.0000 35.5869 0.0000 4.4298
# 5 -6.6345 1.8654 -5.5850 0.0000 33.9828 0.0000
# 6 0.0000 0.0000 0.0000 4.4298 0.0000 18.1352
#
#
#
# Elastic Compliance Matrix: (Units=1/GPa)
#
#
# Indices 1 2 3 4 5 6 
#
# 1 0.012708 -0.004421 -0.005485 0.000000 0.001822 0.000000
# 2 -0.004421 0.015447 -0.005580 0.000000 -0.002628 0.000000
# 3 -0.005485 -0.005580 0.018387 0.000000 0.002257 0.000000
# 4 0.000000 0.000000 0.000000 0.028981 0.000000 -0.007079
# 5 0.001822 -0.002628 0.002257 0.000000 0.030298 0.000000
# 6 0.000000 0.000000 0.000000 -0.007079 0.000000 0.056870
#
#
# Mechanical properties :
#
#
# Convention : Reuss Voigt Hill
#
# Bulk Modulus (GPa) = 64.22958 66.74511 65.48735
# Shear Modulus (GPa) = 25.14433 27.63367 26.38900
#
# Velocity S-wave (km/s) = 3.46974 3.63744 3.55458
# Velocity P-wave (km/s) = 6.84143 7.04264 6.94276
#
# Compressibility (1/GPa) = 0.01556915
#
# Stress axis : x y z
#
# Youngs Moduli (GPa) = 78.69163 64.73926 54.38762
#
# Poissons Ratio (x) = 0.28623 0.29830
# Poissons Ratio (y) = 0.34792 0.30348
# Poissons Ratio (z) = 0.43160 0.36124
#
# Static dielectric constant tensor:
#      x y z
#    x 3.889070 0.000000 0.024900 
#    y 0.000000 3.854250 0.000000 
#    z 0.024900 0.000000 3.636860 
# 
# 
# High freq. dielectric constant tensor:
#      x y z
#    x 1.814930 0.000000 -0.000500 
#    y 0.000000 1.821530 0.000000 
#    z -0.000500 0.000000 1.803030 
# 
# From -- ./inp_files/164274.got.cif
#   From: 2010.06.25/outbox.cif.g09.slc.cpg/sg15_83_cif.got.tgz:164274.got - 2010.06.28 07:06:18.
