data_PCOD8139216
_publ_section_title
;
Structure prediction by ZEFSAII (Michael W. Deem and Ramdas Pophale) SiO2 
 PCOD8139216
Probable space group: C 2/C
;
_chemical_formula_sum "Si O2"
_cell_formula_units_Z 56
_cell_length_a 5.090040
_cell_length_b 18.491074
_cell_length_c 29.211981
_cell_angle_alpha 90.000000
_cell_angle_beta 78.915861
_cell_angle_gamma 90.000000
_cell_volume 2698.152319
_symmetry_space_group_name_H-M "C 2/C"
_symmetry_group_IT_number 15
_symmetry_cell_setting 'monoclinic'
loop_
_space_group_symop_operation_xyz
x,y,z
-x,y,1/2-z
-x,-y,-z
x,-y,1/2+z
1/2+x,1/2+y,z
1/2-x,1/2+y,1/2-z
1/2-x,1/2-y,-z
1/2+x,1/2-y,1/2+z
loop_
_atom_site_type_symbol
_atom_site_label
_atom_site_fract_x
_atom_site_fract_y
_atom_site_fract_z
Si Si1 0.853961 0.640491 0.339536
Si Si2 0.327625 0.598847 0.909548
Si Si3 0.321949 0.429351 0.511429
Si Si4 0.886029 0.551461 0.101462
Si Si5 0.468333 0.673499 0.423853
Si Si6 0.138769 0.687375 0.613138
Si Si7 0.902667 0.207078 0.302081
O O1 0.937105 0.561099 0.357666
O O2 0.106522 0.675911 0.306519
O O3 0.756686 0.684419 0.388729
O O4 0.609769 0.643481 0.311425
O O5 0.307369 0.517762 0.890104
O O6 0.630071 0.627419 0.896126
O O7 0.140057 0.648068 0.885474
O O8 0.227573 0.599548 0.965518
O O9 0.500000 0.500000 0.500000
O O10 0.493025 0.363466 0.528194
O O11 0.070823 0.453033 0.550199
O O12 0.699494 0.621808 0.104395
O O13 0.322868 0.751935 0.428759
O O14 0.109362 0.725288 0.663143
O O15 0.000000 0.236942 0.250000
#
# Coordination Sequence:
#
# PCOD8139216 Si02
#       7
#     8   8   8   8   8   8   8
#     4  10  20  38  67  98 123 154 214 261 320 367
#     4  12  26  39  62  93 134 174 215 260 313 388
#     4  11  23  39  62  93 124 181 239 264 307 369
#     4  11  22  41  67  88 129 177 222 265 314 367
#     4  10  22  40  66  85 134 171 217 277 302 370
#     4  11  25  42  59  98 131 162 213 262 337 378
#     4  11  22  42  72 100 123 160 209 265 321 407
#
# _framework density 20.754942
#
# number of rings (size 3 to 8) (size 9 to 14) (size 15 to 20)
#    0.000    1.143    4.286    3.429    6.000    1.143 
#    0.000    0.000    0.000    3.429    0.000    0.000 
#    0.000    0.000    0.000    0.000    0.000    0.000 
#
# Total GULP energy -346983.789763 kJ/mol
# GULP energy per Si atom -12392.278206 kJ/mol
# Density = 2.070770 g / cm^3
# Si number density = 20.754942 Si / 1000 Ang^3
#
#
#
# Elastic Constant Matrix: (Units=GPa)
#
#
# Indices 1 2 3 4 5 6 
#
# 1 96.5637 33.6442 21.3495 0.0000 -5.5296 0.0000
# 2 33.6442 90.3474 16.3667 0.0000 -3.8744 0.0000
# 3 21.3495 16.3667 93.0992 0.0000 -8.8771 0.0000
# 4 0.0000 0.0000 0.0000 19.7733 0.0000 4.5974
# 5 -5.5296 -3.8744 -8.8771 0.0000 28.4816 0.0000
# 6 0.0000 0.0000 0.0000 4.5974 0.0000 38.9326
#
#
#
# Elastic Compliance Matrix: (Units=1/GPa)
#
#
# Indices 1 2 3 4 5 6 
#
# 1 0.012317 -0.004177 -0.001975 0.000000 0.001208 0.000000
# 2 -0.004177 0.012874 -0.001253 0.000000 0.000550 0.000000
# 3 -0.001975 -0.001253 0.011710 0.000000 0.003096 0.000000
# 4 0.000000 0.000000 0.000000 0.052001 0.000000 -0.006141
# 5 0.001208 0.000550 0.003096 0.000000 0.036385 0.000000
# 6 0.000000 0.000000 0.000000 -0.006141 0.000000 0.026411
#
#
# Mechanical properties :
#
#
# Convention : Reuss Voigt Hill
#
# Bulk Modulus (GPa) = 45.26785 46.97012 46.11899
# Shear Modulus (GPa) = 28.75692 31.34748 30.05220
#
# Velocity S-wave (km/s) = 3.72633 3.89055 3.80933
# Velocity P-wave (km/s) = 6.35390 6.54689 6.45112
#
# Compressibility (1/GPa) = 0.02209073
#
# Stress axis : x y z
#
# Youngs Moduli (GPa) = 81.18818 77.67308 85.39989
#
# Poissons Ratio (x) = 0.32445 0.16867
# Poissons Ratio (y) = 0.33914 0.10701
# Poissons Ratio (z) = 0.16035 0.09732
#
# Static dielectric constant tensor:
#      x y z
#    x 4.159790 0.000000 -0.040940 
#    y 0.000000 3.757820 0.000000 
#    z -0.040940 0.000000 3.727840 
# 
# 
# High freq. dielectric constant tensor:
#      x y z
#    x 1.836880 0.000000 -0.000020 
#    y 0.000000 1.795750 0.000000 
#    z -0.000020 0.000000 1.783350 
# 
# From -- ./inp_files/305617.got.cif
#   From: 2010.06.25/outbox.cif.g09.slc.cpg/sg15_153_cif.got.tgz:305617.got - 2010.06.28 07:06:18.
