data_PCOD8139133
_publ_section_title
;
Structure prediction by ZEFSAII (Michael W. Deem and Ramdas Pophale) SiO2 
 PCOD8139133
Probable space group: C 2/C
;
_chemical_formula_sum "Si O2"
_cell_formula_units_Z 60
_cell_length_a 20.999226
_cell_length_b 12.572407
_cell_length_c 19.319813
_cell_angle_alpha 90.000000
_cell_angle_beta 31.387030
_cell_angle_gamma 90.000000
_cell_volume 2656.496756
_symmetry_space_group_name_H-M "C 2/C"
_symmetry_group_IT_number 15
_symmetry_cell_setting 'monoclinic'
loop_
_space_group_symop_operation_xyz
x,y,z
-x,y,1/2-z
-x,-y,-z
x,-y,1/2+z
1/2+x,1/2+y,z
1/2-x,1/2+y,1/2-z
1/2-x,1/2-y,-z
1/2+x,1/2-y,1/2+z
loop_
_atom_site_type_symbol
_atom_site_label
_atom_site_fract_x
_atom_site_fract_y
_atom_site_fract_z
Si Si1 0.303722 0.831101 0.895692
Si Si2 0.091880 0.969962 0.823274
Si Si3 0.635516 0.632521 0.148219
Si Si4 0.000000 0.497204 0.750000
Si Si5 0.178528 0.972578 0.472664
Si Si6 0.402419 0.728471 0.102635
Si Si7 0.108333 0.656357 0.747428
Si Si8 0.134258 0.784819 0.296470
O O1 0.384621 0.918382 0.860432
O O2 0.377758 0.765491 0.768892
O O3 0.194149 0.899035 0.961863
O O4 0.250000 0.750000 0.000000
O O5 0.124085 0.089637 0.806947
O O6 0.173269 0.929152 0.683487
O O7 0.112520 0.899314 0.873139
O O8 0.952354 0.946905 0.934149
O O9 0.500000 0.601155 0.250000
O O10 0.647001 0.758756 0.151484
O O11 0.715994 0.585156 0.011114
O O12 0.007025 0.573988 0.811119
O O13 0.277506 0.915101 0.331417
O O14 0.441335 0.781166 0.139829
O O15 0.269259 0.763645 0.200640
O O16 0.516321 0.760232 0.947495
#
# Coordination Sequence:
#
# PCOD8139133 Si02
#       8
#     8   8   8   4   8   8   8   8
#     4  11  26  44  69  98 138 184 238 291 354 420
#     4  10  22  41  67  96 134 181 236 283 341 419
#     4   9  17  33  63  98 132 170 223 283 346 408
#     4  10  24  42  68 102 144 182 232 302 358 412
#     4  10  20  38  65  98 133 181 228 284 345 413
#     4  11  26  46  72 103 140 187 236 293 353 424
#     4  10  20  41  64 103 139 179 228 295 357 411
#     4  12  26  48  72 100 142 187 238 290 352 428
#
# _framework density 22.586136
#
# number of rings (size 3 to 8) (size 9 to 14) (size 15 to 20)
#    0.000    1.600    0.667    3.200    3.733    2.133 
#   12.000    3.333    0.000    0.000    0.000    0.000 
#    0.000    0.000    0.000    0.000    0.000    0.000 
#
# Total GULP energy -371789.239606 kJ/mol
# GULP energy per Si atom -12392.974654 kJ/mol
# Density = 2.253473 g / cm^3
# Si number density = 22.586136 Si / 1000 Ang^3
#
#
#
# Elastic Constant Matrix: (Units=GPa)
#
#
# Indices 1 2 3 4 5 6 
#
# 1 76.1059 45.5939 42.6746 0.0000 -9.3933 0.0000
# 2 45.5939 145.8290 60.2894 0.0000 12.2254 0.0000
# 3 42.6746 60.2894 110.1362 0.0000 4.2243 0.0000
# 4 0.0000 0.0000 0.0000 26.2402 0.0000 1.9920
# 5 -9.3933 12.2254 4.2243 0.0000 29.9525 0.0000
# 6 0.0000 0.0000 0.0000 1.9920 0.0000 29.9292
#
#
#
# Elastic Compliance Matrix: (Units=1/GPa)
#
#
# Indices 1 2 3 4 5 6 
#
# 1 0.020259 -0.004791 -0.005576 0.000000 0.009095 0.000000
# 2 -0.004791 0.010263 -0.003563 0.000000 -0.005189 0.000000
# 3 -0.005576 -0.003563 0.013273 0.000000 -0.002167 0.000000
# 4 0.000000 0.000000 0.000000 0.038303 0.000000 -0.002549
# 5 0.009095 -0.005189 -0.002167 0.000000 0.038662 0.000000
# 6 0.000000 0.000000 0.000000 -0.002549 0.000000 0.033582
#
#
# Mechanical properties :
#
#
# Convention : Reuss Voigt Hill
#
# Bulk Modulus (GPa) = 62.75043 69.90966 66.33005
# Shear Modulus (GPa) = 26.66456 29.45859 28.06157
#
# Velocity S-wave (km/s) = 3.43967 3.61540 3.52863
# Velocity P-wave (km/s) = 6.60440 6.96044 6.78476
#
# Compressibility (1/GPa) = 0.01593615
#
# Stress axis : x y z
#
# Youngs Moduli (GPa) = 49.36035 97.43443 75.33823
#
# Poissons Ratio (x) = 0.46685 0.42007
# Poissons Ratio (y) = 0.23650 0.26840
# Poissons Ratio (z) = 0.27523 0.34713
#
# Static dielectric constant tensor:
#      x y z
#    x 4.089280 0.000000 0.177390 
#    y 0.000000 4.256960 0.000000 
#    z 0.177390 0.000000 4.164550 
# 
# 
# High freq. dielectric constant tensor:
#      x y z
#    x 1.888250 0.000000 0.000610 
#    y 0.000000 1.907040 0.000000 
#    z 0.000610 0.000000 1.879730 
# 
# From -- ./inp_files/255555.got.cif
#   From: 2010.06.25/outbox.cif.g09.slc.cpg/sg15_128_cif.got.tgz:255555.got - 2010.06.28 07:06:18.
