data_PCOD8139748
_publ_section_title
;
Structure prediction by ZEFSAII (Michael W. Deem and Ramdas Pophale) SiO2 
 PCOD8139748
Probable space group: C 2/C
;
_chemical_formula_sum "Si O2"
_cell_formula_units_Z 56
_cell_length_a 17.129907
_cell_length_b 21.162355
_cell_length_c 9.175431
_cell_angle_alpha 90.000000
_cell_angle_beta 125.606978
_cell_angle_gamma 90.000000
_cell_volume 2704.281952
_symmetry_space_group_name_H-M "C 2/C"
_symmetry_group_IT_number 15
_symmetry_cell_setting 'monoclinic'
loop_
_space_group_symop_operation_xyz
x,y,z
-x,y,1/2-z
-x,-y,-z
x,-y,1/2+z
1/2+x,1/2+y,z
1/2-x,1/2+y,1/2-z
1/2-x,1/2-y,-z
1/2+x,1/2-y,1/2+z
loop_
_atom_site_type_symbol
_atom_site_label
_atom_site_fract_x
_atom_site_fract_y
_atom_site_fract_z
Si Si1 0.000000 0.444388 0.750000
Si Si2 0.392672 0.576876 0.599661
Si Si3 0.978996 0.622661 0.935734
Si Si4 0.846971 0.212147 0.581684
Si Si5 0.132203 0.442428 0.407759
Si Si6 0.997470 0.235977 0.509049
Si Si7 0.500000 0.359009 0.750000
Si Si8 0.851118 0.048526 0.220363
O O1 0.971919 0.395630 0.594674
O O2 0.094746 0.487294 0.823622
O O3 0.500000 0.601874 0.750000
O O4 0.324631 0.636874 0.560095
O O5 0.381789 0.553317 0.422022
O O6 0.371262 0.522096 0.690261
O O7 0.066484 0.582719 0.966175
O O8 0.880403 0.602541 0.747101
O O9 0.996117 0.696449 0.929380
O O10 0.750000 0.250000 0.500000
O O11 0.916531 0.234512 0.784227
O O12 0.894751 0.225705 0.475823
O O13 0.239305 0.438983 0.580579
O O14 0.018641 0.183083 0.411867
O O15 0.592028 0.402931 0.820447
#
# Coordination Sequence:
#
# PCOD8139748 Si02
#       8
#     4   8   8   8   8   8   4   8
#     4  10  20  39  70  93 136 174 222 280 356 404
#     4  12  25  49  68 101 137 179 231 288 342 402
#     4  10  22  42  66  95 137 177 220 274 360 410
#     4  11  25  45  70 102 134 178 231 283 338 414
#     4  10  23  42  61 101 134 173 219 291 338 423
#     4  11  24  44  69  94 138 182 227 283 343 420
#     4  12  24  47  64  99 132 188 224 288 348 396
#     4  12  28  40  76  98 135 180 235 287 347 400
#
# _framework density 20.707899000000001
#
# number of rings (size 3 to 8) (size 9 to 14) (size 15 to 20)
#    0.000    1.143    3.571    3.857    8.000    2.286 
#    0.000    2.143    0.000    0.000    0.000    0.000 
#    0.000    0.000    0.000    0.000    0.000    0.000 
#
# Total GULP energy -347225.614070 kJ/mol
# GULP energy per Si atom -12400.914788 kJ/mol
# Density = 2.066077 g / cm^3
# Si number density = 20.707899 Si / 1000 Ang^3
#
#
#
# Elastic Constant Matrix: (Units=GPa)
#
#
# Indices 1 2 3 4 5 6 
#
# 1 83.5614 38.5637 53.7036 0.0000 10.2226 0.0000
# 2 38.5637 148.3734 39.3291 0.0000 0.0410 0.0000
# 3 53.7036 39.3291 126.9275 0.0000 -2.1308 0.0000
# 4 0.0000 0.0000 0.0000 28.1322 0.0000 -7.8256
# 5 10.2226 0.0410 -2.1308 0.0000 36.3319 0.0000
# 6 0.0000 0.0000 0.0000 -7.8256 0.0000 31.6682
#
#
#
# Elastic Compliance Matrix: (Units=1/GPa)
#
#
# Indices 1 2 3 4 5 6 
#
# 1 0.018529 -0.002954 -0.007019 0.000000 -0.005622 0.000000
# 2 -0.002954 0.007814 -0.001159 0.000000 0.000754 0.000000
# 3 -0.007019 -0.001159 0.011252 0.000000 0.002636 0.000000
# 4 0.000000 0.000000 0.000000 0.038170 0.000000 0.009432
# 5 -0.005622 0.000754 0.002636 0.000000 0.029260 0.000000
# 6 0.000000 0.000000 0.000000 0.009432 0.000000 0.033908
#
#
# Mechanical properties :
#
#
# Convention : Reuss Voigt Hill
#
# Bulk Modulus (GPa) = 65.22344 69.11724 67.17034
# Shear Modulus (GPa) = 30.06483 34.37751 32.22117
#
# Velocity S-wave (km/s) = 3.81445 4.07887 3.94888
# Velocity P-wave (km/s) = 7.13900 7.45873 7.30061
#
# Compressibility (1/GPa) = 0.01533191
#
# Stress axis : x y z
#
# Youngs Moduli (GPa) = 53.96901 127.96772 88.87641
#
# Poissons Ratio (x) = 0.37800 0.62381
# Poissons Ratio (y) = 0.15942 0.10300
# Poissons Ratio (z) = 0.37880 0.14830
#
# Static dielectric constant tensor:
#      x y z
#    x 3.714840 0.000000 -0.076220 
#    y 0.000000 3.954500 0.000000 
#    z -0.076220 0.000000 3.878820 
# 
# 
# High freq. dielectric constant tensor:
#      x y z
#    x 1.797460 0.000000 -0.011630 
#    y 0.000000 1.829710 0.000000 
#    z -0.011630 0.000000 1.820190 
# 
# From -- ./inp_files/51610.got.cif
#   From: 2010.06.25/outbox.cif.g09.slc.cpg/sg15_26_cif.got.tgz:51610.got - 2010.06.28 07:06:18.
