data_PCOD8139913
_publ_section_title
;
Structure prediction by ZEFSAII (Michael W. Deem and Ramdas Pophale) SiO2 
 PCOD8139913
Probable space group: C 2/C
;
_chemical_formula_sum "Si O2"
_cell_formula_units_Z 48
_cell_length_a 19.160279
_cell_length_b 15.476090
_cell_length_c 15.554531
_cell_angle_alpha 90.000000
_cell_angle_beta 149.204900
_cell_angle_gamma 90.000000
_cell_volume 2361.369795
_symmetry_space_group_name_H-M "C 2/C"
_symmetry_group_IT_number 15
_symmetry_cell_setting 'monoclinic'
loop_
_space_group_symop_operation_xyz
x,y,z
-x,y,1/2-z
-x,-y,-z
x,-y,1/2+z
1/2+x,1/2+y,z
1/2-x,1/2+y,1/2-z
1/2-x,1/2-y,-z
1/2+x,1/2-y,1/2+z
loop_
_atom_site_type_symbol
_atom_site_label
_atom_site_fract_x
_atom_site_fract_y
_atom_site_fract_z
Si Si1 0.500000 0.221296 0.750000
Si Si2 0.101167 0.826445 0.514710
Si Si3 0.500000 0.928680 0.750000
Si Si4 0.560710 0.646376 0.165388
Si Si5 0.110920 0.989290 0.941915
Si Si6 0.194348 0.569186 0.990224
Si Si7 0.650203 0.221170 0.319249
O O1 0.442312 0.279192 0.766316
O O2 0.622441 0.161875 0.911724
O O3 0.066615 0.813022 0.577618
O O4 0.248585 0.781594 0.655638
O O5 0.976191 0.785856 0.328191
O O6 0.122119 0.924754 0.509316
O O7 0.410739 0.871864 0.720887
O O8 0.592684 0.991182 0.908845
O O9 0.426487 0.587656 0.032041
O O10 0.687425 0.580857 0.314506
O O11 0.000000 0.001164 0.750000
O O12 0.251379 0.959632 0.046444
O O13 0.750000 0.250000 0.500000
#
# Coordination Sequence:
#
# PCOD8139913 Si02
#       7
#     4   8   4   8   8   8   8
#     4  11  22  40  65  94 124 178 217 264 354 389
#     4  12  26  39  67 103 135 172 229 279 337 395
#     4  11  22  42  67  96 122 182 227 266 340 409
#     4  11  24  40  65  94 133 171 223 280 331 398
#     4  10  20  40  63  89 125 175 217 266 331 401
#     4  10  22  40  68  90 125 173 223 273 327 415
#     4  12  24  43  68  98 136 179 219 277 340 411
#
# _framework density 20.327183999999999
#
# number of rings (size 3 to 8) (size 9 to 14) (size 15 to 20)
#    0.000    1.000    5.833    2.000    4.667    0.000 
#    0.000    2.500    0.000    0.000    0.000    0.000 
#    0.000    0.000    0.000    0.000    0.000    0.000 
#
# Total GULP energy -297522.397740 kJ/mol
# GULP energy per Si atom -12396.766572 kJ/mol
# Density = 2.028092 g / cm^3
# Si number density = 20.327184 Si / 1000 Ang^3
#
#
#
# Elastic Constant Matrix: (Units=GPa)
#
#
# Indices 1 2 3 4 5 6 
#
# 1 107.0319 30.0370 36.1483 0.0001 2.8626 0.0000
# 2 30.0370 103.4621 37.2186 0.0001 7.2319 0.0001
# 3 36.1483 37.2186 81.0282 0.0002 15.9985 0.0002
# 4 0.0001 0.0001 0.0002 29.5676 0.0002 11.7012
# 5 2.8626 7.2319 15.9985 0.0002 33.2298 0.0001
# 6 0.0000 0.0001 0.0002 11.7012 0.0001 28.5948
#
#
#
# Elastic Compliance Matrix: (Units=1/GPa)
#
#
# Indices 1 2 3 4 5 6 
#
# 1 0.011336 -0.001761 -0.004565 0.000000 0.001605 0.000000
# 2 -0.001761 0.011852 -0.004618 0.000000 -0.000204 0.000000
# 3 -0.004565 -0.004618 0.017927 0.000000 -0.007233 0.000000
# 4 0.000000 0.000000 0.000000 0.040356 0.000000 -0.016514
# 5 0.001605 -0.000204 -0.007233 0.000000 0.033482 0.000000
# 6 0.000000 0.000000 0.000000 -0.016514 0.000000 0.041729
#
#
# Mechanical properties :
#
#
# Convention : Reuss Voigt Hill
#
# Bulk Modulus (GPa) = 52.01019 55.36999 53.69009
# Shear Modulus (GPa) = 27.02990 30.81965 28.92478
#
# Velocity S-wave (km/s) = 3.65052 3.89804 3.77631
# Velocity P-wave (km/s) = 6.58866 6.89624 6.74420
#
# Compressibility (1/GPa) = 0.01922700
#
# Stress axis : x y z
#
# Youngs Moduli (GPa) = 88.21357 84.37263 55.78084
#
# Poissons Ratio (x) = 0.14858 0.25465
# Poissons Ratio (y) = 0.15534 0.25760
# Poissons Ratio (z) = 0.40271 0.38964
#
# Static dielectric constant tensor:
#      x y z
#    x 3.925780 0.000000 0.613040 
#    y 0.000000 3.808120 0.000000 
#    z 0.613040 0.000000 3.941560 
# 
# 
# High freq. dielectric constant tensor:
#      x y z
#    x 1.788800 0.000000 0.032600 
#    y 0.000000 1.806990 0.000000 
#    z 0.032600 0.000000 1.785160 
# 
# From -- ./inp_files/215435.got.cif
#   From: 2010.06.25/outbox.cif.g09.slc.cpg/sg15_108_cif.got.tgz:215435.got - 2010.06.28 07:06:18.
