data_PCOD8139919
_publ_section_title
;
Structure prediction by ZEFSAII (Michael W. Deem and Ramdas Pophale) SiO2 
 PCOD8139919
Probable space group: C 2/C
;
_chemical_formula_sum "Si O2"
_cell_formula_units_Z 52
_cell_length_a 19.620274
_cell_length_b 15.659701
_cell_length_c 11.212447
_cell_angle_alpha 90.000000
_cell_angle_beta 130.066484
_cell_angle_gamma 90.000000
_cell_volume 2636.450058
_symmetry_space_group_name_H-M "C 2/C"
_symmetry_group_IT_number 15
_symmetry_cell_setting 'monoclinic'
loop_
_space_group_symop_operation_xyz
x,y,z
-x,y,1/2-z
-x,-y,-z
x,-y,1/2+z
1/2+x,1/2+y,z
1/2-x,1/2+y,1/2-z
1/2-x,1/2-y,-z
1/2+x,1/2-y,1/2+z
loop_
_atom_site_type_symbol
_atom_site_label
_atom_site_fract_x
_atom_site_fract_y
_atom_site_fract_z
Si Si1 0.589156 0.274434 0.910604
Si Si2 0.682731 0.327331 0.411845
Si Si3 0.622355 0.872603 0.262674
Si Si4 0.209656 0.462461 0.823122
Si Si5 0.500000 0.242123 0.250000
Si Si6 0.284584 0.618517 0.811563
Si Si7 0.950615 0.346108 0.933570
O O1 0.500000 0.311691 0.750000
O O2 0.625238 0.195879 0.871758
O O3 0.656334 0.352943 0.006174
O O4 0.574851 0.240927 0.028577
O O5 0.750000 0.250000 0.500000
O O6 0.722616 0.407886 0.523745
O O7 0.586952 0.302297 0.358102
O O8 0.672328 0.351215 0.262080
O O9 0.686868 0.839051 0.227522
O O10 0.659351 0.965465 0.348432
O O11 0.524480 0.891255 0.099734
O O12 0.270988 0.515189 0.797274
O O13 0.136309 0.405047 0.674429
O O14 0.509116 0.178728 0.148616
#
# Coordination Sequence:
#
# PCOD8139919 Si02
#       7
#     8   8   8   8   4   8   8
#     4  10  20  40  63  92 127 167 219 266 325 398
#     4  12  23  46  65  97 136 178 228 265 336 401
#     4   9  22  36  66  95 129 169 214 273 338 377
#     4  10  24  38  63  95 133 164 214 279 324 387
#     4  12  24  40  74  88 138 178 232 264 322 402
#     4  10  22  41  64  93 132 167 222 269 325 397
#     4  11  21  40  62  99 127 174 216 273 325 394
#
# _framework density 19.723490999999999
#
# number of rings (size 3 to 8) (size 9 to 14) (size 15 to 20)
#    0.923    0.615    3.077    1.846    2.154    0.000 
#    5.538    3.846    0.000    0.000    0.000    0.000 
#    0.000    0.000    0.000    0.000    0.000    0.000 
#
# Total GULP energy -322094.771008 kJ/mol
# GULP energy per Si atom -12388.260423 kJ/mol
# Density = 1.967860 g / cm^3
# Si number density = 19.723491 Si / 1000 Ang^3
#
#
#
# Elastic Constant Matrix: (Units=GPa)
#
#
# Indices 1 2 3 4 5 6 
#
# 1 81.6475 39.6076 41.3376 0.0000 7.0009 0.0000
# 2 39.6076 96.9082 74.4688 0.0000 12.0424 0.0000
# 3 41.3376 74.4688 113.2653 0.0000 14.7160 0.0000
# 4 0.0000 0.0000 0.0000 31.8173 0.0000 11.0128
# 5 7.0009 12.0424 14.7160 0.0000 40.8987 0.0000
# 6 0.0000 0.0000 0.0000 11.0128 0.0000 31.8999
#
#
#
# Elastic Compliance Matrix: (Units=1/GPa)
#
#
# Indices 1 2 3 4 5 6 
#
# 1 0.015795 -0.004074 -0.003032 0.000000 -0.000413 0.000000
# 2 -0.004074 0.021970 -0.012807 0.000000 -0.001164 0.000000
# 3 -0.003032 -0.012807 0.018671 0.000000 -0.002428 0.000000
# 4 0.000000 0.000000 0.000000 0.035695 0.000000 -0.012323
# 5 -0.000413 -0.001164 -0.002428 0.000000 0.025738 0.000000
# 6 0.000000 0.000000 0.000000 -0.012323 0.000000 0.035602
#
#
# Mechanical properties :
#
#
# Convention : Reuss Voigt Hill
#
# Bulk Modulus (GPa) = 60.20522 66.96100 63.58311
# Shear Modulus (GPa) = 25.14677 30.01697 27.58187
#
# Velocity S-wave (km/s) = 3.57454 3.90537 3.74361
# Velocity P-wave (km/s) = 6.90126 7.37289 7.14097
#
# Compressibility (1/GPa) = 0.01660986
#
# Stress axis : x y z
#
# Youngs Moduli (GPa) = 63.31215 45.51676 53.55922
#
# Poissons Ratio (x) = 0.18544 0.16240
# Poissons Ratio (y) = 0.25794 0.68591
# Poissons Ratio (z) = 0.19198 0.58291
#
# Static dielectric constant tensor:
#      x y z
#    x 3.620870 0.000000 0.170280 
#    y 0.000000 3.619920 0.000000 
#    z 0.170280 0.000000 3.476260 
# 
# 
# High freq. dielectric constant tensor:
#      x y z
#    x 1.762570 0.000000 0.010700 
#    y 0.000000 1.757250 0.000000 
#    z 0.010700 0.000000 1.775760 
# 
# From -- ./inp_files/112802.got.cif
#   From: 2010.06.25/outbox.cif.g09.slc.cpg/sg15_57_cif.got.tgz:112802.got - 2010.06.28 07:06:18.
