data_PCOD8139628
_publ_section_title
;
Structure prediction by ZEFSAII (Michael W. Deem and Ramdas Pophale) SiO2 
 PCOD8139628
Probable space group: C 2/C
;
_chemical_formula_sum "Si O2"
_cell_formula_units_Z 64
_cell_length_a 14.418815
_cell_length_b 23.403307
_cell_length_c 9.495861
_cell_angle_alpha 90.000000
_cell_angle_beta 87.352046
_cell_angle_gamma 90.000000
_cell_volume 3200.937422
_symmetry_space_group_name_H-M "C 2/C"
_symmetry_group_IT_number 15
_symmetry_cell_setting 'monoclinic'
loop_
_space_group_symop_operation_xyz
x,y,z
-x,y,1/2-z
-x,-y,-z
x,-y,1/2+z
1/2+x,1/2+y,z
1/2-x,1/2+y,1/2-z
1/2-x,1/2-y,-z
1/2+x,1/2-y,1/2+z
loop_
_atom_site_type_symbol
_atom_site_label
_atom_site_fract_x
_atom_site_fract_y
_atom_site_fract_z
Si Si1 0.427116 0.258222 0.444624
Si Si2 0.365118 0.255313 0.147892
Si Si3 0.030745 0.553152 0.587961
Si Si4 0.601637 0.657339 0.299077
Si Si5 0.269345 0.671614 0.445368
Si Si6 0.751411 0.058798 0.164047
Si Si7 0.767055 0.544301 0.021434
Si Si8 0.068335 0.631238 0.108379
O O1 0.378112 0.278783 0.304412
O O2 0.537888 0.261850 0.437310
O O3 0.393631 0.297802 0.573322
O O4 0.395977 0.192128 0.450551
O O5 0.328532 0.189283 0.125931
O O6 0.283867 0.294218 0.088396
O O7 0.140364 0.556216 0.571666
O O8 0.000000 0.545925 0.750000
O O9 0.000000 0.500000 0.500000
O O10 0.988269 0.609110 0.521469
O O11 0.500000 0.639324 0.250000
O O12 0.650458 0.690326 0.168247
O O13 0.660334 0.600866 0.335664
O O14 0.284733 0.605099 0.479525
O O15 0.725977 0.028521 0.314281
O O16 0.657231 0.091292 0.127596
O O17 0.782086 0.009075 0.052730
O O18 0.000000 0.637303 0.250000
#
# Coordination Sequence:
#
# PCOD8139628 Si02
#       8
#     8   8   8   8   8   8   8   8
#     4  11  22  39  65  93 129 160 213 256 319 384
#     4  10  20  39  65  95 121 170 202 254 323 385
#     4  12  23  38  61  94 131 168 205 250 315 385
#     4  11  24  44  64  89 127 166 214 276 323 368
#     4  10  22  41  67  88 128 167 208 259 325 378
#     4  11  25  40  66  90 128 172 213 263 319 379
#     4  11  22  41  62  92 126 169 211 261 313 381
#     4  12  22  40  64  95 133 170 202 250 317 394
#
# _framework density 19.994143999999999
#
# number of rings (size 3 to 8) (size 9 to 14) (size 15 to 20)
#    0.000    1.000    5.000    3.375    0.000    3.500 
#    4.500    2.500    2.750    0.000    0.000    0.000 
#    0.000    0.000    0.000    0.000    0.000    0.000 
#
# Total GULP energy -396499.868865 kJ/mol
# GULP energy per Si atom -12390.620902 kJ/mol
# Density = 1.994864 g / cm^3
# Si number density = 19.994144 Si / 1000 Ang^3
#
#
#
# Elastic Constant Matrix: (Units=GPa)
#
#
# Indices 1 2 3 4 5 6 
#
# 1 90.4519 35.6238 47.1820 0.0000 5.1635 0.0000
# 2 35.6238 113.2340 71.3736 0.0000 0.1808 0.0000
# 3 47.1820 71.3736 140.1226 0.0000 -4.9821 0.0000
# 4 0.0000 0.0000 0.0000 34.8347 0.0000 4.0864
# 5 5.1635 0.1808 -4.9821 0.0000 30.7137 0.0000
# 6 0.0000 0.0000 0.0000 4.0864 0.0000 26.5152
#
#
#
# Elastic Compliance Matrix: (Units=1/GPa)
#
#
# Indices 1 2 3 4 5 6 
#
# 1 0.013994 -0.002005 -0.003796 0.000000 -0.002957 0.000000
# 2 -0.002005 0.013336 -0.006144 0.000000 -0.000738 0.000000
# 3 -0.003796 -0.006144 0.011635 0.000000 0.002562 0.000000
# 4 0.000000 0.000000 0.000000 0.029236 0.000000 -0.004506
# 5 -0.002957 -0.000738 0.002562 0.000000 0.033476 0.000000
# 6 0.000000 0.000000 0.000000 -0.004506 0.000000 0.038409
#
#
# Mechanical properties :
#
#
# Convention : Reuss Voigt Hill
#
# Bulk Modulus (GPa) = 66.33324 72.46303 69.39813
# Shear Modulus (GPa) = 29.58574 31.05465 30.32020
#
# Velocity S-wave (km/s) = 3.85089 3.94533 3.89839
# Velocity P-wave (km/s) = 7.28154 7.55479 7.41942
#
# Compressibility (1/GPa) = 0.01507540
#
# Stress axis : x y z
#
# Youngs Moduli (GPa) = 71.45852 74.98546 85.94558
#
# Poissons Ratio (x) = 0.15037 0.32623
# Poissons Ratio (y) = 0.14330 0.52804
# Poissons Ratio (z) = 0.27124 0.46070
#
# Static dielectric constant tensor:
#      x y z
#    x 3.528770 0.000000 -0.319170 
#    y 0.000000 3.660120 0.000000 
#    z -0.319170 0.000000 1.204160 
# 
# 
# High freq. dielectric constant tensor:
#      x y z
#    x 1.775070 0.000000 0.009810 
#    y 0.000000 1.780530 0.000000 
#    z 0.009810 0.000000 1.787080 
# 
# From -- ./inp_files/42668.got.cif
#   From: 2010.06.25/outbox.cif.g09.slc.cpg/sg15_22_cif.got.tgz:42668.got - 2010.06.28 07:06:18.
