data_PCOD8139952
_publ_section_title
;
Structure prediction by ZEFSAII (Michael W. Deem and Ramdas Pophale) SiO2 
 PCOD8139952
Probable space group: C 2/C
;
_chemical_formula_sum "Si O2"
_cell_formula_units_Z 60
_cell_length_a 26.527039
_cell_length_b 21.807336
_cell_length_c 12.603941
_cell_angle_alpha 90.000000
_cell_angle_beta 155.989539
_cell_angle_gamma 90.000000
_cell_volume 2966.805693
_symmetry_space_group_name_H-M "C 2/C"
_symmetry_group_IT_number 15
_symmetry_cell_setting 'monoclinic'
loop_
_space_group_symop_operation_xyz
x,y,z
-x,y,1/2-z
-x,-y,-z
x,-y,1/2+z
1/2+x,1/2+y,z
1/2-x,1/2+y,1/2-z
1/2-x,1/2-y,-z
1/2+x,1/2-y,1/2+z
loop_
_atom_site_type_symbol
_atom_site_label
_atom_site_fract_x
_atom_site_fract_y
_atom_site_fract_z
Si Si1 0.175840 0.577013 0.470426
Si Si2 0.357604 0.447508 0.502015
Si Si3 0.678597 0.195084 0.185544
Si Si4 0.595253 0.787943 0.286883
Si Si5 0.000000 0.486578 0.250000
Si Si6 0.865457 0.703125 0.022793
Si Si7 0.711281 0.937268 0.795535
Si Si8 0.768146 0.833933 0.447323
O O1 0.077371 0.529635 0.323374
O O2 0.120518 0.646011 0.369033
O O3 0.202635 0.554482 0.404212
O O4 0.297747 0.575185 0.777321
O O5 0.500000 0.451172 0.750000
O O6 0.311227 0.514880 0.444383
O O7 0.330299 0.400608 0.547487
O O8 0.778631 0.246294 0.410957
O O9 0.750901 0.132224 0.348694
O O10 0.552374 0.203438 0.011083
O O11 0.642666 0.196678 0.994134
O O12 0.666536 0.835050 0.345890
O O13 0.627283 0.716727 0.322521
O O14 0.080637 0.444792 0.483438
O O15 0.000000 0.730008 0.250000
O O16 0.801575 0.682227 0.793064
#
# Coordination Sequence:
#
# PCOD8139952 Si02
#       8
#     8   8   8   8   4   8   8   8
#     4  10  22  39  62  90 118 158 209 250 307 359
#     4  10  24  42  64  87 122 166 203 256 302 373
#     4  10  22  36  60  86 130 163 193 257 305 360
#     4   9  19  38  61  93 114 155 213 256 306 349
#     4  10  20  40  64  88 120 156 200 262 292 354
#     4  10  21  38  56  86 123 160 200 254 302 363
#     4  11  24  39  58  93 123 161 203 246 309 369
#     4   9  20  37  63  88 115 154 210 257 298 363
#
# _framework density 20.223772
#
# number of rings (size 3 to 8) (size 9 to 14) (size 15 to 20)
#    0.000    2.133    0.667    1.200    7.467    4.800 
#    0.000    1.333    0.000    0.000    0.000    0.000 
#    0.000    0.000    0.000    0.000    0.000    0.000 
#
# Total GULP energy -371965.123759 kJ/mol
# GULP energy per Si atom -12398.837459 kJ/mol
# Density = 2.017774 g / cm^3
# Si number density = 20.223772 Si / 1000 Ang^3
#
#
#
# Elastic Constant Matrix: (Units=GPa)
#
#
# Indices 1 2 3 4 5 6 
#
# 1 113.2349 44.1504 49.6630 0.0000 16.9585 0.0000
# 2 44.1504 101.5852 42.7262 0.0000 12.8917 0.0000
# 3 49.6630 42.7262 61.7325 0.0000 31.4999 0.0000
# 4 0.0000 0.0000 0.0000 -70.9004 0.0000 47.5907
# 5 16.9585 12.8917 31.4999 0.0000 33.1827 0.0000
# 6 0.0000 0.0000 0.0000 47.5907 0.0000 -2.1699
#
#
#
# Elastic Compliance Matrix: (Units=1/GPa)
#
#
# Indices 1 2 3 4 5 6 
#
# 1 0.014548 -0.001169 -0.014221 0.000000 0.006519 0.000000
# 2 -0.001169 0.014937 -0.013075 0.000000 0.007206 0.000000
# 3 -0.014221 -0.013075 0.058936 0.000000 -0.043600 0.000000
# 4 0.000000 0.000000 0.000000 0.001028 0.000000 0.022544
# 5 0.006519 0.007206 -0.043600 0.000000 0.065394 0.000000
# 6 0.000000 0.000000 0.000000 0.022544 0.000000 0.033586
#
#
# Mechanical properties :
#
#
# Convention : Reuss Voigt Hill
#
# Bulk Modulus (GPa) = 31.75416 61.07020 46.41218
# Shear Modulus (GPa) = 19.54243 1.35667 10.44955
#
# Velocity S-wave (km/s) = 3.11193 0.81993 2.27556
# Velocity P-wave (km/s) = 5.35234 5.58204 5.46840
#
# Compressibility (1/GPa) = 0.03149194
#
# Stress axis : x y z
#
# Youngs Moduli (GPa) = 68.73979 66.95007 16.96752
#
# Poissons Ratio (x) = 0.07824 0.24129
# Poissons Ratio (y) = 0.08033 0.22184
# Poissons Ratio (z) = 0.97754 0.87534
#
# Static dielectric constant tensor:
#      x y z
#    x 3.692300 0.000000 0.007310 
#    y 0.000000 3.885040 0.000000 
#    z 0.007310 0.000000 3.617120 
# 
# 
# High freq. dielectric constant tensor:
#      x y z
#    x 1.792120 0.000000 0.001190 
#    y 0.000000 1.794370 0.000000 
#    z 0.001190 0.000000 1.778910 
# 
# From -- ./inp_files/119963.got.cif
#   From: 2010.06.25/outbox.cif.g09.slc.cpg/sg15_60_cif.got.tgz:119963.got - 2010.06.28 07:06:18.
