data_PCOD8139046
_publ_section_title
;
Structure prediction by ZEFSAII (Michael W. Deem and Ramdas Pophale) SiO2 
 PCOD8139046
Probable space group: C 2/C
;
_chemical_formula_sum "Si O2"
_cell_formula_units_Z 64
_cell_length_a 19.251115
_cell_length_b 9.136615
_cell_length_c 17.636973
_cell_angle_alpha 90.000000
_cell_angle_beta 87.997405
_cell_angle_gamma 90.000000
_cell_volume 3100.272978
_symmetry_space_group_name_H-M "C 2/C"
_symmetry_group_IT_number 15
_symmetry_cell_setting 'monoclinic'
loop_
_space_group_symop_operation_xyz
x,y,z
-x,y,1/2-z
-x,-y,-z
x,-y,1/2+z
1/2+x,1/2+y,z
1/2-x,1/2+y,1/2-z
1/2-x,1/2-y,-z
1/2+x,1/2-y,1/2+z
loop_
_atom_site_type_symbol
_atom_site_label
_atom_site_fract_x
_atom_site_fract_y
_atom_site_fract_z
Si Si1 0.958964 0.185269 0.358523
Si Si2 0.392102 0.724705 0.205789
Si Si3 0.990878 0.147987 0.871711
Si Si4 0.199920 0.709520 0.431731
Si Si5 0.398248 0.262148 0.251657
Si Si6 0.313766 0.985457 0.702537
Si Si7 0.452000 0.852775 0.506773
Si Si8 0.696339 0.459151 0.315055
O O1 0.900180 0.197450 0.295773
O O2 0.933910 0.290672 0.425452
O O3 0.032081 0.252316 0.330150
O O4 0.966406 0.017943 0.386155
O O5 0.339381 0.852515 0.184616
O O6 0.358497 0.585917 0.166716
O O7 0.054448 0.148828 0.810473
O O8 0.929461 0.241478 0.834235
O O9 0.005338 0.228566 0.949823
O O10 0.250000 0.750000 0.500000
O O11 0.227150 0.590602 0.367651
O O12 0.125306 0.634319 0.454784
O O13 0.196328 0.867783 0.392602
O O14 0.326413 0.352697 0.253858
O O15 0.385148 0.100337 0.220334
O O16 0.268964 0.977380 0.781873
O O17 0.500000 0.000000 0.500000
#
# Coordination Sequence:
#
# PCOD8139046 Si02
#       8
#     8   8   8   8   8   8   8   8
#     4  11  23  37  67  92 129 177 215 283 340 416
#     4  11  21  40  63  98 128 158 235 282 329 391
#     4  11  20  41  63  88 129 169 216 275 338 408
#     4  11  26  47  67  95 146 185 221 283 361 419
#     4  10  20  38  64  90 123 166 215 271 341 384
#     4  11  24  38  65  99 130 176 226 281 331 410
#     4  12  26  41  64  99 139 177 227 282 362 409
#     4  11  21  42  65  94 128 177 223 272 332 420
#
# _framework density 20.643343999999999
#
# number of rings (size 3 to 8) (size 9 to 14) (size 15 to 20)
#    0.000    1.000    5.000    3.375    5.250    1.000 
#    0.000    0.625    0.000    0.000    0.000    0.000 
#    0.000    0.000    0.000    0.000    0.000    0.000 
#
# Total GULP energy -396473.252521 kJ/mol
# GULP energy per Si atom -12389.789141 kJ/mol
# Density = 2.059636 g / cm^3
# Si number density = 20.643344 Si / 1000 Ang^3
#
#
#
# Elastic Constant Matrix: (Units=GPa)
#
#
# Indices 1 2 3 4 5 6 
#
# 1 74.2779 31.4909 30.8498 0.0000 8.8495 0.0000
# 2 31.4909 106.8723 45.4413 0.0000 10.0820 0.0000
# 3 30.8498 45.4413 92.9900 0.0000 12.8769 0.0000
# 4 0.0000 0.0000 0.0000 34.9669 0.0000 -4.3543
# 5 8.8495 10.0820 12.8769 0.0000 37.2510 0.0000
# 6 0.0000 0.0000 0.0000 -4.3543 0.0000 28.6904
#
#
#
# Elastic Compliance Matrix: (Units=1/GPa)
#
#
# Indices 1 2 3 4 5 6 
#
# 1 0.016545 -0.003127 -0.003711 0.000000 -0.001801 0.000000
# 2 -0.003127 0.012459 -0.004922 0.000000 -0.000928 0.000000
# 3 -0.003711 -0.004922 0.014792 0.000000 -0.002899 0.000000
# 4 0.000000 0.000000 0.000000 0.029149 0.000000 0.004424
# 5 -0.001801 -0.000928 -0.002899 0.000000 0.028526 0.000000
# 6 0.000000 0.000000 0.000000 0.004424 0.000000 0.035526
#
#
# Mechanical properties :
#
#
# Convention : Reuss Voigt Hill
#
# Bulk Modulus (GPa) = 49.32409 54.41157 51.86783
# Shear Modulus (GPa) = 29.89057 31.27220 30.58139
#
# Velocity S-wave (km/s) = 3.80932 3.89637 3.85309
# Velocity P-wave (km/s) = 6.57976 6.83062 6.70637
#
# Compressibility (1/GPa) = 0.02027407
#
# Stress axis : x y z
#
# Youngs Moduli (GPa) = 60.44230 80.26417 67.60429
#
# Poissons Ratio (x) = 0.25100 0.25089
# Poissons Ratio (y) = 0.18901 0.33277
# Poissons Ratio (z) = 0.22431 0.39509
#
# Static dielectric constant tensor:
#      x y z
#    x 3.855400 0.000000 0.109690 
#    y 0.000000 3.801590 0.000000 
#    z 0.109690 0.000000 3.694110 
# 
# 
# High freq. dielectric constant tensor:
#      x y z
#    x 1.805500 0.000000 0.006490 
#    y 0.000000 1.814440 0.000000 
#    z 0.006490 0.000000 1.795000 
# 
# From -- ./inp_files/213903.got.cif
#   From: 2010.06.25/outbox.cif.g09.slc.cpg/sg15_107_cif.got.tgz:213903.got - 2010.06.28 07:06:18.
