data_PCOD8139518
_publ_section_title
;
Structure prediction by ZEFSAII (Michael W. Deem and Ramdas Pophale) SiO2 
 PCOD8139518
Probable space group: C 2/C
;
_chemical_formula_sum "Si O2"
_cell_formula_units_Z 40
_cell_length_a 11.658024
_cell_length_b 15.024844
_cell_length_c 10.591818
_cell_angle_alpha 90.000000
_cell_angle_beta 110.687113
_cell_angle_gamma 90.000000
_cell_volume 1735.641927
_symmetry_space_group_name_H-M "C 2/C"
_symmetry_group_IT_number 15
_symmetry_cell_setting 'monoclinic'
loop_
_space_group_symop_operation_xyz
x,y,z
-x,y,1/2-z
-x,-y,-z
x,-y,1/2+z
1/2+x,1/2+y,z
1/2-x,1/2+y,1/2-z
1/2-x,1/2-y,-z
1/2+x,1/2-y,1/2+z
loop_
_atom_site_type_symbol
_atom_site_label
_atom_site_fract_x
_atom_site_fract_y
_atom_site_fract_z
Si Si1 0.921694 0.090766 0.472677
Si Si2 0.919356 0.245364 0.964976
Si Si3 0.318721 0.665369 0.173948
Si Si4 0.480199 0.909418 0.378259
Si Si5 0.794828 0.512968 0.961407
O O1 0.893908 0.132670 0.324397
O O2 0.793308 0.078563 0.494761
O O3 0.004595 0.166293 0.575017
O O4 0.000000 0.000000 0.500000
O O5 0.898578 0.216587 0.102217
O O6 0.996896 0.336258 0.004051
O O7 0.795575 0.268486 0.838252
O O8 0.274914 0.577991 0.084871
O O9 0.500000 0.864565 0.250000
O O10 0.339295 0.942514 0.345900
O O11 0.575852 0.992768 0.418050
#
# Coordination Sequence:
#
# PCOD8139518 Si02
#       5
#     8   8   8   8   8
#     4  12  23  39  68 102 134 172 219 290 338 399
#     4  10  22  40  66  92 129 180 223 266 329 404
#     4  10  21  42  64  95 134 173 227 266 325 419
#     4  10  20  39  63  91 127 180 223 271 327 407
#     4  10  22  37  63  95 132 170 224 272 341 390
#
# _framework density 23.046227999999999
#
# number of rings (size 3 to 8) (size 9 to 14) (size 15 to 20)
#    0.000    1.600    2.000    3.000    0.000    0.800 
#    3.600    0.000    4.400    0.000    0.000    0.000 
#    0.000    0.000    0.000    0.000    0.000    0.000 
#
# Total GULP energy -247775.962839 kJ/mol
# GULP energy per Si atom -12388.798142 kJ/mol
# Density = 2.299377 g / cm^3
# Si number density = 23.046228 Si / 1000 Ang^3
#
#
#
# Elastic Constant Matrix: (Units=GPa)
#
#
# Indices 1 2 3 4 5 6 
#
# 1 124.9640 52.4444 19.1877 0.0000 6.3948 0.0000
# 2 52.4444 121.0011 18.8797 0.0000 8.4411 0.0000
# 3 19.1877 18.8797 62.9764 0.0000 11.9831 0.0000
# 4 0.0000 0.0000 0.0000 37.0809 0.0000 6.7479
# 5 6.3948 8.4411 11.9831 0.0000 21.7054 0.0000
# 6 0.0000 0.0000 0.0000 6.7479 0.0000 52.7022
#
#
#
# Elastic Compliance Matrix: (Units=1/GPa)
#
#
# Indices 1 2 3 4 5 6 
#
# 1 0.009982 -0.004024 -0.001758 0.000000 -0.000406 0.000000
# 2 -0.004024 0.010384 -0.001502 0.000000 -0.002024 0.000000
# 3 -0.001758 -0.001502 0.018610 0.000000 -0.009172 0.000000
# 4 0.000000 0.000000 0.000000 0.027611 0.000000 -0.003535
# 5 -0.000406 -0.002024 -0.009172 0.000000 0.052042 0.000000
# 6 0.000000 0.000000 0.000000 -0.003535 0.000000 0.019427
#
#
# Mechanical properties :
#
#
# Convention : Reuss Voigt Hill
#
# Bulk Modulus (GPa) = 40.96908 54.44057 47.70483
# Shear Modulus (GPa) = 31.10247 36.85969 33.98108
#
# Velocity S-wave (km/s) = 3.67763 4.00356 3.84405
# Velocity P-wave (km/s) = 5.98739 6.71156 6.35979
#
# Compressibility (1/GPa) = 0.02440865
#
# Stress axis : x y z
#
# Youngs Moduli (GPa) = 100.18434 96.30331 53.73428
#
# Poissons Ratio (x) = 0.38749 0.09445
# Poissons Ratio (y) = 0.40311 0.08071
# Poissons Ratio (z) = 0.17610 0.14465
#
# Static dielectric constant tensor:
#      x y z
#    x 4.627210 0.000000 0.280390 
#    y 0.000000 4.388670 0.000000 
#    z 0.280390 0.000000 3.767080 
# 
# 
# High freq. dielectric constant tensor:
#      x y z
#    x 1.921950 0.000000 0.019630 
#    y 0.000000 1.926980 0.000000 
#    z 0.019630 0.000000 1.865600 
# 
# From -- ./inp_files/86256.got.cif
#   From: 2010.06.25/outbox.cif.g09.slc.cpg/sg15_44_cif.got.tgz:86256.got - 2010.06.28 07:06:18.
