data_PCOD8139649
_publ_section_title
;
Structure prediction by ZEFSAII (Michael W. Deem and Ramdas Pophale) SiO2 
 PCOD8139649
Probable space group: C 2/C
;
_chemical_formula_sum "Si O2"
_cell_formula_units_Z 48
_cell_length_a 30.633158
_cell_length_b 12.768335
_cell_length_c 19.795673
_cell_angle_alpha 90.000000
_cell_angle_beta 17.944933
_cell_angle_gamma 90.000000
_cell_volume 2385.568783
_symmetry_space_group_name_H-M "C 2/C"
_symmetry_group_IT_number 15
_symmetry_cell_setting 'monoclinic'
loop_
_space_group_symop_operation_xyz
x,y,z
-x,y,1/2-z
-x,-y,-z
x,-y,1/2+z
1/2+x,1/2+y,z
1/2-x,1/2+y,1/2-z
1/2-x,1/2-y,-z
1/2+x,1/2-y,1/2+z
loop_
_atom_site_type_symbol
_atom_site_label
_atom_site_fract_x
_atom_site_fract_y
_atom_site_fract_z
Si Si1 0.282668 0.238335 0.253785
Si Si2 0.754725 0.078792 0.486727
Si Si3 0.623843 0.934258 0.787558
Si Si4 0.027457 0.751415 0.788912
Si Si5 0.780285 0.875278 0.378120
Si Si6 0.540479 0.228567 0.303205
O O1 0.292927 0.126759 0.276275
O O2 0.332338 0.336372 0.227996
O O3 0.120482 0.248383 0.474142
O O4 0.377151 0.240080 0.047393
O O5 0.891909 0.148790 0.298703
O O6 0.618290 0.147819 0.669451
O O7 0.728972 0.008806 0.591114
O O8 0.778720 0.001543 0.386884
O O9 0.544786 0.850711 0.858381
O O10 0.500000 0.000000 0.000000
O O11 0.000000 0.766219 0.750000
O O12 0.623484 0.823472 0.617881
O O13 0.880885 0.835576 0.290970
#
# Coordination Sequence:
#
# PCOD8139649 Si02
#       6
#     8   8   8   8   8   8
#     4  11  22  39  67  95 121 161 211 259 309 374
#     4  10  23  44  61  86 129 164 206 256 312 373
#     4  10  20  39  66  89 121 167 205 248 314 368
#     4  11  26  41  59  88 129 169 203 254 307 373
#     4   9  20  40  63  90 123 160 199 266 317 357
#     4   9  20  36  63  95 126 150 204 265 311 363
#
# _framework density 20.120987
#
# number of rings (size 3 to 8) (size 9 to 14) (size 15 to 20)
#    0.000    2.000    1.667    1.500    2.333    6.000 
#    0.000    0.000    0.000    0.000    0.000    0.000 
#    0.000    0.000    0.000    0.000    0.000    0.000 
#
# Total GULP energy -297556.860642 kJ/mol
# GULP energy per Si atom -12398.202527 kJ/mol
# Density = 2.007519 g / cm^3
# Si number density = 20.120987 Si / 1000 Ang^3
#
#
#
# Elastic Constant Matrix: (Units=GPa)
#
#
# Indices 1 2 3 4 5 6 
#
# 1 78.6057 28.9583 44.6863 0.0006 3.2147 -0.0004
# 2 28.9583 124.2748 46.0357 0.0006 -4.5211 -0.0006
# 3 44.6863 46.0357 92.1771 0.0012 -13.2016 -0.0010
# 4 0.0006 0.0006 0.0012 28.4678 -0.0006 5.7790
# 5 3.2147 -4.5211 -13.2016 -0.0006 33.8473 0.0003
# 6 -0.0004 -0.0006 -0.0010 5.7790 0.0003 18.4340
#
#
#
# Elastic Compliance Matrix: (Units=1/GPa)
#
#
# Indices 1 2 3 4 5 6 
#
# 1 0.018625 -0.001108 -0.009268 0.000000 -0.005532 0.000000
# 2 -0.001108 0.009952 -0.004478 0.000000 -0.000312 0.000000
# 3 -0.009268 -0.004478 0.018661 -0.000001 0.007561 0.000001
# 4 0.000000 0.000000 -0.000001 0.037515 0.000001 -0.011761
# 5 -0.005532 -0.000312 0.007561 0.000001 0.032977 0.000000
# 6 0.000000 0.000000 0.000001 -0.011761 0.000000 0.057935
#
#
# Mechanical properties :
#
#
# Convention : Reuss Voigt Hill
#
# Bulk Modulus (GPa) = 57.04458 59.37981 58.21219
# Shear Modulus (GPa) = 23.67243 27.84163 25.75703
#
# Velocity S-wave (km/s) = 3.43374 3.72386 3.58174
# Velocity P-wave (km/s) = 6.64328 6.93289 6.78963
#
# Compressibility (1/GPa) = 0.01753015
#
# Stress axis : x y z
#
# Youngs Moduli (GPa) = 53.69162 100.47906 53.58784
#
# Poissons Ratio (x) = 0.11133 0.49665
# Poissons Ratio (y) = 0.05949 0.23997
# Poissons Ratio (z) = 0.49761 0.44994
#
# Static dielectric constant tensor:
#      x y z
#    x 3.681140 0.000000 0.047040 
#    y 0.000000 3.915700 0.000000 
#    z 0.047040 0.000000 3.439910 
# 
# 
# High freq. dielectric constant tensor:
#      x y z
#    x 1.780240 0.000000 0.004940 
#    y 0.000000 1.793130 0.000000 
#    z 0.004940 0.000000 1.784800 
# 
# From -- ./inp_files/243990.got.cif
#   From: 2010.06.25/outbox.cif.g09.slc.cpg/sg15_122_cif.got.tgz:243990.got - 2010.06.28 07:06:18.
