data_PCOD8139168
_publ_section_title
;
Structure prediction by ZEFSAII (Michael W. Deem and Ramdas Pophale) SiO2 
 PCOD8139168
Probable space group: C 2/C
;
_chemical_formula_sum "Si O2"
_cell_formula_units_Z 60
_cell_length_a 8.203520
_cell_length_b 15.338211
_cell_length_c 22.891809
_cell_angle_alpha 90.000000
_cell_angle_beta 93.460859
_cell_angle_gamma 90.000000
_cell_volume 2875.161894
_symmetry_space_group_name_H-M "C 2/C"
_symmetry_group_IT_number 15
_symmetry_cell_setting 'monoclinic'
loop_
_space_group_symop_operation_xyz
x,y,z
-x,y,1/2-z
-x,-y,-z
x,-y,1/2+z
1/2+x,1/2+y,z
1/2-x,1/2+y,1/2-z
1/2-x,1/2-y,-z
1/2+x,1/2-y,1/2+z
loop_
_atom_site_type_symbol
_atom_site_label
_atom_site_fract_x
_atom_site_fract_y
_atom_site_fract_z
Si Si1 0.234302 0.803345 0.389525
Si Si2 0.938579 0.767864 0.461591
Si Si3 0.525437 0.063188 0.055676
Si Si4 0.401795 0.243313 0.586642
Si Si5 0.775484 0.521858 0.840634
Si Si6 0.500000 0.976314 0.750000
Si Si7 0.542008 0.374231 0.814409
Si Si8 0.704267 0.887877 0.849803
O O1 0.430027 0.814549 0.407941
O O2 0.185698 0.887059 0.350334
O O3 0.196354 0.717031 0.352594
O O4 0.112320 0.803606 0.442515
O O5 0.930275 0.661664 0.461874
O O6 0.776397 0.804981 0.423771
O O7 0.925078 0.800894 0.528182
O O8 0.364494 0.066452 0.093370
O O9 0.669313 0.021702 0.097353
O O10 0.500000 0.000000 0.000000
O O11 0.378542 0.298756 0.644743
O O12 0.659909 0.454458 0.805219
O O13 0.916476 0.539199 0.795884
O O14 0.615055 0.911566 0.788332
O O15 0.500000 0.333914 0.750000
O O16 0.391673 0.414583 0.847504
#
# Coordination Sequence:
#
# PCOD8139168 Si02
#       8
#     8   8   8   8   8   4   8   8
#     4  10  22  40  61  92 125 162 205 265 312 372
#     4  10  20  40  65  91 130 165 209 258 311 386
#     4  10  20  38  66  92 125 165 203 259 321 374
#     4  10  21  39  64  93 122 170 211 250 312 375
#     4  11  22  40  60  92 126 155 209 261 314 368
#     4  10  20  42  62  82 120 168 206 254 310 382
#     4  11  21  40  63  87 123 165 211 258 308 373
#     4   9  21  40  65  86 119 169 209 247 317 375
#
# _framework density 20.868390999999999
#
# number of rings (size 3 to 8) (size 9 to 14) (size 15 to 20)
#    0.000    1.867    2.667    1.200    0.000    2.133 
#   15.600    1.333    0.000    0.000    0.000    0.000 
#    0.000    0.000    0.000    0.000    0.000    0.000 
#
# Total GULP energy -371660.382541 kJ/mol
# GULP energy per Si atom -12388.679418 kJ/mol
# Density = 2.082089 g / cm^3
# Si number density = 20.868391 Si / 1000 Ang^3
#
#
#
# Elastic Constant Matrix: (Units=GPa)
#
#
# Indices 1 2 3 4 5 6 
#
# 1 77.0059 9.5685 19.8051 0.0000 -8.9451 0.0000
# 2 9.5685 62.1347 42.7777 0.0000 -9.6998 0.0000
# 3 19.8051 42.7777 129.0077 0.0000 1.7715 0.0000
# 4 0.0000 0.0000 0.0000 24.6112 0.0000 -2.0376
# 5 -8.9451 -9.6998 1.7715 0.0000 29.9548 0.0000
# 6 0.0000 0.0000 0.0000 -2.0376 0.0000 20.6500
#
#
#
# Elastic Compliance Matrix: (Units=1/GPa)
#
#
# Indices 1 2 3 4 5 6 
#
# 1 0.014059 0.000053 -0.002236 0.000000 0.004348 0.000000
# 2 0.000053 0.022515 -0.007580 0.000000 0.007755 0.000000
# 3 -0.002236 -0.007580 0.010660 0.000000 -0.003753 0.000000
# 4 0.000000 0.000000 0.000000 0.040967 0.000000 0.004042
# 5 0.004348 0.007755 -0.003753 0.000000 0.037415 0.000000
# 6 0.000000 0.000000 0.000000 0.004042 0.000000 0.048825
#
#
# Mechanical properties :
#
#
# Convention : Reuss Voigt Hill
#
# Bulk Modulus (GPa) = 36.09052 45.82788 40.95920
# Shear Modulus (GPa) = 24.60581 28.10967 26.35774
#
# Velocity S-wave (km/s) = 3.43752 3.67413 3.55779
# Velocity P-wave (km/s) = 5.75215 6.32511 6.04543
#
# Compressibility (1/GPa) = 0.02770810
#
# Stress axis : x y z
#
# Youngs Moduli (GPa) = 71.12646 44.41388 93.81016
#
# Poissons Ratio (x) = -0.00234 0.20972
# Poissons Ratio (y) = -0.00375 0.71113
# Poissons Ratio (z) = 0.15901 0.33668
#
# Static dielectric constant tensor:
#      x y z
#    x 4.189940 0.000000 -0.130400 
#    y 0.000000 3.396070 0.000000 
#    z -0.130400 0.000000 3.825450 
# 
# 
# High freq. dielectric constant tensor:
#      x y z
#    x 1.829340 0.000000 -0.009100 
#    y 0.000000 1.778030 0.000000 
#    z -0.009100 0.000000 1.827770 
# 
# From -- ./inp_files/264329.got.cif
#   From: 2010.06.25/outbox.cif.g09.slc.cpg/sg15_133_cif.got.tgz:264329.got - 2010.06.28 07:06:18.
