data_PCOD8139897
_publ_section_title
;
Structure prediction by ZEFSAII (Michael W. Deem and Ramdas Pophale) SiO2 
 PCOD8139897
Probable space group: C 2/C
;
_chemical_formula_sum "Si O2"
_cell_formula_units_Z 44
_cell_length_a 14.571207
_cell_length_b 14.063423
_cell_length_c 9.713927
_cell_angle_alpha 90.000000
_cell_angle_beta 96.809822
_cell_angle_gamma 90.000000
_cell_volume 1976.544889
_symmetry_space_group_name_H-M "C 2/C"
_symmetry_group_IT_number 15
_symmetry_cell_setting 'monoclinic'
loop_
_space_group_symop_operation_xyz
x,y,z
-x,y,1/2-z
-x,-y,-z
x,-y,1/2+z
1/2+x,1/2+y,z
1/2-x,1/2+y,1/2-z
1/2-x,1/2-y,-z
1/2+x,1/2-y,1/2+z
loop_
_atom_site_type_symbol
_atom_site_label
_atom_site_fract_x
_atom_site_fract_y
_atom_site_fract_z
Si Si1 0.034028 0.862953 0.541282
Si Si2 0.598340 0.099738 0.305518
Si Si3 0.331646 0.197969 0.929352
Si Si4 0.500000 0.721819 0.750000
Si Si5 0.638493 0.467214 0.951422
Si Si6 0.750480 0.451375 0.227413
O O1 0.091217 0.773345 0.609650
O O2 0.004300 0.845802 0.379595
O O3 0.937861 0.886731 0.604754
O O4 0.097060 0.955925 0.550896
O O5 0.500000 0.048951 0.250000
O O6 0.620007 0.114178 0.471943
O O7 0.590806 0.209345 0.248547
O O8 0.678014 0.038681 0.250952
O O9 0.293133 0.147795 0.786585
O O10 0.250000 0.250000 0.000000
O O11 0.669863 0.517195 0.817254
O O12 0.720147 0.427690 0.064883
#
# Coordination Sequence:
#
# PCOD8139897 Si02
#       6
#     8   8   8   4   8   8
#     4  10  20  40  62  98 123 174 217 263 322 404
#     4   9  21  39  65  91 125 171 221 265 319 398
#     4  11  21  39  68  92 125 177 223 256 328 405
#     4   8  18  38  68  88 124 174 220 250 328 396
#     4  11  24  38  71  96 133 166 217 274 336 382
#     4  12  22  42  65 100 130 170 221 272 328 394
#
# _framework density 22.261068999999999
#
# number of rings (size 3 to 8) (size 9 to 14) (size 15 to 20)
#    0.545    1.091    3.636    1.091    2.545    2.909 
#    0.000    0.909   12.000    0.000    0.000    0.000 
#    0.000    0.000    0.000    0.000    0.000    0.000 
#
# Total GULP energy -272553.678049 kJ/mol
# GULP energy per Si atom -12388.803548 kJ/mol
# Density = 2.221040 g / cm^3
# Si number density = 22.261069 Si / 1000 Ang^3
#
#
#
# Elastic Constant Matrix: (Units=GPa)
#
#
# Indices 1 2 3 4 5 6 
#
# 1 95.4922 32.0088 2.3422 0.0000 7.0792 0.0000
# 2 32.0088 86.2725 6.8121 0.0000 1.2111 0.0000
# 3 2.3422 6.8121 39.5291 0.0000 11.8506 0.0000
# 4 0.0000 0.0000 0.0000 32.8412 0.0000 -3.1708
# 5 7.0792 1.2111 11.8506 0.0000 22.3762 0.0000
# 6 0.0000 0.0000 0.0000 -3.1708 0.0000 45.5400
#
#
#
# Elastic Compliance Matrix: (Units=1/GPa)
#
#
# Indices 1 2 3 4 5 6 
#
# 1 0.012309 -0.004614 0.001377 0.000000 -0.004374 0.000000
# 2 -0.004614 0.013486 -0.002698 0.000000 0.002159 0.000000
# 3 0.001377 -0.002698 0.030631 0.000000 -0.016512 0.000000
# 4 0.000000 0.000000 0.000000 0.030656 0.000000 0.002134
# 5 -0.004374 0.002159 -0.016512 0.000000 0.054702 0.000000
# 6 0.000000 0.000000 0.000000 0.002134 0.000000 0.022107
#
#
# Mechanical properties :
#
#
# Convention : Reuss Voigt Hill
#
# Bulk Modulus (GPa) = 22.44341 33.73558 28.08949
# Shear Modulus (GPa) = 26.23104 32.16021 29.19562
#
# Velocity S-wave (km/s) = 3.43642 3.80502 3.62541
# Velocity P-wave (km/s) = 5.08420 5.87296 5.49276
#
# Compressibility (1/GPa) = 0.04455650
#
# Stress axis : x y z
#
# Youngs Moduli (GPa) = 81.23976 74.15156 32.64626
#
# Poissons Ratio (x) = 0.34216 -0.04496
# Poissons Ratio (y) = 0.37487 0.08807
# Poissons Ratio (z) = -0.11187 0.20005
#
# Static dielectric constant tensor:
#      x y z
#    x 4.160170 0.000000 0.484270 
#    y 0.000000 3.904340 0.000000 
#    z 0.484270 0.000000 3.786880 
# 
# 
# High freq. dielectric constant tensor:
#      x y z
#    x 1.868510 0.000000 0.038360 
#    y 0.000000 1.867380 0.000000 
#    z 0.038360 0.000000 1.866530 
# 
# From -- ./inp_files/54908.got.cif
#   From: 2010.06.25/outbox.cif.g09.slc.cpg/sg15_28_cif.got.tgz:54908.got - 2010.06.28 07:06:18.
