data_PCOD8139303
_publ_section_title
;
Structure prediction by ZEFSAII (Michael W. Deem and Ramdas Pophale) SiO2 
 PCOD8139303
Probable space group: C 2/C
;
_chemical_formula_sum "Si O2"
_cell_formula_units_Z 56
_cell_length_a 26.634105
_cell_length_b 20.971895
_cell_length_c 8.861438
_cell_angle_alpha 90.000000
_cell_angle_beta 32.978835
_cell_angle_gamma 90.000000
_cell_volume 2694.273086
_symmetry_space_group_name_H-M "C 2/C"
_symmetry_group_IT_number 15
_symmetry_cell_setting 'monoclinic'
loop_
_space_group_symop_operation_xyz
x,y,z
-x,y,1/2-z
-x,-y,-z
x,-y,1/2+z
1/2+x,1/2+y,z
1/2-x,1/2+y,1/2-z
1/2-x,1/2-y,-z
1/2+x,1/2-y,1/2+z
loop_
_atom_site_type_symbol
_atom_site_label
_atom_site_fract_x
_atom_site_fract_y
_atom_site_fract_z
Si Si1 0.000000 0.906418 0.250000
Si Si2 0.840260 0.198466 0.906168
Si Si3 0.204615 0.503081 0.115344
Si Si4 0.000000 0.683231 0.250000
Si Si5 0.549030 0.292851 0.924059
Si Si6 0.857165 0.411977 0.984026
Si Si7 0.180107 0.935570 0.923420
Si Si8 0.716757 0.689128 0.786567
O O1 0.944044 0.859954 0.505285
O O2 0.926163 0.953196 0.352860
O O3 0.797896 0.180432 0.853372
O O4 0.947313 0.214139 0.610778
O O5 0.821258 0.140485 0.066135
O O6 0.792780 0.256267 0.113561
O O7 0.137220 0.464075 0.396447
O O8 0.141303 0.554766 0.185689
O O9 0.289455 0.534328 0.993888
O O10 0.247883 0.455767 0.884634
O O11 0.933648 0.730589 0.513784
O O12 0.940823 0.637829 0.288100
O O13 0.622855 0.291954 0.605109
O O14 0.758402 0.376218 0.248404
#
# Coordination Sequence:
#
# PCOD8139303 Si02
#       8
#     4   8   8   4   8   8   8   8
#     4   9  20  36  58  88 130 156 201 264 312 378
#     4  10  21  38  61  95 127 159 211 261 317 390
#     4  10  23  40  64  85 122 171 222 254 313 379
#     4  11  24  40  62  92 132 156 223 270 314 398
#     4  10  21  38  59  98 130 161 199 261 325 394
#     4  11  23  43  64  92 123 172 216 268 320 377
#     4  10  20  39  58  88 123 161 210 263 303 385
#     4  11  21  37  67  90 126 169 202 261 334 373
#
# _framework density 20.784825999999999
#
# number of rings (size 3 to 8) (size 9 to 14) (size 15 to 20)
#    0.000    1.714    2.857    1.286    2.000    1.714 
#    0.000    1.429    0.000    0.000    0.000    0.000 
#    0.000    0.000    0.000    0.000    0.000    0.000 
#
# Total GULP energy -347120.402800 kJ/mol
# GULP energy per Si atom -12397.157243 kJ/mol
# Density = 2.073752 g / cm^3
# Si number density = 20.784826 Si / 1000 Ang^3
#
#
#
# Elastic Constant Matrix: (Units=GPa)
#
#
# Indices 1 2 3 4 5 6 
#
# 1 76.0052 14.1254 1.8689 0.0000 -0.5718 0.0000
# 2 14.1254 45.9653 12.2335 0.0000 -0.5492 0.0000
# 3 1.8689 12.2335 67.1989 0.0000 0.8904 0.0000
# 4 0.0000 0.0000 0.0000 21.2599 0.0000 -1.1023
# 5 -0.5718 -0.5492 0.8904 0.0000 26.7174 0.0000
# 6 0.0000 0.0000 0.0000 -1.1023 0.0000 39.0578
#
#
#
# Elastic Compliance Matrix: (Units=1/GPa)
#
#
# Indices 1 2 3 4 5 6 
#
# 1 0.013966 -0.004398 0.000410 0.000000 0.000195 0.000000
# 2 -0.004398 0.024258 -0.004301 0.000000 0.000548 0.000000
# 3 0.000410 -0.004301 0.015661 0.000000 -0.000602 0.000000
# 4 0.000000 0.000000 0.000000 0.047106 0.000000 0.001329
# 5 0.000195 0.000548 -0.000602 0.000000 0.037464 0.000000
# 6 0.000000 0.000000 0.000000 0.001329 0.000000 0.025641
#
#
# Mechanical properties :
#
#
# Convention : Reuss Voigt Hill
#
# Bulk Modulus (GPa) = 26.80584 27.29166 27.04875
# Shear Modulus (GPa) = 25.89189 28.13648 27.01418
#
# Velocity S-wave (km/s) = 3.53329 3.68326 3.60906
# Velocity P-wave (km/s) = 5.43786 5.58996 5.51444
#
# Compressibility (1/GPa) = 0.03730531
#
# Stress axis : x y z
#
# Youngs Moduli (GPa) = 71.60337 41.22268 63.85376
#
# Poissons Ratio (x) = 0.18132 -0.02616
# Poissons Ratio (y) = 0.31495 0.27465
# Poissons Ratio (z) = -0.02934 0.17731
#
# Static dielectric constant tensor:
#      x y z
#    x 4.120400 0.000000 -0.030140 
#    y 0.000000 3.847840 0.000000 
#    z -0.030140 0.000000 3.287140 
# 
# 
# High freq. dielectric constant tensor:
#      x y z
#    x 1.835700 0.000000 0.000020 
#    y 0.000000 1.816810 0.000000 
#    z 0.000020 0.000000 1.779410 
# 
# From -- ./inp_files/49058.got.cif
#   From: 2010.06.25/outbox.cif.g09.slc.cpg/sg15_25_cif.got.tgz:49058.got - 2010.06.28 07:06:18.
