data_PCOD8139126
_publ_section_title
;
Structure prediction by ZEFSAII (Michael W. Deem and Ramdas Pophale) SiO2 
 PCOD8139126
Probable space group: C 2/C
;
_chemical_formula_sum "Si O2"
_cell_formula_units_Z 56
_cell_length_a 26.900251
_cell_length_b 9.679720
_cell_length_c 11.226499
_cell_angle_alpha 90.000000
_cell_angle_beta 66.686828
_cell_angle_gamma 90.000000
_cell_volume 2684.567104
_symmetry_space_group_name_H-M "C 2/C"
_symmetry_group_IT_number 15
_symmetry_cell_setting 'monoclinic'
loop_
_space_group_symop_operation_xyz
x,y,z
-x,y,1/2-z
-x,-y,-z
x,-y,1/2+z
1/2+x,1/2+y,z
1/2-x,1/2+y,1/2-z
1/2-x,1/2-y,-z
1/2+x,1/2-y,1/2+z
loop_
_atom_site_type_symbol
_atom_site_label
_atom_site_fract_x
_atom_site_fract_y
_atom_site_fract_z
Si Si1 0.875528 0.674866 0.795008
Si Si2 0.858905 0.556594 0.479388
Si Si3 0.437966 0.259672 0.272986
Si Si4 0.370027 0.479016 0.847495
Si Si5 0.306181 0.501368 0.156684
Si Si6 0.281460 0.795679 0.202456
Si Si7 0.059892 0.526955 0.401878
O O1 0.842521 0.567142 0.907180
O O2 0.891368 0.821477 0.838307
O O3 0.837185 0.709771 0.721991
O O4 0.929995 0.592989 0.706258
O O5 0.896811 0.680992 0.399115
O O6 0.799742 0.617080 0.569232
O O7 0.892958 0.479733 0.547596
O O8 0.500000 0.247301 0.250000
O O9 0.421278 0.419795 0.284682
O O10 0.433955 0.183322 0.150384
O O11 0.335648 0.503875 0.758410
O O12 0.341698 0.508351 0.002307
O O13 0.267149 0.636414 0.188360
O O14 0.268938 0.365177 0.183265
O O15 0.000000 0.500000 0.500000
#
# Coordination Sequence:
#
# PCOD8139126 Si02
#       7
#     8   8   8   8   8   8   8
#     4   9  23  39  62  91 133 166 215 268 324 388
#     4  10  20  40  64  90 130 164 222 265 319 388
#     4  11  22  41  66  93 130 174 214 275 330 383
#     4  11  26  46  63  99 136 172 214 278 324 398
#     4  11  26  43  69  93 136 168 223 266 332 388
#     4  10  23  41  64  95 127 172 211 273 323 388
#     4  10  20  38  65  93 122 171 222 268 320 385
#
# _framework density 20.859974999999999
#
# number of rings (size 3 to 8) (size 9 to 14) (size 15 to 20)
#    0.000    1.714    2.857    0.000    6.000    4.000 
#    2.571    1.429    0.000    0.000    0.000    0.000 
#    0.000    0.000    0.000    0.000    0.000    0.000 
#
# Total GULP energy -346875.155615 kJ/mol
# GULP energy per Si atom -12388.398415 kJ/mol
# Density = 2.081250 g / cm^3
# Si number density = 20.859975 Si / 1000 Ang^3
#
#
#
# Elastic Constant Matrix: (Units=GPa)
#
#
# Indices 1 2 3 4 5 6 
#
# 1 27.1820 1.8729 10.0340 0.0000 -1.6052 0.0000
# 2 1.8729 139.4873 25.7777 0.0000 -2.2267 0.0000
# 3 10.0340 25.7777 100.5151 0.0000 4.0011 0.0000
# 4 0.0000 0.0000 0.0000 23.7031 0.0000 -3.2707
# 5 -1.6052 -2.2267 4.0011 0.0000 26.6615 0.0000
# 6 0.0000 0.0000 0.0000 -3.2707 0.0000 48.1016
#
#
#
# Elastic Compliance Matrix: (Units=1/GPa)
#
#
# Indices 1 2 3 4 5 6 
#
# 1 0.038429 0.000275 -0.004024 0.000000 0.002941 0.000000
# 2 0.000275 0.007550 -0.002001 0.000000 0.000947 0.000000
# 3 -0.004024 -0.002001 0.010945 0.000000 -0.002052 0.000000
# 4 0.000000 0.000000 0.000000 0.042588 0.000000 0.002896
# 5 0.002941 0.000947 -0.002052 0.000000 0.038071 0.000000
# 6 0.000000 0.000000 0.000000 0.002896 0.000000 0.020986
#
#
# Mechanical properties :
#
#
# Convention : Reuss Voigt Hill
#
# Bulk Modulus (GPa) = 22.01494 38.06151 30.03823
# Shear Modulus (GPa) = 26.99593 34.99322 30.99457
#
# Velocity S-wave (km/s) = 3.60133 4.10021 3.85884
# Velocity P-wave (km/s) = 5.27915 6.37977 5.85537
#
# Compressibility (1/GPa) = 0.04542369
#
# Stress axis : x y z
#
# Youngs Moduli (GPa) = 26.02197 132.44279 91.36262
#
# Poissons Ratio (x) = -0.03636 0.36761
# Poissons Ratio (y) = -0.00714 0.18286
# Poissons Ratio (z) = 0.10470 0.26508
#
# Static dielectric constant tensor:
#      x y z
#    x 3.379840 0.000000 0.033630 
#    y 0.000000 4.183000 0.000000 
#    z 0.033630 0.000000 3.587610 
# 
# 
# High freq. dielectric constant tensor:
#      x y z
#    x 1.789700 0.000000 0.003060 
#    y 0.000000 1.836300 0.000000 
#    z 0.003060 0.000000 1.825710 
# 
# From -- ./inp_files/121872.got.cif
#   From: 2010.06.25/outbox.cif.g09.slc.cpg/sg15_61_cif.got.tgz:121872.got - 2010.06.28 07:06:18.
