data_PCOD8140919
_publ_section_title
;
Structure prediction by ZEFSAII (Michael W. Deem and Ramdas Pophale) SiO2 
 PCOD8140919
Probable space group: C 2/C
;
_chemical_formula_sum "Si O2"
_cell_formula_units_Z 64
_cell_length_a 25.056547
_cell_length_b 12.832974
_cell_length_c 12.011119
_cell_angle_alpha 90.000000
_cell_angle_beta 82.380498
_cell_angle_gamma 90.000000
_cell_volume 3828.074300
_symmetry_space_group_name_H-M "C 2/C"
_symmetry_group_IT_number 15
_symmetry_cell_setting 'monoclinic'
loop_
_space_group_symop_operation_xyz
x,y,z
-x,y,1/2-z
-x,-y,-z
x,-y,1/2+z
1/2+x,1/2+y,z
1/2-x,1/2+y,1/2-z
1/2-x,1/2-y,-z
1/2+x,1/2-y,1/2+z
loop_
_atom_site_type_symbol
_atom_site_label
_atom_site_fract_x
_atom_site_fract_y
_atom_site_fract_z
Si Si1 0.218789 0.010325 0.818817
Si Si2 0.695354 0.690454 0.992477
Si Si3 0.060199 0.689997 0.724352
Si Si4 0.340346 0.321291 0.751056
Si Si5 0.703742 0.126193 0.844297
Si Si6 0.178696 0.551853 0.084407
Si Si7 0.620622 0.136015 0.491986
Si Si8 0.107284 0.510786 0.287204
O O1 0.199797 0.087683 0.919342
O O2 0.238412 0.073810 0.702479
O O3 0.168898 0.933309 0.804904
O O4 0.268467 0.944817 0.854339
O O5 0.654296 0.765900 0.937922
O O6 0.750000 0.750000 0.000000
O O7 0.670920 0.659670 0.117271
O O8 0.099302 0.772885 0.776911
O O9 0.076052 0.674951 0.591141
O O10 0.060481 0.573752 0.778885
O O11 0.000000 0.734838 0.750000
O O12 0.297902 0.241660 0.706724
O O13 0.660325 0.056821 0.793182
O O14 0.690252 0.131446 0.979675
O O15 0.125197 0.580715 0.173913
O O16 0.165468 0.438063 0.036867
O O17 0.590558 0.081960 0.396176
#
# Coordination Sequence:
#
# PCOD8140919 Si02
#       8
#     8   8   8   8   8   8   8   8
#     4  11  19  27  47  69  98 136 167 193 229 288
#     4  11  18  31  48  69  97 135 163 190 226 291
#     4   9  18  34  52  70  95 127 166 214 252 280
#     4  10  21  33  46  72  98 124 172 200 236 300
#     4   9  17  29  43  66 101 134 157 190 241 283
#     4   9  16  26  42  67 101 133 154 191 240 286
#     4   9  17  30  48  70  96 126 166 198 239 299
#     4   8  16  28  46  73  97 125 162 199 239 297
#
# _framework density 16.718588
#
# number of rings (size 3 to 8) (size 9 to 14) (size 15 to 20)
#    0.000    2.500    2.500    2.250    3.500    1.000 
#    0.000    1.250    0.000    3.000    0.000    0.875 
#    0.000    0.000    0.000    0.000    0.000    0.125 
#
# Total GULP energy -396476.685085 kJ/mol
# GULP energy per Si atom -12389.896409 kJ/mol
# Density = 1.668054 g / cm^3
# Si number density = 16.718588 Si / 1000 Ang^3
#
#
#
# Elastic Constant Matrix: (Units=GPa)
#
#
# Indices 1 2 3 4 5 6 
#
# 1 76.5206 37.9387 25.2873 0.0000 -5.5272 0.0000
# 2 37.9387 78.2880 35.7861 0.0000 -2.6420 0.0000
# 3 25.2873 35.7861 79.9662 0.0000 1.1424 0.0000
# 4 0.0000 0.0000 0.0000 31.3485 0.0000 7.1036
# 5 -5.5272 -2.6420 1.1424 0.0000 13.3193 0.0000
# 6 0.0000 0.0000 0.0000 7.1036 0.0000 17.9767
#
#
#
# Elastic Compliance Matrix: (Units=1/GPa)
#
#
# Indices 1 2 3 4 5 6 
#
# 1 0.017994 -0.007378 -0.002477 0.000000 0.006216 0.000000
# 2 -0.007378 0.019278 -0.006313 0.000000 0.001304 0.000000
# 3 -0.002477 -0.006313 0.016166 0.000000 -0.003667 0.000000
# 4 0.000000 0.000000 0.000000 0.035037 0.000000 -0.013845
# 5 0.006216 0.001304 -0.003667 0.000000 0.078232 0.000000
# 6 0.000000 0.000000 0.000000 -0.013845 0.000000 0.061099
#
#
# Mechanical properties :
#
#
# Convention : Reuss Voigt Hill
#
# Bulk Modulus (GPa) = 47.38780 48.08878 47.73829
# Shear Modulus (GPa) = 18.71427 21.57972 20.14700
#
# Velocity S-wave (km/s) = 3.34933 3.59662 3.47517
# Velocity P-wave (km/s) = 6.58508 6.78776 6.68718
#
# Compressibility (1/GPa) = 0.02110248
#
# Stress axis : x y z
#
# Youngs Moduli (GPa) = 55.57439 51.87168 61.85756
#
# Poissons Ratio (x) = 0.38270 0.15324
# Poissons Ratio (y) = 0.41001 0.39050
# Poissons Ratio (z) = 0.13767 0.32746
#
# Static dielectric constant tensor:
#      x y z
#    x 2.816330 0.000000 0.055720 
#    y 0.000000 3.045370 0.000000 
#    z 0.055720 0.000000 3.440030 
# 
# 
# High freq. dielectric constant tensor:
#      x y z
#    x 1.598590 0.000000 -0.003350 
#    y 0.000000 1.619830 0.000000 
#    z -0.003350 0.000000 1.653600 
# 
# From -- ./inp_files/122434.got.cif
#   From: 2010.06.25/outbox.cif.g09.slc.cpg/sg15_62_cif.got.tgz:122434.got - 2010.06.28 07:06:18.
