data_PCOD8140918
_publ_section_title
;
Structure prediction by ZEFSAII (Michael W. Deem and Ramdas Pophale) SiO2 
 PCOD8140918
Probable space group: C 2/C
;
_chemical_formula_sum "Si O2"
_cell_formula_units_Z 56
_cell_length_a 28.201702
_cell_length_b 19.350577
_cell_length_c 5.133280
_cell_angle_alpha 90.000000
_cell_angle_beta 78.721372
_cell_angle_gamma 90.000000
_cell_volume 2747.229316
_symmetry_space_group_name_H-M "C 2/C"
_symmetry_group_IT_number 15
_symmetry_cell_setting 'monoclinic'
loop_
_space_group_symop_operation_xyz
x,y,z
-x,y,1/2-z
-x,-y,-z
x,-y,1/2+z
1/2+x,1/2+y,z
1/2-x,1/2+y,1/2-z
1/2-x,1/2-y,-z
1/2+x,1/2-y,1/2+z
loop_
_atom_site_type_symbol
_atom_site_label
_atom_site_fract_x
_atom_site_fract_y
_atom_site_fract_z
Si Si1 0.554136 0.682723 0.215808
Si Si2 0.316393 0.457543 0.432105
Si Si3 0.297500 0.043999 0.440072
Si Si4 0.363015 0.173255 0.408709
Si Si5 0.552878 0.027540 0.880123
Si Si6 0.921349 0.666002 0.850734
Si Si7 0.382841 0.671563 0.843910
O O1 0.500000 0.650418 0.250000
O O2 0.547747 0.764704 0.186118
O O3 0.577235 0.667611 0.471338
O O4 0.589119 0.653733 0.953268
O O5 0.333002 0.507640 0.646163
O O6 0.259569 0.444563 0.502229
O O7 0.341770 0.384173 0.438386
O O8 0.317881 0.122363 0.412927
O O9 0.314610 0.001138 0.674518
O O10 0.376373 0.169264 0.698646
O O11 0.354628 0.254757 0.354353
O O12 0.404710 0.148989 0.162427
O O13 0.545325 0.105131 0.793912
O O14 0.581134 0.982777 0.624366
O O15 0.500000 0.000000 0.000000
#
# Coordination Sequence:
#
# PCOD8140918 Si02
#       7
#     8   8   8   8   8   8   8
#     4  10  21  37  60  81 110 152 186 238 283 339
#     4  10  21  39  64  90 116 150 181 228 292 350
#     4  10  21  36  57  85 118 155 195 230 281 348
#     4  10  21  36  55  82 113 151 191 237 282 328
#     4  10  21  33  44  66  95 136 187 244 272 317
#     4  10  21  35  51  74 106 148 195 236 288 319
#     4  10  21  39  60  89 115 146 197 232 282 351
#
# _framework density 20.384173000000001
#
# number of rings (size 3 to 8) (size 9 to 14) (size 15 to 20)
#    0.000    2.000    0.000    3.000    2.000    4.000 
#    5.143    0.000    0.000   18.857    0.000    0.000 
#    0.000    0.000    0.000    0.000    0.000    0.000 
#
# Total GULP energy -347009.810666 kJ/mol
# GULP energy per Si atom -12393.207524 kJ/mol
# Density = 2.033778 g / cm^3
# Si number density = 20.384173 Si / 1000 Ang^3
#
#
#
# Elastic Constant Matrix: (Units=GPa)
#
#
# Indices 1 2 3 4 5 6 
#
# 1 54.5764 45.7302 28.4270 0.0000 1.7038 0.0000
# 2 45.7302 91.3647 17.4504 0.0000 -7.3296 0.0000
# 3 28.4270 17.4504 112.1266 0.0000 17.7549 0.0000
# 4 0.0000 0.0000 0.0000 29.6228 0.0000 -3.7357
# 5 1.7038 -7.3296 17.7549 0.0000 25.1285 0.0000
# 6 0.0000 0.0000 0.0000 -3.7357 0.0000 29.2561
#
#
#
# Elastic Compliance Matrix: (Units=1/GPa)
#
#
# Indices 1 2 3 4 5 6 
#
# 1 0.035777 -0.017037 -0.005909 0.000000 -0.003220 0.000000
# 2 -0.017037 0.020006 0.000111 0.000000 0.006912 0.000000
# 3 -0.005909 0.000111 0.011632 0.000000 -0.007786 0.000000
# 4 0.000000 0.000000 0.000000 0.034310 0.000000 0.004381
# 5 -0.003220 0.006912 -0.007786 0.000000 0.047531 0.000000
# 6 0.000000 0.000000 0.000000 0.004381 0.000000 0.034740
#
#
# Mechanical properties :
#
#
# Convention : Reuss Voigt Hill
#
# Bulk Modulus (GPa) = 45.98657 49.03144 47.50901
# Shear Modulus (GPa) = 21.10477 27.89882 24.50180
#
# Velocity S-wave (km/s) = 3.22118 3.70354 3.47075
# Velocity P-wave (km/s) = 6.03685 6.51108 6.27845
#
# Compressibility (1/GPa) = 0.02174548
#
# Stress axis : x y z
#
# Youngs Moduli (GPa) = 27.95131 49.98579 85.96915
#
# Poissons Ratio (x) = 0.85159 0.50798
# Poissons Ratio (y) = 0.47620 -0.00957
# Poissons Ratio (z) = 0.16516 -0.00556
#
# Static dielectric constant tensor:
#      x y z
#    x 3.239310 0.000000 0.100400 
#    y 0.000000 3.632870 0.000000 
#    z 0.100400 0.000000 4.018670 
# 
# 
# High freq. dielectric constant tensor:
#      x y z
#    x 1.774540 0.000000 0.015240 
#    y 0.000000 1.786010 0.000000 
#    z 0.015240 0.000000 1.823460 
# 
# From -- ./inp_files/18345.got.cif
#   From: 2010.06.25/outbox.cif.g09.slc.cpg/sg15_10_cif.got.tgz:18345.got - 2010.06.28 07:06:18.
