data_PCOD8140242
_publ_section_title
;
Structure prediction by ZEFSAII (Michael W. Deem and Ramdas Pophale) SiO2 
 PCOD8140242
Probable space group: C 2/C
;
_chemical_formula_sum "Si O2"
_cell_formula_units_Z 56
_cell_length_a 11.438159
_cell_length_b 15.105679
_cell_length_c 14.820124
_cell_angle_alpha 90.000000
_cell_angle_beta 95.057149
_cell_angle_gamma 90.000000
_cell_volume 2550.670317
_symmetry_space_group_name_H-M "C 2/C"
_symmetry_group_IT_number 15
_symmetry_cell_setting 'monoclinic'
loop_
_space_group_symop_operation_xyz
x,y,z
-x,y,1/2-z
-x,-y,-z
x,-y,1/2+z
1/2+x,1/2+y,z
1/2-x,1/2+y,1/2-z
1/2-x,1/2-y,-z
1/2+x,1/2-y,1/2+z
loop_
_atom_site_type_symbol
_atom_site_label
_atom_site_fract_x
_atom_site_fract_y
_atom_site_fract_z
Si Si1 0.749935 0.375156 0.213386
Si Si2 0.692933 0.527818 0.338227
Si Si3 0.963471 0.065273 0.892370
Si Si4 0.351891 0.055495 0.980542
Si Si5 0.038908 0.450545 0.355602
Si Si6 0.631520 0.610788 0.046742
Si Si7 0.629366 0.703994 0.230811
O O1 0.761158 0.463213 0.274578
O O2 0.615489 0.367523 0.170801
O O3 0.849053 0.385557 0.142191
O O4 0.777735 0.283514 0.264654
O O5 0.563445 0.487142 0.344189
O O6 0.775544 0.527646 0.433175
O O7 0.678107 0.625913 0.298105
O O8 0.020609 0.125976 0.973636
O O9 0.871959 0.992428 0.923509
O O10 0.433943 0.096357 0.905982
O O11 0.254694 0.128158 0.003318
O O12 0.426209 0.032590 0.076018
O O13 0.000000 0.477728 0.250000
O O14 0.618489 0.675589 0.127781
O O15 0.500000 0.737432 0.250000
#
# Coordination Sequence:
#
# PCOD8140242 Si02
#       7
#     8   8   8   8   8   8   8
#     4  12  23  40  69 100 142 181 228 293 346 415
#     4  11  21  43  73  97 132 181 239 284 342 411
#     4  10  20  40  72  95 131 176 236 289 343 393
#     4  10  22  38  71  99 130 188 233 281 343 417
#     4  11  21  39  62  97 142 182 223 270 355 420
#     4  10  20  41  70 102 129 177 241 292 337 408
#     4  12  24  40  69 107 138 184 234 281 356 423
#
# _framework density 21.955013000000001
#
# number of rings (size 3 to 8) (size 9 to 14) (size 15 to 20)
#    0.000    1.143    5.714    0.857    0.000    0.000 
#    0.000    7.143   18.857    0.000    0.000    0.000 
#    0.000    0.000    0.000    0.000    0.000    0.000 
#
# Total GULP energy -346895.536322 kJ/mol
# GULP energy per Si atom -12389.126297 kJ/mol
# Density = 2.190504 g / cm^3
# Si number density = 21.955013 Si / 1000 Ang^3
#
#
#
# Elastic Constant Matrix: (Units=GPa)
#
#
# Indices 1 2 3 4 5 6 
#
# 1 135.6687 32.3117 49.9469 0.0000 -5.1452 0.0000
# 2 32.3117 43.2215 18.6096 0.0000 6.8583 0.0000
# 3 49.9469 18.6096 119.6853 0.0000 5.8616 0.0000
# 4 0.0000 0.0000 0.0000 11.6029 0.0000 4.9192
# 5 -5.1452 6.8583 5.8616 0.0000 47.2330 0.0000
# 6 0.0000 0.0000 0.0000 4.9192 0.0000 26.8907
#
#
#
# Elastic Compliance Matrix: (Units=1/GPa)
#
#
# Indices 1 2 3 4 5 6 
#
# 1 0.010293 -0.006634 -0.003386 0.000000 0.002505 0.000000
# 2 -0.006634 0.029545 -0.001590 0.000000 -0.004815 0.000000
# 3 -0.003386 -0.001590 0.010084 0.000000 -0.001389 0.000000
# 4 0.000000 0.000000 0.000000 0.093432 0.000000 -0.017092
# 5 0.002505 -0.004815 -0.001389 0.000000 0.022316 0.000000
# 6 0.000000 0.000000 0.000000 -0.017092 0.000000 0.040314
#
#
# Mechanical properties :
#
#
# Convention : Reuss Voigt Hill
#
# Bulk Modulus (GPa) = 37.45182 55.59021 46.52101
# Shear Modulus (GPa) = 20.99929 30.32580 25.66255
#
# Velocity S-wave (km/s) = 3.09604 3.72058 3.42258
# Velocity P-wave (km/s) = 5.46590 6.62057 6.07075
#
# Compressibility (1/GPa) = 0.02670097
#
# Stress axis : x y z
#
# Youngs Moduli (GPa) = 97.15715 33.84719 99.17011
#
# Poissons Ratio (x) = 0.22454 0.33584
# Poissons Ratio (y) = 0.64453 0.15763
# Poissons Ratio (z) = 0.32902 0.05380
#
# Static dielectric constant tensor:
#      x y z
#    x 4.420300 0.000000 -0.028760 
#    y 0.000000 3.332410 0.000000 
#    z -0.028760 0.000000 4.329570 
# 
# 
# High freq. dielectric constant tensor:
#      x y z
#    x 1.892760 0.000000 -0.001010 
#    y 0.000000 1.793810 0.000000 
#    z -0.001010 0.000000 1.882170 
# 
# From -- ./inp_files/144235.got.cif
#   From: 2010.06.25/outbox.cif.g09.slc.cpg/sg15_73_cif.got.tgz:144235.got - 2010.06.28 07:06:18.
