data_PCOD8140096
_publ_section_title
;
Structure prediction by ZEFSAII (Michael W. Deem and Ramdas Pophale) SiO2 
 PCOD8140096
Probable space group: C 2/C
;
_chemical_formula_sum "Si O2"
_cell_formula_units_Z 60
_cell_length_a 21.211362
_cell_length_b 8.920423
_cell_length_c 17.477652
_cell_angle_alpha 90.000000
_cell_angle_beta 121.618635
_cell_angle_gamma 90.000000
_cell_volume 2816.116024
_symmetry_space_group_name_H-M "C 2/C"
_symmetry_group_IT_number 15
_symmetry_cell_setting 'monoclinic'
loop_
_space_group_symop_operation_xyz
x,y,z
-x,y,1/2-z
-x,-y,-z
x,-y,1/2+z
1/2+x,1/2+y,z
1/2-x,1/2+y,1/2-z
1/2-x,1/2-y,-z
1/2+x,1/2-y,1/2+z
loop_
_atom_site_type_symbol
_atom_site_label
_atom_site_fract_x
_atom_site_fract_y
_atom_site_fract_z
Si Si1 0.977830 0.334788 0.510216
Si Si2 0.165694 0.231841 0.141216
Si Si3 0.024081 0.836876 0.178830
Si Si4 0.810775 0.092365 0.904610
Si Si5 0.453062 0.361308 0.578484
Si Si6 0.826825 0.257203 0.766968
Si Si7 0.000000 0.664011 0.750000
Si Si8 0.647900 0.080322 0.772832
O O1 0.888991 0.316543 0.451751
O O2 0.003224 0.307773 0.613604
O O3 0.000000 0.500000 0.500000
O O4 0.013240 0.211796 0.476150
O O5 0.249067 0.288802 0.178528
O O6 0.141928 0.274368 0.213405
O O7 0.163380 0.054048 0.126584
O O8 0.000000 0.814054 0.250000
O O9 0.113044 0.846761 0.237082
O O10 0.989620 0.978426 0.114838
O O11 0.824057 0.230555 0.855956
O O12 0.723318 0.088749 0.872842
O O13 0.864099 0.115780 0.011797
O O14 0.469038 0.263653 0.662244
O O15 0.845185 0.432485 0.773695
O O16 0.071776 0.565796 0.772410
#
# Coordination Sequence:
#
# PCOD8140096 Si02
#       8
#     8   8   8   8   8   8   4   8
#     4  12  24  41  69 100 131 175 222 273 340 410
#     4  10  20  40  66  94 129 166 221 272 325 403
#     4  12  25  42  67  98 132 175 226 280 331 398
#     4  10  21  41  69  93 125 175 223 276 325 406
#     4  12  24  42  66  95 130 176 227 269 334 402
#     4  10  22  39  66  97 124 171 218 272 335 389
#     4  12  26  40  64  96 138 176 220 282 338 394
#     4  10  23  40  64  96 135 168 217 276 342 394
#
# _framework density 21.30594
#
# number of rings (size 3 to 8) (size 9 to 14) (size 15 to 20)
#    0.000    1.067    4.667    2.000    0.933    0.533 
#    0.000    0.667    2.933    0.000    0.000    0.000 
#    0.000    0.000    0.000    0.000    0.000    0.000 
#
# Total GULP energy -371880.666649 kJ/mol
# GULP energy per Si atom -12396.022222 kJ/mol
# Density = 2.125745 g / cm^3
# Si number density = 21.305940 Si / 1000 Ang^3
#
#
#
# Elastic Constant Matrix: (Units=GPa)
#
#
# Indices 1 2 3 4 5 6 
#
# 1 156.4027 46.7549 75.8693 0.0000 28.6058 0.0000
# 2 46.7549 97.0156 48.5165 0.0000 8.2759 0.0000
# 3 75.8693 48.5165 138.9884 0.0000 22.7449 0.0000
# 4 0.0000 0.0000 0.0000 23.2506 0.0000 13.3243
# 5 28.6058 8.2759 22.7449 0.0000 42.9527 0.0000
# 6 0.0000 0.0000 0.0000 13.3243 0.0000 3.1393
#
#
#
# Elastic Compliance Matrix: (Units=1/GPa)
#
#
# Indices 1 2 3 4 5 6 
#
# 1 0.009686 -0.002435 -0.003786 0.000000 -0.003976 0.000000
# 2 -0.002435 0.013100 -0.003390 0.000000 0.000893 0.000000
# 3 -0.003786 -0.003390 0.010867 0.000000 -0.002580 0.000000
# 4 0.000000 0.000000 0.000000 -0.030027 0.000000 0.127448
# 5 -0.003976 0.000893 -0.002580 0.000000 0.027124 0.000000
# 6 0.000000 0.000000 0.000000 0.127448 0.000000 -0.222393
#
#
# Mechanical properties :
#
#
# Convention : Reuss Voigt Hill
#
# Bulk Modulus (GPa) = 69.29713 81.63203 75.46458
# Shear Modulus (GPa) = -29.83094 28.61957 -0.60569
#
# Velocity S-wave (km/s) = -3.74588 3.66904 -0.53376
# Velocity P-wave (km/s) = 3.72647 7.50643 5.92592
#
# Compressibility (1/GPa) = 0.01443061
#
# Stress axis : x y z
#
# Youngs Moduli (GPa) = 103.24502 76.33479 92.02077
#
# Poissons Ratio (x) = 0.18588 0.34843
# Poissons Ratio (y) = 0.25141 0.31192
# Poissons Ratio (z) = 0.39093 0.25875
#
# Static dielectric constant tensor:
#      x y z
#    x 4.075710 0.000000 0.503930 
#    y 0.000000 3.844000 0.000000 
#    z 0.503930 0.000000 4.088490 
# 
# 
# High freq. dielectric constant tensor:
#      x y z
#    x 1.829610 0.000000 0.038160 
#    y 0.000000 1.837570 0.000000 
#    z 0.038160 0.000000 1.835750 
# 
# From -- ./inp_files/214297.got.cif
#   From: 2010.06.25/outbox.cif.g09.slc.cpg/sg15_108_cif.got.tgz:214297.got - 2010.06.28 07:06:18.
