data_PCOD8140073
_publ_section_title
;
Structure prediction by ZEFSAII (Michael W. Deem and Ramdas Pophale) SiO2 
 PCOD8140073
Probable space group: C 2/C
;
_chemical_formula_sum "Si O2"
_cell_formula_units_Z 52
_cell_length_a 17.497990
_cell_length_b 8.788716
_cell_length_c 19.838162
_cell_angle_alpha 90.000000
_cell_angle_beta 129.952897
_cell_angle_gamma 90.000000
_cell_volume 2338.666698
_symmetry_space_group_name_H-M "C 2/C"
_symmetry_group_IT_number 15
_symmetry_cell_setting 'monoclinic'
loop_
_space_group_symop_operation_xyz
x,y,z
-x,y,1/2-z
-x,-y,-z
x,-y,1/2+z
1/2+x,1/2+y,z
1/2-x,1/2+y,1/2-z
1/2-x,1/2-y,-z
1/2+x,1/2-y,1/2+z
loop_
_atom_site_type_symbol
_atom_site_label
_atom_site_fract_x
_atom_site_fract_y
_atom_site_fract_z
Si Si1 0.203497 0.071933 0.902426
Si Si2 0.756828 0.430485 0.216159
Si Si3 0.965310 0.737201 0.984074
Si Si4 0.000000 0.962219 0.750000
Si Si5 0.883037 0.148800 0.303099
Si Si6 0.789925 0.102396 0.441610
Si Si7 0.854872 0.443360 0.894536
O O1 0.234977 0.238835 0.896526
O O2 0.250207 0.944075 0.878006
O O3 0.232838 0.039235 0.996882
O O4 0.084221 0.068084 0.830175
O O5 0.780169 0.249316 0.232645
O O6 0.653507 0.480059 0.194722
O O7 0.755186 0.484621 0.137845
O O8 0.843622 0.511794 0.309523
O O9 0.952556 0.779937 0.899259
O O10 0.909221 0.865428 0.997962
O O11 0.916607 0.572408 0.970564
O O12 0.084588 0.718391 0.067142
O O13 0.952266 0.850595 0.777702
#
# Coordination Sequence:
#
# PCOD8140073 Si02
#       7
#     8   8   8   4   8   8   8
#     4  10  21  39  60  88 130 165 201 257 326 370
#     4  10  20  40  66  89 119 172 211 257 308 388
#     4   8  17  34  58  87 115 151 208 252 289 370
#     4  12  24  40  58  94 128 168 200 272 316 372
#     4  10  22  40  62  89 131 161 216 257 319 371
#     4   9  20  39  62  91 123 158 213 264 306 378
#     4   9  16  34  62  84 114 162 198 243 312 365
#
# _framework density 22.234891999999999
#
# number of rings (size 3 to 8) (size 9 to 14) (size 15 to 20)
#    0.000    2.462    1.538    0.923    0.000    2.462 
#    2.769    6.923    0.000    0.000    0.000    0.000 
#    0.000    0.000    0.000    0.000    0.000    0.000 
#
# Total GULP energy -322216.090552 kJ/mol
# GULP energy per Si atom -12392.926560 kJ/mol
# Density = 2.218428 g / cm^3
# Si number density = 22.234892 Si / 1000 Ang^3
#
#
#
# Elastic Constant Matrix: (Units=GPa)
#
#
# Indices 1 2 3 4 5 6 
#
# 1 117.7949 37.0411 27.2577 0.0000 -9.3005 0.0000
# 2 37.0411 67.1621 13.1236 0.0000 -8.9626 0.0000
# 3 27.2577 13.1236 53.8500 0.0000 -4.7554 0.0000
# 4 0.0000 0.0000 0.0000 19.1269 0.0000 -3.1473
# 5 -9.3005 -8.9626 -4.7554 0.0000 46.2024 0.0000
# 6 0.0000 0.0000 0.0000 -3.1473 0.0000 17.4145
#
#
#
# Elastic Compliance Matrix: (Units=1/GPa)
#
#
# Indices 1 2 3 4 5 6 
#
# 1 0.011195 -0.005223 -0.004324 0.000000 0.000795 0.000000
# 2 -0.005223 0.018403 -0.001633 0.000000 0.002350 0.000000
# 3 -0.004324 -0.001633 0.021245 0.000000 0.000999 0.000000
# 4 0.000000 0.000000 0.000000 0.053885 0.000000 0.009738
# 5 0.000795 0.002350 0.000999 0.000000 0.022363 0.000000
# 6 0.000000 0.000000 0.000000 0.009738 0.000000 0.059183
#
#
# Mechanical properties :
#
#
# Convention : Reuss Voigt Hill
#
# Bulk Modulus (GPa) = 35.10940 43.73907 39.42423
# Shear Modulus (GPa) = 22.92224 27.30772 25.11498
#
# Velocity S-wave (km/s) = 3.21427 3.50830 3.36449
# Velocity P-wave (km/s) = 5.44058 6.01040 5.73257
#
# Compressibility (1/GPa) = 0.02848240
#
# Stress axis : x y z
#
# Youngs Moduli (GPa) = 89.32493 54.33918 47.07012
#
# Poissons Ratio (x) = 0.28383 0.20351
# Poissons Ratio (y) = 0.46657 0.07688
# Poissons Ratio (z) = 0.38620 0.08876
#
# Static dielectric constant tensor:
#      x y z
#    x 4.110520 0.000000 0.095590 
#    y 0.000000 3.830590 0.000000 
#    z 0.095590 0.000000 4.117030 
# 
# 
# High freq. dielectric constant tensor:
#      x y z
#    x 1.863180 0.000000 -0.002310 
#    y 0.000000 1.856520 0.000000 
#    z -0.002310 0.000000 1.890320 
# 
# From -- ./inp_files/247882.got.cif
#   From: 2010.06.25/outbox.cif.g09.slc.cpg/sg15_124_cif.got.tgz:247882.got - 2010.06.28 07:06:18.
