data_PCOD8140584
_publ_section_title
;
Structure prediction by ZEFSAII (Michael W. Deem and Ramdas Pophale) SiO2 
 PCOD8140584
Probable space group: C 2/C
;
_chemical_formula_sum "Si O2"
_cell_formula_units_Z 28
_cell_length_a 11.920511
_cell_length_b 6.887204
_cell_length_c 16.712086
_cell_angle_alpha 90.000000
_cell_angle_beta 111.396866
_cell_angle_gamma 90.000000
_cell_volume 1277.478230
_symmetry_space_group_name_H-M "C 2/C"
_symmetry_group_IT_number 15
_symmetry_cell_setting 'monoclinic'
loop_
_space_group_symop_operation_xyz
x,y,z
-x,y,1/2-z
-x,-y,-z
x,-y,1/2+z
1/2+x,1/2+y,z
1/2-x,1/2+y,1/2-z
1/2-x,1/2-y,-z
1/2+x,1/2-y,1/2+z
loop_
_atom_site_type_symbol
_atom_site_label
_atom_site_fract_x
_atom_site_fract_y
_atom_site_fract_z
Si Si1 0.963182 0.194046 0.533271
Si Si2 0.000000 0.504664 0.750000
Si Si3 0.619533 0.635990 0.819822
Si Si4 0.379646 0.036154 0.872736
O O1 0.076922 0.315502 0.598354
O O2 0.878468 0.123883 0.583434
O O3 0.892177 0.329389 0.453265
O O4 0.000000 0.000000 0.500000
O O5 0.116566 0.365863 0.796644
O O6 0.039991 0.623951 0.680857
O O7 0.500000 0.533322 0.750000
O O8 0.737785 0.531875 0.814934
#
# Coordination Sequence:
#
# PCOD8140584 Si02
#       4
#     8   4   8   8
#     4  10  22  40  62  96 121 165 218 254 310 379
#     4   8  20  40  60  96 126 166 214 258 310 372
#     4   9  20  40  61  91 131 163 205 269 308 368
#     4  10  20  42  66  84 133 170 199 266 320 354
#
# _framework density 21.918182999999999
#
# number of rings (size 3 to 8) (size 9 to 14) (size 15 to 20)
#    0.857    1.714    0.000    0.857    0.000    3.429 
#    7.714    0.000    0.000    0.000    0.000    0.000 
#    0.000    0.000    0.000    0.000    0.000    0.000 
#
# Total GULP energy -173437.805906 kJ/mol
# GULP energy per Si atom -12388.414708 kJ/mol
# Density = 2.186830 g / cm^3
# Si number density = 21.918183 Si / 1000 Ang^3
#
#
#
# Elastic Constant Matrix: (Units=GPa)
#
#
# Indices 1 2 3 4 5 6 
#
# 1 162.6161 34.7221 68.1011 0.0000 1.3216 0.0000
# 2 34.7221 56.2839 14.8258 0.0000 -5.7979 0.0000
# 3 68.1011 14.8258 117.2218 0.0000 -24.1170 0.0000
# 4 0.0000 0.0000 0.0000 13.6898 0.0000 -1.9358
# 5 1.3216 -5.7979 -24.1170 0.0000 45.8493 0.0000
# 6 0.0000 0.0000 0.0000 -1.9358 0.0000 27.0390
#
#
#
# Elastic Compliance Matrix: (Units=1/GPa)
#
#
# Indices 1 2 3 4 5 6 
#
# 1 0.009641 -0.004826 -0.005802 0.000000 -0.003940 0.000000
# 2 -0.004826 0.020857 0.000826 0.000000 0.003211 0.000000
# 3 -0.005802 0.000826 0.013291 0.000000 0.007263 0.000000
# 4 0.000000 0.000000 0.000000 0.073794 0.000000 0.005283
# 5 -0.003940 0.003211 0.007263 0.000000 0.026150 0.000000
# 6 0.000000 0.000000 0.000000 0.005283 0.000000 0.037362
#
#
# Mechanical properties :
#
#
# Convention : Reuss Voigt Hill
#
# Bulk Modulus (GPa) = 41.34313 63.49107 52.41710
# Shear Modulus (GPa) = 23.95092 31.88050 27.91571
#
# Velocity S-wave (km/s) = 3.30925 3.81796 3.57267
# Velocity P-wave (km/s) = 5.78835 6.96175 6.40199
#
# Compressibility (1/GPa) = 0.02418782
#
# Stress axis : x y z
#
# Youngs Moduli (GPa) = 103.71931 47.94521 75.23877
#
# Poissons Ratio (x) = 0.23136 0.43650
# Poissons Ratio (y) = 0.50050 -0.06216
# Poissons Ratio (z) = 0.60173 -0.03961
#
# Static dielectric constant tensor:
#      x y z
#    x 3.770520 0.000000 -0.280570 
#    y 0.000000 3.567490 0.000000 
#    z -0.280570 0.000000 4.344630 
# 
# 
# High freq. dielectric constant tensor:
#      x y z
#    x 1.849180 0.000000 -0.020760 
#    y 0.000000 1.826210 0.000000 
#    z -0.020760 0.000000 1.879020 
# 
# From -- ./inp_files/187170.got.cif
#   From: 2010.06.25/outbox.cif.g09.slc.cpg/sg15_94_cif.got.tgz:187170.got - 2010.06.28 07:06:18.
