data_PCOD8140245
_publ_section_title
;
Structure prediction by ZEFSAII (Michael W. Deem and Ramdas Pophale) SiO2 
 PCOD8140245
Probable space group: C 2/C
;
_chemical_formula_sum "Si O2"
_cell_formula_units_Z 60
_cell_length_a 8.165629
_cell_length_b 27.082461
_cell_length_c 12.292528
_cell_angle_alpha 90.000000
_cell_angle_beta 78.853244
_cell_angle_gamma 90.000000
_cell_volume 2667.152495
_symmetry_space_group_name_H-M "C 2/C"
_symmetry_group_IT_number 15
_symmetry_cell_setting 'monoclinic'
loop_
_space_group_symop_operation_xyz
x,y,z
-x,y,1/2-z
-x,-y,-z
x,-y,1/2+z
1/2+x,1/2+y,z
1/2-x,1/2+y,1/2-z
1/2-x,1/2-y,-z
1/2+x,1/2-y,1/2+z
loop_
_atom_site_type_symbol
_atom_site_label
_atom_site_fract_x
_atom_site_fract_y
_atom_site_fract_z
Si Si1 0.580204 0.948231 0.467928
Si Si2 0.500000 0.156184 0.750000
Si Si3 0.769457 0.410537 0.395302
Si Si4 0.041198 0.175325 0.920940
Si Si5 0.321416 0.908161 0.817027
Si Si6 0.194638 0.991131 0.247706
Si Si7 0.613568 0.690924 0.339683
Si Si8 0.735141 0.289677 0.197046
O O1 0.422436 0.912451 0.461430
O O2 0.675323 0.925460 0.558320
O O3 0.711890 0.957353 0.353564
O O4 0.500000 0.000000 0.500000
O O5 0.659574 0.122075 0.711321
O O6 0.572371 0.191314 0.836919
O O7 0.602494 0.380219 0.449038
O O8 0.722069 0.465301 0.361476
O O9 0.176095 0.205068 0.831419
O O10 0.872451 0.176390 0.870449
O O11 0.002756 0.200547 0.040605
O O12 0.500000 0.890289 0.750000
O O13 0.191644 0.863623 0.825306
O O14 0.265696 0.953470 0.745885
O O15 0.000000 0.993634 0.250000
O O16 0.500000 0.700119 0.250000
O O17 0.763870 0.731192 0.328614
#
# Coordination Sequence:
#
# PCOD8140245 Si02
#       8
#     8   4   8   8   8   8   8   8
#     4  12  24  46  72  97 142 194 245 291 364 436
#     4  10  20  40  72  98 134 182 234 300 362 412
#     4  11  23  41  70 104 139 181 238 302 358 422
#     4  10  26  44  73 107 144 185 249 299 367 433
#     4  12  28  47  70 100 143 195 243 297 365 449
#     4  12  26  44  71 106 144 183 244 307 362 435
#     4  12  28  49  71 106 152 194 240 303 374 440
#     4  10  23  49  72 105 143 183 250 307 358 435
#
# _framework density 22.495901
#
# number of rings (size 3 to 8) (size 9 to 14) (size 15 to 20)
#    0.000    0.800    4.667    0.800   11.200    2.133 
#    0.000    0.000    0.000    0.000    0.000    0.000 
#    0.000    0.000    0.000    0.000    0.000    0.000 
#
# Total GULP energy -371685.129059 kJ/mol
# GULP energy per Si atom -12389.504302 kJ/mol
# Density = 2.244470 g / cm^3
# Si number density = 22.495901 Si / 1000 Ang^3
#
#
#
# Elastic Constant Matrix: (Units=GPa)
#
#
# Indices 1 2 3 4 5 6 
#
# 1 126.1897 41.0330 33.9043 0.0000 18.3325 0.0000
# 2 41.0330 106.7806 21.0915 0.0000 0.9658 0.0000
# 3 33.9043 21.0915 107.9981 0.0000 -1.5168 0.0000
# 4 0.0000 0.0000 0.0000 23.8510 0.0000 1.0598
# 5 18.3325 0.9658 -1.5168 0.0000 32.3515 0.0000
# 6 0.0000 0.0000 0.0000 1.0598 0.0000 43.7094
#
#
#
# Elastic Compliance Matrix: (Units=1/GPa)
#
#
# Indices 1 2 3 4 5 6 
#
# 1 0.010689 -0.003508 -0.002756 0.000000 -0.006082 0.000000
# 2 -0.003508 0.010897 -0.001004 0.000000 0.001616 0.000000
# 3 -0.002756 -0.001004 0.010350 0.000000 0.002077 0.000000
# 4 0.000000 0.000000 0.000000 0.041972 0.000000 -0.001018
# 5 -0.006082 0.001616 0.002077 0.000000 0.034406 0.000000
# 6 0.000000 0.000000 0.000000 -0.001018 0.000000 0.022903
#
#
# Mechanical properties :
#
#
# Convention : Reuss Voigt Hill
#
# Bulk Modulus (GPa) = 57.47313 59.22509 58.34911
# Shear Modulus (GPa) = 32.99161 36.31171 34.65166
#
# Velocity S-wave (km/s) = 3.83372 4.02200 3.92899
# Velocity P-wave (km/s) = 6.72312 6.92480 6.82471
#
# Compressibility (1/GPa) = 0.01739944
#
# Stress axis : x y z
#
# Youngs Moduli (GPa) = 93.55073 91.76970 96.61935
#
# Poissons Ratio (x) = 0.32195 0.26629
# Poissons Ratio (y) = 0.32820 0.09701
# Poissons Ratio (z) = 0.25783 0.09214
#
# Static dielectric constant tensor:
#      x y z
#    x 4.224760 0.000000 -0.608880 
#    y 0.000000 4.905080 0.000000 
#    z -0.608880 0.000000 3.601210 
# 
# 
# High freq. dielectric constant tensor:
#      x y z
#    x 1.897160 0.000000 0.006960 
#    y 0.000000 1.893560 0.000000 
#    z 0.006960 0.000000 1.871230 
# 
# From -- ./inp_files/81359.got.cif
#   From: 2010.06.25/outbox.cif.g09.slc.cpg/sg15_41_cif.got.tgz:81359.got - 2010.06.28 07:06:18.
