data_PCOD8140924
_publ_section_title
;
Structure prediction by ZEFSAII (Michael W. Deem and Ramdas Pophale) SiO2 
 PCOD8140924
Probable space group: C 2/C
;
_chemical_formula_sum "Si O2"
_cell_formula_units_Z 44
_cell_length_a 22.999855
_cell_length_b 17.731940
_cell_length_c 5.419012
_cell_angle_alpha 90.000000
_cell_angle_beta 120.281650
_cell_angle_gamma 90.000000
_cell_volume 1908.501555
_symmetry_space_group_name_H-M "C 2/C"
_symmetry_group_IT_number 15
_symmetry_cell_setting 'monoclinic'
loop_
_space_group_symop_operation_xyz
x,y,z
-x,y,1/2-z
-x,-y,-z
x,-y,1/2+z
1/2+x,1/2+y,z
1/2-x,1/2+y,1/2-z
1/2-x,1/2-y,-z
1/2+x,1/2-y,1/2+z
loop_
_atom_site_type_symbol
_atom_site_label
_atom_site_fract_x
_atom_site_fract_y
_atom_site_fract_z
Si Si1 0.500000 0.048677 0.750000
Si Si2 0.347783 0.300883 0.634511
Si Si3 0.715577 0.037506 0.951947
Si Si4 0.368138 0.852191 0.970852
Si Si5 0.711749 0.199588 0.609141
Si Si6 0.624903 0.461678 0.727626
O O1 0.563137 0.103623 0.882577
O O2 0.500000 0.000000 0.500000
O O3 0.379448 0.238947 0.513979
O O4 0.340443 0.255308 0.871109
O O5 0.273815 0.335141 0.401803
O O6 0.395602 0.373711 0.776275
O O7 0.680422 0.121340 0.900992
O O8 0.686091 0.000810 0.639859
O O9 0.795280 0.031857 0.129488
O O10 0.327930 0.866183 0.626183
O O11 0.750000 0.250000 0.500000
O O12 0.595775 0.492638 0.403403
#
# Coordination Sequence:
#
# PCOD8140924 Si02
#       6
#     4   8   8   8   8   8
#     4  12  30  52  68  96 136 182 242 286 320 376
#     4  10  21  36  58  90 124 166 214 269 332 408
#     4  10  21  33  52  81 118 163 205 247 314 381
#     4  11  24  39  65  84 123 173 226 280 325 374
#     4   9  19  33  58  89 123 157 216 266 330 389
#     4  10  22  34  52  85 127 159 190 244 317 400
#
# _framework density 23.054738
#
# number of rings (size 3 to 8) (size 9 to 14) (size 15 to 20)
#    0.000    1.818    0.000    4.364   17.818    0.000 
#    0.000    0.000    0.000    0.000    0.000    1.273 
#    0.000    0.000    0.000    0.000    0.000    0.000 
#
# Total GULP energy -272570.838121 kJ/mol
# GULP energy per Si atom -12389.583551 kJ/mol
# Density = 2.300226 g / cm^3
# Si number density = 23.054738 Si / 1000 Ang^3
#
#
#
# Elastic Constant Matrix: (Units=GPa)
#
#
# Indices 1 2 3 4 5 6 
#
# 1 56.7178 21.0192 42.3444 0.0000 -8.3558 0.0000
# 2 21.0192 117.7529 49.6940 0.0000 -18.3617 0.0000
# 3 42.3444 49.6940 109.2305 0.0000 -28.1072 0.0000
# 4 0.0000 0.0000 0.0000 40.2478 0.0000 -7.1515
# 5 -8.3558 -18.3617 -28.1072 0.0000 41.1473 0.0000
# 6 0.0000 0.0000 0.0000 -7.1515 0.0000 39.0847
#
#
#
# Elastic Compliance Matrix: (Units=1/GPa)
#
#
# Indices 1 2 3 4 5 6 
#
# 1 0.024961 -0.000575 -0.009920 0.000000 -0.001964 0.000000
# 2 -0.000575 0.010626 -0.004151 0.000000 0.001790 0.000000
# 3 -0.009920 -0.004151 0.016857 0.000000 0.007648 0.000000
# 4 0.000000 0.000000 0.000000 0.025681 0.000000 0.004699
# 5 -0.001964 0.001790 0.007648 0.000000 0.029927 0.000000
# 6 0.000000 0.000000 0.000000 0.004699 0.000000 0.026445
#
#
# Mechanical properties :
#
#
# Convention : Reuss Voigt Hill
#
# Bulk Modulus (GPa) = 43.19360 56.64625 49.91993
# Shear Modulus (GPa) = 29.15342 35.47220 32.31281
#
# Velocity S-wave (km/s) = 3.55988 3.92676 3.74782
# Velocity P-wave (km/s) = 5.97268 6.72183 6.35830
#
# Compressibility (1/GPa) = 0.02315158
#
# Stress axis : x y z
#
# Youngs Moduli (GPa) = 40.06223 94.11091 59.32299
#
# Poissons Ratio (x) = 0.05416 0.58849
# Poissons Ratio (y) = 0.02305 0.24622
# Poissons Ratio (z) = 0.39742 0.39061
#
# Static dielectric constant tensor:
#      x y z
#    x 3.729780 0.000000 -0.281100 
#    y 0.000000 4.384760 0.000000 
#    z -0.281100 0.000000 4.007160 
# 
# 
# High freq. dielectric constant tensor:
#      x y z
#    x 1.871090 0.000000 -0.054150 
#    y 0.000000 1.936040 0.000000 
#    z -0.054150 0.000000 1.899630 
# 
# From -- ./inp_files/12969.got.cif
#   From: 2010.06.25/outbox.cif.g09.slc.cpg/sg15_7_cif.got.tgz:12969.got - 2010.06.28 07:06:18.
