data_PCOD8140487
_publ_section_title
;
Structure prediction by ZEFSAII (Michael W. Deem and Ramdas Pophale) SiO2 
 PCOD8140487
Probable space group: C 2/C
;
_chemical_formula_sum "Si O2"
_cell_formula_units_Z 56
_cell_length_a 15.877481
_cell_length_b 14.289230
_cell_length_c 25.691448
_cell_angle_alpha 90.000000
_cell_angle_beta 27.193657
_cell_angle_gamma 90.000000
_cell_volume 2663.757576
_symmetry_space_group_name_H-M "C 2/C"
_symmetry_group_IT_number 15
_symmetry_cell_setting 'monoclinic'
loop_
_space_group_symop_operation_xyz
x,y,z
-x,y,1/2-z
-x,-y,-z
x,-y,1/2+z
1/2+x,1/2+y,z
1/2-x,1/2+y,1/2-z
1/2-x,1/2-y,-z
1/2+x,1/2-y,1/2+z
loop_
_atom_site_type_symbol
_atom_site_label
_atom_site_fract_x
_atom_site_fract_y
_atom_site_fract_z
Si Si1 0.641276 0.337958 0.875902
Si Si2 0.906713 0.077579 0.352888
Si Si3 0.964288 0.255636 0.375663
Si Si4 0.391096 0.479712 0.168587
Si Si5 0.454470 0.848792 0.871662
Si Si6 0.481547 0.048112 0.893564
Si Si7 0.582699 0.298116 0.024286
O O1 0.567639 0.269871 0.871922
O O2 0.594512 0.446287 0.887296
O O3 0.555130 0.301473 0.977331
O O4 0.859858 0.328308 0.761604
O O5 0.003572 0.179992 0.308651
O O6 0.680718 0.076724 0.475714
O O7 0.000000 0.036932 0.250000
O O8 0.964933 0.009137 0.366888
O O9 0.750000 0.250000 0.500000
O O10 0.013430 0.363965 0.336068
O O11 0.182541 0.476728 0.307256
O O12 0.447318 0.376967 0.120332
O O13 0.294236 0.809488 0.923870
O O14 0.413476 0.958724 0.899216
O O15 0.473845 0.801035 0.918579
#
# Coordination Sequence:
#
# PCOD8140487 Si02
#       7
#     8   8   8   8   8   8   8
#     4  10  21  40  63  90 121 163 212 256 310 374
#     4  10  21  41  63  90 123 162 204 253 314 368
#     4   9  20  41  61  83 126 156 200 265 300 365
#     4  10  21  39  64  87 128 159 204 262 301 374
#     4  10  22  39  62  90 127 159 207 264 299 377
#     4  10  20  42  60  86 124 161 197 258 310 356
#     4  11  21  40  62  90 124 169 203 254 318 363
#
# _framework density 21.022933999999999
#
# number of rings (size 3 to 8) (size 9 to 14) (size 15 to 20)
#    0.000    2.000    1.429    1.714    0.000    0.571 
#   25.714    1.429    0.000    0.000    0.000    0.000 
#    0.000    0.000    0.000    0.000    0.000    0.000 
#
# Total GULP energy -346912.881381 kJ/mol
# GULP energy per Si atom -12389.745764 kJ/mol
# Density = 2.097509 g / cm^3
# Si number density = 21.022934 Si / 1000 Ang^3
#
#
#
# Elastic Constant Matrix: (Units=GPa)
#
#
# Indices 1 2 3 4 5 6 
#
# 1 69.5217 15.2023 25.2719 0.0000 6.7533 -0.0017
# 2 15.2023 120.2613 9.5872 -0.0065 6.5925 -0.0006
# 3 25.2719 9.5872 80.7646 -0.0171 -0.4565 -0.0053
# 4 0.0000 -0.0065 -0.0171 25.8399 0.0024 -11.8884
# 5 6.7533 6.5925 -0.4565 0.0024 32.4526 0.0030
# 6 -0.0017 -0.0006 -0.0053 -11.8884 0.0030 7.9565
#
#
#
# Elastic Compliance Matrix: (Units=1/GPa)
#
#
# Indices 1 2 3 4 5 6 
#
# 1 0.016903 -0.001549 -0.005124 -0.000009 -0.003275 -0.000012
# 2 -0.001549 0.008634 -0.000548 0.000007 -0.001439 0.000011
# 3 -0.005124 -0.000548 0.014058 0.000040 0.001375 0.000068
# 4 -0.000009 0.000007 0.000040 0.123816 -0.000025 0.185002
# 5 -0.003275 -0.001439 0.001375 -0.000025 0.031807 -0.000049
# 6 -0.000012 0.000011 0.000068 0.185002 -0.000049 0.402108
#
#
# Mechanical properties :
#
#
# Convention : Reuss Voigt Hill
#
# Bulk Modulus (GPa) = 39.75695 41.18560 40.47128
# Shear Modulus (GPa) = 8.06253 27.94889 18.00571
#
# Velocity S-wave (km/s) = 1.96047 3.65011 2.92974
# Velocity P-wave (km/s) = 4.90682 6.11537 5.54412
#
# Compressibility (1/GPa) = 0.02515283
#
# Stress axis : x y z
#
# Youngs Moduli (GPa) = 59.15976 115.82628 71.13469
#
# Poissons Ratio (x) = 0.17939 0.36449
# Poissons Ratio (y) = 0.09162 0.03901
# Poissons Ratio (z) = 0.30313 0.06352
#
# Static dielectric constant tensor:
#      x y z
#    x 3.682820 0.000000 -0.331790 
#    y 0.000000 4.426520 0.000030 
#    z -0.331790 0.000030 3.747710 
# 
# 
# High freq. dielectric constant tensor:
#      x y z
#    x 1.799010 0.000000 -0.033910 
#    y 0.000000 1.836740 0.000000 
#    z -0.033910 0.000000 1.820570 
# 
# From -- ./inp_files/274468.got.cif
#   From: 2010.06.25/outbox.cif.g09.slc.cpg/sg15_138_cif.got.tgz:274468.got - 2010.06.28 07:06:18.
