data_PCOD8140899
_publ_section_title
;
Structure prediction by ZEFSAII (Michael W. Deem and Ramdas Pophale) SiO2 
 PCOD8140899
Probable space group: C 2/C
;
_chemical_formula_sum "Si O2"
_cell_formula_units_Z 48
_cell_length_a 18.698924
_cell_length_b 27.286773
_cell_length_c 9.543295
_cell_angle_alpha 90.000000
_cell_angle_beta 152.106220
_cell_angle_gamma 90.000000
_cell_volume 2278.026669
_symmetry_space_group_name_H-M "C 2/C"
_symmetry_group_IT_number 15
_symmetry_cell_setting 'monoclinic'
loop_
_space_group_symop_operation_xyz
x,y,z
-x,y,1/2-z
-x,-y,-z
x,-y,1/2+z
1/2+x,1/2+y,z
1/2-x,1/2+y,1/2-z
1/2-x,1/2-y,-z
1/2+x,1/2-y,1/2+z
loop_
_atom_site_type_symbol
_atom_site_label
_atom_site_fract_x
_atom_site_fract_y
_atom_site_fract_z
Si Si1 0.263273 0.098044 0.378641
Si Si2 0.000000 0.857066 0.250000
Si Si3 0.354783 0.969895 0.803929
Si Si4 0.343734 0.893235 0.550191
Si Si5 0.787908 0.301333 0.633430
Si Si6 0.325816 0.561855 0.976219
Si Si7 0.500000 0.176719 0.750000
O O1 0.375854 0.066536 0.472431
O O2 0.230764 0.071126 0.465612
O O3 0.362989 0.146223 0.585035
O O4 0.095926 0.109185 0.023360
O O5 0.124058 0.822746 0.391434
O O6 0.292909 0.934511 0.573972
O O7 0.234392 0.007670 0.660002
O O8 0.500000 0.000000 0.000000
O O9 0.500000 0.909834 0.750000
O O10 0.358382 0.839433 0.643184
O O11 0.225601 0.894877 0.217544
O O12 0.750000 0.250000 0.500000
O O13 0.911759 0.292924 0.974018
O O14 0.500000 0.558392 0.250000
#
# Coordination Sequence:
#
# PCOD8140899 Si02
#       7
#     8   4   8   8   8   8   4
#     4  11  23  44  69  92 143 186 235 278 352 426
#     4  10  22  46  68  92 132 186 226 288 360 412
#     4  12  24  43  68  99 140 190 240 277 348 428
#     4  12  24  46  68  98 141 179 232 290 343 418
#     4  11  25  46  73 102 136 176 237 299 359 424
#     4  12  27  38  63 104 139 182 235 291 346 402
#     4  10  20  46  74  98 122 186 228 274 360 424
#
# _framework density 21.070868000000001
#
# number of rings (size 3 to 8) (size 9 to 14) (size 15 to 20)
#    0.000    0.667    5.000    4.000    2.333    1.333 
#    4.500    1.667    0.000    0.000    0.000    0.000 
#    0.000    0.000    0.000    0.000    0.000    0.000 
#
# Total GULP energy -297374.616959 kJ/mol
# GULP energy per Si atom -12390.609040 kJ/mol
# Density = 2.102291 g / cm^3
# Si number density = 21.070868 Si / 1000 Ang^3
#
#
#
# Elastic Constant Matrix: (Units=GPa)
#
#
# Indices 1 2 3 4 5 6 
#
# 1 119.4840 31.8463 39.8293 0.0000 -12.9120 0.0000
# 2 31.8463 104.4238 50.4346 0.0000 -23.1256 0.0000
# 3 39.8293 50.4346 144.3687 0.0000 -5.5002 0.0000
# 4 0.0000 0.0000 0.0000 27.7716 0.0000 -3.2210
# 5 -12.9120 -23.1256 -5.5002 0.0000 34.8766 0.0000
# 6 0.0000 0.0000 0.0000 -3.2210 0.0000 29.8624
#
#
#
# Elastic Compliance Matrix: (Units=1/GPa)
#
#
# Indices 1 2 3 4 5 6 
#
# 1 0.009697 -0.001440 -0.002084 0.000000 0.002307 0.000000
# 2 -0.001440 0.013757 -0.004106 0.000000 0.007942 0.000000
# 3 -0.002084 -0.004106 0.008856 0.000000 -0.002098 0.000000
# 4 0.000000 0.000000 0.000000 0.036464 0.000000 0.003933
# 5 0.002307 0.007942 -0.002098 0.000000 0.034461 0.000000
# 6 0.000000 0.000000 0.000000 0.003933 0.000000 0.033911
#
#
# Mechanical properties :
#
#
# Convention : Reuss Voigt Hill
#
# Bulk Modulus (GPa) = 58.65145 68.05521 63.35333
# Shear Modulus (GPa) = 31.62712 34.91321 33.27017
#
# Velocity S-wave (km/s) = 3.87846 4.07497 3.97793
# Velocity P-wave (km/s) = 6.92477 7.38301 7.15756
#
# Compressibility (1/GPa) = 0.01704988
#
# Stress axis : x y z
#
# Youngs Moduli (GPa) = 103.12276 72.68792 112.91280
#
# Poissons Ratio (x) = 0.10465 0.23536
# Poissons Ratio (y) = 0.14847 0.46366
# Poissons Ratio (z) = 0.21495 0.29848
#
# Static dielectric constant tensor:
#      x y z
#    x 4.192640 0.000000 0.102070 
#    y 0.000000 3.859340 0.000000 
#    z 0.102070 0.000000 4.229900 
# 
# 
# High freq. dielectric constant tensor:
#      x y z
#    x 1.837790 0.000000 0.000240 
#    y 0.000000 1.807580 0.000000 
#    z 0.000240 0.000000 1.839250 
# 
# From -- ./inp_files/52771.got.cif
#   From: 2010.06.25/outbox.cif.g09.slc.cpg/sg15_27_cif.got.tgz:52771.got - 2010.06.28 07:06:18.
