data_PCOD8140286
_publ_section_title
;
Structure prediction by ZEFSAII (Michael W. Deem and Ramdas Pophale) SiO2 
 PCOD8140286
Probable space group: C 2/C
;
_chemical_formula_sum "Si O2"
_cell_formula_units_Z 44
_cell_length_a 27.204012
_cell_length_b 11.007302
_cell_length_c 14.726896
_cell_angle_alpha 90.000000
_cell_angle_beta 150.518886
_cell_angle_gamma 90.000000
_cell_volume 2170.254989
_symmetry_space_group_name_H-M "C 2/C"
_symmetry_group_IT_number 15
_symmetry_cell_setting 'monoclinic'
loop_
_space_group_symop_operation_xyz
x,y,z
-x,y,1/2-z
-x,-y,-z
x,-y,1/2+z
1/2+x,1/2+y,z
1/2-x,1/2+y,1/2-z
1/2-x,1/2-y,-z
1/2+x,1/2-y,1/2+z
loop_
_atom_site_type_symbol
_atom_site_label
_atom_site_fract_x
_atom_site_fract_y
_atom_site_fract_z
Si Si1 0.779599 0.841634 0.125582
Si Si2 0.500000 0.678267 0.250000
Si Si3 0.900272 0.436828 0.544304
Si Si4 0.387572 0.673464 0.484971
Si Si5 0.426291 0.542688 0.736438
Si Si6 0.663230 0.179219 0.120844
O O1 0.849452 0.947424 0.195952
O O2 0.841331 0.759068 0.295833
O O3 0.750000 0.750000 0.000000
O O4 0.686825 0.910242 0.022132
O O5 0.555921 0.595889 0.264547
O O6 0.589197 0.760448 0.430212
O O7 0.927611 0.310928 0.539985
O O8 0.867079 0.537408 0.416448
O O9 0.000000 0.489649 0.750000
O O10 0.387172 0.625801 0.589135
O O11 0.465616 0.591847 0.554616
O O12 0.276685 0.672167 0.265249
#
# Coordination Sequence:
#
# PCOD8140286 Si02
#       6
#     8   4   8   8   8   8
#     4  11  22  39  67  93 119 155 221 253 294 366
#     4  10  24  40  62  86 134 164 202 246 320 368
#     4  11  20  39  62  86 124 165 200 249 312 369
#     4   9  19  36  66  84 120 163 206 241 309 372
#     4  10  20  41  62  92 117 163 212 254 294 366
#     4  11  23  38  61  89 124 166 194 256 313 359
#
# _framework density 20.274114999999998
#
# number of rings (size 3 to 8) (size 9 to 14) (size 15 to 20)
#    0.000    1.818    6.364    0.000   10.182    0.727 
#    0.000    6.364    0.000    0.000    0.000    0.000 
#    0.000    0.000    0.000    0.000    0.000    0.000 
#
# Total GULP energy -272577.946546 kJ/mol
# GULP energy per Si atom -12389.906661 kJ/mol
# Density = 2.022797 g / cm^3
# Si number density = 20.274115 Si / 1000 Ang^3
#
#
#
# Elastic Constant Matrix: (Units=GPa)
#
#
# Indices 1 2 3 4 5 6 
#
# 1 70.7043 8.6274 19.1698 0.0000 13.0738 0.0000
# 2 8.6274 97.3202 39.8246 0.0000 -0.6872 0.0000
# 3 19.1698 39.8246 138.7777 0.0000 12.5128 0.0000
# 4 0.0000 0.0000 0.0000 25.2508 0.0000 -2.8877
# 5 13.0738 -0.6872 12.5128 0.0000 17.0670 0.0000
# 6 0.0000 0.0000 0.0000 -2.8877 0.0000 19.5284
#
#
#
# Elastic Compliance Matrix: (Units=1/GPa)
#
#
# Indices 1 2 3 4 5 6 
#
# 1 0.016798 -0.001223 -0.000862 0.000000 -0.012285 0.000000
# 2 -0.001223 0.011889 -0.003609 0.000000 0.004062 0.000000
# 3 -0.000862 -0.003609 0.008903 0.000000 -0.006012 0.000000
# 4 0.000000 0.000000 0.000000 0.040284 0.000000 0.005957
# 5 -0.012285 0.004062 -0.006012 0.000000 0.072575 0.000000
# 6 0.000000 0.000000 0.000000 0.005957 0.000000 0.052088
#
#
# Mechanical properties :
#
#
# Convention : Reuss Voigt Hill
#
# Bulk Modulus (GPa) = 38.16527 49.11620 43.64074
# Shear Modulus (GPa) = 22.45583 28.31459 25.38521
#
# Velocity S-wave (km/s) = 3.33169 3.74115 3.54234
# Velocity P-wave (km/s) = 5.80221 6.55288 6.18894
#
# Compressibility (1/GPa) = 0.02620183
#
# Stress axis : x y z
#
# Youngs Moduli (GPa) = 59.53115 84.10870 112.32699
#
# Poissons Ratio (x) = 0.10289 0.09678
# Poissons Ratio (y) = 0.07282 0.40540
# Poissons Ratio (z) = 0.05129 0.30356
#
# Static dielectric constant tensor:
#      x y z
#    x 3.644210 0.000000 0.285140 
#    y 0.000000 3.789180 0.000000 
#    z 0.285140 0.000000 3.926660 
# 
# 
# High freq. dielectric constant tensor:
#      x y z
#    x 1.753490 0.000000 0.027600 
#    y 0.000000 1.802300 0.000000 
#    z 0.027600 0.000000 1.800600 
# 
# From -- ./inp_files/181616.got.cif
#   From: 2010.06.25/outbox.cif.g09.slc.cpg/sg15_91_cif.got.tgz:181616.got - 2010.06.28 07:06:18.
