data_PCOD8140110
_publ_section_title
;
Structure prediction by ZEFSAII (Michael W. Deem and Ramdas Pophale) SiO2 
 PCOD8140110
Probable space group: C 2/C
;
_chemical_formula_sum "Si O2"
_cell_formula_units_Z 64
_cell_length_a 14.424354
_cell_length_b 12.020505
_cell_length_c 26.861166
_cell_angle_alpha 90.000000
_cell_angle_beta 39.771894
_cell_angle_gamma 90.000000
_cell_volume 2979.494092
_symmetry_space_group_name_H-M "C 2/C"
_symmetry_group_IT_number 15
_symmetry_cell_setting 'monoclinic'
loop_
_space_group_symop_operation_xyz
x,y,z
-x,y,1/2-z
-x,-y,-z
x,-y,1/2+z
1/2+x,1/2+y,z
1/2-x,1/2+y,1/2-z
1/2-x,1/2-y,-z
1/2+x,1/2-y,1/2+z
loop_
_atom_site_type_symbol
_atom_site_label
_atom_site_fract_x
_atom_site_fract_y
_atom_site_fract_z
Si Si1 0.278408 0.957581 0.568236
Si Si2 0.784504 0.721811 0.929177
Si Si3 0.431304 0.999040 0.604499
Si Si4 0.346907 0.513154 0.040114
Si Si5 0.760925 0.551042 0.313409
Si Si6 0.970672 0.064016 0.890084
Si Si7 0.133430 0.284593 0.807808
Si Si8 0.101891 0.354935 0.289537
O O1 0.269913 0.825216 0.581276
O O2 0.327766 0.012743 0.599513
O O3 0.400076 0.980783 0.476449
O O4 0.122244 0.003620 0.614769
O O5 0.703967 0.610990 0.948207
O O6 0.951747 0.707369 0.847772
O O7 0.750000 0.750000 0.000000
O O8 0.427459 0.877537 0.630288
O O9 0.374295 0.092927 0.665467
O O10 0.250997 0.574255 0.122179
O O11 0.500000 0.500000 0.000000
O O12 0.362038 0.581227 0.982370
O O13 0.609402 0.511856 0.349063
O O14 0.822979 0.663694 0.263679
O O15 0.880988 0.454321 0.257363
O O16 0.017359 0.184663 0.850221
O O17 0.278139 0.236310 0.772613
#
# Coordination Sequence:
#
# PCOD8140110 Si02
#       8
#     8   8   8   8   8   8   8   8
#     4  11  23  40  67  97 126 166 220 271 317 389
#     4  12  22  39  70  97 124 164 219 271 332 373
#     4  10  23  42  63  92 131 165 215 268 323 387
#     4  10  22  37  63 100 130 162 219 277 321 389
#     4   9  21  40  62  93 136 171 216 276 335 388
#     4  10  20  40  66  99 130 170 225 272 319 398
#     4  10  22  41  67  91 132 184 205 266 342 389
#     4  10  21  41  64  91 128 169 215 270 327 388
#
# _framework density 21.480157999999999
#
# number of rings (size 3 to 8) (size 9 to 14) (size 15 to 20)
#    0.000    1.750    2.500    0.750    7.000    1.000 
#    2.250    9.375    8.250    0.000    0.000    0.000 
#    0.000    0.000    0.000    0.000    0.000    0.000 
#
# Total GULP energy -396661.583703 kJ/mol
# GULP energy per Si atom -12395.674491 kJ/mol
# Density = 2.143127 g / cm^3
# Si number density = 21.480158 Si / 1000 Ang^3
#
#
#
# Elastic Constant Matrix: (Units=GPa)
#
#
# Indices 1 2 3 4 5 6 
#
# 1 69.6861 30.6424 32.7714 0.0000 -8.0434 0.0000
# 2 30.6424 123.7992 58.3618 0.0000 -4.4031 0.0000
# 3 32.7714 58.3618 124.1941 0.0000 4.8179 0.0000
# 4 0.0000 0.0000 0.0000 41.7038 0.0000 -7.0273
# 5 -8.0434 -4.4031 4.8179 0.0000 35.6169 0.0000
# 6 0.0000 0.0000 0.0000 -7.0273 0.0000 20.6864
#
#
#
# Elastic Compliance Matrix: (Units=1/GPa)
#
#
# Indices 1 2 3 4 5 6 
#
# 1 0.017644 -0.002502 -0.003642 0.000000 0.004168 0.000000
# 2 -0.002502 0.010868 -0.004501 0.000000 0.001387 0.000000
# 3 -0.003642 -0.004501 0.011240 0.000000 -0.002899 0.000000
# 4 0.000000 0.000000 0.000000 0.025435 0.000000 0.008640
# 5 0.004168 0.001387 -0.002899 0.000000 0.029581 0.000000
# 6 0.000000 0.000000 0.000000 0.008640 0.000000 0.051276
#
#
# Mechanical properties :
#
#
# Convention : Reuss Voigt Hill
#
# Bulk Modulus (GPa) = 54.16165 62.35897 58.26031
# Shear Modulus (GPa) = 28.82048 32.66167 30.74107
#
# Velocity S-wave (km/s) = 3.66693 3.90365 3.78714
# Velocity P-wave (km/s) = 6.57252 7.02937 6.80478
#
# Compressibility (1/GPa) = 0.01846325
#
# Stress axis : x y z
#
# Youngs Moduli (GPa) = 56.67667 92.01312 88.96569
#
# Poissons Ratio (x) = 0.23024 0.32398
# Poissons Ratio (y) = 0.14182 0.40041
# Poissons Ratio (z) = 0.20639 0.41412
#
# Static dielectric constant tensor:
#      x y z
#    x 3.724200 0.000000 0.178550 
#    y 0.000000 3.888400 0.000000 
#    z 0.178550 0.000000 4.645280 
# 
# 
# High freq. dielectric constant tensor:
#      x y z
#    x 1.827590 0.000000 -0.001550 
#    y 0.000000 1.838230 0.000000 
#    z -0.001550 0.000000 1.862270 
# 
# From -- ./inp_files/296093.got.cif
#   From: 2010.06.25/outbox.cif.g09.slc.cpg/sg15_149_cif.got.tgz:296093.got - 2010.06.28 07:06:18.
