data_PCOD8140962
_publ_section_title
;
Structure prediction by ZEFSAII (Michael W. Deem and Ramdas Pophale) SiO2 
 PCOD8140962
Probable space group: C 2/C
;
_chemical_formula_sum "Si O2"
_cell_formula_units_Z 56
_cell_length_a 22.683510
_cell_length_b 17.162115
_cell_length_c 21.731949
_cell_angle_alpha 90.000000
_cell_angle_beta 160.529625
_cell_angle_gamma 90.000000
_cell_volume 2819.943178
_symmetry_space_group_name_H-M "C 2/C"
_symmetry_group_IT_number 15
_symmetry_cell_setting 'monoclinic'
loop_
_space_group_symop_operation_xyz
x,y,z
-x,y,1/2-z
-x,-y,-z
x,-y,1/2+z
1/2+x,1/2+y,z
1/2-x,1/2+y,1/2-z
1/2-x,1/2-y,-z
1/2+x,1/2-y,1/2+z
loop_
_atom_site_type_symbol
_atom_site_label
_atom_site_fract_x
_atom_site_fract_y
_atom_site_fract_z
Si Si1 0.000000 0.018622 0.750000
Si Si2 0.261542 0.047253 0.311496
Si Si3 0.146025 0.409924 0.188999
Si Si4 0.804574 0.152651 0.622129
Si Si5 0.701409 0.362324 0.636791
Si Si6 0.000000 0.723235 0.250000
Si Si7 0.585231 0.481439 0.959029
Si Si8 0.905134 0.691674 0.969391
O O1 0.121110 0.069021 0.823233
O O2 0.893468 0.967826 0.594158
O O3 0.449532 0.076510 0.523867
O O4 0.173518 0.110283 0.179210
O O5 0.302905 0.970886 0.313238
O O6 0.119280 0.032708 0.224475
O O7 0.287317 0.417688 0.383097
O O8 0.149842 0.327650 0.155727
O O9 0.656853 0.168331 0.425392
O O10 0.735028 0.150806 0.623090
O O11 0.949373 0.221644 0.758222
O O12 0.639322 0.429309 0.528494
O O13 0.586139 0.284743 0.513204
O O14 0.907283 0.344975 0.827945
#
# Coordination Sequence:
#
# PCOD8140962 Si02
#       8
#     4   8   8   8   8   4   8   8
#     4  11  26  36  54  82 100 156 219 216 282 337
#     4   9  19  38  58  79 110 152 188 233 292 338
#     4   9  19  37  58  80 109 149 188 238 296 337
#     4  10  21  34  48  71 115 151 194 228 260 327
#     4  10  23  33  56  89 116 150 190 223 295 350
#     4   9  20  34  46  64 108 172 181 216 270 307
#     4  11  23  41  56  77 116 155 194 244 274 334
#     4  11  22  33  56  89 118 149 190 234 288 344
#
# _framework density 19.858556
#
# number of rings (size 3 to 8) (size 9 to 14) (size 15 to 20)
#    0.000    2.000    0.000    4.286   14.000    0.000 
#    0.000    0.000    0.000    0.000    0.000    1.000 
#    0.000    0.000    0.000    0.000    0.000    0.000 
#
# Total GULP energy -347075.445044 kJ/mol
# GULP energy per Si atom -12395.551609 kJ/mol
# Density = 1.981336 g / cm^3
# Si number density = 19.858556 Si / 1000 Ang^3
#
#
#
# Elastic Constant Matrix: (Units=GPa)
#
#
# Indices 1 2 3 4 5 6 
#
# 1 102.6667 33.7081 55.6249 -0.0297 -9.2658 0.0065
# 2 33.7081 40.7930 19.7624 0.0367 0.8161 0.0436
# 3 55.6249 19.7624 91.4684 0.2577 -1.9883 -0.0015
# 4 -0.0297 0.0367 0.2577 26.3455 0.0113 1.1327
# 5 -9.2658 0.8161 -1.9883 0.0113 29.0687 -0.0079
# 6 0.0065 0.0436 -0.0015 1.1327 -0.0079 13.2316
#
#
#
# Elastic Compliance Matrix: (Units=1/GPa)
#
#
# Indices 1 2 3 4 5 6 
#
# 1 0.018766 -0.011339 -0.008839 0.000120 0.005695 0.000020
# 2 -0.011339 0.034271 -0.000609 -0.000048 -0.004618 -0.000106
# 3 -0.008839 -0.000609 0.016404 -0.000170 -0.001678 0.000022
# 4 0.000120 -0.000048 -0.000170 0.038099 0.000012 -0.003262
# 5 0.005695 -0.004618 -0.001678 0.000012 0.036232 0.000033
# 6 0.000020 -0.000106 0.000022 -0.003262 0.000033 0.075856
#
#
# Mechanical properties :
#
#
# Convention : Reuss Voigt Hill
#
# Bulk Modulus (GPa) = 35.88500 50.34653 43.11577
# Shear Modulus (GPa) = 18.48491 22.11802 20.30147
#
# Velocity S-wave (km/s) = 3.05426 3.34095 3.20082
# Velocity P-wave (km/s) = 5.52698 6.34746 5.95137
#
# Compressibility (1/GPa) = 0.02786680
#
# Stress axis : x y z
#
# Youngs Moduli (GPa) = 53.28764 29.17905 60.96212
#
# Poissons Ratio (x) = 0.33085 0.53884
# Poissons Ratio (y) = 0.60422 0.03714
# Poissons Ratio (z) = 0.47101 0.01778
#
# Static dielectric constant tensor:
#      x y z
#    x 3.587440 0.000070 0.031010 
#    y 0.000070 3.628470 -0.000470 
#    z 0.031010 -0.000470 3.870500 
# 
# 
# High freq. dielectric constant tensor:
#      x y z
#    x 1.752960 -0.000010 0.004830 
#    y -0.000010 1.734300 -0.000030 
#    z 0.004830 -0.000030 1.793200 
# 
# From -- ./inp_files/253400.got.cif
#   From: 2010.06.25/outbox.cif.g09.slc.cpg/sg15_127_cif.got.tgz:253400.got - 2010.06.28 07:06:18.
