data_PCOD8140409
_publ_section_title
;
Structure prediction by ZEFSAII (Michael W. Deem and Ramdas Pophale) SiO2 
 PCOD8140409
Probable space group: C 2/C
;
_chemical_formula_sum "Si O2"
_cell_formula_units_Z 56
_cell_length_a 13.935797
_cell_length_b 12.573383
_cell_length_c 29.229205
_cell_angle_alpha 90.000000
_cell_angle_beta 29.352933
_cell_angle_gamma 90.000000
_cell_volume 2510.519238
_symmetry_space_group_name_H-M "C 2/C"
_symmetry_group_IT_number 15
_symmetry_cell_setting 'monoclinic'
loop_
_space_group_symop_operation_xyz
x,y,z
-x,y,1/2-z
-x,-y,-z
x,-y,1/2+z
1/2+x,1/2+y,z
1/2-x,1/2+y,1/2-z
1/2-x,1/2-y,-z
1/2+x,1/2-y,1/2+z
loop_
_atom_site_type_symbol
_atom_site_label
_atom_site_fract_x
_atom_site_fract_y
_atom_site_fract_z
Si Si1 0.373095 0.479047 0.207056
Si Si2 0.661218 0.257552 0.383948
Si Si3 0.715375 0.004276 0.674740
Si Si4 0.141488 0.600235 0.888137
Si Si5 0.770033 0.921467 0.901635
Si Si6 0.058403 0.240072 0.609781
Si Si7 0.283197 0.304158 0.596738
O O1 0.257255 0.516404 0.210407
O O2 0.207391 0.448340 0.312592
O O3 0.517832 0.573909 0.162559
O O4 0.521183 0.383272 0.135357
O O5 0.753272 0.373840 0.351499
O O6 0.795337 0.172248 0.353757
O O7 0.626439 0.221585 0.345142
O O8 0.452466 0.257769 0.494827
O O9 0.500000 0.969183 0.750000
O O10 0.841108 0.920181 0.592289
O O11 0.227830 0.531888 0.893836
O O12 0.234297 0.718597 0.854545
O O13 0.903599 0.601476 0.989557
O O14 0.250000 0.250000 0.500000
O O15 0.087647 0.305215 0.645283
#
# Coordination Sequence:
#
# PCOD8140409 Si02
#       7
#     8   8   8   8   8   8   8
#     4  11  23  44  64  96 134 171 221 275 329 388
#     4   9  21  43  64  93 129 171 210 265 334 392
#     4  11  26  43  59  95 133 170 215 263 334 399
#     4  10  22  39  67 105 124 164 223 279 320 382
#     4  10  21  41  71  95 130 167 218 271 333 383
#     4   9  19  36  68  95 123 169 217 261 320 392
#     4  10  20  41  67  93 125 171 220 269 313 389
#
# _framework density 22.306142999999999
#
# number of rings (size 3 to 8) (size 9 to 14) (size 15 to 20)
#    0.000    2.000    1.429    0.857    4.000    2.286 
#   12.857    1.429    0.000    0.000    0.000    0.000 
#    0.000    0.000    0.000    0.000    0.000    0.000 
#
# Total GULP energy -347040.013817 kJ/mol
# GULP energy per Si atom -12394.286208 kJ/mol
# Density = 2.225537 g / cm^3
# Si number density = 22.306143 Si / 1000 Ang^3
#
#
#
# Elastic Constant Matrix: (Units=GPa)
#
#
# Indices 1 2 3 4 5 6 
#
# 1 180.0649 66.9091 47.9914 -0.0013 1.1633 -0.0002
# 2 66.9091 105.6344 28.1940 0.0016 -0.0836 0.0004
# 3 47.9914 28.1940 63.8140 0.0124 6.5525 -0.0063
# 4 -0.0013 0.0016 0.0124 21.0446 -0.0022 1.9446
# 5 1.1633 -0.0836 6.5525 -0.0022 22.0370 0.0002
# 6 -0.0002 0.0004 -0.0063 1.9446 0.0002 38.4099
#
#
#
# Elastic Compliance Matrix: (Units=1/GPa)
#
#
# Indices 1 2 3 4 5 6 
#
# 1 0.008244 -0.004015 -0.004517 0.000004 0.000893 -0.000001
# 2 -0.004015 0.012736 -0.002717 0.000001 0.001068 -0.000001
# 3 -0.004517 -0.002717 0.020882 -0.000013 -0.005981 0.000004
# 4 0.000004 0.000001 -0.000013 0.047741 0.000009 -0.002417
# 5 0.000893 0.001068 -0.005981 0.000009 0.047114 -0.000002
# 6 -0.000001 -0.000001 0.000004 -0.002417 -0.000002 0.026157
#
#
# Mechanical properties :
#
#
# Convention : Reuss Voigt Hill
#
# Bulk Modulus (GPa) = 51.64518 70.63358 61.13938
# Shear Modulus (GPa) = 26.06503 30.05954 28.06229
#
# Velocity S-wave (km/s) = 3.42206 3.67494 3.55075
# Velocity P-wave (km/s) = 6.23034 7.05274 6.65426
#
# Compressibility (1/GPa) = 0.01936289
#
# Stress axis : x y z
#
# Youngs Moduli (GPa) = 121.30374 78.51848 47.88727
#
# Poissons Ratio (x) = 0.31527 0.21633
# Poissons Ratio (y) = 0.48706 0.13011
# Poissons Ratio (z) = 0.54798 0.21333
#
# Static dielectric constant tensor:
#      x y z
#    x 4.505710 0.000030 0.185530 
#    y 0.000030 4.026150 0.000000 
#    z 0.185530 0.000000 3.873340 
# 
# 
# High freq. dielectric constant tensor:
#      x y z
#    x 1.879200 0.000000 0.003320 
#    y 0.000000 1.876330 0.000000 
#    z 0.003320 0.000000 1.867180 
# 
# From -- ./inp_files/313711.got.cif
#   From: 2010.06.25/outbox.cif.g09.slc.cpg/sg15_157_cif.got.tgz:313711.got - 2010.06.28 07:06:18.
