data_PCOD8140980
_publ_section_title
;
Structure prediction by ZEFSAII (Michael W. Deem and Ramdas Pophale) SiO2 
 PCOD8140980
Probable space group: C 2/C
;
_chemical_formula_sum "Si O2"
_cell_formula_units_Z 48
_cell_length_a 11.224310
_cell_length_b 23.809029
_cell_length_c 9.126454
_cell_angle_alpha 90.000000
_cell_angle_beta 75.912850
_cell_angle_gamma 90.000000
_cell_volume 2365.605320
_symmetry_space_group_name_H-M "C 2/C"
_symmetry_group_IT_number 15
_symmetry_cell_setting 'monoclinic'
loop_
_space_group_symop_operation_xyz
x,y,z
-x,y,1/2-z
-x,-y,-z
x,-y,1/2+z
1/2+x,1/2+y,z
1/2-x,1/2+y,1/2-z
1/2-x,1/2-y,-z
1/2+x,1/2-y,1/2+z
loop_
_atom_site_type_symbol
_atom_site_label
_atom_site_fract_x
_atom_site_fract_y
_atom_site_fract_z
Si Si1 0.829142 0.994247 0.280797
Si Si2 0.553263 0.769966 0.578070
Si Si3 0.562960 0.431070 0.991022
Si Si4 0.197225 0.307865 0.956747
Si Si5 0.282887 0.422016 0.042854
Si Si6 0.293889 0.323422 0.611315
O O1 0.906376 0.952245 0.356900
O O2 0.926558 0.020219 0.134868
O O3 0.759164 0.040984 0.401126
O O4 0.738159 0.957432 0.200815
O O5 0.500000 0.749216 0.750000
O O6 0.448583 0.803311 0.522464
O O7 0.594907 0.715971 0.474566
O O8 0.668691 0.811487 0.560746
O O9 0.426629 0.406472 0.019253
O O10 0.668287 0.386686 0.925344
O O11 0.214387 0.362073 0.056453
O O12 0.274396 0.317018 0.788138
O O13 0.250000 0.250000 0.000000
#
# Coordination Sequence:
#
# PCOD8140980 Si02
#       6
#     8   8   8   8   8   8
#     4  10  21  34  54  86 118 153 194 243 286 344
#     4   9  21  40  58  82 111 149 196 237 289 348
#     4  11  19  33  56  83 115 149 191 238 294 337
#     4  11  23  37  58  87 119 152 191 243 294 350
#     4  11  20  34  56  85 119 150 193 242 295 339
#     4  10  21  38  61  80 113 155 193 235 292 351
#
# _framework density 20.290790999999999
#
# number of rings (size 3 to 8) (size 9 to 14) (size 15 to 20)
#    0.000    1.667    1.667    5.000    0.000    7.333 
#    0.000    0.000    0.000    6.000    0.000    0.000 
#    0.000    0.000    0.000    0.000    0.000    0.000 
#
# Total GULP energy -297524.337211 kJ/mol
# GULP energy per Si atom -12396.847384 kJ/mol
# Density = 2.024461 g / cm^3
# Si number density = 20.290791 Si / 1000 Ang^3
#
#
#
# Elastic Constant Matrix: (Units=GPa)
#
#
# Indices 1 2 3 4 5 6 
#
# 1 79.2199 60.4169 38.0487 0.0000 4.3032 0.0000
# 2 60.4169 128.2346 54.1091 0.0000 13.6928 0.0000
# 3 38.0487 54.1091 103.0991 0.0000 16.5372 0.0000
# 4 0.0000 0.0000 0.0000 35.3432 0.0000 3.1325
# 5 4.3032 13.6928 16.5372 0.0000 29.1416 0.0000
# 6 0.0000 0.0000 0.0000 3.1325 0.0000 34.6064
#
#
#
# Elastic Compliance Matrix: (Units=1/GPa)
#
#
# Indices 1 2 3 4 5 6 
#
# 1 0.020733 -0.008552 -0.003649 0.000000 0.003027 0.000000
# 2 -0.008552 0.013640 -0.003495 0.000000 -0.003163 0.000000
# 3 -0.003649 -0.003495 0.013785 0.000000 -0.005642 0.000000
# 4 0.000000 0.000000 0.000000 0.028523 0.000000 -0.002582
# 5 0.003027 -0.003163 -0.005642 0.000000 0.038556 0.000000
# 6 0.000000 0.000000 0.000000 -0.002582 0.000000 0.029130
#
#
# Mechanical properties :
#
#
# Convention : Reuss Voigt Hill
#
# Bulk Modulus (GPa) = 59.64290 68.41143 64.02716
# Shear Modulus (GPa) = 27.57126 30.35017 28.96071
#
# Velocity S-wave (km/s) = 3.69020 3.87170 3.78204
# Velocity P-wave (km/s) = 6.90034 7.33318 7.12005
#
# Compressibility (1/GPa) = 0.01676646
#
# Stress axis : x y z
#
# Youngs Moduli (GPa) = 48.23152 73.31430 72.54066
#
# Poissons Ratio (x) = 0.62698 0.26470
# Poissons Ratio (y) = 0.41247 0.25354
# Poissons Ratio (z) = 0.17600 0.25625
#
# Static dielectric constant tensor:
#      x y z
#    x 3.490430 0.000000 0.251770 
#    y 0.000000 3.805000 0.000000 
#    z 0.251770 0.000000 3.813570 
# 
# 
# High freq. dielectric constant tensor:
#      x y z
#    x 1.764780 0.000000 0.017590 
#    y 0.000000 1.799420 0.000000 
#    z 0.017590 0.000000 1.803310 
# 
# From -- ./inp_files/32136.got.cif
#   From: 2010.06.25/outbox.cif.g09.slc.cpg/sg15_17_cif.got.tgz:32136.got - 2010.06.28 07:06:18.
