data_PCOD8140789
_publ_section_title
;
Structure prediction by ZEFSAII (Michael W. Deem and Ramdas Pophale) SiO2 
 PCOD8140789
Probable space group: C 2/C
;
_chemical_formula_sum "Si O2"
_cell_formula_units_Z 56
_cell_length_a 23.747028
_cell_length_b 9.197076
_cell_length_c 16.797409
_cell_angle_alpha 90.000000
_cell_angle_beta 43.655656
_cell_angle_gamma 90.000000
_cell_volume 2532.523412
_symmetry_space_group_name_H-M "C 2/C"
_symmetry_group_IT_number 15
_symmetry_cell_setting 'monoclinic'
loop_
_space_group_symop_operation_xyz
x,y,z
-x,y,1/2-z
-x,-y,-z
x,-y,1/2+z
1/2+x,1/2+y,z
1/2-x,1/2+y,1/2-z
1/2-x,1/2-y,-z
1/2+x,1/2-y,1/2+z
loop_
_atom_site_type_symbol
_atom_site_label
_atom_site_fract_x
_atom_site_fract_y
_atom_site_fract_z
Si Si1 0.571918 0.736617 0.871974
Si Si2 0.660637 0.142884 0.822055
Si Si3 0.333090 0.309085 0.447665
Si Si4 0.057320 0.992375 0.260860
Si Si5 0.935900 0.415941 0.926442
Si Si6 0.748614 0.130141 0.190335
Si Si7 0.993670 0.710073 0.617733
O O1 0.548853 0.581494 0.856263
O O2 0.518007 0.853283 0.880588
O O3 0.665980 0.777955 0.759332
O O4 0.551060 0.731320 0.987120
O O5 0.701992 0.301588 0.785543
O O6 0.587343 0.139642 0.835526
O O7 0.731904 0.037211 0.721368
O O8 0.633890 0.082587 0.935240
O O9 0.250000 0.250000 0.500000
O O10 0.356129 0.442622 0.364857
O O11 0.401512 0.177930 0.386258
O O12 0.314954 0.372265 0.552577
O O13 0.000000 0.927178 0.250000
O O14 0.036099 0.162186 0.292859
O O15 0.957407 0.584928 0.882725
#
# Coordination Sequence:
#
# PCOD8140789 Si02
#       7
#     8   8   8   8   8   8   8
#     4  11  20  42  73  94 127 178 228 282 337 401
#     4  10  22  39  65 100 129 164 224 285 342 392
#     4  11  24  42  66  95 139 188 222 262 347 429
#     4  12  26  44  63  99 138 177 226 278 340 409
#     4  10  20  43  70  92 126 174 232 281 325 403
#     4  11  22  38  67  96 134 174 219 277 341 406
#     4  11  23  43  71 101 129 169 239 293 330 390
#
# _framework density 22.112331999999999
#
# number of rings (size 3 to 8) (size 9 to 14) (size 15 to 20)
#    0.000    1.143    5.714    1.286    2.000    1.143 
#    5.143    0.714    0.000    0.000    0.000    0.000 
#    0.000    0.000    0.000    0.000    0.000    0.000 
#
# Total GULP energy -346932.617947 kJ/mol
# GULP energy per Si atom -12390.450641 kJ/mol
# Density = 2.206200 g / cm^3
# Si number density = 22.112332 Si / 1000 Ang^3
#
#
#
# Elastic Constant Matrix: (Units=GPa)
#
#
# Indices 1 2 3 4 5 6 
#
# 1 59.4077 23.3380 22.8361 0.0036 -1.7837 -0.0021
# 2 23.3380 131.8414 67.1477 0.0039 6.5156 -0.0015
# 3 22.8361 67.1477 92.4898 -0.0020 -5.1761 0.0016
# 4 0.0036 0.0039 -0.0020 41.5720 -0.0008 -8.5141
# 5 -1.7837 6.5156 -5.1761 -0.0008 23.9346 0.0002
# 6 -0.0021 -0.0015 0.0016 -8.5141 0.0002 25.6337
#
#
#
# Elastic Compliance Matrix: (Units=1/GPa)
#
#
# Indices 1 2 3 4 5 6 
#
# 1 0.018819 -0.001670 -0.003371 -0.000001 0.001128 0.000001
# 2 -0.001670 0.012866 -0.009243 -0.000001 -0.005626 0.000001
# 3 -0.003371 -0.009243 0.018708 0.000002 0.006311 -0.000001
# 4 -0.000001 -0.000001 0.000002 0.025810 0.000002 0.008573
# 5 0.001128 -0.005626 0.006311 0.000002 0.044761 0.000000
# 6 0.000001 0.000001 -0.000001 0.008573 0.000000 0.041859
#
#
# Mechanical properties :
#
#
# Convention : Reuss Voigt Hill
#
# Bulk Modulus (GPa) = 45.82031 56.70917 51.26474
# Shear Modulus (GPa) = 25.16785 29.58919 27.37852
#
# Velocity S-wave (km/s) = 3.37735 3.66202 3.52256
# Velocity P-wave (km/s) = 5.99794 6.60167 6.30704
#
# Compressibility (1/GPa) = 0.02182438
#
# Stress axis : x y z
#
# Youngs Moduli (GPa) = 53.13916 77.72245 53.45274
#
# Poissons Ratio (x) = 0.12982 0.18017
# Poissons Ratio (y) = 0.08876 0.49408
# Poissons Ratio (z) = 0.17911 0.71842
#
# Static dielectric constant tensor:
#      x y z
#    x 3.978110 -0.000010 -0.065030 
#    y -0.000010 3.912930 0.000010 
#    z -0.065030 0.000010 5.521280 
# 
# 
# High freq. dielectric constant tensor:
#      x y z
#    x 1.863510 0.000000 -0.010970 
#    y 0.000000 1.862620 0.000000 
#    z -0.010970 0.000000 1.869060 
# 
# From -- ./inp_files/222018.got.cif
#   From: 2010.06.25/outbox.cif.g09.slc.cpg/sg15_112_cif.got.tgz:222018.got - 2010.06.28 07:06:18.
