data_PCOD8140142
_publ_section_title
;
Structure prediction by ZEFSAII (Michael W. Deem and Ramdas Pophale) SiO2 
 PCOD8140142
Probable space group: C 2/C
;
_chemical_formula_sum "Si O2"
_cell_formula_units_Z 24
_cell_length_a 8.637897
_cell_length_b 10.697865
_cell_length_c 17.994153
_cell_angle_alpha 90.000000
_cell_angle_beta 29.659921
_cell_angle_gamma 90.000000
_cell_volume 822.831547
_symmetry_space_group_name_H-M "C 2/C"
_symmetry_group_IT_number 15
_symmetry_cell_setting 'monoclinic'
loop_
_space_group_symop_operation_xyz
x,y,z
-x,y,1/2-z
-x,-y,-z
x,-y,1/2+z
1/2+x,1/2+y,z
1/2-x,1/2+y,1/2-z
1/2-x,1/2-y,-z
1/2+x,1/2-y,1/2+z
loop_
_atom_site_type_symbol
_atom_site_label
_atom_site_fract_x
_atom_site_fract_y
_atom_site_fract_z
Si Si1 0.134976 0.106800 0.892195
Si Si2 0.044852 0.919981 0.644445
Si Si3 0.653537 0.790085 0.382909
O O1 0.500000 0.129108 0.750000
O O2 0.065968 0.058911 0.836683
O O3 0.956439 0.231036 0.992279
O O4 0.000000 0.000000 0.000000
O O5 0.411764 0.903969 0.468398
O O6 0.000000 0.906685 0.750000
O O7 0.851480 0.808835 0.683622
O O8 0.000000 0.843408 0.250000
#
# Coordination Sequence:
#
# PCOD8140142 Si02
#       3
#     8   8   8
#     4  10  20  40  67  94 133 178 219 276 344 401
#     4  10  21  39  66 100 130 173 234 277 330 409
#     4  10  22  43  67  95 138 181 218 279 349 403
#
# _framework density 29.167573999999998
#
# number of rings (size 3 to 8) (size 9 to 14) (size 15 to 20)
#    0.000    2.000    0.000    5.000    0.000    1.333 
#    0.000   30.000    0.000    8.000    0.000    0.000 
#    0.000    0.000    0.000    0.000    0.000    0.000 
#
# Total GULP energy -148786.308845 kJ/mol
# GULP energy per Si atom -12398.859070 kJ/mol
# Density = 2.910119 g / cm^3
# Si number density = 29.167574 Si / 1000 Ang^3
#
#
#
# Elastic Constant Matrix: (Units=GPa)
#
#
# Indices 1 2 3 4 5 6 
#
# 1 189.0675 48.0601 83.3688 0.0024 11.1769 -0.0066
# 2 48.0601 59.7604 -10.3925 0.0044 -10.9549 -0.0048
# 3 83.3688 -10.3925 147.1420 0.0076 -27.2881 -0.0180
# 4 0.0024 0.0044 0.0076 -23.1713 -0.0044 16.7122
# 5 11.1769 -10.9549 -27.2881 -0.0044 89.7753 0.0104
# 6 -0.0066 -0.0048 -0.0180 16.7122 0.0104 35.6839
#
#
#
# Elastic Compliance Matrix: (Units=1/GPa)
#
#
# Indices 1 2 3 4 5 6 
#
# 1 0.013421 -0.013640 -0.009735 -0.000004 -0.006294 -0.000001
# 2 -0.013640 0.031386 0.011626 0.000008 0.009062 0.000001
# 3 -0.009735 0.011626 0.014434 0.000006 0.007018 0.000002
# 4 -0.000004 0.000008 0.000006 -0.032260 0.000000 0.015109
# 5 -0.006294 0.009062 0.007018 0.000000 0.015162 -0.000001
# 6 -0.000001 0.000001 0.000002 0.015109 -0.000001 0.020948
#
#
# Mechanical properties :
#
#
# Convention : Reuss Voigt Hill
#
# Bulk Modulus (GPa) = 27.97776 70.89364 49.43570
# Shear Modulus (GPa) = 50.75920 38.78647 44.77283
#
# Velocity S-wave (km/s) = 4.17617 3.65057 3.92218
# Velocity P-wave (km/s) = 5.73295 6.49055 6.12348
#
# Compressibility (1/GPa) = 0.03574267
#
# Stress axis : x y z
#
# Youngs Moduli (GPa) = 74.50969 31.86135 69.27855
#
# Poissons Ratio (x) = 0.43459 0.67442
# Poissons Ratio (y) = 1.01633 -0.80541
# Poissons Ratio (z) = 0.72535 -0.37041
#
# Static dielectric constant tensor:
#      x y z
#    x 7.394110 -0.000050 0.883560 
#    y -0.000050 6.328720 -0.000020 
#    z 0.883560 -0.000020 5.868390 
# 
# 
# High freq. dielectric constant tensor:
#      x y z
#    x 2.201210 0.000000 0.022490 
#    y 0.000000 2.188100 0.000000 
#    z 0.022490 0.000000 2.204290 
# 
# From -- ./inp_files/21046.got.cif
#   From: 2010.06.25/outbox.cif.g09.slc.cpg/sg15_11_cif.got.tgz:21046.got - 2010.06.28 07:06:18.
