data_PCOD8140733
_publ_section_title
;
Structure prediction by ZEFSAII (Michael W. Deem and Ramdas Pophale) SiO2 
 PCOD8140733
Probable space group: C 2/C
;
_chemical_formula_sum "Si O2"
_cell_formula_units_Z 52
_cell_length_a 16.133492
_cell_length_b 21.661105
_cell_length_c 8.419600
_cell_angle_alpha 90.000000
_cell_angle_beta 55.243085
_cell_angle_gamma 90.000000
_cell_volume 2417.404466
_symmetry_space_group_name_H-M "C 2/C"
_symmetry_group_IT_number 15
_symmetry_cell_setting 'monoclinic'
loop_
_space_group_symop_operation_xyz
x,y,z
-x,y,1/2-z
-x,-y,-z
x,-y,1/2+z
1/2+x,1/2+y,z
1/2-x,1/2+y,1/2-z
1/2-x,1/2-y,-z
1/2+x,1/2-y,1/2+z
loop_
_atom_site_type_symbol
_atom_site_label
_atom_site_fract_x
_atom_site_fract_y
_atom_site_fract_z
Si Si1 0.734972 0.233942 0.265343
Si Si2 0.776821 0.348112 0.000266
Si Si3 0.118727 0.803622 0.643516
Si Si4 0.102574 0.944494 0.222313
Si Si5 0.878611 0.438560 0.091795
Si Si6 0.000000 0.532502 0.750000
Si Si7 0.166478 0.063000 0.981304
O O1 0.738104 0.293236 0.151403
O O2 0.844873 0.215913 0.219265
O O3 0.655124 0.248033 0.490453
O O4 0.692708 0.176858 0.206795
O O5 0.688416 0.397491 0.071643
O O6 0.872552 0.378367 0.985613
O O7 0.173763 0.868422 0.544734
O O8 0.000000 0.811236 0.750000
O O9 0.082324 0.939321 0.433599
O O10 0.000000 0.925042 0.250000
O O11 0.136978 0.014411 0.147624
O O12 0.769428 0.456316 0.279739
O O13 0.948473 0.425754 0.169783
O O14 0.917239 0.492444 0.934242
#
# Coordination Sequence:
#
# PCOD8140733 Si02
#       7
#     8   8   8   8   8   4   8
#     4  10  23  46  65  92 129 178 221 278 322 385
#     4  10  22  43  67  90 132 169 220 269 331 380
#     4  11  24  45  69  97 131 176 224 274 332 393
#     4  11  23  37  65 102 132 167 211 261 326 406
#     4  10  20  43  60  98 124 178 211 272 327 386
#     4  10  22  40  70  88 140 166 224 270 322 396
#     4  11  23  41  65  97 138 167 209 267 343 392
#
# _framework density 21.510674000000002
#
# number of rings (size 3 to 8) (size 9 to 14) (size 15 to 20)
#    0.000    1.538    3.077    2.769    4.308    0.000 
#    9.692    1.538    0.000    0.000    0.000    0.000 
#    0.000    0.000    0.000    0.000    0.000    0.000 
#
# Total GULP energy -322300.022304 kJ/mol
# GULP energy per Si atom -12396.154704 kJ/mol
# Density = 2.146171 g / cm^3
# Si number density = 21.510674 Si / 1000 Ang^3
#
#
#
# Elastic Constant Matrix: (Units=GPa)
#
#
# Indices 1 2 3 4 5 6 
#
# 1 138.0047 51.6287 35.8154 0.0000 15.5100 0.0000
# 2 51.6287 102.9317 28.4275 0.0000 11.3704 0.0000
# 3 35.8154 28.4275 62.1898 0.0000 4.8520 0.0000
# 4 0.0000 0.0000 0.0000 25.6692 0.0000 15.7607
# 5 15.5100 11.3704 4.8520 0.0000 39.2270 0.0000
# 6 0.0000 0.0000 0.0000 15.7607 0.0000 38.3316
#
#
#
# Elastic Compliance Matrix: (Units=1/GPa)
#
#
# Indices 1 2 3 4 5 6 
#
# 1 0.009866 -0.003626 -0.003839 0.000000 -0.002375 0.000000
# 2 -0.003626 0.012725 -0.003587 0.000000 -0.001811 0.000000
# 3 -0.003839 -0.003587 0.019923 0.000000 0.000093 0.000000
# 4 0.000000 0.000000 0.000000 0.052114 0.000000 -0.021427
# 5 -0.002375 -0.001811 0.000093 0.000000 0.026945 0.000000
# 6 0.000000 0.000000 0.000000 -0.021427 0.000000 0.034898
#
#
# Mechanical properties :
#
#
# Convention : Reuss Voigt Hill
#
# Bulk Modulus (GPa) = 48.99670 59.42993 54.21331
# Shear Modulus (GPa) = 26.97193 33.12921 30.05057
#
# Velocity S-wave (km/s) = 3.54487 3.92870 3.74171
# Velocity P-wave (km/s) = 6.29143 6.94750 6.62759
#
# Compressibility (1/GPa) = 0.02040954
#
# Stress axis : x y z
#
# Youngs Moduli (GPa) = 101.35971 78.58800 50.19296
#
# Poissons Ratio (x) = 0.28495 0.19269
# Poissons Ratio (y) = 0.36752 0.18004
# Poissons Ratio (z) = 0.38912 0.28190
#
# Static dielectric constant tensor:
#      x y z
#    x 4.273110 0.000000 0.376860 
#    y 0.000000 3.958690 0.000000 
#    z 0.376860 0.000000 3.875580 
# 
# 
# High freq. dielectric constant tensor:
#      x y z
#    x 1.855600 0.000000 0.022320 
#    y 0.000000 1.840210 0.000000 
#    z 0.022320 0.000000 1.837210 
# 
# From -- ./inp_files/50566.got.cif
#   From: 2010.06.25/outbox.cif.g09.slc.cpg/sg15_26_cif.got.tgz:50566.got - 2010.06.28 07:06:18.
