data_PCOD8140707
_publ_section_title
;
Structure prediction by ZEFSAII (Michael W. Deem and Ramdas Pophale) SiO2 
 PCOD8140707
Probable space group: C 2/C
;
_chemical_formula_sum "Si O2"
_cell_formula_units_Z 44
_cell_length_a 7.019811
_cell_length_b 17.889137
_cell_length_c 18.778324
_cell_angle_alpha 90.000000
_cell_angle_beta 61.282064
_cell_angle_gamma 90.000000
_cell_volume 2068.088627
_symmetry_space_group_name_H-M "C 2/C"
_symmetry_group_IT_number 15
_symmetry_cell_setting 'monoclinic'
loop_
_space_group_symop_operation_xyz
x,y,z
-x,y,1/2-z
-x,-y,-z
x,-y,1/2+z
1/2+x,1/2+y,z
1/2-x,1/2+y,1/2-z
1/2-x,1/2-y,-z
1/2+x,1/2-y,1/2+z
loop_
_atom_site_type_symbol
_atom_site_label
_atom_site_fract_x
_atom_site_fract_y
_atom_site_fract_z
Si Si1 0.000000 0.128429 0.750000
Si Si2 0.930170 0.581519 0.450229
Si Si3 0.101062 0.878639 0.895024
Si Si4 0.156712 0.006180 0.613593
Si Si5 0.098206 0.273614 0.307170
Si Si6 0.171080 0.667913 0.526240
O O1 0.911930 0.078442 0.830118
O O2 0.820676 0.184225 0.751330
O O3 0.822884 0.617136 0.399548
O O4 0.749236 0.528949 0.519292
O O5 0.139603 0.535268 0.384807
O O6 0.006202 0.644588 0.492743
O O7 0.124085 0.803045 0.846019
O O8 0.054419 0.951430 0.853817
O O9 0.890309 0.881035 0.985454
O O10 0.000000 0.250142 0.250000
O O11 0.948916 0.334123 0.376198
O O12 0.250000 0.750000 0.500000
#
# Coordination Sequence:
#
# PCOD8140707 Si02
#       6
#     4   8   8   8   8   8
#     4  12  26  44  66  94 142 180 216 268 348 392
#     4  10  20  42  71  96 128 166 237 270 330 388
#     4  10  23  42  72  94 126 175 224 277 329 391
#     4  10  23  41  67 100 129 171 222 281 322 405
#     4  11  26  42  62  97 138 174 216 270 338 404
#     4   9  20  39  64  94 123 165 218 273 316 388
#
# _framework density 21.275683999999998
#
# number of rings (size 3 to 8) (size 9 to 14) (size 15 to 20)
#    0.000    1.818    1.818    0.545    3.818    8.727 
#    0.000    0.000    0.000    0.000    0.000    0.000 
#    0.000    0.000    0.000    0.000    0.000    0.000 
#
# Total GULP energy -272682.411018 kJ/mol
# GULP energy per Si atom -12394.655046 kJ/mol
# Density = 2.122726 g / cm^3
# Si number density = 21.275684 Si / 1000 Ang^3
#
#
#
# Elastic Constant Matrix: (Units=GPa)
#
#
# Indices 1 2 3 4 5 6 
#
# 1 150.6533 65.4526 60.3818 0.0000 18.0569 0.0000
# 2 65.4526 121.0737 38.3378 0.0000 5.8358 0.0000
# 3 60.3818 38.3378 82.7103 0.0000 3.7752 0.0000
# 4 0.0000 0.0000 0.0000 35.6479 0.0000 0.3593
# 5 18.0569 5.8358 3.7752 0.0000 26.4420 0.0000
# 6 0.0000 0.0000 0.0000 0.3593 0.0000 34.3702
#
#
#
# Elastic Compliance Matrix: (Units=1/GPa)
#
#
# Indices 1 2 3 4 5 6 
#
# 1 0.011673 -0.003989 -0.006391 0.000000 -0.006178 0.000000
# 2 -0.003989 0.011103 -0.002262 0.000000 0.000596 0.000000
# 3 -0.006391 -0.002262 0.017697 0.000000 0.002336 0.000000
# 4 0.000000 0.000000 0.000000 0.028055 0.000000 -0.000293
# 5 -0.006178 0.000596 0.002336 0.000000 0.041572 0.000000
# 6 0.000000 0.000000 0.000000 -0.000293 0.000000 0.029098
#
#
# Mechanical properties :
#
#
# Convention : Reuss Voigt Hill
#
# Bulk Modulus (GPa) = 65.82855 75.86466 70.84660
# Shear Modulus (GPa) = 29.49071 31.97636 30.73353
#
# Velocity S-wave (km/s) = 3.72711 3.88100 3.80483
# Velocity P-wave (km/s) = 7.03773 7.47116 7.25768
#
# Compressibility (1/GPa) = 0.01519098
#
# Stress axis : x y z
#
# Youngs Moduli (GPa) = 85.67072 90.06366 56.50528
#
# Poissons Ratio (x) = 0.35925 0.36110
# Poissons Ratio (y) = 0.34173 0.12780
# Poissons Ratio (z) = 0.54748 0.20370
#
# Static dielectric constant tensor:
#      x y z
#    x 3.984110 0.000000 -0.571880 
#    y 0.000000 4.233710 0.000000 
#    z -0.571880 0.000000 4.467460 
# 
# 
# High freq. dielectric constant tensor:
#      x y z
#    x 1.833610 0.000000 -0.013380 
#    y 0.000000 1.848500 0.000000 
#    z -0.013380 0.000000 1.815680 
# 
# From -- ./inp_files/184817.got.cif
#   From: 2010.06.25/outbox.cif.g09.slc.cpg/sg15_93_cif.got.tgz:184817.got - 2010.06.28 07:06:18.
