data_PCOD8140595
_publ_section_title
;
Structure prediction by ZEFSAII (Michael W. Deem and Ramdas Pophale) SiO2 
 PCOD8140595
Probable space group: C 2/C
;
_chemical_formula_sum "Si O2"
_cell_formula_units_Z 40
_cell_length_a 9.972276
_cell_length_b 25.417012
_cell_length_c 17.740278
_cell_angle_alpha 90.000000
_cell_angle_beta 26.673268
_cell_angle_gamma 90.000000
_cell_volume 2018.509873
_symmetry_space_group_name_H-M "C 2/C"
_symmetry_group_IT_number 15
_symmetry_cell_setting 'monoclinic'
loop_
_space_group_symop_operation_xyz
x,y,z
-x,y,1/2-z
-x,-y,-z
x,-y,1/2+z
1/2+x,1/2+y,z
1/2-x,1/2+y,1/2-z
1/2-x,1/2-y,-z
1/2+x,1/2-y,1/2+z
loop_
_atom_site_type_symbol
_atom_site_label
_atom_site_fract_x
_atom_site_fract_y
_atom_site_fract_z
Si Si1 0.184578 0.259184 0.946380
Si Si2 0.817329 0.955128 0.052376
Si Si3 0.161020 0.152089 0.897121
Si Si4 0.691739 0.044195 0.445832
Si Si5 0.270188 0.856846 0.169625
O O1 0.500000 0.275002 0.750000
O O2 0.018097 0.207719 0.994190
O O3 0.250000 0.250000 0.000000
O O4 0.939157 0.304313 0.060308
O O5 0.500000 0.949326 0.250000
O O6 0.975236 0.897918 0.987665
O O7 0.780602 0.973175 0.985179
O O8 0.000000 0.000000 0.000000
O O9 0.500000 0.160832 0.750000
O O10 0.130025 0.144047 0.823516
O O11 0.506563 0.096965 0.543668
O O12 0.000000 0.055664 0.250000
O O13 0.500000 0.000000 0.500000
O O14 0.000000 0.868512 0.250000
#
# Coordination Sequence:
#
# PCOD8140595 Si02
#       5
#     8   8   8   8   8
#     4  11  20  41  72  94 126 174 221 264 330 396
#     4  11  22  42  68  91 127 172 215 262 322 387
#     4  10  20  42  66  90 129 173 215 259 334 384
#     4  12  25  42  66 100 133 169 221 272 325 389
#     4  12  25  42  67  99 136 172 213 278 330 388
#
# _framework density 19.816597999999999
#
# number of rings (size 3 to 8) (size 9 to 14) (size 15 to 20)
#    0.000    0.800    8.000    2.400    2.800    0.800 
#    0.000    1.000    0.000    0.000    0.000    0.000 
#    0.000    0.000    0.000    0.000    0.000    0.000 
#
# Total GULP energy -247970.212446 kJ/mol
# GULP energy per Si atom -12398.510622 kJ/mol
# Density = 1.977149 g / cm^3
# Si number density = 19.816598 Si / 1000 Ang^3
#
#
#
# Elastic Constant Matrix: (Units=GPa)
#
#
# Indices 1 2 3 4 5 6 
#
# 1 174.5089 52.2686 42.8518 -0.0038 15.2543 0.0171
# 2 52.2686 159.9760 21.3098 0.3477 -1.0417 -0.0986
# 3 42.8518 21.3098 58.2686 1.4394 11.5199 -0.1909
# 4 -0.0038 0.3477 1.4394 48.9203 -0.0893 -4.3598
# 5 15.2543 -1.0417 11.5199 -0.0893 34.8566 0.0289
# 6 0.0171 -0.0986 -0.1909 -4.3598 0.0289 37.4138
#
#
#
# Elastic Compliance Matrix: (Units=1/GPa)
#
#
# Indices 1 2 3 4 5 6 
#
# 1 0.007566 -0.001884 -0.004507 0.000142 -0.001877 -0.000013
# 2 -0.001884 0.007077 -0.001506 -0.000002 0.001534 0.000010
# 3 -0.004507 -0.001506 0.022107 -0.000646 -0.005380 0.000040
# 4 0.000142 -0.000002 -0.000646 0.020675 0.000202 0.002406
# 5 -0.001877 0.001534 -0.005380 0.000202 0.031335 -0.000023
# 6 -0.000013 0.000010 0.000040 0.002406 -0.000023 0.027009
#
#
# Mechanical properties :
#
#
# Convention : Reuss Voigt Hill
#
# Bulk Modulus (GPa) = 47.71976 69.51263 58.61620
# Shear Modulus (GPa) = 36.08858 42.65970 39.37414
#
# Velocity S-wave (km/s) = 4.27210 4.64478 4.46233
# Velocity P-wave (km/s) = 6.96185 7.99496 7.49623
#
# Compressibility (1/GPa) = 0.02095568
#
# Stress axis : x y z
#
# Youngs Moduli (GPa) = 132.17817 141.30125 45.23432
#
# Poissons Ratio (x) = 0.26622 0.20388
# Poissons Ratio (y) = 0.24903 0.06811
# Poissons Ratio (z) = 0.59576 0.21277
#
# Static dielectric constant tensor:
#      x y z
#    x 3.865870 0.003500 0.280110 
#    y 0.003500 5.189500 0.002530 
#    z 0.280110 0.002530 3.344180 
# 
# 
# High freq. dielectric constant tensor:
#      x y z
#    x 1.785580 0.000000 0.014830 
#    y 0.000000 1.798130 0.000030 
#    z 0.014830 0.000030 1.748550 
# 
# From -- ./inp_files/193418.got.cif
#   From: 2010.06.25/outbox.cif.g09.slc.cpg/sg15_97_cif.got.tgz:193418.got - 2010.06.28 07:06:18.
