data_PCOD8140160
_publ_section_title
;
Structure prediction by ZEFSAII (Michael W. Deem and Ramdas Pophale) SiO2 
 PCOD8140160
Probable space group: C 2/C
;
_chemical_formula_sum "Si O2"
_cell_formula_units_Z 44
_cell_length_a 12.276379
_cell_length_b 8.202969
_cell_length_c 18.107687
_cell_angle_alpha 90.000000
_cell_angle_beta 109.582854
_cell_angle_gamma 90.000000
_cell_volume 1718.019081
_symmetry_space_group_name_H-M "C 2/C"
_symmetry_group_IT_number 15
_symmetry_cell_setting 'monoclinic'
loop_
_space_group_symop_operation_xyz
x,y,z
-x,y,1/2-z
-x,-y,-z
x,-y,1/2+z
1/2+x,1/2+y,z
1/2-x,1/2+y,1/2-z
1/2-x,1/2-y,-z
1/2+x,1/2-y,1/2+z
loop_
_atom_site_type_symbol
_atom_site_label
_atom_site_fract_x
_atom_site_fract_y
_atom_site_fract_z
Si Si1 0.092449 0.001368 0.664165
Si Si2 0.799291 0.348554 0.134896
Si Si3 0.500000 0.019831 0.250000
Si Si4 0.655859 0.487874 0.344905
Si Si5 0.120273 0.312017 0.075047
Si Si6 0.051949 0.579684 0.414281
O O1 0.167152 0.121251 0.629582
O O2 0.153455 0.979986 0.756733
O O3 0.079999 0.829883 0.619383
O O4 0.964487 0.071488 0.647038
O O5 0.888164 0.398489 0.222084
O O6 0.808425 0.161507 0.112255
O O7 0.835481 0.461850 0.073104
O O8 0.504737 0.140161 0.322636
O O9 0.742483 0.341020 0.384498
O O10 0.056230 0.478258 0.080113
O O11 0.088937 0.279326 0.980837
#
# Coordination Sequence:
#
# PCOD8140160 Si02
#       6
#     8   8   4   8   8   8
#     4  11  22  40  63  92 127 168 207 256 312 365
#     4  10  20  40  68  87 125 167 205 255 312 370
#     4   8  16  38  62  86 116 168 200 250 310 370
#     4  11  22  39  64  92 126 165 212 254 307 377
#     4  11  22  40  64  96 126 163 209 263 304 371
#     4   9  20  39  66  90 123 168 207 251 319 367
#
# _framework density 25.610892
#
# number of rings (size 3 to 8) (size 9 to 14) (size 15 to 20)
#    1.091    0.727    1.818    4.364    0.000    1.455 
#    3.273    2.727    0.000    0.000    0.000    0.000 
#    0.000    0.000    0.000    0.000    0.000    0.000 
#
# Total GULP energy -272632.168977 kJ/mol
# GULP energy per Si atom -12392.371317 kJ/mol
# Density = 2.555260 g / cm^3
# Si number density = 25.610892 Si / 1000 Ang^3
#
#
#
# Elastic Constant Matrix: (Units=GPa)
#
#
# Indices 1 2 3 4 5 6 
#
# 1 142.6527 3.3152 14.4234 0.0000 2.5719 0.0000
# 2 3.3152 45.1562 4.6566 0.0000 6.2072 0.0000
# 3 14.4234 4.6566 150.6995 0.0000 -6.2405 0.0000
# 4 0.0000 0.0000 0.0000 18.8128 0.0000 1.4060
# 5 2.5719 6.2072 -6.2405 0.0000 25.5522 0.0000
# 6 0.0000 0.0000 0.0000 1.4060 0.0000 20.1094
#
#
#
# Elastic Compliance Matrix: (Units=1/GPa)
#
#
# Indices 1 2 3 4 5 6 
#
# 1 0.007103 -0.000338 -0.000703 0.000000 -0.000804 0.000000
# 2 -0.000338 0.023061 -0.000920 0.000000 -0.005793 0.000000
# 3 -0.000703 -0.000920 0.006812 0.000000 0.001958 0.000000
# 4 0.000000 0.000000 0.000000 0.053435 0.000000 -0.003736
# 5 -0.000804 -0.005793 0.001958 0.000000 0.041102 0.000000
# 6 0.000000 0.000000 0.000000 -0.003736 0.000000 0.049989
#
#
# Mechanical properties :
#
#
# Convention : Reuss Voigt Hill
#
# Bulk Modulus (GPa) = 30.25282 42.58875 36.42079
# Shear Modulus (GPa) = 25.45256 33.96908 29.71082
#
# Velocity S-wave (km/s) = 3.15591 3.64586 3.40970
# Velocity P-wave (km/s) = 5.01177 5.86416 5.45464
#
# Compressibility (1/GPa) = 0.03305477
#
# Stress axis : x y z
#
# Youngs Moduli (GPa) = 140.77665 43.36258 146.78915
#
# Poissons Ratio (x) = 0.01468 0.10315
# Poissons Ratio (y) = 0.04765 0.13506
# Poissons Ratio (z) = 0.09893 0.03990
#
# Static dielectric constant tensor:
#      x y z
#    x 4.693820 0.000000 -0.142120 
#    y 0.000000 3.960570 0.000000 
#    z -0.142120 0.000000 4.769800 
# 
# 
# High freq. dielectric constant tensor:
#      x y z
#    x 2.034580 0.000000 -0.007370 
#    y 0.000000 2.000580 0.000000 
#    z -0.007370 0.000000 2.014330 
# 
# From -- ./inp_files/236204.got.cif
#   From: 2010.06.25/outbox.cif.g09.slc.cpg/sg15_119_cif.got.tgz:236204.got - 2010.06.28 07:06:18.
