data_PCOD8140609
_publ_section_title
;
Structure prediction by ZEFSAII (Michael W. Deem and Ramdas Pophale) SiO2 
 PCOD8140609
Probable space group: C 2/C
;
_chemical_formula_sum "Si O2"
_cell_formula_units_Z 60
_cell_length_a 11.915822
_cell_length_b 24.923624
_cell_length_c 9.480722
_cell_angle_alpha 90.000000
_cell_angle_beta 88.202096
_cell_angle_gamma 90.000000
_cell_volume 2814.250539
_symmetry_space_group_name_H-M "C 2/C"
_symmetry_group_IT_number 15
_symmetry_cell_setting 'monoclinic'
loop_
_space_group_symop_operation_xyz
x,y,z
-x,y,1/2-z
-x,-y,-z
x,-y,1/2+z
1/2+x,1/2+y,z
1/2-x,1/2+y,1/2-z
1/2-x,1/2-y,-z
1/2+x,1/2-y,1/2+z
loop_
_atom_site_type_symbol
_atom_site_label
_atom_site_fract_x
_atom_site_fract_y
_atom_site_fract_z
Si Si1 0.800322 0.028048 0.389443
Si Si2 0.070497 0.533776 0.887528
Si Si3 0.129267 0.176275 0.760069
Si Si4 0.702732 0.650915 0.071562
Si Si5 0.119603 0.051056 0.404800
Si Si6 0.206341 0.626717 0.977372
Si Si7 0.000000 0.130872 0.250000
Si Si8 0.372517 0.199380 0.272929
O O1 0.772015 0.087649 0.444251
O O2 0.873253 0.025848 0.248336
O O3 0.688073 0.995810 0.362706
O O4 0.889925 0.997971 0.487285
O O5 0.094088 0.596144 0.927146
O O6 0.000000 0.534309 0.750000
O O7 0.000000 0.500000 0.000000
O O8 0.211842 0.142410 0.655839
O O9 0.136434 0.237159 0.709574
O O10 0.000000 0.155395 0.750000
O O11 0.171109 0.173508 0.919945
O O12 0.606415 0.665032 0.194030
O O13 0.810762 0.680112 0.132421
O O14 0.234141 0.083155 0.426827
O O15 0.019978 0.095059 0.393601
O O16 0.175219 0.676508 0.077863
O O17 0.500000 0.180247 0.250000
#
# Coordination Sequence:
#
# PCOD8140609 Si02
#       8
#     8   8   8   8   8   8   4   8
#     4  10  22  38  59  89 134 169 215 269 330 403
#     4  11  25  38  65  98 137 180 231 271 336 421
#     4  11  26  45  70 102 134 175 238 299 354 414
#     4  11  24  42  72  95 137 176 230 284 357 419
#     4  10  21  37  60  91 124 169 211 261 329 407
#     4  11  23  43  67  96 140 176 225 283 351 409
#     4  10  20  42  66  94 130 172 220 268 346 400
#     4  11  25  46  71  97 134 181 234 292 361 418
#
# _framework density 21.320062
#
# number of rings (size 3 to 8) (size 9 to 14) (size 15 to 20)
#    0.000    1.333    2.667    3.200    7.467    2.133 
#    1.200    0.000    0.000    0.000    0.000    0.000 
#    0.000    0.000    0.000    0.000    0.000    0.000 
#
# Total GULP energy -371804.348327 kJ/mol
# GULP energy per Si atom -12393.478278 kJ/mol
# Density = 2.127154 g / cm^3
# Si number density = 21.320062 Si / 1000 Ang^3
#
#
#
# Elastic Constant Matrix: (Units=GPa)
#
#
# Indices 1 2 3 4 5 6 
#
# 1 101.6658 27.8552 42.9073 0.0000 14.4519 0.0000
# 2 27.8552 80.2888 40.0867 0.0000 -2.9438 0.0000
# 3 42.9073 40.0867 121.5902 0.0000 6.2375 0.0000
# 4 0.0000 0.0000 0.0000 25.8351 0.0000 10.9858
# 5 14.4519 -2.9438 6.2375 0.0000 37.0612 0.0000
# 6 0.0000 0.0000 0.0000 10.9858 0.0000 27.5476
#
#
#
# Elastic Compliance Matrix: (Units=1/GPa)
#
#
# Indices 1 2 3 4 5 6 
#
# 1 0.012678 -0.002936 -0.003268 0.000000 -0.004627 0.000000
# 2 -0.002936 0.015742 -0.004314 0.000000 0.003121 0.000000
# 3 -0.003268 -0.004314 0.010846 0.000000 -0.000894 0.000000
# 4 0.000000 0.000000 0.000000 0.046611 0.000000 -0.018588
# 5 -0.004627 0.003121 -0.000894 0.000000 0.029185 0.000000
# 6 0.000000 0.000000 0.000000 -0.018588 0.000000 0.043714
#
#
# Mechanical properties :
#
#
# Convention : Reuss Voigt Hill
#
# Bulk Modulus (GPa) = 54.85904 58.36036 56.60970
# Shear Modulus (GPa) = 26.89777 30.93514 28.91645
#
# Velocity S-wave (km/s) = 3.55578 3.81331 3.68680
# Velocity P-wave (km/s) = 6.53032 6.84261 6.68829
#
# Compressibility (1/GPa) = 0.01822854
#
# Stress axis : x y z
#
# Youngs Moduli (GPa) = 78.87845 63.52421 92.20150
#
# Poissons Ratio (x) = 0.18652 0.30135
# Poissons Ratio (y) = 0.23160 0.39775
# Poissons Ratio (z) = 0.25781 0.27404
#
# Static dielectric constant tensor:
#      x y z
#    x 0.987070 0.000000 -0.449120 
#    y 0.000000 4.937880 0.000000 
#    z -0.449120 0.000000 3.757360 
# 
# 
# High freq. dielectric constant tensor:
#      x y z
#    x 1.850750 0.000000 0.014280 
#    y 0.000000 1.830820 0.000000 
#    z 0.014280 0.000000 1.843860 
# 
# From -- ./inp_files/34295.got.cif
#   From: 2010.06.25/outbox.cif.g09.slc.cpg/sg15_18_cif.got.tgz:34295.got - 2010.06.28 07:06:18.
