data_PCOD8140383
_publ_section_title
;
Structure prediction by ZEFSAII (Michael W. Deem and Ramdas Pophale) SiO2 
 PCOD8140383
Probable space group: C 2/C
;
_chemical_formula_sum "Si O2"
_cell_formula_units_Z 56
_cell_length_a 29.511391
_cell_length_b 12.390899
_cell_length_c 14.489799
_cell_angle_alpha 90.000000
_cell_angle_beta 30.037375
_cell_angle_gamma 90.000000
_cell_volume 2652.254403
_symmetry_space_group_name_H-M "C 2/C"
_symmetry_group_IT_number 15
_symmetry_cell_setting 'monoclinic'
loop_
_space_group_symop_operation_xyz
x,y,z
-x,y,1/2-z
-x,-y,-z
x,-y,1/2+z
1/2+x,1/2+y,z
1/2-x,1/2+y,1/2-z
1/2-x,1/2-y,-z
1/2+x,1/2-y,1/2+z
loop_
_atom_site_type_symbol
_atom_site_label
_atom_site_fract_x
_atom_site_fract_y
_atom_site_fract_z
Si Si1 0.371713 0.768078 0.371948
Si Si2 0.931027 0.047592 0.547849
Si Si3 0.984960 0.565612 0.934289
Si Si4 0.644053 0.270427 0.959052
Si Si5 0.682508 0.638040 0.199722
Si Si6 0.000000 0.404625 0.750000
Si Si7 0.146377 0.736309 0.382047
Si Si8 0.500000 0.558148 0.750000
O O1 0.458359 0.825548 0.177380
O O2 0.360055 0.663406 0.326229
O O3 0.289625 0.851142 0.503162
O O4 0.381360 0.737244 0.462661
O O5 0.901893 0.173435 0.598347
O O6 0.837899 0.982737 0.729958
O O7 0.000000 0.000000 0.500000
O O8 0.983032 0.022361 0.362761
O O9 0.018563 0.480455 0.802242
O O10 0.884016 0.615256 0.096481
O O11 0.000000 0.500000 0.000000
O O12 0.644151 0.282197 0.847361
O O13 0.745285 0.262304 0.820818
O O14 0.591589 0.161349 0.073748
O O15 0.589497 0.367383 0.105447
#
# Coordination Sequence:
#
# PCOD8140383 Si02
#       8
#     8   8   8   8   8   4   8   4
#     4  10  20  41  66  92 128 171 224 263 325 385
#     4  11  24  38  64  95 131 166 219 267 327 377
#     4  12  25  41  64  93 131 172 225 267 327 379
#     4   9  21  42  64  94 131 169 212 261 329 385
#     4   9  20  39  63  95 130 168 211 274 323 388
#     4  11  22  39  68  92 130 173 206 273 330 380
#     4  11  24  41  68  95 127 170 224 268 310 399
#     4   9  22  43  62  90 132 173 196 269 332 376
#
# _framework density 21.114111999999999
#
# number of rings (size 3 to 8) (size 9 to 14) (size 15 to 20)
#    0.000    1.714    1.429    1.714    6.000    3.429 
#    2.571    1.429    0.000    0.000    0.000    0.000 
#    0.000    0.000    0.000    0.000    0.000    0.000 
#
# Total GULP energy -346973.891702 kJ/mol
# GULP energy per Si atom -12391.924704 kJ/mol
# Density = 2.106606 g / cm^3
# Si number density = 21.114112 Si / 1000 Ang^3
#
#
#
# Elastic Constant Matrix: (Units=GPa)
#
#
# Indices 1 2 3 4 5 6 
#
# 1 101.1824 37.3530 26.9964 0.0000 0.4815 0.0000
# 2 37.3530 85.0569 30.0036 0.0000 0.7381 0.0000
# 3 26.9964 30.0036 100.0077 0.0000 -7.9398 0.0000
# 4 0.0000 0.0000 0.0000 105.5669 0.0000 -14.7881
# 5 0.4815 0.7381 -7.9398 0.0000 30.9059 0.0000
# 6 0.0000 0.0000 0.0000 -14.7881 0.0000 38.6532
#
#
#
# Elastic Compliance Matrix: (Units=1/GPa)
#
#
# Indices 1 2 3 4 5 6 
#
# 1 0.012110 -0.004635 -0.001924 0.000000 -0.000572 0.000000
# 2 -0.004635 0.014978 -0.003333 0.000000 -0.001142 0.000000
# 3 -0.001924 -0.003333 0.011767 0.000000 0.003133 0.000000
# 4 0.000000 0.000000 0.000000 0.010009 0.000000 0.003829
# 5 -0.000572 -0.001142 0.003133 0.000000 0.033197 0.000000
# 6 0.000000 0.000000 0.000000 0.003829 0.000000 0.027336
#
#
# Mechanical properties :
#
#
# Convention : Reuss Voigt Hill
#
# Bulk Modulus (GPa) = 52.43350 52.77258 52.60304
# Shear Modulus (GPa) = 36.88995 47.81813 42.35404
#
# Velocity S-wave (km/s) = 4.18445 4.76410 4.48365
# Velocity P-wave (km/s) = 6.94503 7.43710 7.19527
#
# Compressibility (1/GPa) = 0.01907178
#
# Stress axis : x y z
#
# Youngs Moduli (GPa) = 82.57546 66.76568 84.98130
#
# Poissons Ratio (x) = 0.30943 0.16351
# Poissons Ratio (y) = 0.38270 0.28325
# Poissons Ratio (z) = 0.15888 0.22254
#
# Static dielectric constant tensor:
#      x y z
#    x 3.503270 0.000000 -0.055770 
#    y 0.000000 3.882630 0.000000 
#    z -0.055770 0.000000 4.070360 
# 
# 
# High freq. dielectric constant tensor:
#      x y z
#    x 1.822330 0.000000 -0.002950 
#    y 0.000000 1.823770 0.000000 
#    z -0.002950 0.000000 1.840740 
# 
# From -- ./inp_files/181948.got.cif
#   From: 2010.06.25/outbox.cif.g09.slc.cpg/sg15_91_cif.got.tgz:181948.got - 2010.06.28 07:06:18.
