data_PCOD8140497
_publ_section_title
;
Structure prediction by ZEFSAII (Michael W. Deem and Ramdas Pophale) SiO2 
 PCOD8140497
Probable space group: C 2/C
;
_chemical_formula_sum "Si O2"
_cell_formula_units_Z 44
_cell_length_a 8.749697
_cell_length_b 30.659046
_cell_length_c 7.533605
_cell_angle_alpha 90.000000
_cell_angle_beta 106.129104
_cell_angle_gamma 90.000000
_cell_volume 1941.396906
_symmetry_space_group_name_H-M "C 2/C"
_symmetry_group_IT_number 15
_symmetry_cell_setting 'monoclinic'
loop_
_space_group_symop_operation_xyz
x,y,z
-x,y,1/2-z
-x,-y,-z
x,-y,1/2+z
1/2+x,1/2+y,z
1/2-x,1/2+y,1/2-z
1/2-x,1/2-y,-z
1/2+x,1/2-y,1/2+z
loop_
_atom_site_type_symbol
_atom_site_label
_atom_site_fract_x
_atom_site_fract_y
_atom_site_fract_z
Si Si1 0.500000 0.571497 0.250000
Si Si2 0.756659 0.628741 0.723402
Si Si3 0.000000 0.296400 0.250000
Si Si4 0.923799 0.766472 0.030171
Si Si5 0.500000 0.973671 0.750000
Si Si6 0.900817 0.863260 0.979982
Si Si7 0.310195 0.047978 0.515748
O O1 0.375045 0.603558 0.310046
O O2 0.621176 0.542784 0.407554
O O3 0.842639 0.673740 0.698237
O O4 0.745361 0.626094 0.933466
O O5 0.575809 0.627136 0.607016
O O6 0.845503 0.587885 0.661975
O O7 0.018025 0.266699 0.432192
O O8 0.904131 0.812760 0.925058
O O9 0.000000 0.771987 0.250000
O O10 0.750000 0.750000 0.000000
O O11 0.577568 0.944391 0.620343
O O12 0.356749 0.003260 0.627075
#
# Coordination Sequence:
#
# PCOD8140497 Si02
#       7
#     4   8   4   8   4   8   8
#     4  10  23  38  70  99 118 174 226 255 318 398
#     4  10  21  41  63  90 128 172 215 269 323 386
#     4  12  24  38  66  96 132 176 236 278 330 398
#     4  12  24  42  63  95 134 180 223 283 339 379
#     4  10  23  46  66  95 140 158 200 269 336 398
#     4  10  20  42  61  88 136 167 215 274 320 374
#     4  10  23  42  68  96 127 173 204 264 332 392
#
# _framework density 22.664092
#
# number of rings (size 3 to 8) (size 9 to 14) (size 15 to 20)
#    0.000    1.455    3.636    1.091    0.000   10.909 
#    1.636    1.818    0.000    0.000    0.000    0.000 
#    0.000    0.000    0.000    0.000    0.000    0.000 
#
# Total GULP energy -272677.628492 kJ/mol
# GULP energy per Si atom -12394.437659 kJ/mol
# Density = 2.261251 g / cm^3
# Si number density = 22.664092 Si / 1000 Ang^3
#
#
#
# Elastic Constant Matrix: (Units=GPa)
#
#
# Indices 1 2 3 4 5 6 
#
# 1 111.0864 55.2775 41.5503 0.0000 -24.9158 0.0000
# 2 55.2775 102.7682 32.8912 0.0000 -18.2554 0.0000
# 3 41.5503 32.8912 75.0263 0.0000 -12.4623 0.0000
# 4 0.0000 0.0000 0.0000 25.3156 0.0000 -11.7036
# 5 -24.9158 -18.2554 -12.4623 0.0000 55.0081 0.0000
# 6 0.0000 0.0000 0.0000 -11.7036 0.0000 44.9366
#
#
#
# Elastic Compliance Matrix: (Units=1/GPa)
#
#
# Indices 1 2 3 4 5 6 
#
# 1 0.014410 -0.005528 -0.004964 0.000000 0.003568 0.000000
# 2 -0.005528 0.013850 -0.002767 0.000000 0.001466 0.000000
# 3 -0.004964 -0.002767 0.017420 0.000000 0.000780 0.000000
# 4 0.000000 0.000000 0.000000 0.044909 0.000000 0.011696
# 5 0.003568 0.001466 0.000780 0.000000 0.020458 0.000000
# 6 0.000000 0.000000 0.000000 0.011696 0.000000 0.025300
#
#
# Mechanical properties :
#
#
# Convention : Reuss Voigt Hill
#
# Bulk Modulus (GPa) = 52.18697 60.92432 56.55565
# Shear Modulus (GPa) = 29.54163 35.66286 32.60225
#
# Velocity S-wave (km/s) = 3.61426 3.97109 3.79687
# Velocity P-wave (km/s) = 6.36344 6.92574 6.65054
#
# Compressibility (1/GPa) = 0.01916187
#
# Stress axis : x y z
#
# Youngs Moduli (GPa) = 69.39669 72.20177 57.40423
#
# Poissons Ratio (x) = 0.39916 0.28496
# Poissons Ratio (y) = 0.38365 0.15882
# Poissons Ratio (z) = 0.34449 0.19976
#
# Static dielectric constant tensor:
#      x y z
#    x 4.383640 0.000000 -0.678320 
#    y 0.000000 6.029930 0.000000 
#    z -0.678320 0.000000 4.480740 
# 
# 
# High freq. dielectric constant tensor:
#      x y z
#    x 1.904800 0.000000 -0.012130 
#    y 0.000000 1.889580 0.000000 
#    z -0.012130 0.000000 1.887010 
# 
# From -- ./inp_files/25758.got.cif
#   From: 2010.06.25/outbox.cif.g09.slc.cpg/sg15_13_cif.got.tgz:25758.got - 2010.06.28 07:06:18.
