data_PCOD8140417
_publ_section_title
;
Structure prediction by ZEFSAII (Michael W. Deem and Ramdas Pophale) SiO2 
 PCOD8140417
Probable space group: C 2/C
;
_chemical_formula_sum "Si O2"
_cell_formula_units_Z 64
_cell_length_a 11.910751
_cell_length_b 10.734506
_cell_length_c 23.956249
_cell_angle_alpha 90.000000
_cell_angle_beta 110.949521
_cell_angle_gamma 90.000000
_cell_volume 2860.476915
_symmetry_space_group_name_H-M "C 2/C"
_symmetry_group_IT_number 15
_symmetry_cell_setting 'monoclinic'
loop_
_space_group_symop_operation_xyz
x,y,z
-x,y,1/2-z
-x,-y,-z
x,-y,1/2+z
1/2+x,1/2+y,z
1/2-x,1/2+y,1/2-z
1/2-x,1/2-y,-z
1/2+x,1/2-y,1/2+z
loop_
_atom_site_type_symbol
_atom_site_label
_atom_site_fract_x
_atom_site_fract_y
_atom_site_fract_z
Si Si1 0.105817 0.279321 0.807653
Si Si2 0.262538 0.129137 0.397258
Si Si3 0.139587 0.632272 0.544313
Si Si4 0.114273 0.260731 0.927533
Si Si5 0.089063 0.135889 0.561678
Si Si6 0.132800 0.999412 0.776733
Si Si7 0.831818 0.051128 0.340220
Si Si8 0.042105 0.190346 0.430902
O O1 0.054903 0.309905 0.860076
O O2 0.132759 0.132593 0.806854
O O3 0.227684 0.349776 0.817611
O O4 0.000000 0.328399 0.750000
O O5 0.371273 0.224743 0.414364
O O6 0.166254 0.203657 0.419219
O O7 0.316771 0.004416 0.433421
O O8 0.213118 0.096988 0.326706
O O9 0.102214 0.632344 0.472431
O O10 0.248208 0.731869 0.566422
O O11 0.027675 0.682031 0.562873
O O12 0.046126 0.133670 0.935831
O O13 0.075466 0.111706 0.493003
O O14 0.180917 0.041586 0.608750
O O15 0.000000 0.941493 0.750000
O O16 0.174922 0.019518 0.720284
O O17 0.959408 0.116461 0.372795
#
# Coordination Sequence:
#
# PCOD8140417 Si02
#       8
#     8   8   8   8   8   8   8   8
#     4  11  24  43  67  96 128 174 226 281 337 403
#     4  12  24  44  67  99 144 181 219 285 354 414
#     4  10  22  42  70 102 129 176 222 284 342 404
#     4  10  20  41  67  98 128 167 230 274 327 402
#     4  11  26  41  67 102 138 175 224 281 350 415
#     4  11  23  42  66  89 125 177 225 268 332 409
#     4  12  24  43  68  95 129 174 229 284 332 406
#     4  11  23  44  69 102 132 179 231 280 340 417
#
# _framework density 22.373891
#
# number of rings (size 3 to 8) (size 9 to 14) (size 15 to 20)
#    0.000    1.000    3.750    3.000    5.250    2.000 
#    2.250    1.875    0.000    0.000    0.000    0.000 
#    0.000    0.000    0.000    0.000    0.000    0.000 
#
# Total GULP energy -396532.495511 kJ/mol
# GULP energy per Si atom -12391.640485 kJ/mol
# Density = 2.232297 g / cm^3
# Si number density = 22.373891 Si / 1000 Ang^3
#
#
#
# Elastic Constant Matrix: (Units=GPa)
#
#
# Indices 1 2 3 4 5 6 
#
# 1 67.0014 22.8268 32.7352 0.0000 -3.1158 0.0000
# 2 22.8268 54.7417 18.6983 0.0000 4.9700 0.0000
# 3 32.7352 18.6983 166.2710 0.0000 -2.2820 0.0000
# 4 0.0000 0.0000 0.0000 21.0880 0.0000 -0.0564
# 5 -3.1158 4.9700 -2.2820 0.0000 29.9267 0.0000
# 6 0.0000 0.0000 0.0000 -0.0564 0.0000 20.9759
#
#
#
# Elastic Compliance Matrix: (Units=1/GPa)
#
#
# Indices 1 2 3 4 5 6 
#
# 1 0.018910 -0.007170 -0.002876 0.000000 0.002940 0.000000
# 2 -0.007170 0.022051 -0.001130 0.000000 -0.004495 0.000000
# 3 -0.002876 -0.001130 0.006713 0.000000 0.000400 0.000000
# 4 0.000000 0.000000 0.000000 0.047421 0.000000 0.000128
# 5 0.002940 -0.004495 0.000400 0.000000 0.034498 0.000000
# 6 0.000000 0.000000 0.000000 0.000128 0.000000 0.047674
#
#
# Mechanical properties :
#
#
# Convention : Reuss Voigt Hill
#
# Bulk Modulus (GPa) = 39.49078 48.50385 43.99731
# Shear Modulus (GPa) = 24.03157 28.64837 26.33997
#
# Velocity S-wave (km/s) = 3.28089 3.58220 3.43485
# Velocity P-wave (km/s) = 5.66048 6.23181 5.95300
#
# Compressibility (1/GPa) = 0.02532237
#
# Stress axis : x y z
#
# Youngs Moduli (GPa) = 52.88295 45.34873 148.96205
#
# Poissons Ratio (x) = 0.32513 0.42846
# Poissons Ratio (y) = 0.37915 0.16832
# Poissons Ratio (z) = 0.15211 0.05124
#
# Static dielectric constant tensor:
#      x y z
#    x 4.189050 0.000000 0.187200 
#    y 0.000000 3.680390 0.000000 
#    z 0.187200 0.000000 4.631250 
# 
# 
# High freq. dielectric constant tensor:
#      x y z
#    x 1.882430 0.000000 0.008320 
#    y 0.000000 1.850430 0.000000 
#    z 0.008320 0.000000 1.908680 
# 
# From -- ./inp_files/269282.got.cif
#   From: 2010.06.25/outbox.cif.g09.slc.cpg/sg15_135_cif.got.tgz:269282.got - 2010.06.28 07:06:18.
