data_PCOD8140756
_publ_section_title
;
Structure prediction by ZEFSAII (Michael W. Deem and Ramdas Pophale) SiO2 
 PCOD8140756
Probable space group: C 2/C
;
_chemical_formula_sum "Si O2"
_cell_formula_units_Z 64
_cell_length_a 20.151830
_cell_length_b 11.233470
_cell_length_c 26.130248
_cell_angle_alpha 90.000000
_cell_angle_beta 30.141551
_cell_angle_gamma 90.000000
_cell_volume 2970.264012
_symmetry_space_group_name_H-M "C 2/C"
_symmetry_group_IT_number 15
_symmetry_cell_setting 'monoclinic'
loop_
_space_group_symop_operation_xyz
x,y,z
-x,y,1/2-z
-x,-y,-z
x,-y,1/2+z
1/2+x,1/2+y,z
1/2-x,1/2+y,1/2-z
1/2-x,1/2-y,-z
1/2+x,1/2-y,1/2+z
loop_
_atom_site_type_symbol
_atom_site_label
_atom_site_fract_x
_atom_site_fract_y
_atom_site_fract_z
Si Si1 0.378444 0.760045 0.760197
Si Si2 0.381638 0.164868 0.990318
Si Si3 0.150189 0.876397 0.323017
Si Si4 0.336643 0.853622 0.634366
Si Si5 0.534681 0.608606 0.364365
Si Si6 0.903065 0.500529 0.182750
Si Si7 0.832324 0.805734 0.399134
Si Si8 0.378075 0.572098 0.368413
O O1 0.318129 0.675614 0.755630
O O2 0.517338 0.706274 0.684109
O O3 0.295221 0.757026 0.869154
O O4 0.392167 0.895852 0.732253
O O5 0.459603 0.288778 0.945834
O O6 0.463944 0.075856 0.898481
O O7 0.365723 0.111043 0.057340
O O8 0.233966 0.174138 0.065125
O O9 0.092572 0.770087 0.395967
O O10 0.279417 0.912902 0.268713
O O11 0.050450 0.988272 0.387417
O O12 0.178471 0.848454 0.749853
O O13 0.403316 0.953055 0.624596
O O14 0.433412 0.578444 0.387728
O O15 0.750000 0.750000 0.500000
O O16 0.805293 0.945600 0.408578
O O17 0.500000 0.595150 0.250000
#
# Coordination Sequence:
#
# PCOD8140756 Si02
#       8
#     8   8   8   8   8   8   8   8
#     4  10  21  42  67  95 130 170 214 274 329 380
#     4  12  24  40  66  97 129 175 226 266 333 406
#     4  10  20  43  65  91 136 174 213 273 331 388
#     4  10  22  40  66  94 130 172 222 275 323 398
#     4  11  22  42  63  94 130 170 224 271 335 396
#     4  10  22  40  64  98 131 169 216 274 328 395
#     4  11  22  41  68  98 128 167 221 269 331 395
#     4  12  22  42  68  90 127 171 219 279 323 392
#
# _framework density 21.546907000000001
#
# number of rings (size 3 to 8) (size 9 to 14) (size 15 to 20)
#    0.000    1.250    5.000    1.500    1.750    0.500 
#    6.750    0.000    5.500    0.000    0.000    0.000 
#    0.000    0.000    0.000    0.000    0.000    0.000 
#
# Total GULP energy -396591.532511 kJ/mol
# GULP energy per Si atom -12393.485391 kJ/mol
# Density = 2.149787 g / cm^3
# Si number density = 21.546907 Si / 1000 Ang^3
#
#
#
# Elastic Constant Matrix: (Units=GPa)
#
#
# Indices 1 2 3 4 5 6 
#
# 1 74.6772 6.6232 15.9989 0.0002 -0.6150 0.0000
# 2 6.6232 75.9808 17.9398 0.0000 -5.4795 0.0000
# 3 15.9989 17.9398 68.1195 -0.0001 -3.5485 0.0001
# 4 0.0002 0.0000 -0.0001 19.5721 -0.0003 -2.6660
# 5 -0.6150 -5.4795 -3.5485 -0.0003 28.8431 0.0001
# 6 0.0000 0.0000 0.0001 -2.6660 0.0001 36.7933
#
#
#
# Elastic Compliance Matrix: (Units=1/GPa)
#
#
# Indices 1 2 3 4 5 6 
#
# 1 0.014118 -0.000489 -0.003197 0.000000 -0.000185 0.000000
# 2 -0.000489 0.014194 -0.003506 0.000000 0.002255 0.000000
# 3 -0.003197 -0.003506 0.016421 0.000000 0.001286 0.000000
# 4 0.000000 0.000000 0.000000 0.051602 0.000001 0.003739
# 5 -0.000185 0.002255 0.001286 0.000001 0.035253 0.000000
# 6 0.000000 0.000000 0.000000 0.003739 0.000000 0.027450
#
#
# Mechanical properties :
#
#
# Convention : Reuss Voigt Hill
#
# Bulk Modulus (GPa) = 32.94910 33.32235 33.13572
# Shear Modulus (GPa) = 27.24232 28.92274 28.08253
#
# Velocity S-wave (km/s) = 3.55959 3.66774 3.61407
# Velocity P-wave (km/s) = 5.67620 5.78230 5.72950
#
# Compressibility (1/GPa) = 0.03034985
#
# Stress axis : x y z
#
# Youngs Moduli (GPa) = 70.83320 70.45121 60.89716
#
# Poissons Ratio (x) = 0.03447 0.19466
# Poissons Ratio (y) = 0.03465 0.21349
# Poissons Ratio (z) = 0.22642 0.24699
#
# Static dielectric constant tensor:
#      x y z
#    x 4.155810 -0.000010 0.151270 
#    y -0.000010 4.178950 0.000000 
#    z 0.151270 0.000000 4.064720 
# 
# 
# High freq. dielectric constant tensor:
#      x y z
#    x 1.851740 0.000000 -0.007120 
#    y 0.000000 1.852380 0.000000 
#    z -0.007120 0.000000 1.821440 
# 
# From -- ./inp_files/300843.got.cif
#   From: 2010.06.25/outbox.cif.g09.slc.cpg/sg15_151_cif.got.tgz:300843.got - 2010.06.28 07:06:18.
