data_PCOD8140459
_publ_section_title
;
Structure prediction by ZEFSAII (Michael W. Deem and Ramdas Pophale) SiO2 
 PCOD8140459
Probable space group: C 2/C
;
_chemical_formula_sum "Si O2"
_cell_formula_units_Z 28
_cell_length_a 9.296218
_cell_length_b 10.784653
_cell_length_c 10.112510
_cell_angle_alpha 90.000000
_cell_angle_beta 72.831747
_cell_angle_gamma 90.000000
_cell_volume 968.669883
_symmetry_space_group_name_H-M "C 2/C"
_symmetry_group_IT_number 15
_symmetry_cell_setting 'monoclinic'
loop_
_space_group_symop_operation_xyz
x,y,z
-x,y,1/2-z
-x,-y,-z
x,-y,1/2+z
1/2+x,1/2+y,z
1/2-x,1/2+y,1/2-z
1/2-x,1/2-y,-z
1/2+x,1/2-y,1/2+z
loop_
_atom_site_type_symbol
_atom_site_label
_atom_site_fract_x
_atom_site_fract_y
_atom_site_fract_z
Si Si1 0.992066 0.817675 0.952302
Si Si2 0.311473 0.893522 0.368503
Si Si3 0.805418 0.397949 0.077109
Si Si4 0.000000 0.982193 0.250000
O O1 0.886466 0.736299 0.885047
O O2 0.070633 0.925545 0.843542
O O3 0.127661 0.737113 0.981459
O O4 0.872038 0.873471 0.092007
O O5 0.369799 0.930932 0.206489
O O6 0.359977 0.996926 0.461691
O O7 0.623243 0.399808 0.137010
#
# Coordination Sequence:
#
# PCOD8140459 Si02
#       4
#     8   8   8   4
#     4  10  20  41  69  94 136 179 215 270 337 394
#     4  10  22  40  72  97 132 176 223 271 336 392
#     4  11  22  41  69 101 131 177 222 273 332 396
#     4  10  22  40  70  94 134 178 216 266 338 392
#
# _framework density 28.905616999999999
#
# number of rings (size 3 to 8) (size 9 to 14) (size 15 to 20)
#    0.000    1.714    2.857    0.857    0.000    4.571 
#    0.000    5.714    6.286    0.000    0.000    0.000 
#    0.000    0.000    0.000    0.000    0.000    0.000 
#
# Total GULP energy -173616.341875 kJ/mol
# GULP energy per Si atom -12401.167277 kJ/mol
# Density = 2.883983 g / cm^3
# Si number density = 28.905617 Si / 1000 Ang^3
#
#
#
# Elastic Constant Matrix: (Units=GPa)
#
#
# Indices 1 2 3 4 5 6 
#
# 1 109.1186 58.7945 8.5134 0.0000 -9.0685 0.0000
# 2 58.7945 190.3718 81.8664 0.0000 -17.9830 0.0000
# 3 8.5134 81.8664 159.7333 0.0000 -22.3028 0.0000
# 4 0.0000 0.0000 0.0000 48.5631 0.0000 -12.6114
# 5 -9.0685 -17.9830 -22.3028 0.0000 40.5344 0.0000
# 6 0.0000 0.0000 0.0000 -12.6114 0.0000 39.7748
#
#
#
# Elastic Compliance Matrix: (Units=1/GPa)
#
#
# Indices 1 2 3 4 5 6 
#
# 1 0.011377 -0.004099 0.001729 0.000000 0.001678 0.000000
# 2 -0.004099 0.008267 -0.003937 0.000000 0.000584 0.000000
# 3 0.001729 -0.003937 0.008662 0.000000 0.003406 0.000000
# 4 0.000000 0.000000 0.000000 0.022439 0.000000 0.007115
# 5 0.001678 0.000584 0.003406 0.000000 0.027179 0.000000
# 6 0.000000 0.000000 0.000000 0.007115 0.000000 0.027397
#
#
# Mechanical properties :
#
#
# Convention : Reuss Voigt Hill
#
# Bulk Modulus (GPa) = 63.72714 84.17471 73.95093
# Shear Modulus (GPa) = 40.59551 46.44442 43.51996
#
# Velocity S-wave (km/s) = 3.75162 4.01279 3.88440
# Velocity P-wave (km/s) = 6.39224 7.11714 6.76441
#
# Compressibility (1/GPa) = 0.01569190
#
# Stress axis : x y z
#
# Youngs Moduli (GPa) = 87.89422 120.96445 115.45230
#
# Poissons Ratio (x) = 0.49578 -0.19956
# Poissons Ratio (y) = 0.36024 0.45452
# Poissons Ratio (z) = -0.15193 0.47622
#
# Static dielectric constant tensor:
#      x y z
#    x 5.576040 0.000000 -0.253830 
#    y 0.000000 5.138380 0.000000 
#    z -0.253830 0.000000 5.609200 
# 
# 
# High freq. dielectric constant tensor:
#      x y z
#    x 2.203220 0.000000 0.006810 
#    y 0.000000 2.180210 0.000000 
#    z 0.006810 0.000000 2.192260 
# 
# From -- ./inp_files/83479.got.cif
#   From: 2010.06.25/outbox.cif.g09.slc.cpg/sg15_42_cif.got.tgz:83479.got - 2010.06.28 07:06:18.
