data_PCOD8140614
_publ_section_title
;
Structure prediction by ZEFSAII (Michael W. Deem and Ramdas Pophale) SiO2 
 PCOD8140614
Probable space group: C 2/C
;
_chemical_formula_sum "Si O2"
_cell_formula_units_Z 60
_cell_length_a 10.717993
_cell_length_b 9.757165
_cell_length_c 26.966497
_cell_angle_alpha 90.000000
_cell_angle_beta 86.880577
_cell_angle_gamma 90.000000
_cell_volume 2815.902886
_symmetry_space_group_name_H-M "C 2/C"
_symmetry_group_IT_number 15
_symmetry_cell_setting 'monoclinic'
loop_
_space_group_symop_operation_xyz
x,y,z
-x,y,1/2-z
-x,-y,-z
x,-y,1/2+z
1/2+x,1/2+y,z
1/2-x,1/2+y,1/2-z
1/2-x,1/2-y,-z
1/2+x,1/2-y,1/2+z
loop_
_atom_site_type_symbol
_atom_site_label
_atom_site_fract_x
_atom_site_fract_y
_atom_site_fract_z
Si Si1 0.816266 0.118228 0.521416
Si Si2 0.500000 0.260540 0.750000
Si Si3 0.632856 0.199676 0.234694
Si Si4 0.680371 0.217275 0.127622
Si Si5 0.531619 0.675733 0.361383
Si Si6 0.930778 0.941498 0.434286
Si Si7 0.134221 0.571516 0.612950
Si Si8 0.728722 0.912621 0.216621
O O1 0.750000 0.250000 0.500000
O O2 0.844994 0.007413 0.478594
O O3 0.713302 0.065536 0.561426
O O4 0.948574 0.139720 0.546771
O O5 0.492864 0.344711 0.697658
O O6 0.380848 0.162741 0.751275
O O7 0.500000 0.131638 0.250000
O O8 0.638567 0.274884 0.181630
O O9 0.649560 0.324488 0.272707
O O10 0.732830 0.072619 0.233744
O O11 0.824330 0.170124 0.126529
O O12 0.661554 0.330569 0.086777
O O13 0.589278 0.085691 0.119955
O O14 0.464897 0.553397 0.392118
O O15 0.479181 0.820711 0.383647
O O16 0.221684 0.604363 0.658011
#
# Coordination Sequence:
#
# PCOD8140614 Si02
#       8
#     8   4   8   8   8   8   8   8
#     4  11  23  47  69  97 131 170 220 286 339 392
#     4  10  20  42  66  94 140 180 210 264 328 382
#     4  11  24  40  63  95 134 172 218 261 320 385
#     4  11  25  44  65 101 134 172 222 274 321 400
#     4  11  22  46  67  97 138 177 215 270 325 391
#     4  11  26  44  71  97 131 170 227 277 329 401
#     4  10  23  43  68  91 137 174 214 274 338 377
#     4  10  22  42  62  94 134 173 213 270 311 390
#
# _framework density 21.307552000000001
#
# number of rings (size 3 to 8) (size 9 to 14) (size 15 to 20)
#    0.000    1.333    4.667    0.000    1.867    3.733 
#    2.400    1.333    0.000    0.000    0.000    0.000 
#    0.000    0.000    0.000    0.000    0.000    0.000 
#
# Total GULP energy -371711.956808 kJ/mol
# GULP energy per Si atom -12390.398560 kJ/mol
# Density = 2.125906 g / cm^3
# Si number density = 21.307552 Si / 1000 Ang^3
#
#
#
# Elastic Constant Matrix: (Units=GPa)
#
#
# Indices 1 2 3 4 5 6 
#
# 1 60.2365 39.4777 23.9527 0.0000 -1.5776 0.0000
# 2 39.4777 112.4956 45.1166 0.0000 16.2077 0.0000
# 3 23.9527 45.1166 129.1695 0.0000 -5.1520 0.0000
# 4 0.0000 0.0000 0.0000 29.4353 0.0000 3.2319
# 5 -1.5776 16.2077 -5.1520 0.0000 31.5648 0.0000
# 6 0.0000 0.0000 0.0000 3.2319 0.0000 33.9471
#
#
#
# Elastic Compliance Matrix: (Units=1/GPa)
#
#
# Indices 1 2 3 4 5 6 
#
# 1 0.022563 -0.008218 -0.001107 0.000000 0.005167 0.000000
# 2 -0.008218 0.014568 -0.003904 0.000000 -0.008528 0.000000
# 3 -0.001107 -0.003904 0.009450 0.000000 0.003492 0.000000
# 4 0.000000 0.000000 0.000000 0.034332 0.000000 -0.003268
# 5 0.005167 -0.008528 0.003492 0.000000 0.036888 0.000000
# 6 0.000000 0.000000 0.000000 -0.003268 0.000000 0.029769
#
#
# Mechanical properties :
#
#
# Convention : Reuss Voigt Hill
#
# Bulk Modulus (GPa) = 49.70004 57.66617 53.68310
# Shear Modulus (GPa) = 27.66457 31.87974 29.77215
#
# Velocity S-wave (km/s) = 3.60717 3.87223 3.74205
# Velocity P-wave (km/s) = 6.38158 6.86402 6.62719
#
# Compressibility (1/GPa) = 0.02012071
#
# Stress axis : x y z
#
# Youngs Moduli (GPa) = 44.32046 68.64451 105.81818
#
# Poissons Ratio (x) = 0.56413 0.11719
# Poissons Ratio (y) = 0.36423 0.41317
# Poissons Ratio (z) = 0.04908 0.26802
#
# Static dielectric constant tensor:
#      x y z
#    x 3.795640 0.000000 -0.004220 
#    y 0.000000 3.924470 0.000000 
#    z -0.004220 0.000000 4.362920 
# 
# 
# High freq. dielectric constant tensor:
#      x y z
#    x 1.822130 0.000000 -0.011050 
#    y 0.000000 1.836190 0.000000 
#    z -0.011050 0.000000 1.850980 
# 
# From -- ./inp_files/309978.got.cif
#   From: 2010.06.25/outbox.cif.g09.slc.cpg/sg15_155_cif.got.tgz:309978.got - 2010.06.28 07:06:18.
