data_PCOD8140897
_publ_section_title
;
Structure prediction by ZEFSAII (Michael W. Deem and Ramdas Pophale) SiO2 
 PCOD8140897
Probable space group: C 2/C
;
_chemical_formula_sum "Si O2"
_cell_formula_units_Z 60
_cell_length_a 25.913283
_cell_length_b 14.717840
_cell_length_c 20.232546
_cell_angle_alpha 90.000000
_cell_angle_beta 159.671963
_cell_angle_gamma 90.000000
_cell_volume 2680.649658
_symmetry_space_group_name_H-M "C 2/C"
_symmetry_group_IT_number 15
_symmetry_cell_setting 'monoclinic'
loop_
_space_group_symop_operation_xyz
x,y,z
-x,y,1/2-z
-x,-y,-z
x,-y,1/2+z
1/2+x,1/2+y,z
1/2-x,1/2+y,1/2-z
1/2-x,1/2-y,-z
1/2+x,1/2-y,1/2+z
loop_
_atom_site_type_symbol
_atom_site_label
_atom_site_fract_x
_atom_site_fract_y
_atom_site_fract_z
Si Si1 0.088696 0.049633 0.295960
Si Si2 0.075716 0.746295 0.776731
Si Si3 0.103646 0.348257 0.662416
Si Si4 0.357127 0.496260 0.282411
Si Si5 0.856222 0.531801 0.173554
Si Si6 0.500000 0.841953 0.750000
Si Si7 0.912035 0.401048 0.000243
Si Si8 0.324216 0.187584 0.915477
O O1 0.024345 0.149628 0.204180
O O2 0.085095 0.993006 0.223952
O O3 0.000000 0.001331 0.250000
O O4 0.253562 0.051277 0.526152
O O5 0.000000 0.702819 0.750000
O O6 0.006678 0.688652 0.633765
O O7 0.250000 0.750000 0.000000
O O8 0.196944 0.409248 0.826888
O O9 0.077937 0.408304 0.566510
O O10 0.202630 0.264133 0.756445
O O11 0.945706 0.315060 0.502539
O O12 0.500000 0.500000 0.500000
O O13 0.257619 0.588247 0.176295
O O14 0.261067 0.407664 0.182916
O O15 0.873023 0.597720 0.131565
O O16 0.014656 0.491381 0.382464
O O17 0.412729 0.785306 0.589245
#
# Coordination Sequence:
#
# PCOD8140897 Si02
#       8
#     8   8   8   8   8   4   8   8
#     4  11  25  43  69 110 146 188 247 308 363 449
#     4  11  24  42  70 108 143 188 243 301 371 441
#     4  11  28  45  70 110 144 198 240 312 374 442
#     4  12  28  47  73 106 150 204 251 307 382 457
#     4  11  21  44  73  98 139 185 250 294 367 438
#     4  10  20  46  74 100 126 186 240 306 348 432
#     4  12  25  45  76 100 152 191 246 302 379 452
#     4  11  26  47  72 105 147 186 257 300 376 441
#
# _framework density 22.382633999999999
#
# number of rings (size 3 to 8) (size 9 to 14) (size 15 to 20)
#    0.000    0.800    5.333    1.200    6.533    3.200 
#    1.200    0.000    0.000    0.000    0.000    0.000 
#    0.000    0.000    0.000    0.000    0.000    0.000 
#
# Total GULP energy -371777.328928 kJ/mol
# GULP energy per Si atom -12392.577631 kJ/mol
# Density = 2.233169 g / cm^3
# Si number density = 22.382634 Si / 1000 Ang^3
#
#
#
# Elastic Constant Matrix: (Units=GPa)
#
#
# Indices 1 2 3 4 5 6 
#
# 1 157.1731 13.9991 48.9784 -0.0008 -1.6737 0.0010
# 2 13.9991 64.1709 27.7721 -0.0001 -0.1946 0.0018
# 3 48.9784 27.7721 127.3228 -0.0028 0.5868 0.0013
# 4 -0.0008 -0.0001 -0.0028 28.6534 -0.0008 10.3031
# 5 -1.6737 -0.1946 0.5868 -0.0008 31.4968 0.0014
# 6 0.0010 0.0018 0.0013 10.3031 0.0014 17.1740
#
#
#
# Elastic Compliance Matrix: (Units=1/GPa)
#
#
# Indices 1 2 3 4 5 6 
#
# 1 0.007245 -0.000411 -0.002699 0.000000 0.000433 0.000000
# 2 -0.000411 0.017232 -0.003601 0.000000 0.000152 -0.000002
# 3 -0.002699 -0.003601 0.009680 0.000001 -0.000346 -0.000001
# 4 0.000000 0.000000 0.000001 0.044499 0.000002 -0.026696
# 5 0.000433 0.000152 -0.000346 0.000002 0.031780 -0.000004
# 6 0.000000 -0.000002 -0.000001 -0.026696 -0.000004 0.074243
#
#
# Mechanical properties :
#
#
# Convention : Reuss Voigt Hill
#
# Bulk Modulus (GPa) = 48.23165 58.90733 53.56949
# Shear Modulus (GPa) = 24.38872 32.65932 28.52402
#
# Velocity S-wave (km/s) = 3.30453 3.82401 3.57372
# Velocity P-wave (km/s) = 6.01293 6.77295 6.40423
#
# Compressibility (1/GPa) = 0.02073327
#
# Stress axis : x y z
#
# Youngs Moduli (GPa) = 138.03057 58.03126 103.31078
#
# Poissons Ratio (x) = 0.02385 0.27886
# Poissons Ratio (y) = 0.05673 0.37206
# Poissons Ratio (z) = 0.37258 0.20899
#
# Static dielectric constant tensor:
#      x y z
#    x 4.128150 0.000000 0.014880 
#    y 0.000000 3.896260 0.000000 
#    z 0.014880 0.000000 4.123490 
# 
# 
# High freq. dielectric constant tensor:
#      x y z
#    x 1.892420 0.000000 -0.001760 
#    y 0.000000 1.867680 0.000000 
#    z -0.001760 0.000000 1.885460 
# 
# From -- ./inp_files/257901.got.cif
#   From: 2010.06.25/outbox.cif.g09.slc.cpg/sg15_129_cif.got.tgz:257901.got - 2010.06.28 07:06:18.
