data_PCOD8140319
_publ_section_title
;
Structure prediction by ZEFSAII (Michael W. Deem and Ramdas Pophale) SiO2 
 PCOD8140319
Probable space group: C 2/C
;
_chemical_formula_sum "Si O2"
_cell_formula_units_Z 64
_cell_length_a 12.236440
_cell_length_b 12.276027
_cell_length_c 22.338409
_cell_angle_alpha 90.000000
_cell_angle_beta 107.761590
_cell_angle_gamma 90.000000
_cell_volume 3195.615350
_symmetry_space_group_name_H-M "C 2/C"
_symmetry_group_IT_number 15
_symmetry_cell_setting 'monoclinic'
loop_
_space_group_symop_operation_xyz
x,y,z
-x,y,1/2-z
-x,-y,-z
x,-y,1/2+z
1/2+x,1/2+y,z
1/2-x,1/2+y,1/2-z
1/2-x,1/2-y,-z
1/2+x,1/2-y,1/2+z
loop_
_atom_site_type_symbol
_atom_site_label
_atom_site_fract_x
_atom_site_fract_y
_atom_site_fract_z
Si Si1 0.189462 0.151568 0.954157
Si Si2 0.292906 0.118726 0.843821
Si Si3 0.392112 0.512981 0.766331
Si Si4 0.506422 0.086402 0.947979
Si Si5 0.552152 0.550875 0.589814
Si Si6 0.050670 0.183483 0.434107
Si Si7 0.058074 0.772864 0.703400
Si Si8 0.738252 0.571343 0.523003
O O1 0.221150 0.160671 0.889115
O O2 0.050449 0.139912 0.935694
O O3 0.250000 0.250000 0.000000
O O4 0.244378 0.043322 0.990247
O O5 0.222586 0.043049 0.787829
O O6 0.406930 0.053309 0.884784
O O7 0.332631 0.218381 0.809252
O O8 0.500000 0.565750 0.750000
O O9 0.398667 0.553686 0.835220
O O10 0.393469 0.383839 0.761750
O O11 0.491050 0.216401 0.962325
O O12 0.630415 0.092357 0.936626
O O13 0.500000 0.000000 0.000000
O O14 0.511849 0.431104 0.560604
O O15 0.661154 0.580639 0.568780
O O16 0.186009 0.164220 0.469936
O O17 0.040877 0.206756 0.362105
O O18 0.000000 0.708159 0.750000
#
# Coordination Sequence:
#
# PCOD8140319 Si02
#       8
#     8   8   8   8   8   8   8   8
#     4  11  23  37  65  96 131 164 202 260 332 381
#     4  11  23  41  65  90 128 162 207 256 323 381
#     4  10  20  41  64  87 118 162 219 259 294 374
#     4  11  23  38  57  90 128 166 194 249 322 373
#     4  10  22  39  65  93 121 164 217 263 305 365
#     4   9  20  39  61  88 123 160 213 256 299 371
#     4   9  21  36  63  88 116 166 212 252 306 366
#     4  11  23  37  60  94 127 163 205 256 311 374
#
# _framework density 20.027442000000001
#
# number of rings (size 3 to 8) (size 9 to 14) (size 15 to 20)
#    0.000    1.750    2.500    1.875   10.500    2.000 
#    0.000    2.500    0.000    0.000    0.000    0.000 
#    0.000    0.000    0.000    0.000    0.000    0.000 
#
# Total GULP energy -396437.426618 kJ/mol
# GULP energy per Si atom -12388.669582 kJ/mol
# Density = 1.998186 g / cm^3
# Si number density = 20.027442 Si / 1000 Ang^3
#
#
#
# Elastic Constant Matrix: (Units=GPa)
#
#
# Indices 1 2 3 4 5 6 
#
# 1 154.7352 42.4324 73.4044 0.0000 5.5495 0.0000
# 2 42.4324 97.2167 63.8441 0.0000 6.9533 0.0000
# 3 73.4044 63.8441 123.2111 0.0000 5.3234 0.0000
# 4 0.0000 0.0000 0.0000 33.0768 0.0000 2.2629
# 5 5.5495 6.9533 5.3234 0.0000 49.0778 0.0000
# 6 0.0000 0.0000 0.0000 2.2629 0.0000 25.6487
#
#
#
# Elastic Compliance Matrix: (Units=1/GPa)
#
#
# Indices 1 2 3 4 5 6 
#
# 1 0.009041 -0.000594 -0.005061 0.000000 -0.000389 0.000000
# 2 -0.000594 0.015719 -0.007734 0.000000 -0.001321 0.000000
# 3 -0.005061 -0.007734 0.015138 0.000000 0.000026 0.000000
# 4 0.000000 0.000000 0.000000 0.030416 0.000000 -0.002684
# 5 -0.000389 -0.001321 0.000026 0.000000 0.020604 0.000000
# 6 0.000000 0.000000 0.000000 -0.002684 0.000000 0.039225
#
#
# Mechanical properties :
#
#
# Convention : Reuss Voigt Hill
#
# Bulk Modulus (GPa) = 76.22861 81.61386 78.92124
# Shear Modulus (GPa) = 30.99900 34.59281 32.79591
#
# Velocity S-wave (km/s) = 3.93851 4.16055 4.05105
# Velocity P-wave (km/s) = 7.66989 7.99498 7.83412
#
# Compressibility (1/GPa) = 0.01311843
#
# Stress axis : x y z
#
# Youngs Moduli (GPa) = 110.61237 63.61603 66.05935
#
# Poissons Ratio (x) = 0.03781 0.33434
# Poissons Ratio (y) = 0.06574 0.51091
# Poissons Ratio (z) = 0.55984 0.49201
#
# Static dielectric constant tensor:
#      x y z
#    x 3.804400 0.000000 0.036250 
#    y 0.000000 3.692790 0.000000 
#    z 0.036250 0.000000 3.819940 
# 
# 
# High freq. dielectric constant tensor:
#      x y z
#    x 1.784630 0.000000 0.002860 
#    y 0.000000 1.767410 0.000000 
#    z 0.002860 0.000000 1.787500 
# 
# From -- ./inp_files/268916.got.cif
#   From: 2010.06.25/outbox.cif.g09.slc.cpg/sg15_135_cif.got.tgz:268916.got - 2010.06.28 07:06:18.
