data_PCOD8140106
_publ_section_title
;
Structure prediction by ZEFSAII (Michael W. Deem and Ramdas Pophale) SiO2 
 PCOD8140106
Probable space group: C 2/C
;
_chemical_formula_sum "Si O2"
_cell_formula_units_Z 52
_cell_length_a 17.557623
_cell_length_b 8.516178
_cell_length_c 17.383958
_cell_angle_alpha 90.000000
_cell_angle_beta 114.422156
_cell_angle_gamma 90.000000
_cell_volume 2366.739388
_symmetry_space_group_name_H-M "C 2/C"
_symmetry_group_IT_number 15
_symmetry_cell_setting 'monoclinic'
loop_
_space_group_symop_operation_xyz
x,y,z
-x,y,1/2-z
-x,-y,-z
x,-y,1/2+z
1/2+x,1/2+y,z
1/2-x,1/2+y,1/2-z
1/2-x,1/2-y,-z
1/2+x,1/2-y,1/2+z
loop_
_atom_site_type_symbol
_atom_site_label
_atom_site_fract_x
_atom_site_fract_y
_atom_site_fract_z
Si Si1 0.944326 0.556598 0.864739
Si Si2 0.287345 0.271208 0.797662
Si Si3 0.165558 0.211876 0.885513
Si Si4 0.500000 0.832998 0.750000
Si Si5 0.269875 0.006057 0.516730
Si Si6 0.091939 0.329698 0.512605
Si Si7 0.809698 0.103721 0.864399
O O1 0.863914 0.657558 0.809634
O O2 0.927145 0.462354 0.934275
O O3 0.966247 0.443228 0.803551
O O4 0.021204 0.674538 0.916951
O O5 0.241629 0.227051 0.857286
O O6 0.222475 0.250197 0.700519
O O7 0.321114 0.450245 0.815590
O O8 0.074201 0.216849 0.808517
O O9 0.169910 0.353072 0.949682
O O10 0.183029 0.047949 0.938236
O O11 0.317669 0.138136 0.488360
O O12 0.256269 0.069106 0.596455
O O13 0.102590 0.161544 0.560558
#
# Coordination Sequence:
#
# PCOD8140106 Si02
#       7
#     8   8   8   4   8   8   8
#     4  11  24  40  70  94 143 169 233 274 342 403
#     4  11  23  43  63 100 129 184 219 290 337 412
#     4  10  21  38  68  96 135 175 229 267 337 404
#     4  12  22  42  68 110 132 184 228 288 338 410
#     4  10  20  40  66  97 134 176 221 278 336 411
#     4  11  22  42  65 102 130 183 218 283 332 418
#     4  11  24  40  69  92 136 173 232 274 349 400
#
# _framework density 21.971157000000002
#
# number of rings (size 3 to 8) (size 9 to 14) (size 15 to 20)
#    0.000    1.231    3.077    4.154    0.000    0.615 
#    0.000    1.538    0.000    0.923    0.000    0.000 
#    0.000    0.000    0.000    0.000    0.000    0.000 
#
# Total GULP energy -322345.563505 kJ/mol
# GULP energy per Si atom -12397.906289 kJ/mol
# Density = 2.192115 g / cm^3
# Si number density = 21.971157 Si / 1000 Ang^3
#
#
#
# Elastic Constant Matrix: (Units=GPa)
#
#
# Indices 1 2 3 4 5 6 
#
# 1 67.1659 11.8657 26.1322 0.0000 5.1728 0.0000
# 2 11.8657 45.5945 13.9168 0.0000 -2.9133 0.0000
# 3 26.1322 13.9168 107.4792 0.0000 4.9355 0.0000
# 4 0.0000 0.0000 0.0000 173.2714 0.0000 82.2990
# 5 5.1728 -2.9133 4.9355 0.0000 37.0853 0.0000
# 6 0.0000 0.0000 0.0000 82.2990 0.0000 71.1903
#
#
#
# Elastic Compliance Matrix: (Units=1/GPa)
#
#
# Indices 1 2 3 4 5 6 
#
# 1 0.017072 -0.003483 -0.003600 0.000000 -0.002176 0.000000
# 2 -0.003483 0.023726 -0.002347 0.000000 0.002662 0.000000
# 3 -0.003600 -0.002347 0.010533 0.000000 -0.001084 0.000000
# 4 0.000000 0.000000 0.000000 0.012799 0.000000 -0.014796
# 5 -0.002176 0.002662 -0.001084 0.000000 0.027622 0.000000
# 6 0.000000 0.000000 0.000000 -0.014796 0.000000 0.031152
#
#
# Mechanical properties :
#
#
# Convention : Reuss Voigt Hill
#
# Bulk Modulus (GPa) = 30.79788 36.00764 33.40276
# Shear Modulus (GPa) = 32.76803 67.53108 50.14956
#
# Velocity S-wave (km/s) = 3.86607 5.55004 4.78275
# Velocity P-wave (km/s) = 5.82894 7.58253 6.76281
#
# Compressibility (1/GPa) = 0.03246977
#
# Stress axis : x y z
#
# Youngs Moduli (GPa) = 58.57534 42.14869 94.93846
#
# Poissons Ratio (x) = 0.14681 0.34177
# Poissons Ratio (y) = 0.20402 0.22286
# Poissons Ratio (z) = 0.21087 0.09894
#
# Static dielectric constant tensor:
#      x y z
#    x 3.889110 0.000000 0.062230 
#    y 0.000000 3.956570 0.000000 
#    z 0.062230 0.000000 4.233500 
# 
# 
# High freq. dielectric constant tensor:
#      x y z
#    x 1.847540 0.000000 -0.007150 
#    y 0.000000 1.848850 0.000000 
#    z -0.007150 0.000000 1.883400 
# 
# From -- ./inp_files/214340.got.cif
#   From: 2010.06.25/outbox.cif.g09.slc.cpg/sg15_108_cif.got.tgz:214340.got - 2010.06.28 07:06:18.
