data_PCOD8140233
_publ_section_title
;
Structure prediction by ZEFSAII (Michael W. Deem and Ramdas Pophale) SiO2 
 PCOD8140233
Probable space group: C 2/C
;
_chemical_formula_sum "Si O2"
_cell_formula_units_Z 56
_cell_length_a 29.828540
_cell_length_b 11.271471
_cell_length_c 14.643621
_cell_angle_alpha 90.000000
_cell_angle_beta 30.830330
_cell_angle_gamma 90.000000
_cell_volume 2523.206636
_symmetry_space_group_name_H-M "C 2/C"
_symmetry_group_IT_number 15
_symmetry_cell_setting 'monoclinic'
loop_
_space_group_symop_operation_xyz
x,y,z
-x,y,1/2-z
-x,-y,-z
x,-y,1/2+z
1/2+x,1/2+y,z
1/2-x,1/2+y,1/2-z
1/2-x,1/2-y,-z
1/2+x,1/2-y,1/2+z
loop_
_atom_site_type_symbol
_atom_site_label
_atom_site_fract_x
_atom_site_fract_y
_atom_site_fract_z
Si Si1 0.190180 0.159354 0.549454
Si Si2 0.755717 0.802856 0.279038
Si Si3 0.763970 0.486920 0.547278
Si Si4 0.546530 0.249809 0.580605
Si Si5 0.060082 0.429785 0.323274
Si Si6 0.990244 0.132944 0.546343
Si Si7 0.338915 0.253938 0.728650
O O1 0.250000 0.250000 0.500000
O O2 0.206586 0.193178 0.415777
O O3 0.088363 0.170041 0.750428
O O4 0.219892 0.027621 0.528141
O O5 0.700325 0.825747 0.284396
O O6 0.766799 0.924712 0.316975
O O7 0.850321 0.752778 0.085369
O O8 0.868834 0.508605 0.355705
O O9 0.734632 0.350596 0.612649
O O10 0.500000 0.310860 0.750000
O O11 0.505770 0.118242 0.639536
O O12 0.518403 0.304362 0.534762
O O13 0.126748 0.334343 0.253076
O O14 0.000000 0.500000 0.500000
O O15 0.076261 0.171638 0.451479
O O16 0.000000 0.000000 0.500000
#
# Coordination Sequence:
#
# PCOD8140233 Si02
#       7
#     8   8   8   8   8   8   8
#     4  10  20  40  71  92 134 182 222 276 340 405
#     4  11  24  43  69 103 132 179 235 284 341 412
#     4  11  22  44  69  97 137 185 227 283 342 417
#     4  11  23  43  68  93 134 173 223 275 337 406
#     4  11  26  43  69  98 136 180 225 278 349 408
#     4  11  21  45  65  99 134 178 226 283 343 410
#     4  11  25  42  67 102 139 174 233 282 347 416
#
# _framework density 22.193981000000001
#
# number of rings (size 3 to 8) (size 9 to 14) (size 15 to 20)
#    0.000    1.143    4.286    2.143    6.000    5.143 
#    5.143    0.000    0.000    0.000    0.000    0.000 
#    0.000    0.000    0.000    0.000    0.000    0.000 
#
# Total GULP energy -346890.943662 kJ/mol
# GULP energy per Si atom -12388.962274 kJ/mol
# Density = 2.214347 g / cm^3
# Si number density = 22.193981 Si / 1000 Ang^3
#
#
#
# Elastic Constant Matrix: (Units=GPa)
#
#
# Indices 1 2 3 4 5 6 
#
# 1 88.6047 11.2660 33.9502 0.0000 -16.7782 0.0000
# 2 11.2660 58.7474 22.7018 0.0000 -1.1870 0.0000
# 3 33.9502 22.7018 195.6950 0.0000 -14.8822 0.0000
# 4 0.0000 0.0000 0.0000 34.7176 0.0000 -8.9371
# 5 -16.7782 -1.1870 -14.8822 0.0000 33.5454 0.0000
# 6 0.0000 0.0000 0.0000 -8.9371 0.0000 20.2379
#
#
#
# Elastic Compliance Matrix: (Units=1/GPa)
#
#
# Indices 1 2 3 4 5 6 
#
# 1 0.013249 -0.001786 -0.001648 0.000000 0.005832 0.000000
# 2 -0.001786 0.018065 -0.001868 0.000000 -0.001083 0.000000
# 3 -0.001648 -0.001868 0.005738 0.000000 0.001656 0.000000
# 4 0.000000 0.000000 0.000000 0.032498 0.000000 0.014351
# 5 0.005832 -0.001083 0.001656 0.000000 0.033424 0.000000
# 6 0.000000 0.000000 0.000000 0.014351 0.000000 0.055750
#
#
# Mechanical properties :
#
#
# Convention : Reuss Voigt Hill
#
# Bulk Modulus (GPa) = 37.81003 53.20923 45.50963
# Shear Modulus (GPa) = 28.06723 36.04211 32.05467
#
# Velocity S-wave (km/s) = 3.56003 4.03421 3.80451
# Velocity P-wave (km/s) = 5.82851 6.76213 6.31261
#
# Compressibility (1/GPa) = 0.02644801
#
# Stress axis : x y z
#
# Youngs Moduli (GPa) = 75.47746 55.35703 174.26259
#
# Poissons Ratio (x) = 0.09888 0.28714
# Poissons Ratio (y) = 0.13482 0.32554
# Poissons Ratio (z) = 0.12437 0.10341
#
# Static dielectric constant tensor:
#      x y z
#    x 4.150330 0.000000 -0.160820 
#    y 0.000000 4.059970 0.000000 
#    z -0.160820 0.000000 4.460030 
# 
# 
# High freq. dielectric constant tensor:
#      x y z
#    x 1.863400 0.000000 -0.013000 
#    y 0.000000 1.864510 0.000000 
#    z -0.013000 0.000000 1.894100 
# 
# From -- ./inp_files/181906.got.cif
#   From: 2010.06.25/outbox.cif.g09.slc.cpg/sg15_91_cif.got.tgz:181906.got - 2010.06.28 07:06:18.
