data_PCOD8140176
_publ_section_title
;
Structure prediction by ZEFSAII (Michael W. Deem and Ramdas Pophale) SiO2 
 PCOD8140176
Probable space group: C 2/C
;
_chemical_formula_sum "Si O2"
_cell_formula_units_Z 40
_cell_length_a 23.216913
_cell_length_b 9.854536
_cell_length_c 16.551567
_cell_angle_alpha 90.000000
_cell_angle_beta 28.418516
_cell_angle_gamma 90.000000
_cell_volume 1802.200858
_symmetry_space_group_name_H-M "C 2/C"
_symmetry_group_IT_number 15
_symmetry_cell_setting 'monoclinic'
loop_
_space_group_symop_operation_xyz
x,y,z
-x,y,1/2-z
-x,-y,-z
x,-y,1/2+z
1/2+x,1/2+y,z
1/2-x,1/2+y,1/2-z
1/2-x,1/2-y,-z
1/2+x,1/2-y,1/2+z
loop_
_atom_site_type_symbol
_atom_site_label
_atom_site_fract_x
_atom_site_fract_y
_atom_site_fract_z
Si Si1 0.106088 0.922671 0.821930
Si Si2 0.147266 0.478950 0.406395
Si Si3 0.712084 0.527418 0.537069
Si Si4 0.371149 0.772457 0.943686
Si Si5 0.402866 0.886295 0.202929
O O1 0.078657 0.764214 0.852543
O O2 0.232998 0.945916 0.710467
O O3 0.109852 0.967765 0.722963
O O4 0.000000 0.000000 0.000000
O O5 0.139330 0.324016 0.450658
O O6 0.142159 0.478838 0.316122
O O7 0.030368 0.562841 0.581955
O O8 0.654360 0.610683 0.532677
O O9 0.778673 0.639101 0.507297
O O10 0.799263 0.405984 0.398867
O O11 0.500000 0.808650 0.750000
#
# Coordination Sequence:
#
# PCOD8140176 Si02
#       5
#     8   8   8   8   8
#     4  11  27  44  67 100 139 178 234 287 345 414
#     4  10  25  41  69  97 133 183 218 290 337 413
#     4  10  23  41  68  99 129 180 226 288 337 408
#     4  10  20  40  68  94 135 169 232 270 345 410
#     4  11  24  44  70  97 141 177 232 276 357 407
#
# _framework density 22.195083
#
# number of rings (size 3 to 8) (size 9 to 14) (size 15 to 20)
#    0.000    1.600    2.000    0.600    8.400    3.200 
#    0.000    0.000    0.000    0.000    0.000    0.000 
#    0.000    0.000    0.000    0.000    0.000    0.000 
#
# Total GULP energy -247902.414031 kJ/mol
# GULP energy per Si atom -12395.120702 kJ/mol
# Density = 2.214457 g / cm^3
# Si number density = 22.195083 Si / 1000 Ang^3
#
#
#
# Elastic Constant Matrix: (Units=GPa)
#
#
# Indices 1 2 3 4 5 6 
#
# 1 77.8526 29.4384 40.6127 0.0000 -7.2660 0.0000
# 2 29.4384 113.4101 51.0137 0.0001 -0.9144 0.0000
# 3 40.6127 51.0137 146.2491 0.0000 12.9563 0.0000
# 4 0.0000 0.0001 0.0000 34.8591 0.0000 4.0557
# 5 -7.2660 -0.9144 12.9563 0.0000 30.0064 0.0000
# 6 0.0000 0.0000 0.0000 4.0557 0.0000 52.5892
#
#
#
# Elastic Compliance Matrix: (Units=1/GPa)
#
#
# Indices 1 2 3 4 5 6 
#
# 1 0.016492 -0.002306 -0.004287 0.000000 0.005774 0.000000
# 2 -0.002306 0.010894 -0.003264 0.000000 0.001183 0.000000
# 3 -0.004287 -0.003264 0.009636 0.000000 -0.005298 0.000000
# 4 0.000000 0.000000 0.000000 0.028947 0.000000 -0.002232
# 5 0.005774 0.001183 -0.005298 0.000000 0.037048 0.000000
# 6 0.000000 0.000000 0.000000 -0.002232 0.000000 0.019187
#
#
# Mechanical properties :
#
#
# Convention : Reuss Voigt Hill
#
# Bulk Modulus (GPa) = 57.77852 64.40458 61.09155
# Shear Modulus (GPa) = 33.85503 37.92075 35.88789
#
# Velocity S-wave (km/s) = 3.90980 4.13791 4.02547
# Velocity P-wave (km/s) = 6.81694 7.20487 7.01359
#
# Compressibility (1/GPa) = 0.01730747
#
# Stress axis : x y z
#
# Youngs Moduli (GPa) = 60.63546 91.79301 103.77557
#
# Poissons Ratio (x) = 0.21168 0.44488
# Poissons Ratio (y) = 0.13983 0.33877
# Poissons Ratio (z) = 0.25994 0.29965
#
# Static dielectric constant tensor:
#      x y z
#    x 4.280010 0.000000 0.031410 
#    y 0.000000 4.126170 0.000000 
#    z 0.031410 0.000000 3.938670 
# 
# 
# High freq. dielectric constant tensor:
#      x y z
#    x 1.872220 0.000000 0.001900 
#    y 0.000000 1.866570 0.000000 
#    z 0.001900 0.000000 1.879030 
# 
# From -- ./inp_files/218778.got.cif
#   From: 2010.06.25/outbox.cif.g09.slc.cpg/sg15_110_cif.got.tgz:218778.got - 2010.06.28 07:06:18.
