data_PCOD8140593
_publ_section_title
;
Structure prediction by ZEFSAII (Michael W. Deem and Ramdas Pophale) SiO2 
 PCOD8140593
Probable space group: C 2/C
;
_chemical_formula_sum "Si O2"
_cell_formula_units_Z 36
_cell_length_a 30.887902
_cell_length_b 9.966103
_cell_length_c 17.092969
_cell_angle_alpha 90.000000
_cell_angle_beta 19.246314
_cell_angle_gamma 90.000000
_cell_volume 1734.434474
_symmetry_space_group_name_H-M "C 2/C"
_symmetry_group_IT_number 15
_symmetry_cell_setting 'monoclinic'
loop_
_space_group_symop_operation_xyz
x,y,z
-x,y,1/2-z
-x,-y,-z
x,-y,1/2+z
1/2+x,1/2+y,z
1/2-x,1/2+y,1/2-z
1/2-x,1/2-y,-z
1/2+x,1/2-y,1/2+z
loop_
_atom_site_type_symbol
_atom_site_label
_atom_site_fract_x
_atom_site_fract_y
_atom_site_fract_z
Si Si1 0.363261 0.469392 0.194210
Si Si2 0.369824 0.411696 0.512130
Si Si3 0.123587 0.345186 0.836995
Si Si4 0.110578 0.503583 0.702259
Si Si5 0.000000 0.657851 0.250000
O O1 0.347411 0.528277 0.135132
O O2 0.340451 0.310235 0.227967
O O3 0.260864 0.544072 0.427592
O O4 0.500000 0.500000 0.000000
O O5 0.238789 0.430898 0.683128
O O6 0.395936 0.251710 0.474355
O O7 0.500000 0.479878 0.250000
O O8 0.105735 0.396643 0.779860
O O9 0.985014 0.370228 0.118305
O O10 0.072713 0.433978 0.686623
#
# Coordination Sequence:
#
# PCOD8140593 Si02
#       5
#     8   8   8   8   4
#     4  12  23  42  65  96 133 172 220 281 331 395
#     4  10  22  40  63  93 125 170 216 266 335 395
#     4  11  24  41  66  96 127 176 223 272 332 408
#     4  11  23  42  66  93 130 171 226 268 340 393
#     4  10  20  42  66  90 122 176 210 266 334 398
#
# _framework density 20.756045
#
# number of rings (size 3 to 8) (size 9 to 14) (size 15 to 20)
#    0.667    0.444    2.222    4.667    0.000    0.889 
#    6.000    0.000    0.000    0.000    0.000    0.000 
#    0.000    0.000    0.000    0.000    0.000    0.000 
#
# Total GULP energy -223104.133661 kJ/mol
# GULP energy per Si atom -12394.674092 kJ/mol
# Density = 2.070880 g / cm^3
# Si number density = 20.756045 Si / 1000 Ang^3
#
#
#
# Elastic Constant Matrix: (Units=GPa)
#
#
# Indices 1 2 3 4 5 6 
#
# 1 114.6280 21.4537 35.2828 0.0000 -11.0857 0.0000
# 2 21.4537 36.9116 24.1220 0.0000 2.8695 0.0000
# 3 35.2828 24.1220 179.0936 0.0000 -7.4846 0.0000
# 4 0.0000 0.0000 0.0000 25.4233 0.0000 -0.2180
# 5 -11.0857 2.8695 -7.4846 0.0000 38.9016 0.0000
# 6 0.0000 0.0000 0.0000 -0.2180 0.0000 62.4372
#
#
#
# Elastic Compliance Matrix: (Units=1/GPa)
#
#
# Indices 1 2 3 4 5 6 
#
# 1 0.010427 -0.005537 -0.001177 0.000000 0.003153 0.000000
# 2 -0.005537 0.032994 -0.003549 0.000000 -0.004694 0.000000
# 3 -0.001177 -0.003549 0.006341 0.000000 0.001147 0.000000
# 4 0.000000 0.000000 0.000000 0.039335 0.000000 0.000137
# 5 0.003153 -0.004694 0.001147 0.000000 0.027171 0.000000
# 6 0.000000 0.000000 0.000000 0.000137 0.000000 0.016017
#
#
# Mechanical properties :
#
#
# Convention : Reuss Voigt Hill
#
# Bulk Modulus (GPa) = 34.20274 54.70556 44.45415
# Shear Modulus (GPa) = 30.75834 42.00406 36.38120
#
# Velocity S-wave (km/s) = 3.85372 4.50344 4.19119
# Velocity P-wave (km/s) = 6.02626 7.31129 6.69965
#
# Compressibility (1/GPa) = 0.02923743
#
# Stress axis : x y z
#
# Youngs Moduli (GPa) = 95.90225 30.30831 157.69188
#
# Poissons Ratio (x) = 0.16781 0.18556
# Poissons Ratio (y) = 0.53098 0.55971
# Poissons Ratio (z) = 0.11285 0.10758
#
# Static dielectric constant tensor:
#      x y z
#    x 3.912770 0.000000 -0.232100 
#    y 0.000000 3.507620 0.000000 
#    z -0.232100 0.000000 4.301280 
# 
# 
# High freq. dielectric constant tensor:
#      x y z
#    x 1.832610 0.000000 -0.010860 
#    y 0.000000 1.780570 0.000000 
#    z -0.010860 0.000000 1.829050 
# 
# From -- ./inp_files/181672.got.cif
#   From: 2010.06.25/outbox.cif.g09.slc.cpg/sg15_91_cif.got.tgz:181672.got - 2010.06.28 07:06:18.
