data_PCOD8140350
_publ_section_title
;
Structure prediction by ZEFSAII (Michael W. Deem and Ramdas Pophale) SiO2 
 PCOD8140350
Probable space group: C 2/C
;
_chemical_formula_sum "Si O2"
_cell_formula_units_Z 64
_cell_length_a 13.543938
_cell_length_b 28.126564
_cell_length_c 12.280279
_cell_angle_alpha 90.000000
_cell_angle_beta 138.537765
_cell_angle_gamma 90.000000
_cell_volume 3097.495454
_symmetry_space_group_name_H-M "C 2/C"
_symmetry_group_IT_number 15
_symmetry_cell_setting 'monoclinic'
loop_
_space_group_symop_operation_xyz
x,y,z
-x,y,1/2-z
-x,-y,-z
x,-y,1/2+z
1/2+x,1/2+y,z
1/2-x,1/2+y,1/2-z
1/2-x,1/2-y,-z
1/2+x,1/2-y,1/2+z
loop_
_atom_site_type_symbol
_atom_site_label
_atom_site_fract_x
_atom_site_fract_y
_atom_site_fract_z
Si Si1 0.472120 0.067604 0.942921
Si Si2 0.111409 0.516110 0.251362
Si Si3 0.156131 0.229916 0.325845
Si Si4 0.319576 0.147463 0.330944
Si Si5 0.353627 0.413278 0.988797
Si Si6 0.318459 0.394598 0.204308
Si Si7 0.492212 0.225055 0.119570
Si Si8 0.735936 0.708028 0.765400
O O1 0.322599 0.073058 0.889135
O O2 0.419544 0.040839 0.787780
O O3 0.582788 0.036475 0.107861
O O4 0.569380 0.115419 0.001408
O O5 0.276827 0.534052 0.423704
O O6 0.000000 0.536917 0.250000
O O7 0.250000 0.250000 0.500000
O O8 0.225651 0.182447 0.330029
O O9 0.151153 0.274064 0.236224
O O10 0.000000 0.215737 0.250000
O O11 0.207187 0.117763 0.161949
O O12 0.429726 0.174767 0.339638
O O13 0.323494 0.385660 0.078259
O O14 0.531724 0.420282 0.127603
O O15 0.296250 0.347555 0.258987
O O16 0.500000 0.239443 0.250000
O O17 0.577387 0.265943 0.121720
O O18 0.318777 0.223649 0.944781
#
# Coordination Sequence:
#
# PCOD8140350 Si02
#       8
#     8   8   8   8   8   8   8   8
#     4  10  21  39  66  92 121 158 208 267 301 402
#     4  10  20  41  65  90 122 160 206 250 334 382
#     4  11  25  44  63  81 126 185 224 273 313 363
#     4  10  22  40  61  89 121 164 221 254 323 372
#     4  10  23  37  65  93 127 164 192 265 331 397
#     4  11  22  38  62  97 129 157 210 257 319 390
#     4  11  22  35  58  89 129 165 197 258 317 374
#     4  11  24  38  59  90 124 166 221 256 307 376
#
# _framework density 20.661854000000002
#
# number of rings (size 3 to 8) (size 9 to 14) (size 15 to 20)
#    0.000    1.500    2.500    2.625    7.000    0.500 
#    2.250    0.000    0.000    0.000    0.000    0.000 
#    0.000    0.000    0.000    0.000    0.000    0.000 
#
# Total GULP energy -396519.772246 kJ/mol
# GULP energy per Si atom -12391.242883 kJ/mol
# Density = 2.061483 g / cm^3
# Si number density = 20.661854 Si / 1000 Ang^3
#
#
#
# Elastic Constant Matrix: (Units=GPa)
#
#
# Indices 1 2 3 4 5 6 
#
# 1 99.6064 40.5386 37.8774 0.0000 12.3274 0.0000
# 2 40.5386 83.3022 40.4305 0.0000 1.5924 0.0000
# 3 37.8774 40.4305 107.8929 0.0000 15.8032 0.0000
# 4 0.0000 0.0000 0.0000 31.6098 0.0000 -3.1622
# 5 12.3274 1.5924 15.8032 0.0000 36.4606 0.0000
# 6 0.0000 0.0000 0.0000 -3.1622 0.0000 23.7918
#
#
#
# Elastic Compliance Matrix: (Units=1/GPa)
#
#
# Indices 1 2 3 4 5 6 
#
# 1 0.013511 -0.005437 -0.002212 0.000000 -0.003372 0.000000
# 2 -0.005437 0.016980 -0.004928 0.000000 0.003232 0.000000
# 3 -0.002212 -0.004928 0.012547 0.000000 -0.004475 0.000000
# 4 0.000000 0.000000 0.000000 0.032062 0.000000 0.004261
# 5 -0.003372 0.003232 -0.004475 0.000000 0.030365 0.000000
# 6 0.000000 0.000000 0.000000 0.004261 0.000000 0.042598
#
#
# Mechanical properties :
#
#
# Convention : Reuss Voigt Hill
#
# Bulk Modulus (GPa) = 55.91320 58.72162 57.31741
# Shear Modulus (GPa) = 27.90526 29.83611 28.87068
#
# Velocity S-wave (km/s) = 3.67900 3.80415 3.74209
# Velocity P-wave (km/s) = 6.72060 6.91212 6.81703
#
# Compressibility (1/GPa) = 0.01788486
#
# Stress axis : x y z
#
# Youngs Moduli (GPa) = 74.01545 58.89212 79.70028
#
# Poissons Ratio (x) = 0.32019 0.17629
# Poissons Ratio (y) = 0.40242 0.39274
# Poissons Ratio (z) = 0.16371 0.29020
#
# Static dielectric constant tensor:
#      x y z
#    x 4.332810 0.000000 1.178370 
#    y 0.000000 3.982120 0.000000 
#    z 1.178370 0.000000 5.601600 
# 
# 
# High freq. dielectric constant tensor:
#      x y z
#    x 1.799670 0.000000 0.011890 
#    y 0.000000 1.794830 0.000000 
#    z 0.011890 0.000000 1.814740 
# 
# From -- ./inp_files/101663.got.cif
#   From: 2010.06.25/outbox.cif.g09.slc.cpg/sg15_51_cif.got.tgz:101663.got - 2010.06.28 07:06:18.
