data_PCOD8140429
_publ_section_title
;
Structure prediction by ZEFSAII (Michael W. Deem and Ramdas Pophale) SiO2 
 PCOD8140429
Probable space group: C 2/C
;
_chemical_formula_sum "Si O2"
_cell_formula_units_Z 36
_cell_length_a 19.567607
_cell_length_b 15.288051
_cell_length_c 8.500969
_cell_angle_alpha 90.000000
_cell_angle_beta 37.545594
_cell_angle_gamma 90.000000
_cell_volume 1549.727786
_symmetry_space_group_name_H-M "C 2/C"
_symmetry_group_IT_number 15
_symmetry_cell_setting 'monoclinic'
loop_
_space_group_symop_operation_xyz
x,y,z
-x,y,1/2-z
-x,-y,-z
x,-y,1/2+z
1/2+x,1/2+y,z
1/2-x,1/2+y,1/2-z
1/2-x,1/2-y,-z
1/2+x,1/2-y,1/2+z
loop_
_atom_site_type_symbol
_atom_site_label
_atom_site_fract_x
_atom_site_fract_y
_atom_site_fract_z
Si Si1 0.150923 0.410379 0.425786
Si Si2 0.500000 0.233937 0.250000
Si Si3 0.893222 0.599150 0.853826
Si Si4 0.349771 0.377033 0.641240
Si Si5 0.616751 0.459745 0.599048
O O1 0.118171 0.499868 0.567855
O O2 0.091515 0.400978 0.362260
O O3 0.284755 0.404265 0.165087
O O4 0.100545 0.331047 0.625478
O O5 0.436053 0.295583 0.493436
O O6 0.000000 0.641693 0.750000
O O7 0.780278 0.653357 0.107610
O O8 0.368845 0.435142 0.449304
O O9 0.378081 0.446486 0.724803
O O10 0.500000 0.422466 0.750000
#
# Coordination Sequence:
#
# PCOD8140429 Si02
#       5
#     8   4   8   8   8
#     4  10  23  39  67  89 126 156 209 246 312 346
#     4  12  24  42  58  96 132 156 184 282 310 336
#     4  10  20  41  68  89 114 170 210 241 285 391
#     4  10  23  39  67  89 126 156 209 246 312 346
#     4  10  20  41  68  89 114 170 210 241 285 391
#
# _framework density 23.229887000000002
#
# number of rings (size 3 to 8) (size 9 to 14) (size 15 to 20)
#    0.000    1.778    2.222    1.333    0.000    3.556 
#    0.000    6.667    0.000    0.000    0.000    0.000 
#    0.000    0.000    0.000    0.000    0.000    0.000 
#
# Total GULP energy -222985.857904 kJ/mol
# GULP energy per Si atom -12388.103217 kJ/mol
# Density = 2.317702 g / cm^3
# Si number density = 23.229887 Si / 1000 Ang^3
#
#
#
# Elastic Constant Matrix: (Units=GPa)
#
#
# Indices 1 2 3 4 5 6 
#
# 1 111.0555 8.3104 47.2655 0.0000 -33.1358 0.0000
# 2 8.3104 86.1956 54.7750 0.0000 -10.6225 0.0000
# 3 47.2655 54.7750 128.7235 0.0000 -31.4173 0.0000
# 4 0.0000 0.0000 0.0000 44.6096 0.0000 -17.9449
# 5 -33.1358 -10.6225 -31.4173 0.0000 41.3806 0.0000
# 6 0.0000 0.0000 0.0000 -17.9449 0.0000 14.6254
#
#
#
# Elastic Compliance Matrix: (Units=1/GPa)
#
#
# Indices 1 2 3 4 5 6 
#
# 1 0.012779 0.002048 -0.003606 0.000000 0.008021 0.000000
# 2 0.002048 0.016286 -0.007686 0.000000 -0.000015 0.000000
# 3 -0.003606 -0.007686 0.013719 0.000000 0.005555 0.000000
# 4 0.000000 0.000000 0.000000 0.044264 0.000000 0.054311
# 5 0.008021 -0.000015 0.005555 0.000000 0.034803 0.000000
# 6 0.000000 0.000000 0.000000 0.054311 0.000000 0.135013
#
#
# Mechanical properties :
#
#
# Convention : Reuss Voigt Hill
#
# Bulk Modulus (GPa) = 41.15774 60.74183 50.94979
# Shear Modulus (GPa) = 17.63971 34.49801 26.06886
#
# Velocity S-wave (km/s) = 2.75863 3.85784 3.35358
# Velocity P-wave (km/s) = 5.28230 6.78593 6.08077
#
# Compressibility (1/GPa) = 0.02429676
#
# Stress axis : x y z
#
# Youngs Moduli (GPa) = 78.25168 61.40096 72.89103
#
# Poissons Ratio (x) = -0.12575 0.26286
# Poissons Ratio (y) = -0.16026 0.56023
# Poissons Ratio (z) = 0.28219 0.47192
#
# Static dielectric constant tensor:
#      x y z
#    x 4.325570 0.000000 -0.527020 
#    y 0.000000 3.903720 0.000000 
#    z -0.527020 0.000000 4.908390 
# 
# 
# High freq. dielectric constant tensor:
#      x y z
#    x 1.888790 0.000000 -0.023670 
#    y 0.000000 1.884950 0.000000 
#    z -0.023670 0.000000 1.954630 
# 
# From -- ./inp_files/55592.got.cif
#   From: 2010.06.25/outbox.cif.g09.slc.cpg/sg15_28_cif.got.tgz:55592.got - 2010.06.28 07:06:18.
