data_PCOD8140989
_publ_section_title
;
Structure prediction by ZEFSAII (Michael W. Deem and Ramdas Pophale) SiO2 
 PCOD8140989
Probable space group: C 2/C
;
_chemical_formula_sum "Si O2"
_cell_formula_units_Z 60
_cell_length_a 26.531617
_cell_length_b 13.299560
_cell_length_c 8.429882
_cell_angle_alpha 90.000000
_cell_angle_beta 94.128581
_cell_angle_gamma 90.000000
_cell_volume 2966.839320
_symmetry_space_group_name_H-M "C 2/C"
_symmetry_group_IT_number 15
_symmetry_cell_setting 'monoclinic'
loop_
_space_group_symop_operation_xyz
x,y,z
-x,y,1/2-z
-x,-y,-z
x,-y,1/2+z
1/2+x,1/2+y,z
1/2-x,1/2+y,1/2-z
1/2-x,1/2-y,-z
1/2+x,1/2-y,1/2+z
loop_
_atom_site_type_symbol
_atom_site_label
_atom_site_fract_x
_atom_site_fract_y
_atom_site_fract_z
Si Si1 0.358710 0.904057 0.794853
Si Si2 0.334471 0.718401 0.984672
Si Si3 0.547102 0.960919 0.872280
Si Si4 0.801056 0.543554 0.986984
Si Si5 0.500000 0.493435 0.250000
Si Si6 0.733115 0.144663 0.830952
Si Si7 0.940741 0.127806 0.989236
Si Si8 0.983597 0.664325 0.573981
O O1 0.362115 0.806142 0.898725
O O2 0.410866 0.912390 0.721484
O O3 0.316006 0.893876 0.646487
O O4 0.349874 0.003470 0.900393
O O5 0.290512 0.678669 0.861435
O O6 0.307847 0.765779 0.138451
O O7 0.379737 0.635687 0.015793
O O8 0.500000 0.983396 0.750000
O O9 0.559029 0.073987 0.941350
O O10 0.534065 0.879724 0.003556
O O11 0.770515 0.611375 0.854086
O O12 0.771441 0.444586 0.040237
O O13 0.466565 0.564350 0.132617
O O14 0.457352 0.426219 0.329496
O O15 0.962261 0.240077 0.978162
O O16 0.000000 0.702124 0.750000
#
# Coordination Sequence:
#
# PCOD8140989 Si02
#       8
#     8   8   8   8   4   8   8   8
#     4  10  21  34  55  89 117 163 190 235 299 367
#     4  10  22  37  63  87 119 153 209 246 317 355
#     4  10  22  34  52  89 128 156 190 231 288 374
#     4   9  20  36  58  78 124 154 190 241 303 354
#     4  10  26  46  62  82 120 158 226 250 308 338
#     4   9  20  40  58  90 117 157 197 257 298 379
#     4  11  23  44  63  85 115 163 200 267 294 359
#     4  10  22  35  56  85 121 160 189 238 297 353
#
# _framework density 20.223541000000001
#
# number of rings (size 3 to 8) (size 9 to 14) (size 15 to 20)
#    0.000    2.133    0.667    0.800   14.000    1.600 
#    0.000    0.000    0.000    0.000    0.000    0.000 
#    0.000    0.000    0.000    0.000    0.000    0.000 
#
# Total GULP energy -371678.722368 kJ/mol
# GULP energy per Si atom -12389.290746 kJ/mol
# Density = 2.017751 g / cm^3
# Si number density = 20.223541 Si / 1000 Ang^3
#
#
#
# Elastic Constant Matrix: (Units=GPa)
#
#
# Indices 1 2 3 4 5 6 
#
# 1 80.6840 29.3487 -8.4724 0.0000 -14.5495 0.0000
# 2 29.3487 76.2274 10.3795 0.0000 1.3438 0.0000
# 3 -8.4724 10.3795 53.7855 0.0000 -3.4395 0.0000
# 4 0.0000 0.0000 0.0000 21.8727 0.0000 6.7045
# 5 -14.5495 1.3438 -3.4395 0.0000 20.3901 0.0000
# 6 0.0000 0.0000 0.0000 6.7045 0.0000 29.4745
#
#
#
# Elastic Compliance Matrix: (Units=1/GPa)
#
#
# Indices 1 2 3 4 5 6 
#
# 1 0.018587 -0.008157 0.005443 0.000000 0.014719 0.000000
# 2 -0.008157 0.017089 -0.005082 0.000000 -0.007804 0.000000
# 3 0.005443 -0.005082 0.020926 0.000000 0.007749 0.000000
# 4 0.000000 0.000000 0.000000 0.049146 0.000000 -0.011179
# 5 0.014719 -0.007804 0.007749 0.000000 0.061367 0.000000
# 6 0.000000 0.000000 0.000000 -0.011179 0.000000 0.036470
#
#
# Mechanical properties :
#
#
# Convention : Reuss Voigt Hill
#
# Bulk Modulus (GPa) = 24.38385 30.35647 27.37016
# Shear Modulus (GPa) = 21.47341 26.31020 23.89181
#
# Velocity S-wave (km/s) = 3.26207 3.61081 3.44086
# Velocity P-wave (km/s) = 5.12557 5.69447 5.41749
#
# Compressibility (1/GPa) = 0.04101076
#
# Stress axis : x y z
#
# Youngs Moduli (GPa) = 53.80165 58.51836 47.78750
#
# Poissons Ratio (x) = 0.47732 -0.26012
# Poissons Ratio (y) = 0.43885 0.24284
# Poissons Ratio (z) = -0.29285 0.29737
#
# Static dielectric constant tensor:
#      x y z
#    x 3.458210 0.000000 -0.022510 
#    y 0.000000 3.681470 0.000000 
#    z -0.022510 0.000000 3.960310 
# 
# 
# High freq. dielectric constant tensor:
#      x y z
#    x 1.781110 0.000000 -0.000570 
#    y 0.000000 1.781140 0.000000 
#    z -0.000570 0.000000 1.799920 
# 
# From -- ./inp_files/69085.got.cif
#   From: 2010.06.25/outbox.cif.g09.slc.cpg/sg15_35_cif.got.tgz:69085.got - 2010.06.28 07:06:18.
