data_PCOD8140709
_publ_section_title
;
Structure prediction by ZEFSAII (Michael W. Deem and Ramdas Pophale) SiO2 
 PCOD8140709
Probable space group: C 2/C
;
_chemical_formula_sum "Si O2"
_cell_formula_units_Z 52
_cell_length_a 14.303832
_cell_length_b 10.726233
_cell_length_c 20.629277
_cell_angle_alpha 90.000000
_cell_angle_beta 51.898295
_cell_angle_gamma 90.000000
_cell_volume 2490.648121
_symmetry_space_group_name_H-M "C 2/C"
_symmetry_group_IT_number 15
_symmetry_cell_setting 'monoclinic'
loop_
_space_group_symop_operation_xyz
x,y,z
-x,y,1/2-z
-x,-y,-z
x,-y,1/2+z
1/2+x,1/2+y,z
1/2-x,1/2+y,1/2-z
1/2-x,1/2-y,-z
1/2+x,1/2-y,1/2+z
loop_
_atom_site_type_symbol
_atom_site_label
_atom_site_fract_x
_atom_site_fract_y
_atom_site_fract_z
Si Si1 0.192878 0.116940 0.038834
Si Si2 0.329272 0.058294 0.396768
Si Si3 0.000000 0.393190 0.250000
Si Si4 0.255097 0.956257 0.651433
Si Si5 0.067842 0.821127 0.815413
Si Si6 0.005862 0.393612 0.551723
Si Si7 0.184702 0.264601 0.391710
O O1 0.257761 0.064973 0.073902
O O2 0.053121 0.116455 0.109724
O O3 0.250000 0.250000 0.000000
O O4 0.217153 0.021308 0.969926
O O5 0.424110 0.074064 0.413308
O O6 0.286593 0.190930 0.387310
O O7 0.388281 0.979515 0.314071
O O8 0.038089 0.311124 0.295516
O O9 0.133521 0.908918 0.735424
O O10 0.367509 0.876337 0.631805
O O11 0.265027 0.104476 0.656126
O O12 0.149788 0.811440 0.843121
O O13 0.070321 0.277771 0.488485
O O14 0.000000 0.500000 0.500000
#
# Coordination Sequence:
#
# PCOD8140709 Si02
#       7
#     8   8   4   8   8   8   8
#     4  12  22  44  74  96 133 182 231 283 340 412
#     4  12  25  43  72 103 138 178 235 284 347 409
#     4  12  24  44  70  98 134 184 236 282 340 412
#     4  11  23  45  70 100 136 186 227 283 346 411
#     4  12  25  45  69 102 138 178 234 285 341 414
#     4  10  20  42  71  96 131 183 221 275 345 411
#     4  11  26  43  69 102 142 178 228 290 348 413
#
# _framework density 20.878098999999999
#
# number of rings (size 3 to 8) (size 9 to 14) (size 15 to 20)
#    0.000    0.615    6.154    3.231    4.308    0.615 
#    5.538    0.000    0.000    0.000    0.000    0.000 
#    0.000    0.000    0.000    0.000    0.000    0.000 
#
# Total GULP energy -322394.287636 kJ/mol
# GULP energy per Si atom -12399.780294 kJ/mol
# Density = 2.083058 g / cm^3
# Si number density = 20.878099 Si / 1000 Ang^3
#
#
#
# Elastic Constant Matrix: (Units=GPa)
#
#
# Indices 1 2 3 4 5 6 
#
# 1 109.2506 32.3494 27.4281 0.0000 -2.9431 0.0000
# 2 32.3494 84.8844 41.1887 0.0000 -15.6566 0.0000
# 3 27.4281 41.1887 124.6436 0.0000 -29.0847 0.0000
# 4 0.0000 0.0000 0.0000 30.1805 0.0000 -7.6797
# 5 -2.9431 -15.6566 -29.0847 0.0000 41.2771 0.0000
# 6 0.0000 0.0000 0.0000 -7.6797 0.0000 35.5403
#
#
#
# Elastic Compliance Matrix: (Units=1/GPa)
#
#
# Indices 1 2 3 4 5 6 
#
# 1 0.010555 -0.003592 -0.001530 0.000000 -0.001688 0.000000
# 2 -0.003592 0.015464 -0.003603 0.000000 0.003071 0.000000
# 3 -0.001530 -0.003603 0.011017 0.000000 0.006287 0.000000
# 4 0.000000 0.000000 0.000000 0.035062 0.000000 0.007576
# 5 -0.001688 0.003071 0.006287 0.000000 0.029701 0.000000
# 6 0.000000 0.000000 0.000000 0.007576 0.000000 0.029774
#
#
# Mechanical properties :
#
#
# Convention : Reuss Voigt Hill
#
# Bulk Modulus (GPa) = 51.05260 57.85677 54.45469
# Shear Modulus (GPa) = 32.14351 35.92041 34.03196
#
# Velocity S-wave (km/s) = 3.92801 4.15237 4.04174
# Velocity P-wave (km/s) = 6.71402 7.12471 6.92241
#
# Compressibility (1/GPa) = 0.01958764
#
# Stress axis : x y z
#
# Youngs Moduli (GPa) = 94.73879 64.66488 90.76646
#
# Poissons Ratio (x) = 0.23226 0.13884
# Poissons Ratio (y) = 0.34027 0.32706
# Poissons Ratio (z) = 0.14492 0.23301
#
# Static dielectric constant tensor:
#      x y z
#    x 3.837310 0.000000 -0.244350 
#    y 0.000000 3.571150 0.000000 
#    z -0.244350 0.000000 4.170270 
# 
# 
# High freq. dielectric constant tensor:
#      x y z
#    x 1.824550 0.000000 -0.000830 
#    y 0.000000 1.801160 0.000000 
#    z -0.000830 0.000000 1.832700 
# 
# From -- ./inp_files/243629.got.cif
#   From: 2010.06.25/outbox.cif.g09.slc.cpg/sg15_122_cif.got.tgz:243629.got - 2010.06.28 07:06:18.
