data_PCOD8140700
_publ_section_title
;
Structure prediction by ZEFSAII (Michael W. Deem and Ramdas Pophale) SiO2 
 PCOD8140700
Probable space group: C 2/C
;
_chemical_formula_sum "Si O2"
_cell_formula_units_Z 40
_cell_length_a 9.311927
_cell_length_b 14.575695
_cell_length_c 29.818619
_cell_angle_alpha 90.000000
_cell_angle_beta 152.812159
_cell_angle_gamma 90.000000
_cell_volume 1849.210005
_symmetry_space_group_name_H-M "C 2/C"
_symmetry_group_IT_number 15
_symmetry_cell_setting 'monoclinic'
loop_
_space_group_symop_operation_xyz
x,y,z
-x,y,1/2-z
-x,-y,-z
x,-y,1/2+z
1/2+x,1/2+y,z
1/2-x,1/2+y,1/2-z
1/2-x,1/2-y,-z
1/2+x,1/2-y,1/2+z
loop_
_atom_site_type_symbol
_atom_site_label
_atom_site_fract_x
_atom_site_fract_y
_atom_site_fract_z
Si Si1 0.229575 0.526943 0.390179
Si Si2 0.365020 0.823743 0.387341
Si Si3 0.693051 0.861893 0.225660
Si Si4 0.691692 0.339778 0.759034
Si Si5 0.993433 0.137565 0.105845
O O1 0.500000 0.500000 0.500000
O O2 0.407344 0.547187 0.392978
O O3 0.989457 0.448551 0.305319
O O4 0.035352 0.612818 0.357727
O O5 0.486856 0.854562 0.372226
O O6 0.629276 0.836974 0.497962
O O7 0.285962 0.716197 0.356153
O O8 0.061058 0.880654 0.318527
O O9 0.684738 0.771290 0.254470
O O10 0.500000 0.370053 0.750000
O O11 0.533118 0.377940 0.669629
#
# Coordination Sequence:
#
# PCOD8140700 Si02
#       5
#     8   8   8   8   8
#     4  12  24  42  71 103 135 178 229 288 344 410
#     4   9  18  38  73 100 127 175 220 275 342 413
#     4  10  21  40  70 100 138 175 222 281 347 401
#     4  11  26  44  64 100 140 179 229 285 338 410
#     4  10  20  42  70  98 132 175 226 277 345 406
#
# _framework density 21.630859000000001
#
# number of rings (size 3 to 8) (size 9 to 14) (size 15 to 20)
#    0.000    1.600    4.000    0.600    2.800    1.600 
#    0.000   10.000    0.000    0.000    0.000    0.000 
#    0.000    0.000    0.000    0.000    0.000    0.000 
#
# Total GULP energy -247772.828488 kJ/mol
# GULP energy per Si atom -12388.641424 kJ/mol
# Density = 2.158163 g / cm^3
# Si number density = 21.630859 Si / 1000 Ang^3
#
#
#
# Elastic Constant Matrix: (Units=GPa)
#
#
# Indices 1 2 3 4 5 6 
#
# 1 138.9313 43.9935 58.4467 -0.0001 -12.3206 0.0004
# 2 43.9935 102.6645 43.6003 -0.0004 2.1009 0.0006
# 3 58.4467 43.6003 131.1061 -0.0023 -3.7200 0.0021
# 4 -0.0001 -0.0004 -0.0023 35.7725 0.0014 4.9201
# 5 -12.3206 2.1009 -3.7200 0.0014 23.9072 0.0001
# 6 0.0004 0.0006 0.0021 4.9201 0.0001 31.5732
#
#
#
# Elastic Compliance Matrix: (Units=1/GPa)
#
#
# Indices 1 2 3 4 5 6 
#
# 1 0.009964 -0.002960 -0.003319 0.000000 0.004879 0.000000
# 2 -0.002960 0.012282 -0.002851 0.000000 -0.003048 0.000000
# 3 -0.003319 -0.002851 0.010058 0.000001 0.000105 -0.000001
# 4 0.000000 0.000000 0.000001 0.028567 -0.000002 -0.004452
# 5 0.004879 -0.003048 0.000105 -0.000002 0.044627 0.000000
# 6 0.000000 0.000000 -0.000001 -0.004452 0.000000 0.032366
#
#
# Mechanical properties :
#
#
# Convention : Reuss Voigt Hill
#
# Bulk Modulus (GPa) = 71.20798 73.86477 72.53638
# Shear Modulus (GPa) = 31.09320 33.36134 32.22727
#
# Velocity S-wave (km/s) = 3.79548 3.93148 3.86408
# Velocity P-wave (km/s) = 7.22486 7.40477 7.31537
#
# Compressibility (1/GPa) = 0.01404337
#
# Stress axis : x y z
#
# Youngs Moduli (GPa) = 100.36047 81.41826 99.41993
#
# Poissons Ratio (x) = 0.24100 0.32999
# Poissons Ratio (y) = 0.29707 0.28350
# Poissons Ratio (z) = 0.33311 0.23216
#
# Static dielectric constant tensor:
#      x y z
#    x 3.716320 0.000000 -0.043210 
#    y 0.000000 4.033610 0.000000 
#    z -0.043210 0.000000 3.822680 
# 
# 
# High freq. dielectric constant tensor:
#      x y z
#    x 1.833990 0.000000 0.000970 
#    y 0.000000 1.843740 0.000000 
#    z 0.000970 0.000000 1.854610 
# 
# From -- ./inp_files/133210.got.cif
#   From: 2010.06.25/outbox.cif.g09.slc.cpg/sg15_67_cif.got.tgz:133210.got - 2010.06.28 07:06:18.
