data_PCOD8140567
_publ_section_title
;
Structure prediction by ZEFSAII (Michael W. Deem and Ramdas Pophale) SiO2 
 PCOD8140567
Probable space group: C 2/C
;
_chemical_formula_sum "Si O2"
_cell_formula_units_Z 48
_cell_length_a 13.497043
_cell_length_b 8.839754
_cell_length_c 29.838751
_cell_angle_alpha 90.000000
_cell_angle_beta 141.242487
_cell_angle_gamma 90.000000
_cell_volume 2228.700111
_symmetry_space_group_name_H-M "C 2/C"
_symmetry_group_IT_number 15
_symmetry_cell_setting 'monoclinic'
loop_
_space_group_symop_operation_xyz
x,y,z
-x,y,1/2-z
-x,-y,-z
x,-y,1/2+z
1/2+x,1/2+y,z
1/2-x,1/2+y,1/2-z
1/2-x,1/2-y,-z
1/2+x,1/2-y,1/2+z
loop_
_atom_site_type_symbol
_atom_site_label
_atom_site_fract_x
_atom_site_fract_y
_atom_site_fract_z
Si Si1 0.772705 0.056486 0.783350
Si Si2 0.670621 0.620956 0.797475
Si Si3 0.141187 0.890756 0.038979
Si Si4 0.459014 0.701841 0.392900
Si Si5 0.167471 0.320687 0.632692
Si Si6 0.471414 0.999763 0.132180
O O1 0.827475 0.119296 0.755269
O O2 0.745746 0.197821 0.806139
O O3 0.604947 0.967351 0.717564
O O4 0.913524 0.954243 0.852637
O O5 0.500000 0.680966 0.750000
O O6 0.801101 0.738028 0.862719
O O7 0.708169 0.455778 0.831081
O O8 0.137855 0.755540 0.074104
O O9 0.295424 0.001717 0.090854
O O10 0.106285 0.818483 0.978279
O O11 0.000000 0.000000 0.000000
O O12 0.511020 0.823986 0.374859
O O13 0.008774 0.388640 0.602511
#
# Coordination Sequence:
#
# PCOD8140567 Si02
#       6
#     8   8   8   8   8   8
#     4  10  20  42  65  90 128 161 209 271 322 375
#     4  10  22  38  66  97 118 164 216 263 321 375
#     4  12  25  41  62  97 128 170 217 254 326 394
#     4  10  22  43  60  91 132 162 207 263 322 387
#     4  10  23  42  64  93 129 166 217 265 321 391
#     4  10  23  41  66  91 126 172 211 269 324 375
#
# _framework density 21.537216999999998
#
# number of rings (size 3 to 8) (size 9 to 14) (size 15 to 20)
#    0.000    2.000    1.667    4.500    4.667    6.000 
#    3.000    0.000    0.000    0.000    0.000    0.000 
#    0.000    0.000    0.000    0.000    0.000    0.000 
#
# Total GULP energy -297380.564451 kJ/mol
# GULP energy per Si atom -12390.856852 kJ/mol
# Density = 2.148820 g / cm^3
# Si number density = 21.537217 Si / 1000 Ang^3
#
#
#
# Elastic Constant Matrix: (Units=GPa)
#
#
# Indices 1 2 3 4 5 6 
#
# 1 84.1304 0.3647 33.4106 0.0000 23.5197 0.0000
# 2 0.3647 36.3081 5.4988 0.0000 -9.0996 0.0000
# 3 33.4106 5.4988 114.2028 0.0000 -12.9054 0.0000
# 4 0.0000 0.0000 0.0000 26.3202 0.0000 -9.4214
# 5 23.5197 -9.0996 -12.9054 0.0000 36.4384 0.0000
# 6 0.0000 0.0000 0.0000 -9.4214 0.0000 29.3401
#
#
#
# Elastic Compliance Matrix: (Units=1/GPa)
#
#
# Indices 1 2 3 4 5 6 
#
# 1 0.019154 -0.003027 -0.007230 0.000000 -0.015680 0.000000
# 2 -0.003027 0.029900 0.000532 0.000000 0.009609 0.000000
# 3 -0.007230 0.000532 0.011863 0.000000 0.009001 0.000000
# 4 0.000000 0.000000 0.000000 0.042928 0.000000 0.013785
# 5 -0.015680 0.009609 0.009001 0.000000 0.043152 0.000000
# 6 0.000000 0.000000 0.000000 0.013785 0.000000 0.038509
#
#
# Mechanical properties :
#
#
# Convention : Reuss Voigt Hill
#
# Bulk Modulus (GPa) = 24.11555 34.79884 29.45720
# Shear Modulus (GPa) = 22.85410 31.44419 27.14915
#
# Velocity S-wave (km/s) = 3.26106 3.82513 3.55430
# Velocity P-wave (km/s) = 5.03992 5.97507 5.52731
#
# Compressibility (1/GPa) = 0.04146701
#
# Stress axis : x y z
#
# Youngs Moduli (GPa) = 52.20825 33.44461 84.29577
#
# Poissons Ratio (x) = 0.10124 0.60944
# Poissons Ratio (y) = 0.15804 -0.04483
# Poissons Ratio (z) = 0.37745 -0.01779
#
# Static dielectric constant tensor:
#      x y z
#    x 3.906830 0.000000 0.280720 
#    y 0.000000 3.919020 0.000000 
#    z 0.280720 0.000000 5.670860 
# 
# 
# High freq. dielectric constant tensor:
#      x y z
#    x 1.828540 0.000000 0.001530 
#    y 0.000000 1.852830 0.000000 
#    z 0.001530 0.000000 1.843970 
# 
# From -- ./inp_files/312999.got.cif
#   From: 2010.06.25/outbox.cif.g09.slc.cpg/sg15_157_cif.got.tgz:312999.got - 2010.06.28 07:06:18.
