data_PCOD8140938
_publ_section_title
;
Structure prediction by ZEFSAII (Michael W. Deem and Ramdas Pophale) SiO2 
 PCOD8140938
Probable space group: C 2/C
;
_chemical_formula_sum "Si O2"
_cell_formula_units_Z 44
_cell_length_a 14.596680
_cell_length_b 27.291053
_cell_length_c 8.228523
_cell_angle_alpha 90.000000
_cell_angle_beta 44.820923
_cell_angle_gamma 90.000000
_cell_volume 2310.572702
_symmetry_space_group_name_H-M "C 2/C"
_symmetry_group_IT_number 15
_symmetry_cell_setting 'monoclinic'
loop_
_space_group_symop_operation_xyz
x,y,z
-x,y,1/2-z
-x,-y,-z
x,-y,1/2+z
1/2+x,1/2+y,z
1/2-x,1/2+y,1/2-z
1/2-x,1/2-y,-z
1/2+x,1/2-y,1/2+z
loop_
_atom_site_type_symbol
_atom_site_label
_atom_site_fract_x
_atom_site_fract_y
_atom_site_fract_z
Si Si1 0.278101 0.379481 0.839398
Si Si2 0.415761 0.186832 0.515786
Si Si3 0.486660 0.445433 0.456024
Si Si4 0.066768 0.800222 0.999588
Si Si5 0.141668 0.857533 0.407886
Si Si6 0.500000 0.855011 0.250000
O O1 0.341340 0.428374 0.687506
O O2 0.303573 0.333185 0.687391
O O3 0.354018 0.365074 0.906309
O O4 0.125854 0.388983 0.061775
O O5 0.500000 0.173154 0.250000
O O6 0.386873 0.244519 0.556750
O O7 0.283119 0.156862 0.661095
O O8 0.482411 0.176153 0.606683
O O9 0.500000 0.500000 0.500000
O O10 0.595795 0.408952 0.388665
O O11 0.500000 0.445168 0.250000
O O12 0.000000 0.816553 0.250000
O O13 0.958641 0.813189 0.000018
#
# Coordination Sequence:
#
# PCOD8140938 Si02
#       6
#     8   8   8   8   8   4
#     4  10  21  38  58  86 122 152 200 246 289 357
#     4  10  24  35  56  83 123 166 201 245 290 357
#     4  11  22  39  69  91 112 147 188 252 298 351
#     4  10  21  33  55  84 113 161 202 250 287 335
#     4  10  21  37  56  86 118 155 197 243 296 340
#     4  10  24  36  58  82 122 166 194 242 298 346
#
# _framework density 19.042898000000001
#
# number of rings (size 3 to 8) (size 9 to 14) (size 15 to 20)
#    0.000    1.818    0.000    5.455   10.182    2.909 
#    0.000    0.000    2.000    3.273    0.000    0.000 
#    0.000    0.000    0.000    0.000    0.000    0.000 
#
# Total GULP energy -272685.915924 kJ/mol
# GULP energy per Si atom -12394.814360 kJ/mol
# Density = 1.899956 g / cm^3
# Si number density = 19.042898 Si / 1000 Ang^3
#
#
#
# Elastic Constant Matrix: (Units=GPa)
#
#
# Indices 1 2 3 4 5 6 
#
# 1 82.3484 36.8174 58.6780 0.0000 -3.4642 0.0000
# 2 36.8174 129.5404 68.7118 0.0000 -5.9665 0.0000
# 3 58.6780 68.7118 152.9243 0.0000 1.9086 0.0000
# 4 0.0000 0.0000 0.0000 49.8039 0.0000 14.4449
# 5 -3.4642 -5.9665 1.9086 0.0000 36.9699 0.0000
# 6 0.0000 0.0000 0.0000 14.4449 0.0000 26.2642
#
#
#
# Elastic Compliance Matrix: (Units=1/GPa)
#
#
# Indices 1 2 3 4 5 6 
#
# 1 0.017125 -0.001701 -0.005827 0.000000 0.001631 0.000000
# 2 -0.001701 0.010435 -0.004058 0.000000 0.001734 0.000000
# 3 -0.005827 -0.004058 0.010620 0.000000 -0.001749 0.000000
# 4 0.000000 0.000000 0.000000 0.023889 0.000000 -0.013139
# 5 0.001631 0.001734 -0.001749 0.000000 0.027572 0.000000
# 6 0.000000 0.000000 0.000000 -0.013139 0.000000 0.045301
#
#
# Mechanical properties :
#
#
# Convention : Reuss Voigt Hill
#
# Bulk Modulus (GPa) = 66.62879 77.02530 71.82705
# Shear Modulus (GPa) = 30.65294 35.98132 33.31713
#
# Velocity S-wave (km/s) = 4.01643 4.35154 4.18734
# Velocity P-wave (km/s) = 7.52155 8.11073 7.82169
#
# Compressibility (1/GPa) = 0.01500853
#
# Stress axis : x y z
#
# Youngs Moduli (GPa) = 58.39522 95.82877 94.16242
#
# Poissons Ratio (x) = 0.16303 0.54866
# Poissons Ratio (y) = 0.09935 0.38207
# Poissons Ratio (z) = 0.34026 0.38884
#
# Static dielectric constant tensor:
#      x y z
#    x 3.526000 0.000000 0.146660 
#    y 0.000000 3.198290 0.000000 
#    z 0.146660 0.000000 3.775680 
# 
# 
# High freq. dielectric constant tensor:
#      x y z
#    x 1.744800 0.000000 0.014450 
#    y 0.000000 1.714580 0.000000 
#    z 0.014450 0.000000 1.763770 
# 
# From -- ./inp_files/43334.got.cif
#   From: 2010.06.25/outbox.cif.g09.slc.cpg/sg15_22_cif.got.tgz:43334.got - 2010.06.28 07:06:18.
