data_PCOD8140807
_publ_section_title
;
Structure prediction by ZEFSAII (Michael W. Deem and Ramdas Pophale) SiO2 
 PCOD8140807
Probable space group: C 2/C
;
_chemical_formula_sum "Si O2"
_cell_formula_units_Z 36
_cell_length_a 13.305864
_cell_length_b 7.850237
_cell_length_c 20.173774
_cell_angle_alpha 90.000000
_cell_angle_beta 43.234883
_cell_angle_gamma 90.000000
_cell_volume 1443.436667
_symmetry_space_group_name_H-M "C 2/C"
_symmetry_group_IT_number 15
_symmetry_cell_setting 'monoclinic'
loop_
_space_group_symop_operation_xyz
x,y,z
-x,y,1/2-z
-x,-y,-z
x,-y,1/2+z
1/2+x,1/2+y,z
1/2-x,1/2+y,1/2-z
1/2-x,1/2-y,-z
1/2+x,1/2-y,1/2+z
loop_
_atom_site_type_symbol
_atom_site_label
_atom_site_fract_x
_atom_site_fract_y
_atom_site_fract_z
Si Si1 0.834437 0.578996 0.729254
Si Si2 0.171095 0.018331 0.054205
Si Si3 0.439256 0.186601 0.976840
Si Si4 0.545096 0.745574 0.878346
Si Si5 0.500000 0.296894 0.750000
O O1 0.657189 0.585297 0.815295
O O2 0.893613 0.386122 0.702115
O O3 0.900298 0.675660 0.632980
O O4 0.881272 0.676660 0.772801
O O5 0.142723 0.138337 0.003780
O O6 0.084288 0.083299 0.159356
O O7 0.344222 0.027056 0.990550
O O8 0.116154 0.827151 0.062685
O O9 0.453143 0.173018 0.048979
#
# Coordination Sequence:
#
# PCOD8140807 Si02
#       5
#     8   8   8   8   4
#     4  11  24  42  66 100 135 182 228 286 344 411
#     4  10  22  40  70  93 132 184 222 286 348 402
#     4  10  22  44  66  97 139 177 229 286 343 412
#     4  12  24  43  69 101 136 182 233 281 347 414
#     4  10  20  44  62  92 138 174 228 280 340 412
#
# _framework density 24.940477000000001
#
# number of rings (size 3 to 8) (size 9 to 14) (size 15 to 20)
#    0.000    1.333    2.222    4.000    0.000    1.778 
#    0.000    0.000    0.000    0.000    0.000    0.000 
#    0.000    0.000    0.000    0.000    0.000    0.000 
#
# Total GULP energy -223221.405870 kJ/mol
# GULP energy per Si atom -12401.189215 kJ/mol
# Density = 2.488371 g / cm^3
# Si number density = 24.940477 Si / 1000 Ang^3
#
#
#
# Elastic Constant Matrix: (Units=GPa)
#
#
# Indices 1 2 3 4 5 6 
#
# 1 99.3197 25.0586 42.6134 0.0000 5.0006 0.0001
# 2 25.0586 79.0479 -7.2824 0.0000 9.7336 0.0001
# 3 42.6134 -7.2824 70.7784 0.0000 -1.9410 0.0000
# 4 0.0000 0.0000 0.0000 33.1756 0.0000 -5.6944
# 5 5.0006 9.7336 -1.9410 0.0000 36.3265 0.0000
# 6 0.0001 0.0001 0.0000 -5.6944 0.0000 48.0098
#
#
#
# Elastic Compliance Matrix: (Units=1/GPa)
#
#
# Indices 1 2 3 4 5 6 
#
# 1 0.016025 -0.005882 -0.010286 0.000000 -0.001179 0.000000
# 2 -0.005882 0.015353 0.005038 0.000000 -0.003035 0.000000
# 3 -0.010286 0.005038 0.020872 0.000000 0.001181 0.000000
# 4 0.000000 0.000000 0.000000 0.030769 0.000000 0.003649
# 5 -0.001179 -0.003035 0.001181 0.000000 0.028567 0.000000
# 6 0.000000 0.000000 0.000000 0.003649 0.000000 0.021262
#
#
# Mechanical properties :
#
#
# Convention : Reuss Voigt Hill
#
# Bulk Modulus (GPa) = 33.34433 41.10283 37.22358
# Shear Modulus (GPa) = 30.28368 36.08613 33.18490
#
# Velocity S-wave (km/s) = 3.48837 3.80793 3.65165
# Velocity P-wave (km/s) = 5.44275 5.98748 5.72160
#
# Compressibility (1/GPa) = 0.02999010
#
# Stress axis : x y z
#
# Youngs Moduli (GPa) = 62.40166 65.13314 47.91068
#
# Poissons Ratio (x) = 0.38314 0.49280
# Poissons Ratio (y) = 0.36707 -0.24138
# Poissons Ratio (z) = 0.64186 -0.32815
#
# Static dielectric constant tensor:
#      x y z
#    x 4.556390 0.000000 -0.241370 
#    y 0.000000 4.331550 0.000000 
#    z -0.241370 0.000000 4.495230 
# 
# 
# High freq. dielectric constant tensor:
#      x y z
#    x 1.986170 0.000000 -0.010850 
#    y 0.000000 1.989360 0.000000 
#    z -0.010850 0.000000 2.003460 
# 
# From -- ./inp_files/149904.got.cif
#   From: 2010.06.25/outbox.cif.g09.slc.cpg/sg15_75_cif.got.tgz:149904.got - 2010.06.28 07:06:18.
