data_PCOD8140538
_publ_section_title
;
Structure prediction by ZEFSAII (Michael W. Deem and Ramdas Pophale) SiO2 
 PCOD8140538
Probable space group: C 2/C
;
_chemical_formula_sum "Si O2"
_cell_formula_units_Z 44
_cell_length_a 20.693665
_cell_length_b 11.132772
_cell_length_c 8.052099
_cell_angle_alpha 90.000000
_cell_angle_beta 96.410190
_cell_angle_gamma 90.000000
_cell_volume 1843.427818
_symmetry_space_group_name_H-M "C 2/C"
_symmetry_group_IT_number 15
_symmetry_cell_setting 'monoclinic'
loop_
_space_group_symop_operation_xyz
x,y,z
-x,y,1/2-z
-x,-y,-z
x,-y,1/2+z
1/2+x,1/2+y,z
1/2-x,1/2+y,1/2-z
1/2-x,1/2-y,-z
1/2+x,1/2-y,1/2+z
loop_
_atom_site_type_symbol
_atom_site_label
_atom_site_fract_x
_atom_site_fract_y
_atom_site_fract_z
Si Si1 0.500000 0.805456 0.750000
Si Si2 0.381696 0.347882 0.235760
Si Si3 0.901725 0.540830 0.018960
Si Si4 0.783399 0.329351 0.647139
Si Si5 0.145241 0.109128 0.158451
Si Si6 0.425463 0.822476 0.206726
O O1 0.552464 0.715154 0.682165
O O2 0.535457 0.889095 0.893267
O O3 0.321575 0.263721 0.279713
O O4 0.381994 0.477584 0.316741
O O5 0.377288 0.349973 0.031738
O O6 0.833592 0.576146 0.083661
O O7 0.912381 0.395606 0.031333
O O8 0.900365 0.573672 0.825635
O O9 0.750000 0.250000 0.500000
O O10 0.723056 0.398027 0.716154
O O11 0.116081 0.201456 0.285511
O O12 0.500000 0.785763 0.250000
#
# Coordination Sequence:
#
# PCOD8140538 Si02
#       6
#     4   8   8   8   8   8
#     4  10  20  42  64  88 128 170 206 252 324 358
#     4  10  23  41  67  90 131 167 210 265 307 382
#     4  11  23  41  68  92 126 170 204 271 306 382
#     4   9  19  43  68  85 129 167 210 251 325 363
#     4  11  24  43  65  97 125 171 210 261 317 373
#     4  12  25  41  64  98 127 165 214 260 321 373
#
# _framework density 23.868577999999999
#
# number of rings (size 3 to 8) (size 9 to 14) (size 15 to 20)
#    0.000    1.455    6.364    0.545    3.818    2.182 
#    3.273    0.909    0.000    0.000    0.000    0.000 
#    0.000    0.000    0.000    0.000    0.000    0.000 
#
# Total GULP energy -272685.097535 kJ/mol
# GULP energy per Si atom -12394.777161 kJ/mol
# Density = 2.381425 g / cm^3
# Si number density = 23.868578 Si / 1000 Ang^3
#
#
#
# Elastic Constant Matrix: (Units=GPa)
#
#
# Indices 1 2 3 4 5 6 
#
# 1 170.5734 57.9180 9.2280 0.0000 12.1226 0.0000
# 2 57.9180 99.0500 14.5016 0.0000 4.6190 0.0000
# 3 9.2280 14.5016 12.4427 0.0000 5.8657 0.0000
# 4 0.0000 0.0000 0.0000 33.7678 0.0000 -2.7342
# 5 12.1226 4.6190 5.8657 0.0000 27.3696 0.0000
# 6 0.0000 0.0000 0.0000 -2.7342 0.0000 30.4216
#
#
#
# Elastic Compliance Matrix: (Units=1/GPa)
#
#
# Indices 1 2 3 4 5 6 
#
# 1 0.007501 -0.004381 0.000846 0.000000 -0.002764 0.000000
# 2 -0.004381 0.014761 -0.015234 0.000000 0.002714 0.000000
# 3 0.000846 -0.015234 0.107302 0.000000 -0.020800 0.000000
# 4 0.000000 0.000000 0.000000 0.029831 0.000000 0.002681
# 5 -0.002764 0.002714 -0.020800 0.000000 0.041761 0.000000
# 6 0.000000 0.000000 0.000000 0.002681 0.000000 0.033112
#
#
# Mechanical properties :
#
#
# Convention : Reuss Voigt Hill
#
# Bulk Modulus (GPa) = 10.86659 49.48460 30.17559
# Shear Modulus (GPa) = 16.52990 31.67304 24.10147
#
# Velocity S-wave (km/s) = 2.63447 3.64672 3.18112
# Velocity P-wave (km/s) = 3.71705 6.20553 5.11493
#
# Compressibility (1/GPa) = 0.09202522
#
# Stress axis : x y z
#
# Youngs Moduli (GPa) = 133.31898 67.74389 9.31952
#
# Poissons Ratio (x) = 0.29678 -0.00789
# Poissons Ratio (y) = 0.58406 0.14198
# Poissons Ratio (z) = -0.11280 1.03204
#
# Static dielectric constant tensor:
#      x y z
#    x 5.931090 0.000000 0.254730 
#    y 0.000000 4.227490 0.000000 
#    z 0.254730 0.000000 4.169870 
# 
# 
# High freq. dielectric constant tensor:
#      x y z
#    x 1.963690 0.000000 0.004670 
#    y 0.000000 1.956770 0.000000 
#    z 0.004670 0.000000 1.916020 
# 
# From -- ./inp_files/54486.got.cif
#   From: 2010.06.25/outbox.cif.g09.slc.cpg/sg15_28_cif.got.tgz:54486.got - 2010.06.28 07:06:18.
