data_PCOD8140028
_publ_section_title
;
Structure prediction by ZEFSAII (Michael W. Deem and Ramdas Pophale) SiO2 
 PCOD8140028
Probable space group: C 2/C
;
_chemical_formula_sum "Si O2"
_cell_formula_units_Z 64
_cell_length_a 24.570133
_cell_length_b 14.320258
_cell_length_c 17.073866
_cell_angle_alpha 90.000000
_cell_angle_beta 150.209578
_cell_angle_gamma 90.000000
_cell_volume 2984.675094
_symmetry_space_group_name_H-M "C 2/C"
_symmetry_group_IT_number 15
_symmetry_cell_setting 'monoclinic'
loop_
_space_group_symop_operation_xyz
x,y,z
-x,y,1/2-z
-x,-y,-z
x,-y,1/2+z
1/2+x,1/2+y,z
1/2-x,1/2+y,1/2-z
1/2-x,1/2-y,-z
1/2+x,1/2-y,1/2+z
loop_
_atom_site_type_symbol
_atom_site_label
_atom_site_fract_x
_atom_site_fract_y
_atom_site_fract_z
Si Si1 0.808452 0.176842 0.686224
Si Si2 0.210558 0.609840 0.830440
Si Si3 0.013635 0.655428 0.680941
Si Si4 0.205365 0.726377 0.173860
Si Si5 0.543924 0.508429 0.640035
Si Si6 0.179588 0.922494 0.578914
Si Si7 0.097674 0.145976 0.316768
Si Si8 0.626076 0.728794 0.895974
O O1 0.846604 0.218680 0.817001
O O2 0.848727 0.072375 0.725990
O O3 0.676572 0.184124 0.509404
O O4 0.853634 0.240572 0.671133
O O5 0.225455 0.699116 0.791383
O O6 0.243221 0.514155 0.826603
O O7 0.085057 0.597901 0.705876
O O8 0.286809 0.622204 0.000961
O O9 0.894322 0.683171 0.499990
O O10 0.000000 0.606016 0.750000
O O11 0.089487 0.745379 0.789876
O O12 0.282968 0.642362 0.300997
O O13 0.500000 0.500000 0.500000
O O14 0.447727 0.550864 0.572477
O O15 0.585319 0.408195 0.719912
O O16 0.183740 0.865467 0.502640
O O17 0.000000 0.110437 0.250000
O O18 0.500000 0.729157 0.750000
#
# Coordination Sequence:
#
# PCOD8140028 Si02
#       8
#     8   8   8   8   8   8   8   8
#     4  10  22  36  60  98 128 173 223 277 331 402
#     4  12  24  42  70  99 134 179 227 280 341 406
#     4  11  24  43  67  97 133 181 224 273 344 409
#     4  11  25  43  62  97 141 177 225 275 344 409
#     4  12  23  36  65  99 134 163 228 288 334 390
#     4  11  24  40  65  98 133 179 223 280 338 399
#     4  11  21  40  67  98 130 166 222 284 335 398
#     4  10  20  40  65  89 132 176 224 276 342 403
#
# _framework density 21.442869999999999
#
# number of rings (size 3 to 8) (size 9 to 14) (size 15 to 20)
#    0.000    1.000    5.000    2.625    3.500    0.500 
#    0.000    1.250    0.000   16.500    0.000    0.000 
#    0.000    0.000    0.000    0.000    0.000    0.000 
#
# Total GULP energy -396626.410351 kJ/mol
# GULP energy per Si atom -12394.575323 kJ/mol
# Density = 2.139406 g / cm^3
# Si number density = 21.442870 Si / 1000 Ang^3
#
#
#
# Elastic Constant Matrix: (Units=GPa)
#
#
# Indices 1 2 3 4 5 6 
#
# 1 104.2753 26.2419 36.1388 0.0000 -14.3884 0.0000
# 2 26.2419 84.8149 27.4572 0.0000 6.8008 0.0000
# 3 36.1388 27.4572 77.8498 0.0000 -4.6508 0.0000
# 4 0.0000 0.0000 0.0000 30.9645 0.0000 -5.8471
# 5 -14.3884 6.8008 -4.6508 0.0000 33.4600 0.0000
# 6 0.0000 0.0000 0.0000 -5.8471 0.0000 31.8767
#
#
#
# Elastic Compliance Matrix: (Units=1/GPa)
#
#
# Indices 1 2 3 4 5 6 
#
# 1 0.012624 -0.002873 -0.004526 0.000000 0.005383 0.000000
# 2 -0.002873 0.014355 -0.004011 0.000000 -0.004711 0.000000
# 3 -0.004526 -0.004011 0.016430 0.000000 0.001153 0.000000
# 4 0.000000 0.000000 0.000000 0.033454 0.000000 0.006136
# 5 0.005383 -0.004711 0.001153 0.000000 0.033319 0.000000
# 6 0.000000 0.000000 0.000000 0.006136 0.000000 0.032496
#
#
# Mechanical properties :
#
#
# Convention : Reuss Voigt Hill
#
# Bulk Modulus (GPa) = 48.56510 49.62400 49.09455
# Shear Modulus (GPa) = 29.00902 31.06705 30.03804
#
# Velocity S-wave (km/s) = 3.68210 3.81048 3.74684
# Velocity P-wave (km/s) = 6.38553 6.52321 6.45474
#
# Compressibility (1/GPa) = 0.02059092
#
# Stress axis : x y z
#
# Youngs Moduli (GPa) = 79.21320 69.66046 60.86585
#
# Poissons Ratio (x) = 0.20010 0.27545
# Poissons Ratio (y) = 0.22754 0.24413
# Poissons Ratio (z) = 0.35848 0.27941
#
# Static dielectric constant tensor:
#      x y z
#    x 4.240120 0.000000 -0.054790 
#    y 0.000000 3.962290 0.000000 
#    z -0.054790 0.000000 3.872940 
# 
# 
# High freq. dielectric constant tensor:
#      x y z
#    x 1.851240 0.000000 -0.011290 
#    y 0.000000 1.821360 0.000000 
#    z -0.011290 0.000000 1.844140 
# 
# From -- ./inp_files/219735.got.cif
#   From: 2010.06.25/outbox.cif.g09.slc.cpg/sg15_110_cif.got.tgz:219735.got - 2010.06.28 07:06:18.
