data_PCOD8140261
_publ_section_title
;
Structure prediction by ZEFSAII (Michael W. Deem and Ramdas Pophale) SiO2 
 PCOD8140261
Probable space group: C 2/C
;
_chemical_formula_sum "Si O2"
_cell_formula_units_Z 48
_cell_length_a 5.890018
_cell_length_b 16.596540
_cell_length_c 21.225753
_cell_angle_alpha 90.000000
_cell_angle_beta 95.658908
_cell_angle_gamma 90.000000
_cell_volume 2064.788613
_symmetry_space_group_name_H-M "C 2/C"
_symmetry_group_IT_number 15
_symmetry_cell_setting 'monoclinic'
loop_
_space_group_symop_operation_xyz
x,y,z
-x,y,1/2-z
-x,-y,-z
x,-y,1/2+z
1/2+x,1/2+y,z
1/2-x,1/2+y,1/2-z
1/2-x,1/2-y,-z
1/2+x,1/2-y,1/2+z
loop_
_atom_site_type_symbol
_atom_site_label
_atom_site_fract_x
_atom_site_fract_y
_atom_site_fract_z
Si Si1 0.354510 0.836740 0.570935
Si Si2 0.867274 0.922328 0.182191
Si Si3 0.864126 0.069335 0.334909
Si Si4 0.336188 0.717254 0.851221
Si Si5 0.000000 0.210000 0.250000
Si Si6 0.954002 0.288299 0.043715
Si Si7 0.000000 0.524607 0.750000
O O1 0.269588 0.918069 0.602924
O O2 0.563415 0.799749 0.617487
O O3 0.435658 0.855283 0.500977
O O4 0.142193 0.777267 0.564322
O O5 0.597554 0.921499 0.194033
O O6 0.000000 0.917065 0.250000
O O7 0.949373 0.844662 0.145365
O O8 0.928222 0.006553 0.147782
O O9 0.938091 0.155928 0.309091
O O10 0.703093 0.031618 0.277778
O O11 0.213749 0.734741 0.779984
O O12 0.147301 0.677673 0.893464
O O13 0.750000 0.250000 0.000000
#
# Coordination Sequence:
#
# PCOD8140261 Si02
#       7
#     8   8   8   8   4   8   4
#     4  10  21  37  67  93 119 168 218 262 308 371
#     4  10  24  38  57  87 132 171 198 255 322 380
#     4  11  21  39  61  92 122 166 209 258 313 380
#     4  11  24  39  62  95 132 164 210 261 314 380
#     4  12  22  39  64 101 130 164 210 260 317 386
#     4   9  20  40  62  90 125 162 214 266 315 360
#     4  10  20  41  60  81 132 168 210 242 327 380
#
# _framework density 23.246931
#
# number of rings (size 3 to 8) (size 9 to 14) (size 15 to 20)
#    0.000    1.667    4.167    1.000    2.333    5.333 
#    0.000    0.833    0.000   10.000    0.000    0.000 
#    0.000    0.000    0.000    0.000    0.000    0.000 
#
# Total GULP energy -297322.629418 kJ/mol
# GULP energy per Si atom -12388.442892 kJ/mol
# Density = 2.319402 g / cm^3
# Si number density = 23.246931 Si / 1000 Ang^3
#
#
#
# Elastic Constant Matrix: (Units=GPa)
#
#
# Indices 1 2 3 4 5 6 
#
# 1 104.5666 27.3853 24.3709 0.0000 -20.8241 0.0000
# 2 27.3853 75.4508 31.1482 0.0000 -23.9435 0.0000
# 3 24.3709 31.1482 58.9224 0.0000 -12.1403 0.0000
# 4 0.0000 0.0000 0.0000 22.6198 0.0000 -9.5717
# 5 -20.8241 -23.9435 -12.1403 0.0000 54.3998 0.0000
# 6 0.0000 0.0000 0.0000 -9.5717 0.0000 21.7616
#
#
#
# Elastic Compliance Matrix: (Units=1/GPa)
#
#
# Indices 1 2 3 4 5 6 
#
# 1 0.011352 -0.001961 -0.003083 0.000000 0.002794 0.000000
# 2 -0.001961 0.019183 -0.008118 0.000000 0.005881 0.000000
# 3 -0.003083 -0.008118 0.022598 0.000000 0.000290 0.000000
# 4 0.000000 0.000000 0.000000 0.054319 0.000000 0.023892
# 5 0.002794 0.005881 0.000290 0.000000 0.022105 0.000000
# 6 0.000000 0.000000 0.000000 0.023892 0.000000 0.056461
#
#
# Mechanical properties :
#
#
# Convention : Reuss Voigt Hill
#
# Bulk Modulus (GPa) = 37.30072 44.97207 41.13639
# Shear Modulus (GPa) = 22.59601 30.15858 26.37730
#
# Velocity S-wave (km/s) = 3.12107 3.60573 3.37212
# Velocity P-wave (km/s) = 5.39151 6.05991 5.73545
#
# Compressibility (1/GPa) = 0.02680914
#
# Stress axis : x y z
#
# Youngs Moduli (GPa) = 88.09160 52.12973 44.25206
#
# Poissons Ratio (x) = 0.10221 0.13643
# Poissons Ratio (y) = 0.17272 0.35924
# Poissons Ratio (z) = 0.27159 0.42319
#
# Static dielectric constant tensor:
#      x y z
#    x 6.921520 0.000000 -1.311920 
#    y 0.000000 4.578310 0.000000 
#    z -1.311920 0.000000 4.847070 
# 
# 
# High freq. dielectric constant tensor:
#      x y z
#    x 1.939050 0.000000 -0.020030 
#    y 0.000000 1.879300 0.000000 
#    z -0.020030 0.000000 1.910010 
# 
# From -- ./inp_files/260738.got.cif
#   From: 2010.06.25/outbox.cif.g09.slc.cpg/sg15_131_cif.got.tgz:260738.got - 2010.06.28 07:06:18.
