data_PCOD8140365
_publ_section_title
;
Structure prediction by ZEFSAII (Michael W. Deem and Ramdas Pophale) SiO2 
 PCOD8140365
Probable space group: C 2/C
;
_chemical_formula_sum "Si O2"
_cell_formula_units_Z 60
_cell_length_a 22.852539
_cell_length_b 11.302117
_cell_length_c 20.270454
_cell_angle_alpha 90.000000
_cell_angle_beta 32.391637
_cell_angle_gamma 90.000000
_cell_volume 2804.673153
_symmetry_space_group_name_H-M "C 2/C"
_symmetry_group_IT_number 15
_symmetry_cell_setting 'monoclinic'
loop_
_space_group_symop_operation_xyz
x,y,z
-x,y,1/2-z
-x,-y,-z
x,-y,1/2+z
1/2+x,1/2+y,z
1/2-x,1/2+y,1/2-z
1/2-x,1/2-y,-z
1/2+x,1/2-y,1/2+z
loop_
_atom_site_type_symbol
_atom_site_label
_atom_site_fract_x
_atom_site_fract_y
_atom_site_fract_z
Si Si1 0.605372 0.295059 0.383142
Si Si2 0.600757 0.614269 0.747903
Si Si3 0.334457 0.957322 0.994469
Si Si4 0.177955 0.731860 0.505330
Si Si5 0.926806 0.393586 0.046844
Si Si6 0.305419 0.252017 0.760031
Si Si7 0.986830 0.892380 0.901834
Si Si8 0.500000 0.191708 0.250000
O O1 0.644501 0.357478 0.279355
O O2 0.496597 0.224566 0.469955
O O3 0.700789 0.203571 0.316088
O O4 0.585104 0.390843 0.462112
O O5 0.704909 0.566775 0.607075
O O6 0.502697 0.518610 0.850773
O O7 0.552213 0.727955 0.757359
O O8 0.365455 0.916829 0.037788
O O9 0.405346 0.890006 0.871595
O O10 0.357486 0.096284 0.967996
O O11 0.250000 0.750000 0.500000
O O12 0.260460 0.784533 0.373338
O O13 0.065507 0.806773 0.604564
O O14 0.846629 0.366515 0.184241
O O15 0.000000 0.500000 0.000000
O O16 0.393420 0.353303 0.687823
#
# Coordination Sequence:
#
# PCOD8140365 Si02
#       8
#     8   8   8   8   8   8   8   4
#     4  10  21  40  67 106 136 179 231 283 354 419
#     4  12  24  46  71  99 146 185 235 282 361 430
#     4  12  25  49  71  99 144 189 239 299 348 432
#     4  11  26  46  72 106 138 187 241 290 361 413
#     4  11  22  39  69 100 138 181 228 296 353 412
#     4  10  20  41  66 102 139 172 234 285 354 414
#     4  10  23  41  73 106 138 177 231 301 345 413
#     4  12  30  48  68 102 144 196 236 286 358 434
#
# _framework density 21.392868
#
# number of rings (size 3 to 8) (size 9 to 14) (size 15 to 20)
#    0.000    1.067    4.000    3.200    1.867    2.667 
#    0.000    1.333    0.000    0.000    0.000    0.000 
#    0.000    0.000    0.000    0.000    0.000    0.000 
#
# Total GULP energy -371772.483926 kJ/mol
# GULP energy per Si atom -12392.416131 kJ/mol
# Density = 2.134418 g / cm^3
# Si number density = 21.392868 Si / 1000 Ang^3
#
#
#
# Elastic Constant Matrix: (Units=GPa)
#
#
# Indices 1 2 3 4 5 6 
#
# 1 128.0006 51.3938 50.9413 0.0000 1.6727 0.0000
# 2 51.3938 109.8585 56.7724 0.0000 14.7508 0.0000
# 3 50.9413 56.7724 116.1007 0.0000 7.3356 0.0000
# 4 0.0000 0.0000 0.0000 33.4232 0.0000 -2.6542
# 5 1.6727 14.7508 7.3356 0.0000 29.2814 0.0000
# 6 0.0000 0.0000 0.0000 -2.6542 0.0000 34.3988
#
#
#
# Elastic Compliance Matrix: (Units=1/GPa)
#
#
# Indices 1 2 3 4 5 6 
#
# 1 0.010402 -0.003622 -0.002917 0.000000 0.001961 0.000000
# 2 -0.003622 0.014119 -0.004957 0.000000 -0.005664 0.000000
# 3 -0.002917 -0.004957 0.012344 0.000000 -0.000429 0.000000
# 4 0.000000 0.000000 0.000000 0.030104 0.000000 0.002323
# 5 0.001961 -0.005664 -0.000429 0.000000 0.037000 0.000000
# 6 0.000000 0.000000 0.000000 0.002323 0.000000 0.029250
#
#
# Mechanical properties :
#
#
# Convention : Reuss Voigt Hill
#
# Bulk Modulus (GPa) = 72.08096 74.68608 73.38352
# Shear Modulus (GPa) = 31.08760 32.41084 31.74922
#
# Velocity S-wave (km/s) = 3.81619 3.89656 3.85659
# Velocity P-wave (km/s) = 7.29279 7.43180 7.36263
#
# Compressibility (1/GPa) = 0.01387329
#
# Stress axis : x y z
#
# Youngs Moduli (GPa) = 96.13523 70.82452 81.01089
#
# Poissons Ratio (x) = 0.25655 0.23629
# Poissons Ratio (y) = 0.34823 0.40158
# Poissons Ratio (z) = 0.28040 0.35108
#
# Static dielectric constant tensor:
#      x y z
#    x 4.117240 0.000000 -0.077190 
#    y 0.000000 3.585050 0.000000 
#    z -0.077190 0.000000 4.265040 
# 
# 
# High freq. dielectric constant tensor:
#      x y z
#    x 1.850380 0.000000 -0.004810 
#    y 0.000000 1.822740 0.000000 
#    z -0.004810 0.000000 1.853070 
# 
# From -- ./inp_files/255532.got.cif
#   From: 2010.06.25/outbox.cif.g09.slc.cpg/sg15_128_cif.got.tgz:255532.got - 2010.06.28 07:06:18.
