data_PCOD8140714
_publ_section_title
;
Structure prediction by ZEFSAII (Michael W. Deem and Ramdas Pophale) SiO2 
 PCOD8140714
Probable space group: C 2/C
;
_chemical_formula_sum "Si O2"
_cell_formula_units_Z 52
_cell_length_a 11.051432
_cell_length_b 11.333740
_cell_length_c 19.768206
_cell_angle_alpha 90.000000
_cell_angle_beta 69.994094
_cell_angle_gamma 90.000000
_cell_volume 2326.636728
_symmetry_space_group_name_H-M "C 2/C"
_symmetry_group_IT_number 15
_symmetry_cell_setting 'monoclinic'
loop_
_space_group_symop_operation_xyz
x,y,z
-x,y,1/2-z
-x,-y,-z
x,-y,1/2+z
1/2+x,1/2+y,z
1/2-x,1/2+y,1/2-z
1/2-x,1/2-y,-z
1/2+x,1/2-y,1/2+z
loop_
_atom_site_type_symbol
_atom_site_label
_atom_site_fract_x
_atom_site_fract_y
_atom_site_fract_z
Si Si1 0.026860 0.110936 0.322572
Si Si2 0.500000 0.214822 0.250000
Si Si3 0.837037 0.227364 0.898267
Si Si4 0.137471 0.496913 0.089038
Si Si5 0.897545 0.645677 0.641028
Si Si6 0.694638 0.015628 0.226289
Si Si7 0.112697 0.007611 0.532233
O O1 0.028491 0.250293 0.334685
O O2 0.000000 0.082884 0.250000
O O3 0.160976 0.052923 0.317964
O O4 0.916079 0.057223 0.391645
O O5 0.559135 0.299109 0.181057
O O6 0.612061 0.132226 0.260532
O O7 0.856441 0.361745 0.916808
O O8 0.692980 0.198642 0.900026
O O9 0.865674 0.146452 0.957314
O O10 0.141087 0.457862 0.167293
O O11 0.004279 0.441159 0.086419
O O12 0.258529 0.447880 0.023253
O O13 0.810060 0.576142 0.711773
O O14 0.000000 0.000000 0.500000
#
# Coordination Sequence:
#
# PCOD8140714 Si02
#       7
#     8   4   8   8   8   8   8
#     4  12  26  43  67 109 143 183 243 297 365 434
#     4  10  20  42  72 104 130 176 246 288 352 426
#     4  11  24  43  71 104 136 185 249 292 359 444
#     4  11  23  46  70  99 136 192 242 288 370 432
#     4  12  23  44  75 101 144 184 237 310 357 433
#     4  11  20  42  68 102 138 180 237 293 362 430
#     4  12  26  46  69 100 151 193 232 305 360 431
#
# _framework density 22.349857
#
# number of rings (size 3 to 8) (size 9 to 14) (size 15 to 20)
#    0.000    0.615    7.692    2.308    3.231    1.231 
#    2.769    0.000    0.000    0.000    0.000    0.000 
#    0.000    0.000    0.000    0.000    0.000    0.000 
#
# Total GULP energy -322460.186158 kJ/mol
# GULP energy per Si atom -12402.314852 kJ/mol
# Density = 2.229899 g / cm^3
# Si number density = 22.349857 Si / 1000 Ang^3
#
#
#
# Elastic Constant Matrix: (Units=GPa)
#
#
# Indices 1 2 3 4 5 6 
#
# 1 100.1846 31.8551 44.2170 0.0000 -20.6073 0.0000
# 2 31.8551 83.0693 31.4860 0.0000 -5.7874 0.0000
# 3 44.2170 31.4860 125.3226 0.0000 -19.4203 0.0000
# 4 0.0000 0.0000 0.0000 21.4927 0.0000 -4.1604
# 5 -20.6073 -5.7874 -19.4203 0.0000 45.3212 0.0000
# 6 0.0000 0.0000 0.0000 -4.1604 0.0000 32.3296
#
#
#
# Elastic Compliance Matrix: (Units=1/GPa)
#
#
# Indices 1 2 3 4 5 6 
#
# 1 0.013415 -0.003651 -0.003152 0.000000 0.004283 0.000000
# 2 -0.003651 0.014302 -0.002441 0.000000 -0.000880 0.000000
# 3 -0.003152 -0.002441 0.010106 0.000000 0.002585 0.000000
# 4 0.000000 0.000000 0.000000 0.047716 0.000000 0.006140
# 5 0.004283 -0.000880 0.002585 0.000000 0.025007 0.000000
# 6 0.000000 0.000000 0.000000 0.006140 0.000000 0.031722
#
#
# Mechanical properties :
#
#
# Convention : Reuss Voigt Hill
#
# Bulk Modulus (GPa) = 51.72439 58.18808 54.95624
# Shear Modulus (GPa) = 29.90409 33.22993 31.56701
#
# Velocity S-wave (km/s) = 3.66184 3.86010 3.76227
# Velocity P-wave (km/s) = 6.40874 6.77929 6.59662
#
# Compressibility (1/GPa) = 0.01933324
#
# Stress axis : x y z
#
# Youngs Moduli (GPa) = 74.54588 69.91868 98.95555
#
# Poissons Ratio (x) = 0.25528 0.31191
# Poissons Ratio (y) = 0.27217 0.24160
# Poissons Ratio (z) = 0.23497 0.17070
#
# Static dielectric constant tensor:
#      x y z
#    x 4.100300 0.000000 -0.327380 
#    y 0.000000 3.982550 0.000000 
#    z -0.327380 0.000000 4.301460 
# 
# 
# High freq. dielectric constant tensor:
#      x y z
#    x 1.877960 0.000000 -0.017270 
#    y 0.000000 1.872200 0.000000 
#    z -0.017270 0.000000 1.890660 
# 
# From -- ./inp_files/236896.got.cif
#   From: 2010.06.25/outbox.cif.g09.slc.cpg/sg15_119_cif.got.tgz:236896.got - 2010.06.28 07:06:18.
