data_PCOD8140676
_publ_section_title
;
Structure prediction by ZEFSAII (Michael W. Deem and Ramdas Pophale) SiO2 
 PCOD8140676
Probable space group: C 2/C
;
_chemical_formula_sum "Si O2"
_cell_formula_units_Z 48
_cell_length_a 6.671904
_cell_length_b 18.867804
_cell_length_c 23.665625
_cell_angle_alpha 90.000000
_cell_angle_beta 134.814187
_cell_angle_gamma 90.000000
_cell_volume 2113.382008
_symmetry_space_group_name_H-M "C 2/C"
_symmetry_group_IT_number 15
_symmetry_cell_setting 'monoclinic'
loop_
_space_group_symop_operation_xyz
x,y,z
-x,y,1/2-z
-x,-y,-z
x,-y,1/2+z
1/2+x,1/2+y,z
1/2-x,1/2+y,1/2-z
1/2-x,1/2-y,-z
1/2+x,1/2-y,1/2+z
loop_
_atom_site_type_symbol
_atom_site_label
_atom_site_fract_x
_atom_site_fract_y
_atom_site_fract_z
Si Si1 0.173884 0.707116 0.614864
Si Si2 0.349566 0.957116 0.385136
Si Si3 0.806139 0.298447 0.935352
Si Si4 0.008742 0.451298 0.686955
Si Si5 0.120620 0.951553 0.935352
Si Si6 0.176032 0.701298 0.186955
O O1 0.217651 0.625000 0.637061
O O2 0.479598 0.743865 0.682228
O O3 0.054581 0.720349 0.528117
O O4 0.948536 0.741199 0.613327
O O5 0.663994 0.970349 0.471883
O O6 0.318456 0.993865 0.317772
O O7 0.131901 0.991199 0.386673
O O8 0.680551 0.375000 0.922220
O O9 0.941067 0.300645 0.900185
O O10 0.157388 0.375000 0.712955
O O11 0.000000 0.477037 0.750000
O O12 0.690140 0.449355 0.599814
O O13 0.500000 0.727038 0.250000
#
# Coordination Sequence:
#
# PCOD8140676 Si02
#       6
#     8   8   8   8   8   8
#     4  10  23  42  69  99 133 167 219 281 326 377
#     4  10  23  42  69  99 133 167 219 281 326 377
#     4  10  20  42  69  99 130 173 222 269 323 390
#     4  12  25  41  69  97 131 178 224 264 327 405
#     4  10  20  42  69  99 130 173 222 269 323 390
#     4  12  25  41  69  97 131 178 224 264 327 405
#
# _framework density 22.712412
#
# number of rings (size 3 to 8) (size 9 to 14) (size 15 to 20)
#    0.000    1.333    3.333    2.000    0.000    1.333 
#    0.000    5.000    0.000    0.000    0.000    0.000 
#    0.000    0.000    0.000    0.000    0.000    0.000 
#
# Total GULP energy -297693.644126 kJ/mol
# GULP energy per Si atom -12403.901839 kJ/mol
# Density = 2.266072 g / cm^3
# Si number density = 22.712412 Si / 1000 Ang^3
#
#
#
# Elastic Constant Matrix: (Units=GPa)
#
#
# Indices 1 2 3 4 5 6 
#
# 1 74.7423 49.1671 32.0789 -0.0015 -0.7352 -0.0016
# 2 49.1671 159.9557 21.2653 -0.0003 0.3556 -0.0003
# 3 32.0789 21.2653 53.5700 -0.0016 1.0019 -0.0009
# 4 -0.0015 -0.0003 -0.0016 20.2191 -0.0012 0.2470
# 5 -0.7352 0.3556 1.0019 -0.0012 50.0710 -0.0012
# 6 -0.0016 -0.0003 -0.0009 0.2470 -0.0012 39.6418
#
#
#
# Elastic Compliance Matrix: (Units=1/GPa)
#
#
# Indices 1 2 3 4 5 6 
#
# 1 0.021396 -0.005145 -0.010781 0.000001 0.000566 0.000001
# 2 -0.005145 0.007837 -0.000028 0.000000 -0.000131 0.000000
# 3 -0.010781 -0.000028 0.025146 0.000001 -0.000661 0.000000
# 4 0.000001 0.000000 0.000001 0.049462 0.000001 -0.000308
# 5 0.000566 -0.000131 -0.000661 0.000001 0.019994 0.000001
# 6 0.000001 0.000000 0.000000 -0.000308 0.000001 0.025228
#
#
# Mechanical properties :
#
#
# Convention : Reuss Voigt Hill
#
# Bulk Modulus (GPa) = 44.49803 54.81006 49.65405
# Shear Modulus (GPa) = 26.53061 34.37017 30.45039
#
# Velocity S-wave (km/s) = 3.42147 3.89431 3.66552
# Velocity P-wave (km/s) = 5.93659 6.66374 6.31065
#
# Compressibility (1/GPa) = 0.02247290
#
# Stress axis : x y z
#
# Youngs Moduli (GPa) = 46.73711 127.59806 39.76714
#
# Poissons Ratio (x) = 0.65646 0.42872
# Poissons Ratio (y) = 0.24045 0.00111
# Poissons Ratio (z) = 0.50387 0.00355
#
# Static dielectric constant tensor:
#      x y z
#    x 4.340430 0.000000 0.003930 
#    y 0.000000 3.969530 0.000000 
#    z 0.003930 0.000000 4.032460 
# 
# 
# High freq. dielectric constant tensor:
#      x y z
#    x 1.898460 0.000000 0.000010 
#    y 0.000000 1.888850 0.000000 
#    z 0.000010 0.000000 1.897310 
# 
# From -- ./inp_files/261460.got.cif
#   From: 2010.06.25/outbox.cif.g09.slc.cpg/sg15_131_cif.got.tgz:261460.got - 2010.06.28 07:06:18.
