data_PCOD8140940
_publ_section_title
;
Structure prediction by ZEFSAII (Michael W. Deem and Ramdas Pophale) SiO2 
 PCOD8140940
Probable space group: C 2/C
;
_chemical_formula_sum "Si O2"
_cell_formula_units_Z 56
_cell_length_a 13.648971
_cell_length_b 23.791745
_cell_length_c 10.521750
_cell_angle_alpha 90.000000
_cell_angle_beta 121.996543
_cell_angle_gamma 90.000000
_cell_volume 2897.684130
_symmetry_space_group_name_H-M "C 2/C"
_symmetry_group_IT_number 15
_symmetry_cell_setting 'monoclinic'
loop_
_space_group_symop_operation_xyz
x,y,z
-x,y,1/2-z
-x,-y,-z
x,-y,1/2+z
1/2+x,1/2+y,z
1/2-x,1/2+y,1/2-z
1/2-x,1/2-y,-z
1/2+x,1/2-y,1/2+z
loop_
_atom_site_type_symbol
_atom_site_label
_atom_site_fract_x
_atom_site_fract_y
_atom_site_fract_z
Si Si1 0.996932 0.178198 0.887529
Si Si2 0.051974 0.695525 0.161346
Si Si3 0.921736 0.993489 0.321071
Si Si4 0.573063 0.179399 0.671815
Si Si5 0.634427 0.396468 0.832317
Si Si6 0.704333 0.391953 0.156497
Si Si7 0.313614 0.300276 0.799768
O O1 0.008566 0.244409 0.882695
O O2 0.881895 0.160416 0.882056
O O3 0.000000 0.149324 0.750000
O O4 0.108852 0.162995 0.048663
O O5 0.187622 0.705242 0.273105
O O6 0.000000 0.663324 0.250000
O O7 0.014479 0.665674 0.004519
O O8 0.848759 0.050772 0.251394
O O9 0.000000 0.982931 0.250000
O O10 0.830854 0.942574 0.273375
O O11 0.000000 0.000000 0.500000
O O12 0.500000 0.177657 0.750000
O O13 0.666264 0.129330 0.731222
O O14 0.634775 0.239972 0.702999
O O15 0.500000 0.381773 0.750000
O O16 0.698530 0.339780 0.832107
O O17 0.690251 0.414158 0.004023
#
# Coordination Sequence:
#
# PCOD8140940 Si02
#       7
#     8   8   8   8   8   8   8
#     4  10  21  33  56  90 118 166 204 247 314 364
#     4  10  23  39  55  86 131 167 211 248 301 373
#     4  11  21  40  63  95 126 156 206 264 319 370
#     4  11  25  39  62  94 125 171 210 254 308 383
#     4  11  21  36  59  93 123 157 201 262 311 363
#     4  12  22  39  62  91 130 157 209 264 316 368
#     4  11  21  38  64  86 131 168 208 252 312 379
#
# _framework density 19.325778
#
# number of rings (size 3 to 8) (size 9 to 14) (size 15 to 20)
#    0.000    1.143    5.714    1.714    4.000    2.857 
#    0.000    0.000    0.000    4.286    0.000    0.000 
#    0.000    0.000    0.000    0.000    0.000    0.000 
#
# Total GULP energy -347103.403890 kJ/mol
# GULP energy per Si atom -12396.550139 kJ/mol
# Density = 1.928179 g / cm^3
# Si number density = 19.325778 Si / 1000 Ang^3
#
#
#
# Elastic Constant Matrix: (Units=GPa)
#
#
# Indices 1 2 3 4 5 6 
#
# 1 124.6630 29.3892 52.5145 0.0000 -1.6832 0.0000
# 2 29.3892 76.2283 20.3912 0.0000 -6.4028 0.0000
# 3 52.5145 20.3912 117.1931 0.0000 -13.1019 0.0000
# 4 0.0000 0.0000 0.0000 21.2498 0.0000 -1.1876
# 5 -1.6832 -6.4028 -13.1019 0.0000 32.7410 0.0000
# 6 0.0000 0.0000 0.0000 -1.1876 0.0000 24.1431
#
#
#
# Elastic Compliance Matrix: (Units=1/GPa)
#
#
# Indices 1 2 3 4 5 6 
#
# 1 0.010574 -0.003050 -0.004411 0.000000 -0.001818 0.000000
# 2 -0.003050 0.014742 -0.000936 0.000000 0.002352 0.000000
# 3 -0.004411 -0.000936 0.011124 0.000000 0.004042 0.000000
# 4 0.000000 0.000000 0.000000 0.047189 0.000000 0.002321
# 5 -0.001818 0.002352 0.004042 0.000000 0.032527 0.000000
# 6 0.000000 0.000000 0.000000 0.002321 0.000000 0.041534
#
#
# Mechanical properties :
#
#
# Convention : Reuss Voigt Hill
#
# Bulk Modulus (GPa) = 50.89549 58.07492 54.48521
# Shear Modulus (GPa) = 27.61954 30.01275 28.81614
#
# Velocity S-wave (km/s) = 3.78452 3.94508 3.86563
# Velocity P-wave (km/s) = 6.74459 7.13213 6.94106
#
# Compressibility (1/GPa) = 0.01964811
#
# Stress axis : x y z
#
# Youngs Moduli (GPa) = 94.57056 67.83325 89.89464
#
# Poissons Ratio (x) = 0.20686 0.39652
# Poissons Ratio (y) = 0.28840 0.08411
# Poissons Ratio (z) = 0.41714 0.06347
#
# Static dielectric constant tensor:
#      x y z
#    x 3.409970 0.000000 -0.185420 
#    y 0.000000 3.413490 0.000000 
#    z -0.185420 0.000000 3.979200 
# 
# 
# High freq. dielectric constant tensor:
#      x y z
#    x 1.739270 0.000000 -0.013160 
#    y 0.000000 1.728370 0.000000 
#    z -0.013160 0.000000 1.766890 
# 
# From -- ./inp_files/34209.got.cif
#   From: 2010.06.25/outbox.cif.g09.slc.cpg/sg15_18_cif.got.tgz:34209.got - 2010.06.28 07:06:18.
