data_PCOD8140931
_publ_section_title
;
Structure prediction by ZEFSAII (Michael W. Deem and Ramdas Pophale) SiO2 
 PCOD8140931
Probable space group: C 2/C
;
_chemical_formula_sum "Si O2"
_cell_formula_units_Z 56
_cell_length_a 17.270699
_cell_length_b 20.091559
_cell_length_c 17.286620
_cell_angle_alpha 90.000000
_cell_angle_beta 31.422592
_cell_angle_gamma 90.000000
_cell_volume 3127.229892
_symmetry_space_group_name_H-M "C 2/C"
_symmetry_group_IT_number 15
_symmetry_cell_setting 'monoclinic'
loop_
_space_group_symop_operation_xyz
x,y,z
-x,y,1/2-z
-x,-y,-z
x,-y,1/2+z
1/2+x,1/2+y,z
1/2-x,1/2+y,1/2-z
1/2-x,1/2-y,-z
1/2+x,1/2-y,1/2+z
loop_
_atom_site_type_symbol
_atom_site_label
_atom_site_fract_x
_atom_site_fract_y
_atom_site_fract_z
Si Si1 0.379963 0.492306 0.918529
Si Si2 0.546274 0.877553 0.349906
Si Si3 0.936951 0.566524 0.090591
Si Si4 0.569597 0.985842 0.615019
Si Si5 0.103736 0.059634 0.439368
Si Si6 0.088701 0.753032 0.604118
Si Si7 0.115431 0.868819 0.469624
O O1 0.500000 0.501736 0.750000
O O2 0.395313 0.423544 0.952607
O O3 0.237127 0.493511 0.985702
O O4 0.378887 0.553240 0.982185
O O5 0.467205 0.875281 0.502304
O O6 0.474910 0.819998 0.359266
O O7 0.522509 0.948033 0.328662
O O8 0.723038 0.868605 0.207507
O O9 0.763375 0.560145 0.260776
O O10 0.041668 0.573521 0.076872
O O11 0.000000 0.500000 0.000000
O O12 0.500000 0.954083 0.750000
O O13 0.009409 0.123434 0.491277
O O14 0.000000 0.000000 0.500000
O O15 0.250000 0.750000 0.500000
O O16 0.079936 0.797155 0.535188
O O17 0.000000 0.786733 0.750000
#
# Coordination Sequence:
#
# PCOD8140931 Si02
#       7
#     8   8   8   8   8   8   8
#     4  11  22  32  53  82 109 142 176 221 272 313
#     4  11  23  37  54  77 109 149 181 219 269 322
#     4  10  21  33  54  76 105 145 178 218 272 323
#     4  11  18  35  54  76 111 140 176 222 265 318
#     4  10  21  35  50  77 109 141 180 218 268 325
#     4  12  24  39  57  80 110 146 188 223 262 315
#     4  11  23  38  52  76 114 145 181 223 264 323
#
# _framework density 17.907222000000001
#
# number of rings (size 3 to 8) (size 9 to 14) (size 15 to 20)
#    0.000    1.143    4.286    4.286   12.000    0.000 
#    0.000    0.000    0.000    0.000    0.000    2.000 
#    0.000    0.000    0.000    0.000    0.000    0.000 
#
# Total GULP energy -346910.990568 kJ/mol
# GULP energy per Si atom -12389.678235 kJ/mol
# Density = 1.786646 g / cm^3
# Si number density = 17.907222 Si / 1000 Ang^3
#
#
#
# Elastic Constant Matrix: (Units=GPa)
#
#
# Indices 1 2 3 4 5 6 
#
# 1 94.3984 23.1481 41.9192 0.0143 2.0073 -0.0118
# 2 23.1481 41.5645 17.5543 0.0211 2.3176 -0.0138
# 3 41.9192 17.5543 153.3105 0.0145 5.5651 -0.0317
# 4 0.0143 0.0211 0.0145 16.3822 -0.0098 -0.9501
# 5 2.0073 2.3176 5.5651 -0.0098 37.8220 0.0136
# 6 -0.0118 -0.0138 -0.0317 -0.9501 0.0136 24.2293
#
#
#
# Elastic Compliance Matrix: (Units=1/GPa)
#
#
# Indices 1 2 3 4 5 6 
#
# 1 0.013437 -0.006237 -0.002964 -0.000001 0.000105 -0.000001
# 2 -0.006237 0.028225 -0.001484 -0.000030 -0.001180 0.000011
# 3 -0.002964 -0.001484 0.007534 -0.000002 -0.000860 0.000008
# 4 -0.000001 -0.000030 -0.000002 0.061181 0.000017 0.002399
# 5 0.000105 -0.001180 -0.000860 0.000017 0.026633 -0.000016
# 6 -0.000001 0.000011 0.000008 0.002399 -0.000016 0.041366
#
#
# Mechanical properties :
#
#
# Convention : Reuss Voigt Hill
#
# Bulk Modulus (GPa) = 35.93635 50.50184 43.21909
# Shear Modulus (GPa) = 23.92102 29.46348 26.69225
#
# Velocity S-wave (km/s) = 3.65887 4.06068 3.86500
# Velocity P-wave (km/s) = 6.16128 7.08863 6.64116
#
# Compressibility (1/GPa) = 0.02782698
#
# Stress axis : x y z
#
# Youngs Moduli (GPa) = 74.42300 35.42947 132.72926
#
# Poissons Ratio (x) = 0.22099 0.39335
# Poissons Ratio (y) = 0.46420 0.19691
# Poissons Ratio (z) = 0.22056 0.05256
#
# Static dielectric constant tensor:
#      x y z
#    x 4.124460 -0.000770 0.013190 
#    y -0.000770 1.561190 0.000030 
#    z 0.013190 0.000030 3.724410 
# 
# 
# High freq. dielectric constant tensor:
#      x y z
#    x 1.705220 0.000000 -0.002910 
#    y 0.000000 1.639120 0.000000 
#    z -0.002910 0.000000 1.717210 
# 
# From -- ./inp_files/211866.got.cif
#   From: 2010.06.25/outbox.cif.g09.slc.cpg/sg15_106_cif.got.tgz:211866.got - 2010.06.28 07:06:18.
