data_PCOD8140441
_publ_section_title
;
Structure prediction by ZEFSAII (Michael W. Deem and Ramdas Pophale) SiO2 
 PCOD8140441
Probable space group: C 2/C
;
_chemical_formula_sum "Si O2"
_cell_formula_units_Z 56
_cell_length_a 21.392380
_cell_length_b 11.892789
_cell_length_c 26.817449
_cell_angle_alpha 90.000000
_cell_angle_beta 157.213427
_cell_angle_gamma 90.000000
_cell_volume 2642.452957
_symmetry_space_group_name_H-M "C 2/C"
_symmetry_group_IT_number 15
_symmetry_cell_setting 'monoclinic'
loop_
_space_group_symop_operation_xyz
x,y,z
-x,y,1/2-z
-x,-y,-z
x,-y,1/2+z
1/2+x,1/2+y,z
1/2-x,1/2+y,1/2-z
1/2-x,1/2-y,-z
1/2+x,1/2-y,1/2+z
loop_
_atom_site_type_symbol
_atom_site_label
_atom_site_fract_x
_atom_site_fract_y
_atom_site_fract_z
Si Si1 0.799166 0.966886 0.295833
Si Si2 0.503365 0.338565 0.978442
Si Si3 0.048851 0.474663 0.926831
Si Si4 0.798779 0.588125 0.640358
Si Si5 0.144627 0.639842 0.923411
Si Si6 0.414184 0.149968 0.241051
Si Si7 0.295704 0.847338 0.369619
O O1 0.927884 0.891971 0.420375
O O2 0.805824 0.922886 0.243778
O O3 0.620297 0.961934 0.186961
O O4 0.857502 0.095255 0.344155
O O5 0.435535 0.215838 0.941322
O O6 0.647562 0.335735 0.044679
O O7 0.168614 0.569608 0.991989
O O8 0.038634 0.373453 0.878235
O O9 0.119708 0.431245 0.030204
O O10 0.794826 0.566540 0.578525
O O11 0.796061 0.459385 0.658491
O O12 0.953464 0.658760 0.773436
O O13 0.250000 0.750000 0.000000
O O14 0.500000 0.160923 0.250000
O O15 0.316356 0.262464 0.181483
#
# Coordination Sequence:
#
# PCOD8140441 Si02
#       7
#     8   8   8   8   8   8   8
#     4  11  23  44  62  99 136 171 226 282 346 414
#     4  11  22  41  72  91 134 182 224 279 346 421
#     4  11  22  45  66  96 141 172 227 291 341 412
#     4  10  20  41  68  94 127 174 230 273 333 416
#     4  10  21  41  67  94 129 177 223 277 340 403
#     4  11  20  43  68  92 132 182 224 273 343 418
#     4  12  26  40  68 103 136 177 225 291 350 407
#
# _framework density 21.192430000000002
#
# number of rings (size 3 to 8) (size 9 to 14) (size 15 to 20)
#    0.000    1.143    7.143    2.143    2.000    0.571 
#    2.571    1.429    0.000    0.000    0.000    0.000 
#    0.000    0.000    0.000    0.000    0.000    0.000 
#
# Total GULP energy -346985.404954 kJ/mol
# GULP energy per Si atom -12392.335891 kJ/mol
# Density = 2.114420 g / cm^3
# Si number density = 21.192430 Si / 1000 Ang^3
#
#
#
# Elastic Constant Matrix: (Units=GPa)
#
#
# Indices 1 2 3 4 5 6 
#
# 1 131.6505 54.0414 63.4140 0.0118 2.2522 -0.0001
# 2 54.0414 104.9348 55.7773 -0.0071 -7.0140 -0.0026
# 3 63.4140 55.7773 87.2744 -0.0106 -12.3850 -0.0043
# 4 0.0118 -0.0071 -0.0106 21.4090 -0.0100 -2.9842
# 5 2.2522 -7.0140 -12.3850 -0.0100 36.9087 -0.0011
# 6 -0.0001 -0.0026 -0.0043 -2.9842 -0.0011 37.5523
#
#
#
# Elastic Compliance Matrix: (Units=1/GPa)
#
#
# Indices 1 2 3 4 5 6 
#
# 1 0.012587 -0.002403 -0.008173 -0.000014 -0.003967 -0.000002
# 2 -0.002403 0.014896 -0.007719 0.000003 0.000387 0.000000
# 3 -0.008173 -0.007719 0.023302 0.000017 0.006851 0.000004
# 4 -0.000014 0.000003 0.000017 0.047233 0.000020 0.003754
# 5 -0.003967 0.000387 0.006851 0.000020 0.029708 0.000003
# 6 -0.000002 0.000000 0.000004 0.003754 0.000003 0.026928
#
#
# Mechanical properties :
#
#
# Convention : Reuss Voigt Hill
#
# Bulk Modulus (GPa) = 70.44745 74.48058 72.46401
# Shear Modulus (GPa) = 25.51329 29.21580 27.36455
#
# Velocity S-wave (km/s) = 3.47347 3.71697 3.59728
# Velocity P-wave (km/s) = 7.02856 7.32410 7.17785
#
# Compressibility (1/GPa) = 0.01419498
#
# Stress axis : x y z
#
# Youngs Moduli (GPa) = 79.44722 67.13060 42.91470
#
# Poissons Ratio (x) = 0.16133 0.35073
# Poissons Ratio (y) = 0.19093 0.33126
# Poissons Ratio (z) = 0.64931 0.51819
#
# Static dielectric constant tensor:
#      x y z
#    x 4.352030 -0.000310 -0.378560 
#    y -0.000310 3.662650 0.000320 
#    z -0.378560 0.000320 4.035820 
# 
# 
# High freq. dielectric constant tensor:
#      x y z
#    x 1.854220 0.000000 -0.005700 
#    y 0.000000 1.809650 -0.000010 
#    z -0.005700 -0.000010 1.813760 
# 
# From -- ./inp_files/318801.got.cif
#   From: 2010.06.25/outbox.cif.g09.slc.cpg/sg15_160_cif.got.tgz:318801.got - 2010.06.28 07:06:18.
