data_PCOD8140838
_publ_section_title
;
Structure prediction by ZEFSAII (Michael W. Deem and Ramdas Pophale) SiO2 
 PCOD8140838
Probable space group: C 2/C
;
_chemical_formula_sum "Si O2"
_cell_formula_units_Z 48
_cell_length_a 16.610477
_cell_length_b 7.671217
_cell_length_c 22.879839
_cell_angle_alpha 90.000000
_cell_angle_beta 54.193940
_cell_angle_gamma 90.000000
_cell_volume 2364.401533
_symmetry_space_group_name_H-M "C 2/C"
_symmetry_group_IT_number 15
_symmetry_cell_setting 'monoclinic'
loop_
_space_group_symop_operation_xyz
x,y,z
-x,y,1/2-z
-x,-y,-z
x,-y,1/2+z
1/2+x,1/2+y,z
1/2-x,1/2+y,1/2-z
1/2-x,1/2-y,-z
1/2+x,1/2-y,1/2+z
loop_
_atom_site_type_symbol
_atom_site_label
_atom_site_fract_x
_atom_site_fract_y
_atom_site_fract_z
Si Si1 0.404033 0.553935 0.462764
Si Si2 0.896273 0.123780 0.649311
Si Si3 0.887086 0.832823 0.286585
Si Si4 0.744181 0.472761 0.881089
Si Si5 0.085208 0.361551 0.960366
Si Si6 0.802037 0.147004 0.390465
O O1 0.490714 0.442905 0.397066
O O2 0.327220 0.435869 0.532801
O O3 0.451027 0.693773 0.487586
O O4 0.344985 0.653804 0.437255
O O5 0.860095 0.159271 0.729923
O O6 0.896279 0.306686 0.614657
O O7 0.821924 0.986380 0.649901
O O8 0.819959 0.685970 0.345396
O O9 0.000000 0.777806 0.250000
O O10 0.868266 0.022807 0.321770
O O11 0.802043 0.656570 0.865092
O O12 0.189952 0.430747 0.940848
O O13 0.000000 0.500000 0.000000
#
# Coordination Sequence:
#
# PCOD8140838 Si02
#       6
#     8   8   8   8   8   8
#     4  10  20  44  67  92 129 164 209 276 316 370
#     4  10  23  42  63  94 129 164 214 261 323 379
#     4  12  26  43  61  95 131 174 214 254 320 386
#     4  10  24  42  67  92 127 168 214 262 322 373
#     4  10  22  39  66 100 120 163 217 261 325 375
#     4  10  23  43  64  93 131 167 211 263 321 377
#
# _framework density 20.301120000000001
#
# number of rings (size 3 to 8) (size 9 to 14) (size 15 to 20)
#    0.000    2.000    1.667    4.000    9.333    4.000 
#    3.000    0.000    0.000    0.000    0.000    0.000 
#    0.000    0.000    0.000    0.000    0.000    0.000 
#
# Total GULP energy -297591.774458 kJ/mol
# GULP energy per Si atom -12399.657269 kJ/mol
# Density = 2.025491 g / cm^3
# Si number density = 20.301120 Si / 1000 Ang^3
#
#
#
# Elastic Constant Matrix: (Units=GPa)
#
#
# Indices 1 2 3 4 5 6 
#
# 1 76.7169 16.4842 16.4412 -0.0001 0.0304 0.0003
# 2 16.4842 68.8476 35.1403 -0.0004 -14.1194 0.0008
# 3 16.4412 35.1403 87.7886 0.0000 6.3927 -0.0004
# 4 -0.0001 -0.0004 0.0000 32.9660 -0.0001 -9.9184
# 5 0.0304 -14.1194 6.3927 -0.0001 43.9815 -0.0001
# 6 0.0003 0.0008 -0.0004 -9.9184 -0.0001 24.3170
#
#
#
# Elastic Compliance Matrix: (Units=1/GPa)
#
#
# Indices 1 2 3 4 5 6 
#
# 1 0.013936 -0.002723 -0.001471 0.000000 -0.000670 0.000000
# 2 -0.002723 0.021198 -0.008561 0.000000 0.008051 -0.000001
# 3 -0.001471 -0.008561 0.015457 0.000000 -0.004994 0.000001
# 4 0.000000 0.000000 0.000000 0.034578 0.000000 0.014104
# 5 -0.000670 0.008051 -0.004994 0.000000 0.026048 0.000000
# 6 0.000000 -0.000001 0.000001 0.014104 0.000000 0.046876
#
#
# Mechanical properties :
#
#
# Convention : Reuss Voigt Hill
#
# Bulk Modulus (GPa) = 39.87353 41.05382 40.46368
# Shear Modulus (GPa) = 26.04665 31.27206 28.65936
#
# Velocity S-wave (km/s) = 3.58581 3.92906 3.76135
# Velocity P-wave (km/s) = 6.06858 6.39138 6.23207
#
# Compressibility (1/GPa) = 0.02507929
#
# Stress axis : x y z
#
# Youngs Moduli (GPa) = 71.75871 47.17459 64.69484
#
# Poissons Ratio (x) = 0.12846 0.09517
# Poissons Ratio (y) = 0.19541 0.55388
# Poissons Ratio (z) = 0.10556 0.40388
#
# Static dielectric constant tensor:
#      x y z
#    x 3.858560 0.000000 0.047420 
#    y 0.000000 3.465250 0.000000 
#    z 0.047420 0.000000 3.651100 
# 
# 
# High freq. dielectric constant tensor:
#      x y z
#    x 1.810130 0.000000 0.004420 
#    y 0.000000 1.773490 0.000000 
#    z 0.004420 0.000000 1.793660 
# 
# From -- ./inp_files/247283.got.cif
#   From: 2010.06.25/outbox.cif.g09.slc.cpg/sg15_124_cif.got.tgz:247283.got - 2010.06.28 07:06:18.
