data_PCOD8140745
_publ_section_title
;
Structure prediction by ZEFSAII (Michael W. Deem and Ramdas Pophale) SiO2 
 PCOD8140745
Probable space group: C 2/C
;
_chemical_formula_sum "Si O2"
_cell_formula_units_Z 40
_cell_length_a 15.694849
_cell_length_b 11.691084
_cell_length_c 11.414200
_cell_angle_alpha 90.000000
_cell_angle_beta 60.883688
_cell_angle_gamma 90.000000
_cell_volume 1829.729092
_symmetry_space_group_name_H-M "C 2/C"
_symmetry_group_IT_number 15
_symmetry_cell_setting 'monoclinic'
loop_
_space_group_symop_operation_xyz
x,y,z
-x,y,1/2-z
-x,-y,-z
x,-y,1/2+z
1/2+x,1/2+y,z
1/2-x,1/2+y,1/2-z
1/2-x,1/2-y,-z
1/2+x,1/2-y,1/2+z
loop_
_atom_site_type_symbol
_atom_site_label
_atom_site_fract_x
_atom_site_fract_y
_atom_site_fract_z
Si Si1 0.414484 0.791005 0.721030
Si Si2 0.854684 0.471198 0.316625
Si Si3 0.488309 0.138549 0.919411
Si Si4 0.350500 0.576620 0.641873
Si Si5 0.469768 0.613809 0.148131
O O1 0.500000 0.749492 0.750000
O O2 0.458628 0.843252 0.572175
O O3 0.346830 0.680128 0.739507
O O4 0.353006 0.890147 0.829650
O O5 0.896641 0.406654 0.403246
O O6 0.747168 0.422405 0.368394
O O7 0.924249 0.452505 0.155761
O O8 0.542391 0.250717 0.830104
O O9 0.444293 0.598362 0.501220
O O10 0.368133 0.450105 0.684103
O O11 0.500000 0.556858 0.250000
#
# Coordination Sequence:
#
# PCOD8140745 Si02
#       5
#     8   8   8   8   8
#     4  11  23  42  62  88 132 162 199 259 313 360
#     4  11  22  39  63  94 121 161 208 254 301 369
#     4  10  22  41  65  89 124 166 207 249 312 365
#     4  10  25  38  64  97 119 161 213 251 310 363
#     4  10  20  43  64  85 128 164 202 256 306 369
#
# _framework density 21.861160000000002
#
# number of rings (size 3 to 8) (size 9 to 14) (size 15 to 20)
#    0.000    1.600    4.000    1.200    2.800    4.800 
#    0.000    1.000    0.000    0.000    0.000    0.000 
#    0.000    0.000    0.000    0.000    0.000    0.000 
#
# Total GULP energy -247776.549670 kJ/mol
# GULP energy per Si atom -12388.827483 kJ/mol
# Density = 2.181140 g / cm^3
# Si number density = 21.861160 Si / 1000 Ang^3
#
#
#
# Elastic Constant Matrix: (Units=GPa)
#
#
# Indices 1 2 3 4 5 6 
#
# 1 134.4911 58.6125 13.1511 0.0000 5.6602 0.0000
# 2 58.6125 151.1831 6.9538 0.0000 11.2694 0.0000
# 3 13.1511 6.9538 36.8250 0.0000 22.1036 0.0000
# 4 0.0000 0.0000 0.0000 23.5600 0.0000 10.3946
# 5 5.6602 11.2694 22.1036 0.0000 27.8057 0.0000
# 6 0.0000 0.0000 0.0000 10.3946 0.0000 20.7017
#
#
#
# Elastic Compliance Matrix: (Units=1/GPa)
#
#
# Indices 1 2 3 4 5 6 
#
# 1 0.009338 -0.003650 -0.004576 0.000000 0.003216 0.000000
# 2 -0.003650 0.008257 0.002500 0.000000 -0.004590 0.000000
# 3 -0.004576 0.002500 0.054254 0.000000 -0.043209 0.000000
# 4 0.000000 0.000000 0.000000 0.054524 0.000000 -0.027377
# 5 0.003216 -0.004590 -0.043209 0.000000 0.071518 0.000000
# 6 0.000000 0.000000 0.000000 -0.027377 0.000000 0.062052
#
#
# Mechanical properties :
#
#
# Convention : Reuss Voigt Hill
#
# Bulk Modulus (GPa) = 16.55731 53.32598 34.94165
# Shear Modulus (GPa) = 17.15115 30.66559 23.90837
#
# Velocity S-wave (km/s) = 2.80402 3.74938 3.31062
# Velocity P-wave (km/s) = 4.25131 6.57190 5.53459
#
# Compressibility (1/GPa) = 0.06039627
#
# Stress axis : x y z
#
# Youngs Moduli (GPa) = 107.08885 121.11534 18.43199
#
# Poissons Ratio (x) = 0.44201 0.08434
# Poissons Ratio (y) = 0.39082 -0.04607
# Poissons Ratio (z) = 0.49003 -0.30273
#
# Static dielectric constant tensor:
#      x y z
#    x 3.713220 0.000000 0.242610 
#    y 0.000000 4.944430 0.000000 
#    z 0.242610 0.000000 3.657280 
# 
# 
# High freq. dielectric constant tensor:
#      x y z
#    x 1.843560 0.000000 0.022670 
#    y 0.000000 1.888270 0.000000 
#    z 0.022670 0.000000 1.836950 
# 
# From -- ./inp_files/94895.got.cif
#   From: 2010.06.25/outbox.cif.g09.slc.cpg/sg15_48_cif.got.tgz:94895.got - 2010.06.28 07:06:18.
