data_PCOD8140794
_publ_section_title
;
Structure prediction by ZEFSAII (Michael W. Deem and Ramdas Pophale) SiO2 
 PCOD8140794
Probable space group: C 2/C
;
_chemical_formula_sum "Si O2"
_cell_formula_units_Z 44
_cell_length_a 11.854515
_cell_length_b 23.090534
_cell_length_c 7.615470
_cell_angle_alpha 90.000000
_cell_angle_beta 113.866596
_cell_angle_gamma 90.000000
_cell_volume 1906.309623
_symmetry_space_group_name_H-M "C 2/C"
_symmetry_group_IT_number 15
_symmetry_cell_setting 'monoclinic'
loop_
_space_group_symop_operation_xyz
x,y,z
-x,y,1/2-z
-x,-y,-z
x,-y,1/2+z
1/2+x,1/2+y,z
1/2-x,1/2+y,1/2-z
1/2-x,1/2-y,-z
1/2+x,1/2-y,1/2+z
loop_
_atom_site_type_symbol
_atom_site_label
_atom_site_fract_x
_atom_site_fract_y
_atom_site_fract_z
Si Si1 0.899371 0.178390 0.940858
Si Si2 0.906700 0.690098 0.349826
Si Si3 0.362194 0.482286 0.655715
Si Si4 0.753191 0.577656 0.736472
Si Si5 0.652512 0.638663 0.200029
Si Si6 0.500000 0.876214 0.250000
O O1 0.878162 0.243319 0.866628
O O2 0.805815 0.140580 0.760791
O O3 0.861306 0.169004 0.118746
O O4 0.042527 0.160618 0.003996
O O5 0.783209 0.658548 0.205405
O O6 0.956473 0.663303 0.562148
O O7 0.000000 0.680400 0.250000
O O8 0.500000 0.508289 0.750000
O O9 0.259052 0.533493 0.608089
O O10 0.340878 0.452674 0.456967
O O11 0.349928 0.431092 0.793254
O O12 0.891149 0.581948 0.748864
#
# Coordination Sequence:
#
# PCOD8140794 Si02
#       6
#     8   8   8   8   8   4
#     4  10  21  42  70 100 132 185 230 284 348 404
#     4  12  27  45  70 104 144 184 233 284 343 423
#     4  11  21  43  68 101 131 177 234 287 341 407
#     4  11  25  42  71 100 139 182 228 285 352 410
#     4  10  20  43  72  94 138 187 225 287 352 400
#     4  12  26  50  68 100 144 192 222 280 364 410
#
# _framework density 23.081244999999999
#
# number of rings (size 3 to 8) (size 9 to 14) (size 15 to 20)
#    0.000    1.091    7.273    2.182    2.545    3.636 
#    1.636    0.000    0.000    0.000    0.000    0.000 
#    0.000    0.000    0.000    0.000    0.000    0.000 
#
# Total GULP energy -272790.236167 kJ/mol
# GULP energy per Si atom -12399.556189 kJ/mol
# Density = 2.302871 g / cm^3
# Si number density = 23.081245 Si / 1000 Ang^3
#
#
#
# Elastic Constant Matrix: (Units=GPa)
#
#
# Indices 1 2 3 4 5 6 
#
# 1 181.9883 68.5036 24.9219 0.0000 18.9519 0.0000
# 2 68.5036 118.8164 8.7047 0.0000 4.1160 0.0000
# 3 24.9219 8.7047 33.3666 0.0000 13.1425 0.0000
# 4 0.0000 0.0000 0.0000 13.4345 0.0000 -0.3008
# 5 18.9519 4.1160 13.1425 0.0000 32.3897 0.0000
# 6 0.0000 0.0000 0.0000 -0.3008 0.0000 32.4959
#
#
#
# Elastic Compliance Matrix: (Units=1/GPa)
#
#
# Indices 1 2 3 4 5 6 
#
# 1 0.007839 -0.004156 -0.003776 0.000000 -0.002527 0.000000
# 2 -0.004156 0.010784 -0.000152 0.000000 0.001123 0.000000
# 3 -0.003776 -0.000152 0.038030 0.000000 -0.013203 0.000000
# 4 0.000000 0.000000 0.000000 0.074451 0.000000 0.000689
# 5 -0.002527 0.001123 -0.013203 0.000000 0.037567 0.000000
# 6 0.000000 0.000000 0.000000 0.000689 0.000000 0.030779
#
#
# Mechanical properties :
#
#
# Convention : Reuss Voigt Hill
#
# Bulk Modulus (GPa) = 24.69908 59.82575 42.26241
# Shear Modulus (GPa) = 21.82325 31.13343 26.47834
#
# Velocity S-wave (km/s) = 3.07823 3.67667 3.39068
# Velocity P-wave (km/s) = 4.83303 6.63323 5.80336
#
# Compressibility (1/GPa) = 0.04048734
#
# Stress axis : x y z
#
# Youngs Moduli (GPa) = 127.56224 92.72580 26.29491
#
# Poissons Ratio (x) = 0.38533 0.09929
# Poissons Ratio (y) = 0.53010 0.00399
# Poissons Ratio (z) = 0.48166 0.01408
#
# Static dielectric constant tensor:
#      x y z
#    x 4.270770 0.000000 0.111890 
#    y 0.000000 4.572220 0.000000 
#    z 0.111890 0.000000 4.016320 
# 
# 
# High freq. dielectric constant tensor:
#      x y z
#    x 1.917180 0.000000 0.004580 
#    y 0.000000 1.919680 0.000000 
#    z 0.004580 0.000000 1.894170 
# 
# From -- ./inp_files/32757.got.cif
#   From: 2010.06.25/outbox.cif.g09.slc.cpg/sg15_17_cif.got.tgz:32757.got - 2010.06.28 07:06:18.
