data_PCOD8140324
_publ_section_title
;
Structure prediction by ZEFSAII (Michael W. Deem and Ramdas Pophale) SiO2 
 PCOD8140324
Probable space group: C 2/C
;
_chemical_formula_sum "Si O2"
_cell_formula_units_Z 40
_cell_length_a 26.440868
_cell_length_b 13.016337
_cell_length_c 5.420623
_cell_angle_alpha 90.000000
_cell_angle_beta 74.931604
_cell_angle_gamma 90.000000
_cell_volume 1801.433474
_symmetry_space_group_name_H-M "C 2/C"
_symmetry_group_IT_number 15
_symmetry_cell_setting 'monoclinic'
loop_
_space_group_symop_operation_xyz
x,y,z
-x,y,1/2-z
-x,-y,-z
x,-y,1/2+z
1/2+x,1/2+y,z
1/2-x,1/2+y,1/2-z
1/2-x,1/2-y,-z
1/2+x,1/2-y,1/2+z
loop_
_atom_site_type_symbol
_atom_site_label
_atom_site_fract_x
_atom_site_fract_y
_atom_site_fract_z
Si Si1 0.101177 0.624219 0.610300
Si Si2 0.060063 0.599933 0.163495
Si Si3 0.695056 0.765108 0.197507
Si Si4 0.667610 0.464277 0.747297
Si Si5 0.784444 0.454001 0.049974
O O1 0.074327 0.665902 0.390794
O O2 0.097793 0.499903 0.608736
O O3 0.159444 0.670496 0.551161
O O4 0.071127 0.663969 0.898243
O O5 0.000000 0.563564 0.250000
O O6 0.670965 0.656228 0.300642
O O7 0.704265 0.832472 0.434371
O O8 0.750000 0.750000 0.000000
O O9 0.638220 0.483700 0.520639
O O10 0.723016 0.520022 0.620136
O O11 0.810281 0.509781 0.259022
#
# Coordination Sequence:
#
# PCOD8140324 Si02
#       5
#     8   8   8   8   8
#     4  10  22  33  57  91 116 158 203 230 314 382
#     4  10  20  41  64  88 124 153 194 270 327 371
#     4  12  24  38  58  85 127 170 215 257 288 370
#     4  10  22  39  53  73 103 161 213 245 303 329
#     4  10  22  36  54  74 105 161 209 247 297 333
#
# _framework density 22.204539
#
# number of rings (size 3 to 8) (size 9 to 14) (size 15 to 20)
#    0.000    1.600    4.000    3.000    5.600    6.400 
#    0.000    0.000    0.000    0.000    0.000    0.000 
#    0.000   27.200    0.000    0.000    0.000    0.000 
#
# Total GULP energy -247772.735756 kJ/mol
# GULP energy per Si atom -12388.636788 kJ/mol
# Density = 2.215400 g / cm^3
# Si number density = 22.204539 Si / 1000 Ang^3
#
#
#
# Elastic Constant Matrix: (Units=GPa)
#
#
# Indices 1 2 3 4 5 6 
#
# 1 92.1778 16.1181 32.3335 0.0000 3.2374 0.0000
# 2 16.1181 90.6594 28.9623 0.0000 -0.8502 0.0000
# 3 32.3335 28.9623 206.5523 0.0000 26.5932 0.0000
# 4 0.0000 0.0000 0.0000 19.3381 0.0000 0.9664
# 5 3.2374 -0.8502 26.5932 0.0000 23.2778 0.0000
# 6 0.0000 0.0000 0.0000 0.9664 0.0000 15.5390
#
#
#
# Elastic Compliance Matrix: (Units=1/GPa)
#
#
# Indices 1 2 3 4 5 6 
#
# 1 0.011687 -0.001554 -0.001636 0.000000 0.000186 0.000000
# 2 -0.001554 0.011897 -0.001769 0.000000 0.002671 0.000000
# 3 -0.001636 -0.001769 0.006243 0.000000 -0.006969 0.000000
# 4 0.000000 0.000000 0.000000 0.051873 0.000000 -0.003226
# 5 0.000186 0.002671 -0.006969 0.000000 0.050993 0.000000
# 6 0.000000 0.000000 0.000000 -0.003226 0.000000 0.064555
#
#
# Mechanical properties :
#
#
# Convention : Reuss Voigt Hill
#
# Bulk Modulus (GPa) = 50.22476 60.46859 55.34667
# Shear Modulus (GPa) = 23.38632 32.42934 27.90783
#
# Velocity S-wave (km/s) = 3.24886 3.82577 3.54906
# Velocity P-wave (km/s) = 6.06149 6.84157 6.46331
#
# Compressibility (1/GPa) = 0.01991050
#
# Stress axis : x y z
#
# Youngs Moduli (GPa) = 85.56170 84.05734 160.18684
#
# Poissons Ratio (x) = 0.13059 0.26202
# Poissons Ratio (y) = 0.13293 0.28335
# Poissons Ratio (z) = 0.13995 0.14869
#
# Static dielectric constant tensor:
#      x y z
#    x 3.677070 0.000000 0.419430 
#    y 0.000000 4.269650 0.000000 
#    z 0.419430 0.000000 4.851230 
# 
# 
# High freq. dielectric constant tensor:
#      x y z
#    x 1.827240 0.000000 0.028610 
#    y 0.000000 1.823650 0.000000 
#    z 0.028610 0.000000 1.912480 
# 
# From -- ./inp_files/16731.got.cif
#   From: 2010.06.25/outbox.cif.g09.slc.cpg/sg15_9_cif.got.tgz:16731.got - 2010.06.28 07:06:18.
