data_PCOD8140479
_publ_section_title
;
Structure prediction by ZEFSAII (Michael W. Deem and Ramdas Pophale) SiO2 
 PCOD8140479
Probable space group: C 2/C
;
_chemical_formula_sum "Si O2"
_cell_formula_units_Z 44
_cell_length_a 11.873222
_cell_length_b 16.910877
_cell_length_c 10.322043
_cell_angle_alpha 90.000000
_cell_angle_beta 83.015408
_cell_angle_gamma 90.000000
_cell_volume 2057.147427
_symmetry_space_group_name_H-M "C 2/C"
_symmetry_group_IT_number 15
_symmetry_cell_setting 'monoclinic'
loop_
_space_group_symop_operation_xyz
x,y,z
-x,y,1/2-z
-x,-y,-z
x,-y,1/2+z
1/2+x,1/2+y,z
1/2-x,1/2+y,1/2-z
1/2-x,1/2-y,-z
1/2+x,1/2-y,1/2+z
loop_
_atom_site_type_symbol
_atom_site_label
_atom_site_fract_x
_atom_site_fract_y
_atom_site_fract_z
Si Si1 0.823102 0.263309 0.257434
Si Si2 0.991848 0.714395 0.967013
Si Si3 0.377065 0.352579 0.110561
Si Si4 0.500000 0.483959 0.250000
Si Si5 0.799099 0.093620 0.359043
Si Si6 0.950262 0.556172 0.116987
O O1 0.884254 0.286947 0.115246
O O2 0.701548 0.307071 0.273989
O O3 0.806885 0.168455 0.261161
O O4 0.896319 0.291875 0.369961
O O5 0.977598 0.795657 0.047865
O O6 0.980246 0.645196 0.073058
O O7 0.435085 0.430731 0.155847
O O8 0.293154 0.374946 0.005894
O O9 0.408684 0.538785 0.332550
O O10 0.684983 0.044168 0.349270
O O11 0.000000 0.533987 0.250000
O O12 0.000000 0.500000 0.000000
#
# Coordination Sequence:
#
# PCOD8140479 Si02
#       6
#     8   8   8   4   8   8
#     4  10  20  41  77  95 133 189 234 286 355 430
#     4  10  21  42  72 100 132 181 241 283 357 421
#     4  11  22  44  67 104 137 181 234 295 349 431
#     4  12  28  38  70 100 146 180 238 290 368 412
#     4  11  23  47  66 101 141 187 229 290 362 432
#     4  12  29  45  71 102 143 185 240 298 353 423
#
# _framework density 21.388840999999999
#
# number of rings (size 3 to 8) (size 9 to 14) (size 15 to 20)
#    0.000    1.091    3.636    3.818    8.909    0.000 
#    0.000    1.818    0.000    0.000    0.000    0.000 
#    0.000    0.000    0.000    0.000    0.000    0.000 
#
# Total GULP energy -272867.961337 kJ/mol
# GULP energy per Si atom -12403.089152 kJ/mol
# Density = 2.134016 g / cm^3
# Si number density = 21.388841 Si / 1000 Ang^3
#
#
#
# Elastic Constant Matrix: (Units=GPa)
#
#
# Indices 1 2 3 4 5 6 
#
# 1 127.3107 46.8730 49.7816 0.0000 -31.1168 0.0000
# 2 46.8730 104.8185 31.1245 0.0000 -13.3586 0.0000
# 3 49.7816 31.1245 92.5754 0.0000 -22.6379 0.0000
# 4 0.0000 0.0000 0.0000 28.1803 0.0000 -3.7072
# 5 -31.1168 -13.3586 -22.6379 0.0000 38.0100 0.0000
# 6 0.0000 0.0000 0.0000 -3.7072 0.0000 33.2043
#
#
#
# Elastic Compliance Matrix: (Units=1/GPa)
#
#
# Indices 1 2 3 4 5 6 
#
# 1 0.012224 -0.003508 -0.003802 0.000000 0.006510 0.000000
# 2 -0.003508 0.011720 -0.002047 0.000000 0.000028 0.000000
# 3 -0.003802 -0.002047 0.014745 0.000000 0.004950 0.000000
# 4 0.000000 0.000000 0.000000 0.036015 0.000000 0.004021
# 5 0.006510 0.000028 0.004950 0.000000 0.034596 0.000000
# 6 0.000000 0.000000 0.000000 0.004021 0.000000 0.030566
#
#
# Mechanical properties :
#
#
# Convention : Reuss Voigt Hill
#
# Bulk Modulus (GPa) = 50.06166 64.47363 57.26764
# Shear Modulus (GPa) = 30.25915 33.00730 31.63322
#
# Velocity S-wave (km/s) = 3.76535 3.93262 3.84990
# Velocity P-wave (km/s) = 6.50847 7.12950 6.82605
#
# Compressibility (1/GPa) = 0.01997537
#
# Stress axis : x y z
#
# Youngs Moduli (GPa) = 81.80514 85.32113 67.81814
#
# Poissons Ratio (x) = 0.29929 0.25786
# Poissons Ratio (y) = 0.28695 0.13885
# Poissons Ratio (z) = 0.31104 0.17468
#
# Static dielectric constant tensor:
#      x y z
#    x 3.932020 0.000000 -0.250750 
#    y 0.000000 3.942780 0.000000 
#    z -0.250750 0.000000 3.818470 
# 
# 
# High freq. dielectric constant tensor:
#      x y z
#    x 1.838220 0.000000 -0.022120 
#    y 0.000000 1.844120 0.000000 
#    z -0.022120 0.000000 1.832930 
# 
# From -- ./inp_files/86082.got.cif
#   From: 2010.06.25/outbox.cif.g09.slc.cpg/sg15_44_cif.got.tgz:86082.got - 2010.06.28 07:06:18.
