data_PCOD8140314
_publ_section_title
;
Structure prediction by ZEFSAII (Michael W. Deem and Ramdas Pophale) SiO2 
 PCOD8140314
Probable space group: C 2/C
;
_chemical_formula_sum "Si O2"
_cell_formula_units_Z 52
_cell_length_a 25.366264
_cell_length_b 17.799820
_cell_length_c 5.350342
_cell_angle_alpha 90.000000
_cell_angle_beta 109.073969
_cell_angle_gamma 90.000000
_cell_volume 2283.128033
_symmetry_space_group_name_H-M "C 2/C"
_symmetry_group_IT_number 15
_symmetry_cell_setting 'monoclinic'
loop_
_space_group_symop_operation_xyz
x,y,z
-x,y,1/2-z
-x,-y,-z
x,-y,1/2+z
1/2+x,1/2+y,z
1/2-x,1/2+y,1/2-z
1/2-x,1/2-y,-z
1/2+x,1/2-y,1/2+z
loop_
_atom_site_type_symbol
_atom_site_label
_atom_site_fract_x
_atom_site_fract_y
_atom_site_fract_z
Si Si1 0.161766 0.048369 0.892604
Si Si2 0.000000 0.756529 0.750000
Si Si3 0.736282 0.857777 0.102830
Si Si4 0.313367 0.757703 0.900128
Si Si5 0.900847 0.303088 0.380986
Si Si6 0.636394 0.046174 0.530835
Si Si7 0.588541 0.678613 0.702327
O O1 0.210829 0.110398 0.967052
O O2 0.102430 0.092240 0.794005
O O3 0.166774 0.995760 0.658910
O O4 0.951596 0.699671 0.764546
O O5 0.974309 0.812143 0.500229
O O6 0.760259 0.799385 0.355555
O O7 0.701143 0.927690 0.153531
O O8 0.697381 0.812035 0.850499
O O9 0.367437 0.705408 0.937656
O O10 0.336443 0.806024 0.170833
O O11 0.904841 0.381497 0.536638
O O12 0.906134 0.228681 0.546754
O O13 0.623847 0.003875 0.253652
#
# Coordination Sequence:
#
# PCOD8140314 Si02
#       7
#     8   4   8   8   8   8   8
#     4  11  26  43  66 103 150 187 223 276 340 409
#     4  10  24  44  78 100 120 168 240 296 354 414
#     4  10  20  41  64 100 140 190 232 268 328 405
#     4   9  20  38  66 101 133 178 235 289 324 384
#     4  11  23  44  72  96 133 172 235 291 345 408
#     4  12  26  43  65  98 143 184 222 275 340 405
#     4  10  22  44  71  99 130 176 232 289 344 413
#
# _framework density 22.775767999999999
#
# number of rings (size 3 to 8) (size 9 to 14) (size 15 to 20)
#    0.000    1.538    1.538    2.308    8.615    1.846 
#    2.769    1.538    0.000    0.000    0.000    0.000 
#    0.000    0.000    0.000    0.000    0.000    0.000 
#
# Total GULP energy -322320.893911 kJ/mol
# GULP energy per Si atom -12396.957458 kJ/mol
# Density = 2.272393 g / cm^3
# Si number density = 22.775768 Si / 1000 Ang^3
#
#
#
# Elastic Constant Matrix: (Units=GPa)
#
#
# Indices 1 2 3 4 5 6 
#
# 1 72.3495 15.7355 7.0154 0.0000 21.4279 0.0000
# 2 15.7355 84.5992 19.4104 0.0000 5.8595 0.0000
# 3 7.0154 19.4104 105.1980 0.0000 15.6479 0.0000
# 4 0.0000 0.0000 0.0000 34.7819 0.0000 -8.1361
# 5 21.4279 5.8595 15.6479 0.0000 33.8152 0.0000
# 6 0.0000 0.0000 0.0000 -8.1361 0.0000 34.9206
#
#
#
# Elastic Compliance Matrix: (Units=1/GPa)
#
#
# Indices 1 2 3 4 5 6 
#
# 1 0.017623 -0.002732 0.000988 0.000000 -0.011151 0.000000
# 2 -0.002732 0.012809 -0.002265 0.000000 0.000560 0.000000
# 3 0.000988 -0.002265 0.010624 0.000000 -0.005150 0.000000
# 4 0.000000 0.000000 0.000000 0.030408 0.000000 0.007085
# 5 -0.011151 0.000560 -0.005150 0.000000 0.038924 0.000000
# 6 0.000000 0.000000 0.000000 0.007085 0.000000 0.030287
#
#
# Mechanical properties :
#
#
# Convention : Reuss Voigt Hill
#
# Bulk Modulus (GPa) = 30.26837 38.49660 34.38248
# Shear Modulus (GPa) = 31.30751 35.36925 33.33838
#
# Velocity S-wave (km/s) = 3.71158 3.94500 3.83007
# Velocity P-wave (km/s) = 5.62906 6.13921 5.88966
#
# Compressibility (1/GPa) = 0.03303779
#
# Stress axis : x y z
#
# Youngs Moduli (GPa) = 56.74477 78.06747 94.12784
#
# Poissons Ratio (x) = 0.21329 -0.09295
# Poissons Ratio (y) = 0.15503 0.21316
# Poissons Ratio (z) = -0.05604 0.17679
#
# Static dielectric constant tensor:
#      x y z
#    x 4.270780 0.000000 0.155790 
#    y 0.000000 4.183420 0.000000 
#    z 0.155790 0.000000 4.028940 
# 
# 
# High freq. dielectric constant tensor:
#      x y z
#    x 1.900280 0.000000 -0.002980 
#    y 0.000000 1.895440 0.000000 
#    z -0.002980 0.000000 1.896430 
# 
# From -- ./inp_files/17233.got.cif
#   From: 2010.06.25/outbox.cif.g09.slc.cpg/sg15_9_cif.got.tgz:17233.got - 2010.06.28 07:06:18.
