data_PCOD8140776
_publ_section_title
;
Structure prediction by ZEFSAII (Michael W. Deem and Ramdas Pophale) SiO2 
 PCOD8140776
Probable space group: C 2/C
;
_chemical_formula_sum "Si O2"
_cell_formula_units_Z 64
_cell_length_a 8.230434
_cell_length_b 18.048075
_cell_length_c 27.665551
_cell_angle_alpha 90.000000
_cell_angle_beta 135.628627
_cell_angle_gamma 90.000000
_cell_volume 2873.825372
_symmetry_space_group_name_H-M "C 2/C"
_symmetry_group_IT_number 15
_symmetry_cell_setting 'monoclinic'
loop_
_space_group_symop_operation_xyz
x,y,z
-x,y,1/2-z
-x,-y,-z
x,-y,1/2+z
1/2+x,1/2+y,z
1/2-x,1/2+y,1/2-z
1/2-x,1/2-y,-z
1/2+x,1/2-y,1/2+z
loop_
_atom_site_type_symbol
_atom_site_label
_atom_site_fract_x
_atom_site_fract_y
_atom_site_fract_z
Si Si1 0.889779 0.448594 0.890674
Si Si2 0.820276 0.288354 0.893822
Si Si3 0.097023 0.300204 0.216531
Si Si4 0.572576 0.571640 0.986910
Si Si5 0.059011 0.947511 0.373819
Si Si6 0.936658 0.219011 0.643234
Si Si7 0.972530 0.225402 0.017592
Si Si8 0.738764 0.547906 0.774864
O O1 0.758175 0.370152 0.861938
O O2 0.779910 0.499344 0.909817
O O3 0.869493 0.484108 0.832928
O O4 0.150933 0.425597 0.957967
O O5 0.568536 0.251431 0.850639
O O6 0.976056 0.286518 0.975438
O O7 0.964932 0.239106 0.887886
O O8 0.360003 0.266094 0.273936
O O9 0.094929 0.380768 0.191240
O O10 0.000000 0.307178 0.250000
O O11 0.480938 0.559703 0.912785
O O12 0.465033 0.643388 0.991477
O O13 0.500000 0.500000 0.000000
O O14 0.129776 0.867129 0.368803
O O15 0.834012 0.977073 0.295274
O O16 0.700894 0.266668 0.600346
O O17 0.750000 0.250000 0.000000
O O18 0.500000 0.569432 0.750000
#
# Coordination Sequence:
#
# PCOD8140776 Si02
#       8
#     8   8   8   8   8   8   8   8
#     4  11  24  41  69 103 140 178 232 292 354 426
#     4  11  22  42  69  99 135 181 232 288 355 413
#     4   9  21  37  70  99 127 176 231 275 344 418
#     4  12  27  43  66 100 141 182 236 292 354 422
#     4  10  22  42  69  96 133 182 226 279 352 427
#     4  10  20  43  67  96 128 176 227 284 341 421
#     4  12  27  43  68  99 141 182 236 296 352 412
#     4   9  21  40  66 101 134 177 225 281 342 420
#
# _framework density 22.269967999999999
#
# number of rings (size 3 to 8) (size 9 to 14) (size 15 to 20)
#    0.000    1.500    2.500    1.500    5.250    6.500 
#    0.000    0.000    0.000    1.500    0.000    0.000 
#    0.000    0.000    0.000    0.000    0.000    0.000 
#
# Total GULP energy -396551.874813 kJ/mol
# GULP energy per Si atom -12392.246088 kJ/mol
# Density = 2.221928 g / cm^3
# Si number density = 22.269968 Si / 1000 Ang^3
#
#
#
# Elastic Constant Matrix: (Units=GPa)
#
#
# Indices 1 2 3 4 5 6 
#
# 1 78.1417 45.7366 37.7544 0.0004 8.3473 0.0002
# 2 45.7366 132.6850 49.9930 0.0000 1.7391 0.0000
# 3 37.7544 49.9930 94.9180 0.0000 8.9885 -0.0001
# 4 0.0004 0.0000 0.0000 33.2817 -0.0001 3.6318
# 5 8.3473 1.7391 8.9885 -0.0001 35.6669 0.0001
# 6 0.0002 0.0000 -0.0001 3.6318 0.0001 45.5663
#
#
#
# Elastic Compliance Matrix: (Units=1/GPa)
#
#
# Indices 1 2 3 4 5 6 
#
# 1 0.017867 -0.004423 -0.004509 0.000000 -0.002829 0.000000
# 2 -0.004423 0.010520 -0.003925 0.000000 0.001511 0.000000
# 3 -0.004509 -0.003925 0.014627 0.000000 -0.002440 0.000000
# 4 0.000000 0.000000 0.000000 0.030310 0.000000 -0.002416
# 5 -0.002829 0.001511 -0.002440 0.000000 0.029240 0.000000
# 6 0.000000 0.000000 0.000000 -0.002416 0.000000 0.022139
#
#
# Mechanical properties :
#
#
# Convention : Reuss Voigt Hill
#
# Bulk Modulus (GPa) = 57.80176 63.63473 60.71825
# Shear Modulus (GPa) = 32.01354 34.38702 33.20028
#
# Velocity S-wave (km/s) = 3.79558 3.93376 3.86529
# Velocity P-wave (km/s) = 6.72458 7.01918 6.87346
#
# Compressibility (1/GPa) = 0.01730051
#
# Stress axis : x y z
#
# Youngs Moduli (GPa) = 55.96991 95.05592 68.36528
#
# Poissons Ratio (x) = 0.42039 0.30828
# Poissons Ratio (y) = 0.24753 0.26833
# Poissons Ratio (z) = 0.25239 0.37309
#
# Static dielectric constant tensor:
#      x y z
#    x 4.017920 0.000000 0.033020 
#    y 0.000000 3.977840 0.000000 
#    z 0.033020 0.000000 4.745350 
# 
# 
# High freq. dielectric constant tensor:
#      x y z
#    x 1.865610 0.000000 0.002440 
#    y 0.000000 1.867770 0.000000 
#    z 0.002440 0.000000 1.888920 
# 
# From -- ./inp_files/308813.got.cif
#   From: 2010.06.25/outbox.cif.g09.slc.cpg/sg15_155_cif.got.tgz:308813.got - 2010.06.28 07:06:18.
