data_PCOD8140037
_publ_section_title
;
Structure prediction by ZEFSAII (Michael W. Deem and Ramdas Pophale) SiO2 
 PCOD8140037
Probable space group: C 2/C
;
_chemical_formula_sum "Si O2"
_cell_formula_units_Z 48
_cell_length_a 13.923606
_cell_length_b 13.692121
_cell_length_c 12.079976
_cell_angle_alpha 90.000000
_cell_angle_beta 73.022798
_cell_angle_gamma 90.000000
_cell_volume 2202.610146
_symmetry_space_group_name_H-M "C 2/C"
_symmetry_group_IT_number 15
_symmetry_cell_setting 'monoclinic'
loop_
_space_group_symop_operation_xyz
x,y,z
-x,y,1/2-z
-x,-y,-z
x,-y,1/2+z
1/2+x,1/2+y,z
1/2-x,1/2+y,1/2-z
1/2-x,1/2-y,-z
1/2+x,1/2-y,1/2+z
loop_
_atom_site_type_symbol
_atom_site_label
_atom_site_fract_x
_atom_site_fract_y
_atom_site_fract_z
Si Si1 0.850274 0.645219 0.057886
Si Si2 0.461972 0.833440 0.144055
Si Si3 0.561655 0.427449 0.133848
Si Si4 0.295660 0.354053 0.087122
Si Si5 0.004213 0.123547 0.418759
Si Si6 0.265559 0.047322 0.681604
O O1 0.816102 0.745281 0.130889
O O2 0.818536 0.557781 0.149896
O O3 0.805094 0.642754 0.949716
O O4 0.968362 0.641398 0.986296
O O5 0.500000 0.877210 0.250000
O O6 0.455258 0.715900 0.163058
O O7 0.351994 0.870883 0.147456
O O8 0.500000 0.367228 0.250000
O O9 0.485676 0.522430 0.150942
O O10 0.679954 0.441805 0.117439
O O11 0.560192 0.372289 0.017979
O O12 0.289162 0.438285 0.182059
O O13 0.384509 0.376048 0.973355
#
# Coordination Sequence:
#
# PCOD8140037 Si02
#       6
#     8   8   8   8   8   8
#     4  10  22  41  65  92 128 168 213 264 316 385
#     4  11  23  41  66  91 127 169 219 259 318 391
#     4  11  22  37  62  91 130 164 211 271 327 374
#     4  10  20  40  65  92 123 170 214 259 318 386
#     4  10  22  40  61  92 124 168 216 265 315 384
#     4  12  23  39  67  97 126 165 217 268 323 378
#
# _framework density 21.792327
#
# number of rings (size 3 to 8) (size 9 to 14) (size 15 to 20)
#    0.000    1.333    5.000    1.000    0.000    2.000 
#    0.000    1.667    3.667    0.000    0.000    0.000 
#    0.000    0.000    0.000    0.000    0.000    0.000 
#
# Total GULP energy -297390.884344 kJ/mol
# GULP energy per Si atom -12391.286848 kJ/mol
# Density = 2.174273 g / cm^3
# Si number density = 21.792327 Si / 1000 Ang^3
#
#
#
# Elastic Constant Matrix: (Units=GPa)
#
#
# Indices 1 2 3 4 5 6 
#
# 1 106.1993 14.3379 16.1521 0.0000 4.5899 0.0000
# 2 14.3379 80.2797 32.0470 0.0000 -3.2382 0.0000
# 3 16.1521 32.0470 78.5718 0.0000 6.4004 0.0000
# 4 0.0000 0.0000 0.0000 29.4051 0.0000 -6.0443
# 5 4.5899 -3.2382 6.4004 0.0000 29.6895 0.0000
# 6 0.0000 0.0000 0.0000 -6.0443 0.0000 27.1384
#
#
#
# Elastic Compliance Matrix: (Units=1/GPa)
#
#
# Indices 1 2 3 4 5 6 
#
# 1 0.009858 -0.001255 -0.001404 0.000000 -0.001358 0.000000
# 2 -0.001255 0.015303 -0.006245 0.000000 0.003209 0.000000
# 3 -0.001404 -0.006245 0.015880 0.000000 -0.003887 0.000000
# 4 0.000000 0.000000 0.000000 0.035639 0.000000 0.007938
# 5 -0.001358 0.003209 -0.003887 0.000000 0.035080 0.000000
# 6 0.000000 0.000000 0.000000 0.007938 0.000000 0.038616
#
#
# Mechanical properties :
#
#
# Convention : Reuss Voigt Hill
#
# Bulk Modulus (GPa) = 43.04304 43.34719 43.19511
# Shear Modulus (GPa) = 28.42069 30.74753 29.58411
#
# Velocity S-wave (km/s) = 3.61523 3.76031 3.68849
# Velocity P-wave (km/s) = 6.10089 6.22796 6.16475
#
# Compressibility (1/GPa) = 0.02323256
#
# Stress axis : x y z
#
# Youngs Moduli (GPa) = 101.44124 65.34662 62.97359
#
# Poissons Ratio (x) = 0.08201 0.08842
# Poissons Ratio (y) = 0.12730 0.39327
# Poissons Ratio (z) = 0.14243 0.40809
#
# Static dielectric constant tensor:
#      x y z
#    x 3.947140 0.000000 -0.071250 
#    y 0.000000 4.085800 0.000000 
#    z -0.071250 0.000000 3.795570 
# 
# 
# High freq. dielectric constant tensor:
#      x y z
#    x 1.863980 0.000000 -0.009980 
#    y 0.000000 1.836280 0.000000 
#    z -0.009980 0.000000 1.849530 
# 
# From -- ./inp_files/96185.got.cif
#   From: 2010.06.25/outbox.cif.g09.slc.cpg/sg15_49_cif.got.tgz:96185.got - 2010.06.28 07:06:18.
