data_PCOD8140283
_publ_section_title
;
Structure prediction by ZEFSAII (Michael W. Deem and Ramdas Pophale) SiO2 
 PCOD8140283
Probable space group: C 2/C
;
_chemical_formula_sum "Si O2"
_cell_formula_units_Z 56
_cell_length_a 27.252095
_cell_length_b 6.890859
_cell_length_c 14.135024
_cell_angle_alpha 90.000000
_cell_angle_beta 99.029384
_cell_angle_gamma 90.000000
_cell_volume 2621.527392
_symmetry_space_group_name_H-M "C 2/C"
_symmetry_group_IT_number 15
_symmetry_cell_setting 'monoclinic'
loop_
_space_group_symop_operation_xyz
x,y,z
-x,y,1/2-z
-x,-y,-z
x,-y,1/2+z
1/2+x,1/2+y,z
1/2-x,1/2+y,1/2-z
1/2-x,1/2-y,-z
1/2+x,1/2-y,1/2+z
loop_
_atom_site_type_symbol
_atom_site_label
_atom_site_fract_x
_atom_site_fract_y
_atom_site_fract_z
Si Si1 0.918458 0.243503 0.889552
Si Si2 0.659147 0.580375 0.169814
Si Si3 0.000037 0.024684 0.355594
Si Si4 0.094475 0.229102 0.407550
Si Si5 0.739288 0.541757 0.038747
Si Si6 0.426369 0.144091 0.800006
Si Si7 0.798067 0.792201 0.630129
O O1 0.930119 0.421271 0.826227
O O2 0.874294 0.114373 0.829523
O O3 0.969318 0.118800 0.913968
O O4 0.904900 0.329021 0.989081
O O5 0.687302 0.561428 0.078877
O O6 0.622709 0.765165 0.165877
O O7 0.700636 0.615680 0.264089
O O8 0.974614 0.238373 0.348309
O O9 0.000000 0.936911 0.250000
O O10 0.057282 0.043813 0.405860
O O11 0.076192 0.361464 0.315246
O O12 0.149256 0.160569 0.400677
O O13 0.780798 0.436658 0.120048
O O14 0.750000 0.750000 0.000000
O O15 0.740213 0.411973 0.944534
#
# Coordination Sequence:
#
# PCOD8140283 Si02
#       7
#     8   8   8   8   8   8   8
#     4  11  21  40  67  92 125 176 210 256 330 371
#     4  10  23  43  65  93 129 162 211 270 312 377
#     4   9  20  39  61  92 129 166 214 262 311 383
#     4  10  20  41  62  89 136 160 207 271 304 378
#     4  11  25  42  67  93 120 168 214 253 326 375
#     4   9  22  39  60  94 130 167 214 264 314 375
#     4  10  24  44  61  95 129 159 211 267 304 384
#
# _framework density 21.361592999999999
#
# number of rings (size 3 to 8) (size 9 to 14) (size 15 to 20)
#    0.000    2.000    1.429    1.286    4.000    4.571 
#    0.000    4.286    0.000    0.000    0.000    0.000 
#    0.000    0.000    0.000    0.000    0.000    0.000 
#
# Total GULP energy -346917.375333 kJ/mol
# GULP energy per Si atom -12389.906262 kJ/mol
# Density = 2.131297 g / cm^3
# Si number density = 21.361593 Si / 1000 Ang^3
#
#
#
# Elastic Constant Matrix: (Units=GPa)
#
#
# Indices 1 2 3 4 5 6 
#
# 1 86.9479 33.1540 9.7521 0.0000 -5.0716 0.0000
# 2 33.1540 128.5452 35.8088 0.0000 -3.0549 0.0000
# 3 9.7521 35.8088 74.8273 0.0000 -10.1753 0.0000
# 4 0.0000 0.0000 0.0000 24.2056 0.0000 -4.9175
# 5 -5.0716 -3.0549 -10.1753 0.0000 30.5808 0.0000
# 6 0.0000 0.0000 0.0000 -4.9175 0.0000 16.4061
#
#
#
# Elastic Compliance Matrix: (Units=1/GPa)
#
#
# Indices 1 2 3 4 5 6 
#
# 1 0.012856 -0.003317 0.000164 0.000000 0.001855 0.000000
# 2 -0.003317 0.009841 -0.004418 0.000000 -0.001037 0.000000
# 3 0.000164 -0.004418 0.016131 0.000000 0.004953 0.000000
# 4 0.000000 0.000000 0.000000 0.043991 0.000000 0.013186
# 5 0.001855 -0.001037 0.004953 0.000000 0.034552 0.000000
# 6 0.000000 0.000000 0.000000 0.013186 0.000000 0.064905
#
#
# Mechanical properties :
#
#
# Convention : Reuss Voigt Hill
#
# Bulk Modulus (GPa) = 42.22066 49.75004 45.98535
# Shear Modulus (GPa) = 24.35295 28.34554 26.34924
#
# Velocity S-wave (km/s) = 3.38010 3.64667 3.51591
# Velocity P-wave (km/s) = 5.91955 6.40866 6.16896
#
# Compressibility (1/GPa) = 0.02368509
#
# Stress axis : x y z
#
# Youngs Moduli (GPa) = 77.78524 101.61451 61.99414
#
# Poissons Ratio (x) = 0.33710 -0.01019
# Poissons Ratio (y) = 0.25805 0.27390
# Poissons Ratio (z) = -0.01279 0.44895
#
# Static dielectric constant tensor:
#      x y z
#    x 4.115420 0.000000 -0.044910 
#    y 0.000000 3.583840 0.000000 
#    z -0.044910 0.000000 4.075590 
# 
# 
# High freq. dielectric constant tensor:
#      x y z
#    x 1.844100 0.000000 -0.008430 
#    y 0.000000 1.807540 0.000000 
#    z -0.008430 0.000000 1.847750 
# 
# From -- ./inp_files/180124.got.cif
#   From: 2010.06.25/outbox.cif.g09.slc.cpg/sg15_91_cif.got.tgz:180124.got - 2010.06.28 07:06:18.
