data_PCOD8140796
_publ_section_title
;
Structure prediction by ZEFSAII (Michael W. Deem and Ramdas Pophale) SiO2 
 PCOD8140796
Probable space group: C 2/C
;
_chemical_formula_sum "Si O2"
_cell_formula_units_Z 56
_cell_length_a 16.840426
_cell_length_b 17.023329
_cell_length_c 9.022568
_cell_angle_alpha 90.000000
_cell_angle_beta 102.930494
_cell_angle_gamma 90.000000
_cell_volume 2521.000653
_symmetry_space_group_name_H-M "C 2/C"
_symmetry_group_IT_number 15
_symmetry_cell_setting 'monoclinic'
loop_
_space_group_symop_operation_xyz
x,y,z
-x,y,1/2-z
-x,-y,-z
x,-y,1/2+z
1/2+x,1/2+y,z
1/2-x,1/2+y,1/2-z
1/2-x,1/2-y,-z
1/2+x,1/2-y,1/2+z
loop_
_atom_site_type_symbol
_atom_site_label
_atom_site_fract_x
_atom_site_fract_y
_atom_site_fract_z
Si Si1 0.147988 0.835627 0.521662
Si Si2 0.078244 0.430017 0.369570
Si Si3 0.173644 0.320824 0.211283
Si Si4 0.308268 0.077896 0.070282
Si Si5 0.511259 0.580507 0.582971
Si Si6 0.572204 0.847444 0.662841
Si Si7 0.649317 0.690450 0.679679
O O1 0.161079 0.766774 0.645537
O O2 0.211383 0.909576 0.562593
O O3 0.155423 0.800485 0.360402
O O4 0.056601 0.862667 0.513254
O O5 0.105047 0.349919 0.297246
O O6 0.155925 0.489049 0.411580
O O7 0.047041 0.407061 0.520985
O O8 0.000000 0.467939 0.250000
O O9 0.258545 0.318577 0.338791
O O10 0.171634 0.384576 0.079399
O O11 0.348357 0.123077 0.221786
O O12 0.500000 0.567061 0.750000
O O13 0.500000 0.500000 0.500000
O O14 0.601441 0.614937 0.597489
O O15 0.500000 0.836643 0.750000
O O16 0.598406 0.765002 0.599853
#
# Coordination Sequence:
#
# PCOD8140796 Si02
#       7
#     8   8   8   8   8   8   8
#     4  10  20  43  73  98 127 184 233 274 331 413
#     4  12  29  42  61 109 146 173 218 290 345 399
#     4  11  22  45  70  99 136 172 233 284 333 411
#     4  11  22  43  69  93 134 184 225 271 339 410
#     4  10  23  42  65  99 131 174 228 279 340 396
#     4  12  23  42  71  94 135 184 226 267 343 414
#     4  10  21  41  71  97 126 183 229 274 330 413
#
# _framework density 22.213403
#
# number of rings (size 3 to 8) (size 9 to 14) (size 15 to 20)
#    0.000    1.143    2.857    4.286    4.000    2.286 
#    5.143    0.000    0.000    0.000    0.000    0.000 
#    0.000    0.000    0.000    0.000    0.000    0.000 
#
# Total GULP energy -347089.941764 kJ/mol
# GULP energy per Si atom -12396.069349 kJ/mol
# Density = 2.216284 g / cm^3
# Si number density = 22.213403 Si / 1000 Ang^3
#
#
#
# Elastic Constant Matrix: (Units=GPa)
#
#
# Indices 1 2 3 4 5 6 
#
# 1 97.8516 33.7724 44.2048 0.0000 20.1930 0.0000
# 2 33.7724 112.8646 40.2133 0.0000 10.3306 0.0000
# 3 44.2048 40.2133 73.7639 0.0000 22.2004 0.0000
# 4 0.0000 0.0000 0.0000 21.1288 0.0000 -11.2681
# 5 20.1930 10.3306 22.2004 0.0000 31.6838 0.0000
# 6 0.0000 0.0000 0.0000 -11.2681 0.0000 4.3268
#
#
#
# Elastic Compliance Matrix: (Units=1/GPa)
#
#
# Indices 1 2 3 4 5 6 
#
# 1 0.014636 -0.001638 -0.006629 0.000000 -0.004149 0.000000
# 2 -0.001638 0.011194 -0.005496 0.000000 0.001245 0.000000
# 3 -0.006629 -0.005496 0.023716 0.000000 -0.010601 0.000000
# 4 0.000000 0.000000 0.000000 -0.121709 0.000000 -0.316961
# 5 -0.004149 0.001245 -0.010601 0.000000 0.041228 0.000000
# 6 0.000000 0.000000 0.000000 -0.316961 0.000000 -0.594333
#
#
# Mechanical properties :
#
#
# Convention : Reuss Voigt Hill
#
# Bulk Modulus (GPa) = 45.41275 57.87346 51.64310
# Shear Modulus (GPa) = -8.46882 22.51386 7.02252
#
# Velocity S-wave (km/s) = -1.95468 3.18705 1.77996
# Velocity P-wave (km/s) = 3.92350 6.29706 5.24628
#
# Compressibility (1/GPa) = 0.02202025
#
# Stress axis : x y z
#
# Youngs Moduli (GPa) = 68.32567 89.32963 42.16512
#
# Poissons Ratio (x) = 0.14629 0.27953
# Poissons Ratio (y) = 0.11189 0.23174
# Poissons Ratio (z) = 0.45296 0.49096
#
# Static dielectric constant tensor:
#      x y z
#    x 4.064610 0.000000 0.413260 
#    y 0.000000 3.956250 0.000000 
#    z 0.413260 0.000000 4.076570 
# 
# 
# High freq. dielectric constant tensor:
#      x y z
#    x 1.875020 0.000000 0.024530 
#    y 0.000000 1.871280 0.000000 
#    z 0.024530 0.000000 1.866030 
# 
# From -- ./inp_files/49178.got.cif
#   From: 2010.06.25/outbox.cif.g09.slc.cpg/sg15_25_cif.got.tgz:49178.got - 2010.06.28 07:06:18.
