data_PCOD8140613
_publ_section_title
;
Structure prediction by ZEFSAII (Michael W. Deem and Ramdas Pophale) SiO2 
 PCOD8140613
Probable space group: C 2/C
;
_chemical_formula_sum "Si O2"
_cell_formula_units_Z 44
_cell_length_a 29.174938
_cell_length_b 14.605793
_cell_length_c 15.000553
_cell_angle_alpha 90.000000
_cell_angle_beta 19.482545
_cell_angle_gamma 90.000000
_cell_volume 2131.885158
_symmetry_space_group_name_H-M "C 2/C"
_symmetry_group_IT_number 15
_symmetry_cell_setting 'monoclinic'
loop_
_space_group_symop_operation_xyz
x,y,z
-x,y,1/2-z
-x,-y,-z
x,-y,1/2+z
1/2+x,1/2+y,z
1/2-x,1/2+y,1/2-z
1/2-x,1/2-y,-z
1/2+x,1/2-y,1/2+z
loop_
_atom_site_type_symbol
_atom_site_label
_atom_site_fract_x
_atom_site_fract_y
_atom_site_fract_z
Si Si1 0.434130 0.555809 0.699625
Si Si2 0.290435 0.887934 0.233198
Si Si3 0.344059 0.020421 0.811728
Si Si4 0.148552 0.434536 0.995394
Si Si5 0.404025 0.690982 0.006963
Si Si6 0.500000 0.437520 0.750000
O O1 0.500000 0.500000 0.500000
O O2 0.507909 0.655936 0.568142
O O3 0.480983 0.503009 0.701495
O O4 0.267165 0.562894 0.996793
O O5 0.295734 0.902852 0.330230
O O6 0.380292 0.798855 0.050984
O O7 0.132245 0.872107 0.495108
O O8 0.348335 0.972166 0.068508
O O9 0.500000 0.000000 0.500000
O O10 0.331357 0.051401 0.936356
O O11 0.000000 0.389731 0.250000
O O12 0.261915 0.363416 0.754318
O O13 0.500000 0.665448 0.750000
#
# Coordination Sequence:
#
# PCOD8140613 Si02
#       6
#     8   8   8   8   8   4
#     4  11  20  42  68  95 130 180 224 269 337 400
#     4  11  24  43  70 101 139 175 233 279 341 403
#     4  11  23  41  71  97 137 183 223 275 348 406
#     4  12  24  45  70  98 141 182 223 286 345 405
#     4  12  25  43  69 103 134 180 229 287 337 405
#     4  10  20  42  66  94 134 180 220 276 334 406
#
# _framework density 20.639011
#
# number of rings (size 3 to 8) (size 9 to 14) (size 15 to 20)
#    0.000    0.727    6.364    1.636    1.273    0.727 
#    0.000    2.727    0.000    0.000    0.000    0.000 
#    0.000    0.000    0.000    0.000    0.000    0.000 
#
# Total GULP energy -272596.250999 kJ/mol
# GULP energy per Si atom -12390.738682 kJ/mol
# Density = 2.059204 g / cm^3
# Si number density = 20.639011 Si / 1000 Ang^3
#
#
#
# Elastic Constant Matrix: (Units=GPa)
#
#
# Indices 1 2 3 4 5 6 
#
# 1 126.8642 23.3401 44.4622 -0.0002 4.1577 0.0002
# 2 23.3401 84.2149 39.2730 -0.0003 -0.9801 0.0002
# 3 44.4622 39.2730 156.4830 -0.0002 -24.9946 0.0002
# 4 -0.0002 -0.0003 -0.0002 37.6739 0.0001 -4.0821
# 5 4.1577 -0.9801 -24.9946 0.0001 54.3074 -0.0001
# 6 0.0002 0.0002 0.0002 -4.0821 -0.0001 22.4996
#
#
#
# Elastic Compliance Matrix: (Units=1/GPa)
#
#
# Indices 1 2 3 4 5 6 
#
# 1 0.009085 -0.001354 -0.002544 0.000000 -0.001891 0.000000
# 2 -0.001354 0.013752 -0.003249 0.000000 -0.001144 0.000000
# 3 -0.002544 -0.003249 0.008581 0.000000 0.004086 0.000000
# 4 0.000000 0.000000 0.000000 0.027076 0.000000 0.004912
# 5 -0.001891 -0.001144 0.004086 0.000000 0.020418 0.000000
# 6 0.000000 0.000000 0.000000 0.004912 0.000000 0.045337
#
#
# Mechanical properties :
#
#
# Convention : Reuss Voigt Hill
#
# Bulk Modulus (GPa) = 58.39576 64.63475 61.51526
# Shear Modulus (GPa) = 34.66215 40.26196 37.46206
#
# Velocity S-wave (km/s) = 4.10255 4.42154 4.26503
# Velocity P-wave (km/s) = 7.12717 7.57968 7.35690
#
# Compressibility (1/GPa) = 0.01712453
#
# Stress axis : x y z
#
# Youngs Moduli (GPa) = 110.07273 72.71910 116.53310
#
# Poissons Ratio (x) = 0.09844 0.29641
# Poissons Ratio (y) = 0.14901 0.37865
# Poissons Ratio (z) = 0.27998 0.23629
#
# Static dielectric constant tensor:
#      x y z
#    x 4.262720 0.000000 -1.008780 
#    y 0.000000 3.455980 0.000000 
#    z -1.008780 0.000000 7.255870 
# 
# 
# High freq. dielectric constant tensor:
#      x y z
#    x 1.821910 0.000000 -0.004540 
#    y 0.000000 1.764260 0.000000 
#    z -0.004540 0.000000 1.841940 
# 
# From -- ./inp_files/182229.got.cif
#   From: 2010.06.25/outbox.cif.g09.slc.cpg/sg15_92_cif.got.tgz:182229.got - 2010.06.28 07:06:18.
