data_PCOD8140647
_publ_section_title
;
Structure prediction by ZEFSAII (Michael W. Deem and Ramdas Pophale) SiO2 
 PCOD8140647
Probable space group: C 2/C
;
_chemical_formula_sum "Si O2"
_cell_formula_units_Z 48
_cell_length_a 8.666775
_cell_length_b 23.810163
_cell_length_c 11.163465
_cell_angle_alpha 90.000000
_cell_angle_beta 80.384782
_cell_angle_gamma 90.000000
_cell_volume 2271.300252
_symmetry_space_group_name_H-M "C 2/C"
_symmetry_group_IT_number 15
_symmetry_cell_setting 'monoclinic'
loop_
_space_group_symop_operation_xyz
x,y,z
-x,y,1/2-z
-x,-y,-z
x,-y,1/2+z
1/2+x,1/2+y,z
1/2-x,1/2+y,1/2-z
1/2-x,1/2-y,-z
1/2+x,1/2-y,1/2+z
loop_
_atom_site_type_symbol
_atom_site_label
_atom_site_fract_x
_atom_site_fract_y
_atom_site_fract_z
Si Si1 0.163790 0.064587 0.176187
Si Si2 0.680614 0.835836 0.712685
Si Si3 0.324409 0.714839 0.728390
Si Si4 0.334733 0.953467 0.206103
Si Si5 0.761419 0.862615 0.440474
Si Si6 0.121649 0.888102 0.417963
O O1 0.211455 0.115467 0.253562
O O2 0.000000 0.042099 0.250000
O O3 0.290715 0.015671 0.169307
O O4 0.157947 0.087240 0.042385
O O5 0.500000 0.850778 0.750000
O O6 0.734521 0.779028 0.776388
O O7 0.712646 0.831947 0.567643
O O8 0.500000 0.720359 0.750000
O O9 0.227695 0.684218 0.844634
O O10 0.314156 0.676477 0.608808
O O11 0.500000 0.955126 0.250000
O O12 0.347241 0.915627 0.083478
O O13 0.200902 0.928386 0.309834
O O14 0.936938 0.887024 0.418941
#
# Coordination Sequence:
#
# PCOD8140647 Si02
#       6
#     8   8   8   8   8   8
#     4  12  25  41  64  93 130 171 215 258 313 383
#     4  11  23  38  62  97 128 168 210 264 316 368
#     4   8  18  39  65  92 123 167 210 256 315 373
#     4  11  26  42  65  95 127 167 212 272 323 367
#     4  10  20  42  68  90 126 172 213 256 314 389
#     4  10  22  43  67  92 127 169 213 256 316 387
#
# _framework density 21.133268999999999
#
# number of rings (size 3 to 8) (size 9 to 14) (size 15 to 20)
#    0.000    1.667    1.667    3.500    4.667    2.667 
#    0.000    3.333    0.000    0.000    0.000    0.000 
#    0.000    0.000    0.000    0.000    0.000    0.000 
#
# Total GULP energy -297489.069374 kJ/mol
# GULP energy per Si atom -12395.377891 kJ/mol
# Density = 2.108517 g / cm^3
# Si number density = 21.133269 Si / 1000 Ang^3
#
#
#
# Elastic Constant Matrix: (Units=GPa)
#
#
# Indices 1 2 3 4 5 6 
#
# 1 83.4598 30.4918 12.4632 0.0000 -0.5360 0.0000
# 2 30.4918 135.2536 20.6268 0.0000 5.8649 0.0000
# 3 12.4632 20.6268 87.3227 0.0000 -5.4358 0.0000
# 4 0.0000 0.0000 0.0000 32.8130 0.0000 16.4534
# 5 -0.5360 5.8649 -5.4358 0.0000 24.7141 0.0000
# 6 0.0000 0.0000 0.0000 16.4534 0.0000 54.1977
#
#
#
# Elastic Compliance Matrix: (Units=1/GPa)
#
#
# Indices 1 2 3 4 5 6 
#
# 1 0.013194 -0.002826 -0.001172 0.000000 0.000699 0.000000
# 2 -0.002826 0.008400 -0.001733 0.000000 -0.002436 0.000000
# 3 -0.001172 -0.001733 0.012220 0.000000 0.003073 0.000000
# 4 0.000000 0.000000 0.000000 0.035948 0.000000 -0.010913
# 5 0.000699 -0.002436 0.003073 0.000000 0.041732 0.000000
# 6 0.000000 0.000000 0.000000 -0.010913 0.000000 0.021764
#
#
# Mechanical properties :
#
#
# Convention : Reuss Voigt Hill
#
# Bulk Modulus (GPa) = 44.73746 48.13330 46.43538
# Shear Modulus (GPa) = 32.85801 38.50858 35.68329
#
# Velocity S-wave (km/s) = 3.94737 4.27333 4.11358
# Velocity P-wave (km/s) = 6.48003 6.86833 6.67701
#
# Compressibility (1/GPa) = 0.02235263
#
# Stress axis : x y z
#
# Youngs Moduli (GPa) = 75.79313 119.04096 81.83544
#
# Poissons Ratio (x) = 0.33641 0.09592
# Poissons Ratio (y) = 0.21419 0.14179
# Poissons Ratio (z) = 0.08883 0.20625
#
# Static dielectric constant tensor:
#      x y z
#    x 3.659600 0.000000 0.006370 
#    y 0.000000 4.229600 0.000000 
#    z 0.006370 0.000000 3.952430 
# 
# 
# High freq. dielectric constant tensor:
#      x y z
#    x 1.812100 0.000000 -0.004540 
#    y 0.000000 1.843490 0.000000 
#    z -0.004540 0.000000 1.828750 
# 
# From -- ./inp_files/79101.got.cif
#   From: 2010.06.25/outbox.cif.g09.slc.cpg/sg15_40_cif.got.tgz:79101.got - 2010.06.28 07:06:18.
