data_PCOD8140187
_publ_section_title
;
Structure prediction by ZEFSAII (Michael W. Deem and Ramdas Pophale) SiO2 
 PCOD8140187
Probable space group: C 2/C
;
_chemical_formula_sum "Si O2"
_cell_formula_units_Z 32
_cell_length_a 20.770624
_cell_length_b 4.878909
_cell_length_c 13.071575
_cell_angle_alpha 90.000000
_cell_angle_beta 88.845879
_cell_angle_gamma 90.000000
_cell_volume 1324.378335
_symmetry_space_group_name_H-M "C 2/C"
_symmetry_group_IT_number 15
_symmetry_cell_setting 'monoclinic'
loop_
_space_group_symop_operation_xyz
x,y,z
-x,y,1/2-z
-x,-y,-z
x,-y,1/2+z
1/2+x,1/2+y,z
1/2-x,1/2+y,1/2-z
1/2-x,1/2-y,-z
1/2+x,1/2-y,1/2+z
loop_
_atom_site_type_symbol
_atom_site_label
_atom_site_fract_x
_atom_site_fract_y
_atom_site_fract_z
Si Si1 0.377866 0.457102 0.888796
Si Si2 0.256782 0.154176 0.614242
Si Si3 0.659166 0.356348 0.378587
Si Si4 0.070446 0.418864 0.716414
O O1 0.315963 0.621991 0.839576
O O2 0.434820 0.680555 0.870298
O O3 0.389938 0.178020 0.826602
O O4 0.371143 0.405166 0.008724
O O5 0.250000 0.250000 0.500000
O O6 0.306200 0.366352 0.667713
O O7 0.282286 0.849076 0.614784
O O8 0.602502 0.234140 0.312171
O O9 0.000000 0.523417 0.750000
#
# Coordination Sequence:
#
# PCOD8140187 Si02
#       4
#     8   8   8   8
#     4  11  23  43  67  94 132 171 214 275 328 378
#     4  10  20  40  68  98 126 162 213 268 336 397
#     4  11  23  42  68  96 131 168 210 273 331 383
#     4  12  27  43  64  97 132 178 231 259 307 395
#
# _framework density 24.162279000000002
#
# number of rings (size 3 to 8) (size 9 to 14) (size 15 to 20)
#    0.000    1.000    0.000    9.750    0.000    6.000 
#    0.000    2.500    0.000    0.000    0.000    0.000 
#    0.000    0.000    0.000    0.000    0.000    0.000 
#
# Total GULP energy -198268.103764 kJ/mol
# GULP energy per Si atom -12391.756485 kJ/mol
# Density = 2.410728 g / cm^3
# Si number density = 24.162279 Si / 1000 Ang^3
#
#
#
# Elastic Constant Matrix: (Units=GPa)
#
#
# Indices 1 2 3 4 5 6 
#
# 1 108.8546 49.3051 56.0077 0.0000 -15.1565 0.0000
# 2 49.3051 176.2623 48.7694 0.0000 -20.7500 0.0000
# 3 56.0077 48.7694 69.6612 0.0000 -11.3325 0.0000
# 4 0.0000 0.0000 0.0000 41.3169 0.0000 -11.7215
# 5 -15.1565 -20.7500 -11.3325 0.0000 26.8101 0.0000
# 6 0.0000 0.0000 0.0000 -11.7215 0.0000 40.3487
#
#
#
# Elastic Compliance Matrix: (Units=1/GPa)
#
#
# Indices 1 2 3 4 5 6 
#
# 1 0.016129 -0.000832 -0.011819 0.000000 0.003478 0.000000
# 2 -0.000832 0.007421 -0.003939 0.000000 0.003608 0.000000
# 3 -0.011819 -0.003939 0.026882 0.000000 0.001632 0.000000
# 4 0.000000 0.000000 0.000000 0.026377 0.000000 0.007663
# 5 0.003478 0.003608 0.001632 0.000000 0.042748 0.000000
# 6 0.000000 0.000000 0.000000 0.007663 0.000000 0.027010
#
#
# Mechanical properties :
#
#
# Convention : Reuss Voigt Hill
#
# Bulk Modulus (GPa) = 57.97230 73.66029 65.81630
# Shear Modulus (GPa) = 26.95450 35.07488 31.01469
#
# Velocity S-wave (km/s) = 3.34363 3.81417 3.58662
# Velocity P-wave (km/s) = 6.24111 7.06746 6.66710
#
# Compressibility (1/GPa) = 0.01724962
#
# Stress axis : x y z
#
# Youngs Moduli (GPa) = 62.00004 134.75630 37.20028
#
# Poissons Ratio (x) = 0.11211 0.43969
# Poissons Ratio (y) = 0.05158 0.14655
# Poissons Ratio (z) = 0.73281 0.53086
#
# Static dielectric constant tensor:
#      x y z
#    x 4.365110 0.000000 -0.269200 
#    y 0.000000 5.096070 0.000000 
#    z -0.269200 0.000000 4.483780 
# 
# 
# High freq. dielectric constant tensor:
#      x y z
#    x 1.941350 0.000000 -0.019070 
#    y 0.000000 1.985790 0.000000 
#    z -0.019070 0.000000 1.971530 
# 
# From -- ./inp_files/207732.got.cif
#   From: 2010.06.25/outbox.cif.g09.slc.cpg/sg15_104_cif.got.tgz:207732.got - 2010.06.28 07:06:18.
