data_PCOD8140864
_publ_section_title
;
Structure prediction by ZEFSAII (Michael W. Deem and Ramdas Pophale) SiO2 
 PCOD8140864
Probable space group: C 2/C
;
_chemical_formula_sum "Si O2"
_cell_formula_units_Z 60
_cell_length_a 15.322437
_cell_length_b 10.575254
_cell_length_c 23.569161
_cell_angle_alpha 90.000000
_cell_angle_beta 46.929765
_cell_angle_gamma 90.000000
_cell_volume 2789.929204
_symmetry_space_group_name_H-M "C 2/C"
_symmetry_group_IT_number 15
_symmetry_cell_setting 'monoclinic'
loop_
_space_group_symop_operation_xyz
x,y,z
-x,y,1/2-z
-x,-y,-z
x,-y,1/2+z
1/2+x,1/2+y,z
1/2-x,1/2+y,1/2-z
1/2-x,1/2-y,-z
1/2+x,1/2-y,1/2+z
loop_
_atom_site_type_symbol
_atom_site_label
_atom_site_fract_x
_atom_site_fract_y
_atom_site_fract_z
Si Si1 0.234446 0.265716 0.074361
Si Si2 0.317485 0.923071 0.200309
Si Si3 0.500000 0.454549 0.750000
Si Si4 0.627950 0.360078 0.801737
Si Si5 0.260093 0.104255 0.487569
Si Si6 0.547792 0.970998 0.167410
Si Si7 0.245980 0.992136 0.111590
Si Si8 0.061274 0.940775 0.525767
O O1 0.108281 0.332980 0.143003
O O2 0.239874 0.143907 0.111502
O O3 0.250000 0.250000 0.000000
O O4 0.345091 0.348031 0.045548
O O5 0.299967 0.774401 0.225588
O O6 0.442082 0.971564 0.169154
O O7 0.214074 0.016827 0.269756
O O8 0.322529 0.938355 0.129861
O O9 0.555356 0.366435 0.775092
O O10 0.394322 0.547249 0.819875
O O11 0.532621 0.364015 0.894706
O O12 0.250000 0.250000 0.500000
O O13 0.353505 0.072390 0.396581
O O14 0.307590 0.053608 0.526742
O O15 0.130229 0.044703 0.533019
O O16 0.500000 0.012260 0.250000
O O17 0.000000 0.000000 0.500000
#
# Coordination Sequence:
#
# PCOD8140864 Si02
#       8
#     8   8   4   8   8   8   8   8
#     4  11  21  45  74  99 130 184 243 287 344 425
#     4  11  28  41  71 106 141 183 235 305 346 429
#     4  10  20  44  74  94 130 190 234 298 340 432
#     4  11  25  46  69 106 139 183 245 287 368 412
#     4  11  26  47  68 101 141 191 231 290 370 426
#     4  11  26  44  71 101 141 184 241 288 355 430
#     4  11  23  43  70 102 137 179 243 290 351 416
#     4  11  25  42  71  99 138 182 231 293 353 429
#
# _framework density 21.505922000000002
#
# number of rings (size 3 to 8) (size 9 to 14) (size 15 to 20)
#    0.000    1.067    4.000    1.600   11.200    2.667 
#    1.200    0.000    0.000    0.000    0.000    0.000 
#    0.000    0.000    0.000    0.000    0.000    0.000 
#
# Total GULP energy -371887.227153 kJ/mol
# GULP energy per Si atom -12396.240905 kJ/mol
# Density = 2.145697 g / cm^3
# Si number density = 21.505922 Si / 1000 Ang^3
#
#
#
# Elastic Constant Matrix: (Units=GPa)
#
#
# Indices 1 2 3 4 5 6 
#
# 1 151.5828 51.3042 48.9509 0.0000 9.9204 0.0000
# 2 51.3042 130.6820 35.5614 0.0000 -3.4797 0.0000
# 3 48.9509 35.5614 121.7925 0.0000 7.4662 0.0000
# 4 0.0000 0.0000 0.0000 27.2211 0.0000 3.0565
# 5 9.9204 -3.4797 7.4662 0.0000 40.2807 0.0000
# 6 0.0000 0.0000 0.0000 3.0565 0.0000 30.7456
#
#
#
# Elastic Compliance Matrix: (Units=1/GPa)
#
#
# Indices 1 2 3 4 5 6 
#
# 1 0.008430 -0.002680 -0.002492 0.000000 -0.001846 0.000000
# 2 -0.002680 0.009221 -0.001724 0.000000 0.001776 0.000000
# 3 -0.002492 -0.001724 0.009799 0.000000 -0.001351 0.000000
# 4 0.000000 0.000000 0.000000 0.037151 0.000000 -0.003693
# 5 -0.001846 0.001776 -0.001351 0.000000 0.025684 0.000000
# 6 0.000000 0.000000 0.000000 -0.003693 0.000000 0.032892
#
#
# Mechanical properties :
#
#
# Convention : Reuss Voigt Hill
#
# Bulk Modulus (GPa) = 73.22785 75.07670 74.15227
# Shear Modulus (GPa) = 35.33017 37.53220 36.43118
#
# Velocity S-wave (km/s) = 4.05756 4.18209 4.12030
# Velocity P-wave (km/s) = 7.48837 7.63580 7.56245
#
# Compressibility (1/GPa) = 0.01365601
#
# Stress axis : x y z
#
# Youngs Moduli (GPa) = 118.62523 108.44967 102.05520
#
# Poissons Ratio (x) = 0.29069 0.25436
# Poissons Ratio (y) = 0.31796 0.17594
# Poissons Ratio (z) = 0.29566 0.18696
#
# Static dielectric constant tensor:
#      x y z
#    x 4.030220 0.000000 -0.251340 
#    y 0.000000 3.848090 0.000000 
#    z -0.251340 0.000000 5.233070 
# 
# 
# High freq. dielectric constant tensor:
#      x y z
#    x 1.848550 0.000000 0.002830 
#    y 0.000000 1.834030 0.000000 
#    z 0.002830 0.000000 1.857540 
# 
# From -- ./inp_files/273847.got.cif
#   From: 2010.06.25/outbox.cif.g09.slc.cpg/sg15_137_cif.got.tgz:273847.got - 2010.06.28 07:06:18.
