data_PCOD8140997
_publ_section_title
;
Structure prediction by ZEFSAII (Michael W. Deem and Ramdas Pophale) SiO2 
 PCOD8140997
Probable space group: C 2/C
;
_chemical_formula_sum "Si O2"
_cell_formula_units_Z 56
_cell_length_a 23.463172
_cell_length_b 12.828199
_cell_length_c 20.089289
_cell_angle_alpha 90.000000
_cell_angle_beta 29.281528
_cell_angle_gamma 90.000000
_cell_volume 2957.438845
_symmetry_space_group_name_H-M "C 2/C"
_symmetry_group_IT_number 15
_symmetry_cell_setting 'monoclinic'
loop_
_space_group_symop_operation_xyz
x,y,z
-x,y,1/2-z
-x,-y,-z
x,-y,1/2+z
1/2+x,1/2+y,z
1/2-x,1/2+y,1/2-z
1/2-x,1/2-y,-z
1/2+x,1/2-y,1/2+z
loop_
_atom_site_type_symbol
_atom_site_label
_atom_site_fract_x
_atom_site_fract_y
_atom_site_fract_z
Si Si1 0.845358 0.995354 0.590604
Si Si2 0.357514 0.902686 0.060622
Si Si3 0.684627 0.414169 0.739758
Si Si4 0.284311 0.284328 0.188309
Si Si5 0.121172 0.365155 0.802315
Si Si6 0.968930 0.019161 0.707911
Si Si7 0.294990 0.293072 0.386285
O O1 0.853075 0.121822 0.581976
O O2 0.887393 0.946935 0.619315
O O3 0.711969 0.959255 0.718145
O O4 0.920150 0.953225 0.451987
O O5 0.316128 0.834205 0.164677
O O6 0.316699 0.842300 0.036347
O O7 0.301720 0.017083 0.118677
O O8 0.495273 0.917219 0.924176
O O9 0.720956 0.292979 0.700905
O O10 0.606000 0.432746 0.755024
O O11 0.373591 0.216620 0.141829
O O12 0.149062 0.304498 0.707145
O O13 0.896700 0.123515 0.792359
O O14 0.000000 0.975548 0.750000
O O15 0.250000 0.250000 0.500000
#
# Coordination Sequence:
#
# PCOD8140997 Si02
#       7
#     8   8   8   8   8   8   8
#     4  10  21  38  56  92 114 147 188 238 290 336
#     4   9  20  36  53  86 117 142 188 236 285 336
#     4   9  20  38  58  85 118 149 188 238 283 340
#     4   9  20  34  57  86 111 152 186 228 295 333
#     4  10  21  34  57  83 120 142 183 242 280 348
#     4  11  23  37  59  83 116 150 193 238 282 343
#     4  10  22  36  55  83 112 154 185 228 293 351
#
# _framework density 18.935303000000001
#
# number of rings (size 3 to 8) (size 9 to 14) (size 15 to 20)
#    0.000    2.286    0.000    2.143   10.000    5.143 
#    0.000    0.714    0.000    0.000    0.000    0.000 
#    0.000    0.000    0.000    0.000    0.000    0.000 
#
# Total GULP energy -347139.158343 kJ/mol
# GULP energy per Si atom -12397.827084 kJ/mol
# Density = 1.889221 g / cm^3
# Si number density = 18.935303 Si / 1000 Ang^3
#
#
#
# Elastic Constant Matrix: (Units=GPa)
#
#
# Indices 1 2 3 4 5 6 
#
# 1 123.6857 39.0852 54.6059 0.0000 7.7028 0.0000
# 2 39.0852 99.6788 25.3635 0.0000 0.6793 0.0000
# 3 54.6059 25.3635 97.7456 0.0000 -2.3240 0.0000
# 4 0.0000 0.0000 0.0000 19.8380 0.0000 2.2834
# 5 7.7028 0.6793 -2.3240 0.0000 34.2720 0.0000
# 6 0.0000 0.0000 0.0000 2.2834 0.0000 22.2093
#
#
#
# Elastic Compliance Matrix: (Units=1/GPa)
#
#
# Indices 1 2 3 4 5 6 
#
# 1 0.011860 -0.003133 -0.005884 0.000000 -0.003002 0.000000
# 2 -0.003133 0.011574 -0.001244 0.000000 0.000390 0.000000
# 3 -0.005884 -0.001244 0.013895 0.000000 0.002289 0.000000
# 4 0.000000 0.000000 0.000000 0.051012 0.000000 -0.005245
# 5 -0.003002 0.000390 0.002289 0.000000 0.030001 0.000000
# 6 0.000000 0.000000 0.000000 -0.005245 0.000000 0.045565
#
#
# Mechanical properties :
#
#
# Convention : Reuss Voigt Hill
#
# Bulk Modulus (GPa) = 59.49626 62.13548 60.81587
# Shear Modulus (GPa) = 26.31150 28.73423 27.52287
#
# Velocity S-wave (km/s) = 3.73171 3.89973 3.81664
# Velocity P-wave (km/s) = 7.07507 7.29130 7.18400
#
# Compressibility (1/GPa) = 0.01680778
#
# Stress axis : x y z
#
# Youngs Moduli (GPa) = 84.31993 86.39714 71.96866
#
# Poissons Ratio (x) = 0.27065 0.42346
# Poissons Ratio (y) = 0.26414 0.08953
# Poissons Ratio (z) = 0.49613 0.10748
#
# Static dielectric constant tensor:
#      x y z
#    x 3.454290 0.000000 0.019470 
#    y 0.000000 3.476410 0.000000 
#    z 0.019470 0.000000 3.320510 
# 
# 
# High freq. dielectric constant tensor:
#      x y z
#    x 1.729610 0.000000 -0.009390 
#    y 0.000000 1.731640 0.000000 
#    z -0.009390 0.000000 1.726080 
# 
# From -- ./inp_files/255439.got.cif
#   From: 2010.06.25/outbox.cif.g09.slc.cpg/sg15_128_cif.got.tgz:255439.got - 2010.06.28 07:06:18.
