data_PCOD8140141
_publ_section_title
;
Structure prediction by ZEFSAII (Michael W. Deem and Ramdas Pophale) SiO2 
 PCOD8140141
Probable space group: C 2/C
;
_chemical_formula_sum "Si O2"
_cell_formula_units_Z 48
_cell_length_a 12.785488
_cell_length_b 18.110658
_cell_length_c 29.211474
_cell_angle_alpha 90.000000
_cell_angle_beta 160.483616
_cell_angle_gamma 90.000000
_cell_volume 2259.700102
_symmetry_space_group_name_H-M "C 2/C"
_symmetry_group_IT_number 15
_symmetry_cell_setting 'monoclinic'
loop_
_space_group_symop_operation_xyz
x,y,z
-x,y,1/2-z
-x,-y,-z
x,-y,1/2+z
1/2+x,1/2+y,z
1/2-x,1/2+y,1/2-z
1/2-x,1/2-y,-z
1/2+x,1/2-y,1/2+z
loop_
_atom_site_type_symbol
_atom_site_label
_atom_site_fract_x
_atom_site_fract_y
_atom_site_fract_z
Si Si1 0.098309 0.295607 0.000584
Si Si2 0.714972 0.567469 0.217184
Si Si3 0.745658 0.935780 0.605795
Si Si4 0.321923 0.470940 0.470156
Si Si5 0.678151 0.182305 0.869807
Si Si6 0.818744 0.275535 0.787365
O O1 0.475293 0.288434 0.152628
O O2 0.967367 0.363296 0.975679
O O3 0.996029 0.219608 0.983099
O O4 0.976114 0.305557 0.898687
O O5 0.437954 0.566528 0.139029
O O6 0.791879 0.654445 0.242068
O O7 0.024472 0.522163 0.360190
O O8 0.578762 0.528493 0.116073
O O9 0.000000 0.948007 0.750000
O O10 0.500000 0.000000 0.500000
O O11 0.500000 0.500000 0.500000
O O12 0.219372 0.387675 0.418826
O O13 0.500000 0.159464 0.750000
O O14 0.509758 0.241586 0.833086
#
# Coordination Sequence:
#
# PCOD8140141 Si02
#       6
#     8   8   8   8   8   8
#     4  10  20  40  67  94 131 178 222 275 336 411
#     4  12  25  45  68 102 137 181 229 283 344 407
#     4  12  24  44  66  99 140 179 227 279 340 413
#     4  12  27  44  69  98 137 178 229 287 342 407
#     4  10  20  41  65  92 129 173 226 280 339 404
#     4  10  21  38  68  96 129 177 227 271 339 410
#
# _framework density 21.241757
#
# number of rings (size 3 to 8) (size 9 to 14) (size 15 to 20)
#    0.000    1.000    3.333    4.000    2.333    2.000 
#    0.000    0.000    0.000    0.000    0.000    0.000 
#    0.000    0.000    0.000    0.000    0.000    0.000 
#
# Total GULP energy -297506.170178 kJ/mol
# GULP energy per Si atom -12396.090424 kJ/mol
# Density = 2.119341 g / cm^3
# Si number density = 21.241757 Si / 1000 Ang^3
#
#
#
# Elastic Constant Matrix: (Units=GPa)
#
#
# Indices 1 2 3 4 5 6 
#
# 1 107.1105 32.3692 37.5483 0.0080 18.3195 0.0046
# 2 32.3692 108.8989 42.9942 0.0126 3.8373 0.0057
# 3 37.5483 42.9942 83.6696 0.1509 9.9765 0.0338
# 4 0.0080 0.0126 0.1509 23.1915 -0.0022 2.9217
# 5 18.3195 3.8373 9.9765 -0.0022 34.6379 -0.0083
# 6 0.0046 0.0057 0.0338 2.9217 -0.0083 45.6891
#
#
#
# Elastic Compliance Matrix: (Units=1/GPa)
#
#
# Indices 1 2 3 4 5 6 
#
# 1 0.012136 -0.001904 -0.003861 0.000022 -0.005096 0.000000
# 2 -0.001904 0.011825 -0.005370 0.000029 0.001244 0.000001
# 3 -0.003861 -0.005370 0.016703 -0.000104 -0.002174 -0.000005
# 4 0.000022 0.000029 -0.000104 0.043470 0.000017 -0.002780
# 5 -0.005096 0.001244 -0.002174 0.000017 0.032054 0.000007
# 6 0.000000 0.000001 -0.000005 -0.002780 0.000007 0.022065
#
#
# Mechanical properties :
#
#
# Convention : Reuss Voigt Hill
#
# Bulk Modulus (GPa) = 54.36141 58.38916 56.37528
# Shear Modulus (GPa) = 30.00211 33.15483 31.57847
#
# Velocity S-wave (km/s) = 3.76228 3.95502 3.85986
# Velocity P-wave (km/s) = 6.67236 6.95729 6.81631
#
# Compressibility (1/GPa) = 0.01839540
#
# Stress axis : x y z
#
# Youngs Moduli (GPa) = 82.39672 84.56547 59.86802
#
# Poissons Ratio (x) = 0.16098 0.23113
# Poissons Ratio (y) = 0.15686 0.32152
# Poissons Ratio (z) = 0.31811 0.45416
#
# Static dielectric constant tensor:
#      x y z
#    x 4.167350 0.000060 -0.037270 
#    y 0.000060 4.090600 -0.000060 
#    z -0.037270 -0.000060 4.114140 
# 
# 
# High freq. dielectric constant tensor:
#      x y z
#    x 1.841980 0.000000 0.024260 
#    y 0.000000 1.840070 -0.000010 
#    z 0.024260 -0.000010 1.822410 
# 
# From -- ./inp_files/119497.got.cif
#   From: 2010.06.25/outbox.cif.g09.slc.cpg/sg15_60_cif.got.tgz:119497.got - 2010.06.28 07:06:18.
