data_PCOD8140369
_publ_section_title
;
Structure prediction by ZEFSAII (Michael W. Deem and Ramdas Pophale) SiO2 
 PCOD8140369
Probable space group: C 2/C
;
_chemical_formula_sum "Si O2"
_cell_formula_units_Z 64
_cell_length_a 21.833628
_cell_length_b 30.874101
_cell_length_c 15.232209
_cell_angle_alpha 90.000000
_cell_angle_beta 162.455615
_cell_angle_gamma 90.000000
_cell_volume 3095.212780
_symmetry_space_group_name_H-M "C 2/C"
_symmetry_group_IT_number 15
_symmetry_cell_setting 'monoclinic'
loop_
_space_group_symop_operation_xyz
x,y,z
-x,y,1/2-z
-x,-y,-z
x,-y,1/2+z
1/2+x,1/2+y,z
1/2-x,1/2+y,1/2-z
1/2-x,1/2-y,-z
1/2+x,1/2-y,1/2+z
loop_
_atom_site_type_symbol
_atom_site_label
_atom_site_fract_x
_atom_site_fract_y
_atom_site_fract_z
Si Si1 0.935208 0.421609 0.423497
Si Si2 0.219623 0.346245 0.808208
Si Si3 0.974610 0.119034 0.114965
Si Si4 0.623136 0.372860 0.290011
Si Si5 0.667237 0.042371 0.405093
Si Si6 0.668550 0.945737 0.408072
Si Si7 0.584625 0.236207 0.200574
Si Si8 0.183922 0.188188 0.726215
O O1 0.928398 0.445652 0.321298
O O2 0.017312 0.373414 0.515044
O O3 0.072555 0.448634 0.679071
O O4 0.711378 0.413854 0.156468
O O5 0.178285 0.294986 0.752752
O O6 0.384346 0.360692 0.960751
O O7 0.287145 0.354348 0.999313
O O8 0.000000 0.131876 0.250000
O O9 0.169136 0.091658 0.350030
O O10 0.946387 0.165289 0.028388
O O11 0.647928 0.424770 0.322748
O O12 0.744039 0.351042 0.374398
O O13 0.500000 0.050487 0.250000
O O14 0.761002 0.994294 0.541129
O O15 0.500000 0.938310 0.250000
O O16 0.750000 0.250000 0.500000
O O17 0.535152 0.279353 0.076831
O O18 0.386519 0.213383 0.971697
#
# Coordination Sequence:
#
# PCOD8140369 Si02
#       8
#     8   8   8   8   8   8   8   8
#     4  10  20  41  66  88 126 170 212 267 321 384
#     4  10  21  39  58  92 128 161 206 249 321 388
#     4  10  23  45  67  89 125 178 221 264 319 376
#     4  10  22  36  60  92 131 167 200 254 320 391
#     4  10  21  39  62  97 129 168 214 267 326 384
#     4  10  23  43  64  92 127 169 227 273 310 371
#     4  12  24  37  63  96 130 158 205 261 321 403
#     4  12  24  41  64  92 127 170 205 258 332 382
#
# _framework density 20.677092999999999
#
# number of rings (size 3 to 8) (size 9 to 14) (size 15 to 20)
#    0.000    1.500    2.500    2.250    5.250    0.000 
#   15.750    2.500    0.000    0.000    0.000    0.000 
#    0.000    0.000    0.000    0.000    0.000    0.000 
#
# Total GULP energy -396598.936435 kJ/mol
# GULP energy per Si atom -12393.716764 kJ/mol
# Density = 2.063003 g / cm^3
# Si number density = 20.677093 Si / 1000 Ang^3
#
#
#
# Elastic Constant Matrix: (Units=GPa)
#
#
# Indices 1 2 3 4 5 6 
#
# 1 106.9025 65.2282 43.0699 0.0029 11.2274 0.0104
# 2 65.2282 150.5539 62.6341 -0.0004 3.4566 0.0015
# 3 43.0699 62.6341 80.5741 0.0071 13.5164 0.0193
# 4 0.0029 -0.0004 0.0071 33.2056 0.0037 -3.9992
# 5 11.2274 3.4566 13.5164 0.0037 15.5567 0.0119
# 6 0.0104 0.0015 0.0193 -3.9992 0.0119 24.5429
#
#
#
# Elastic Compliance Matrix: (Units=1/GPa)
#
#
# Indices 1 2 3 4 5 6 
#
# 1 0.014088 -0.004863 -0.002606 0.000000 -0.006823 0.000000
# 2 -0.004863 0.011870 -0.007929 0.000002 0.007762 0.000004
# 3 -0.002606 -0.007929 0.022659 -0.000004 -0.016045 -0.000009
# 4 0.000000 0.000002 -0.000004 0.030718 -0.000008 0.005005
# 5 -0.006823 0.007762 -0.016045 -0.000008 0.081421 -0.000026
# 6 0.000000 0.000004 -0.000009 0.005005 -0.000026 0.041561
#
#
# Mechanical properties :
#
#
# Convention : Reuss Voigt Hill
#
# Bulk Modulus (GPa) = 56.11510 75.54386 65.82948
# Shear Modulus (GPa) = 20.91580 25.80093 23.35837
#
# Velocity S-wave (km/s) = 3.18393 3.53626 3.36471
# Velocity P-wave (km/s) = 6.38077 7.29985 6.85573
#
# Compressibility (1/GPa) = 0.01782052
#
# Stress axis : x y z
#
# Youngs Moduli (GPa) = 70.98277 84.24826 44.13188
#
# Poissons Ratio (x) = 0.40969 0.11500
# Poissons Ratio (y) = 0.34518 0.34994
# Poissons Ratio (z) = 0.18497 0.66805
#
# Static dielectric constant tensor:
#      x y z
#    x 3.926900 0.000000 0.136070 
#    y 0.000000 4.098840 -0.000010 
#    z 0.136070 -0.000010 3.696780 
# 
# 
# High freq. dielectric constant tensor:
#      x y z
#    x 1.816590 0.000000 0.012160 
#    y 0.000000 1.822530 0.000000 
#    z 0.012160 0.000000 1.778110 
# 
# From -- ./inp_files/148797.got.cif
#   From: 2010.06.25/outbox.cif.g09.slc.cpg/sg15_75_cif.got.tgz:148797.got - 2010.06.28 07:06:18.
