data_PCOD8140934
_publ_section_title
;
Structure prediction by ZEFSAII (Michael W. Deem and Ramdas Pophale) SiO2 
 PCOD8140934
Probable space group: C 2/C
;
_chemical_formula_sum "Si O2"
_cell_formula_units_Z 32
_cell_length_a 19.301967
_cell_length_b 14.283037
_cell_length_c 8.977879
_cell_angle_alpha 90.000000
_cell_angle_beta 136.787597
_cell_angle_gamma 90.000000
_cell_volume 1694.725283
_symmetry_space_group_name_H-M "C 2/C"
_symmetry_group_IT_number 15
_symmetry_cell_setting 'monoclinic'
loop_
_space_group_symop_operation_xyz
x,y,z
-x,y,1/2-z
-x,-y,-z
x,-y,1/2+z
1/2+x,1/2+y,z
1/2-x,1/2+y,1/2-z
1/2-x,1/2-y,-z
1/2+x,1/2-y,1/2+z
loop_
_atom_site_type_symbol
_atom_site_label
_atom_site_fract_x
_atom_site_fract_y
_atom_site_fract_z
Si Si1 0.807596 0.251200 0.809432
Si Si2 0.397196 0.746025 0.643321
Si Si3 0.672442 0.088462 0.638536
Si Si4 0.114806 0.413667 0.384720
O O1 0.706208 0.301906 0.581814
O O2 0.893982 0.247824 0.817658
O O3 0.779627 0.145234 0.818457
O O4 0.849794 0.309441 0.014353
O O5 0.500000 0.693313 0.750000
O O6 0.403046 0.851032 0.583911
O O7 0.624265 0.074527 0.724223
O O8 0.686665 0.987858 0.583108
O O9 0.000000 0.432571 0.250000
#
# Coordination Sequence:
#
# PCOD8140934 Si02
#       4
#     8   8   8   8
#     4   9  21  35  54  84 114 146 180 227 277 327
#     4   9  17  35  57  78 111 144 184 219 278 320
#     4  10  21  33  54  82 115 138 181 227 276 322
#     4  12  21  34  57  85 112 142 185 230 277 323
#
# _framework density 18.882117000000001
#
# number of rings (size 3 to 8) (size 9 to 14) (size 15 to 20)
#    1.500    0.500    0.000    5.250    0.000    0.000 
#    0.000    0.000    0.000    3.000    0.000    0.000 
#    0.000    0.000    0.000    0.000    0.000    0.000 
#
# Total GULP energy -198249.684628 kJ/mol
# GULP energy per Si atom -12390.605289 kJ/mol
# Density = 1.883914 g / cm^3
# Si number density = 18.882117 Si / 1000 Ang^3
#
#
#
# Elastic Constant Matrix: (Units=GPa)
#
#
# Indices 1 2 3 4 5 6 
#
# 1 150.7605 36.1438 25.3379 0.0000 -12.7371 0.0000
# 2 36.1438 89.9210 24.4167 0.0000 -6.3521 0.0000
# 3 25.3379 24.4167 29.5599 0.0000 -2.7435 0.0000
# 4 0.0000 0.0000 0.0000 20.3322 0.0000 3.6436
# 5 -12.7371 -6.3521 -2.7435 0.0000 30.5610 0.0000
# 6 0.0000 0.0000 0.0000 3.6436 0.0000 12.0983
#
#
#
# Elastic Compliance Matrix: (Units=1/GPa)
#
#
# Indices 1 2 3 4 5 6 
#
# 1 0.008148 -0.001627 -0.005402 0.000000 0.002573 0.000000
# 2 -0.001627 0.014775 -0.010677 0.000000 0.001435 0.000000
# 3 -0.005402 -0.010677 0.047258 0.000000 -0.000228 0.000000
# 4 0.000000 0.000000 0.000000 0.051989 0.000000 -0.015657
# 5 0.002573 0.001435 -0.000228 0.000000 0.034072 0.000000
# 6 0.000000 0.000000 0.000000 -0.015657 0.000000 0.087372
#
#
# Mechanical properties :
#
#
# Convention : Reuss Voigt Hill
#
# Bulk Modulus (GPa) = 28.76018 49.11538 38.93778
# Shear Modulus (GPa) = 17.20486 24.88783 21.04635
#
# Velocity S-wave (km/s) = 3.02184 3.63445 3.34221
# Velocity P-wave (km/s) = 5.23831 6.60911 5.96323
#
# Compressibility (1/GPa) = 0.03477030
#
# Stress axis : x y z
#
# Youngs Moduli (GPa) = 122.72502 67.68098 21.16035
#
# Poissons Ratio (x) = 0.11009 0.11431
# Poissons Ratio (y) = 0.19962 0.22593
# Poissons Ratio (z) = 0.66297 0.72263
#
# Static dielectric constant tensor:
#      x y z
#    x 3.415130 0.000000 -0.058130 
#    y 0.000000 3.174720 0.000000 
#    z -0.058130 0.000000 3.192310 
# 
# 
# High freq. dielectric constant tensor:
#      x y z
#    x 1.744230 0.000000 -0.014660 
#    y 0.000000 1.697140 0.000000 
#    z -0.014660 0.000000 1.714990 
# 
# From -- ./inp_files/36868.got.cif
#   From: 2010.06.25/outbox.cif.g09.slc.cpg/sg15_19_cif.got.tgz:36868.got - 2010.06.28 07:06:18.
