data_PCOD8140912
_publ_section_title
;
Structure prediction by ZEFSAII (Michael W. Deem and Ramdas Pophale) SiO2 
 PCOD8140912
Probable space group: C 2/C
;
_chemical_formula_sum "Si O2"
_cell_formula_units_Z 48
_cell_length_a 24.935744
_cell_length_b 21.777739
_cell_length_c 5.245777
_cell_angle_alpha 90.000000
_cell_angle_beta 113.059904
_cell_angle_gamma 90.000000
_cell_volume 2621.066305
_symmetry_space_group_name_H-M "C 2/C"
_symmetry_group_IT_number 15
_symmetry_cell_setting 'monoclinic'
loop_
_space_group_symop_operation_xyz
x,y,z
-x,y,1/2-z
-x,-y,-z
x,-y,1/2+z
1/2+x,1/2+y,z
1/2-x,1/2+y,1/2-z
1/2-x,1/2-y,-z
1/2+x,1/2-y,1/2+z
loop_
_atom_site_type_symbol
_atom_site_label
_atom_site_fract_x
_atom_site_fract_y
_atom_site_fract_z
Si Si1 0.566289 0.231926 0.856111
Si Si2 0.242459 0.168818 0.242788
Si Si3 0.434026 0.844946 0.644444
Si Si4 0.729640 0.028475 0.244366
Si Si5 0.100687 0.523936 0.490017
Si Si6 0.317339 0.288198 0.368027
O O1 0.500000 0.257382 0.750000
O O2 0.578739 0.203895 0.600892
O O3 0.577736 0.182689 0.099826
O O4 0.612306 0.287084 0.978306
O O5 0.269499 0.101659 0.272069
O O6 0.294627 0.217986 0.331300
O O7 0.208384 0.173383 0.445628
O O8 0.198587 0.179713 0.926908
O O9 0.500000 0.869212 0.750000
O O10 0.391940 0.903024 0.528368
O O11 0.761076 0.003451 0.559827
O O12 0.663181 0.007295 0.148939
O O13 0.066575 0.506618 0.687582
#
# Coordination Sequence:
#
# PCOD8140912 Si02
#       6
#     8   8   8   8   8   8
#     4  10  21  36  56  79 104 140 180 226 270 308
#     4  10  21  36  51  82 106 137 186 212 279 312
#     4  10  21  34  50  73 105 139 184 229 253 296
#     4  10  21  33  51  75 105 141 175 218 258 323
#     4  10  21  32  46  71  91 144 178 219 262 290
#     4  10  21  35  57  76 105 143 169 238 260 325
#
# _framework density 18.313158000000001
#
# number of rings (size 3 to 8) (size 9 to 14) (size 15 to 20)
#    0.000    2.000    0.000    3.000    9.333    0.667 
#    0.000    0.000    0.000    0.000    0.000    0.000 
#    0.000   13.333    0.000    0.000    0.000    0.000 
#
# Total GULP energy -297525.679860 kJ/mol
# GULP energy per Si atom -12396.903328 kJ/mol
# Density = 1.827148 g / cm^3
# Si number density = 18.313158 Si / 1000 Ang^3
#
#
#
# Elastic Constant Matrix: (Units=GPa)
#
#
# Indices 1 2 3 4 5 6 
#
# 1 48.4326 21.0695 25.8896 0.0000 12.4286 0.0000
# 2 21.0695 59.5038 3.9520 0.0000 10.4032 0.0000
# 3 25.8896 3.9520 113.5325 0.0000 -15.8681 0.0000
# 4 0.0000 0.0000 0.0000 24.6131 0.0000 0.9164
# 5 12.4286 10.4032 -15.8681 0.0000 30.6518 0.0000
# 6 0.0000 0.0000 0.0000 0.9164 0.0000 21.5858
#
#
#
# Elastic Compliance Matrix: (Units=1/GPa)
#
#
# Indices 1 2 3 4 5 6 
#
# 1 0.033416 -0.008475 -0.009505 0.000000 -0.015594 0.000000
# 2 -0.008475 0.020283 0.000803 0.000000 -0.003032 0.000000
# 3 -0.009505 0.000803 0.012341 0.000000 0.009970 0.000000
# 4 0.000000 0.000000 0.000000 0.040693 0.000000 -0.001728
# 5 -0.015594 -0.003032 0.009970 0.000000 0.045138 0.000000
# 6 0.000000 0.000000 0.000000 -0.001728 0.000000 0.046400
#
#
# Mechanical properties :
#
#
# Convention : Reuss Voigt Hill
#
# Bulk Modulus (GPa) = 31.55846 35.92125 33.73985
# Shear Modulus (GPa) = 20.56029 26.74068 23.65049
#
# Velocity S-wave (km/s) = 3.35432 3.82539 3.59757
# Velocity P-wave (km/s) = 5.68084 6.25852 5.97666
#
# Compressibility (1/GPa) = 0.03168722
#
# Stress axis : x y z
#
# Youngs Moduli (GPa) = 29.92558 49.30175 81.03057
#
# Poissons Ratio (x) = 0.41782 0.77016
# Poissons Ratio (y) = 0.25361 -0.06504
# Poissons Ratio (z) = 0.28443 -0.03957
#
# Static dielectric constant tensor:
#      x y z
#    x 3.454720 0.000000 -0.679920 
#    y 0.000000 3.044940 0.000000 
#    z -0.679920 0.000000 4.816380 
# 
# 
# High freq. dielectric constant tensor:
#      x y z
#    x 1.684060 0.000000 -0.027390 
#    y 0.000000 1.675450 0.000000 
#    z -0.027390 0.000000 1.741350 
# 
# From -- ./inp_files/13204.got.cif
#   From: 2010.06.25/outbox.cif.g09.slc.cpg/sg15_7_cif.got.tgz:13204.got - 2010.06.28 07:06:18.
