data_PCOD8140004
_publ_section_title
;
Structure prediction by ZEFSAII (Michael W. Deem and Ramdas Pophale) SiO2 
 PCOD8140004
Probable space group: C 2/C
;
_chemical_formula_sum "Si O2"
_cell_formula_units_Z 44
_cell_length_a 8.323859
_cell_length_b 26.879691
_cell_length_c 12.097396
_cell_angle_alpha 90.000000
_cell_angle_beta 50.570531
_cell_angle_gamma 90.000000
_cell_volume 2090.677717
_symmetry_space_group_name_H-M "C 2/C"
_symmetry_group_IT_number 15
_symmetry_cell_setting 'monoclinic'
loop_
_space_group_symop_operation_xyz
x,y,z
-x,y,1/2-z
-x,-y,-z
x,-y,1/2+z
1/2+x,1/2+y,z
1/2-x,1/2+y,1/2-z
1/2-x,1/2-y,-z
1/2+x,1/2-y,1/2+z
loop_
_atom_site_type_symbol
_atom_site_label
_atom_site_fract_x
_atom_site_fract_y
_atom_site_fract_z
Si Si1 0.064345 0.397982 0.059149
Si Si2 0.128491 0.696585 0.800195
Si Si3 0.649919 0.077875 0.275902
Si Si4 0.000000 0.517146 0.750000
Si Si5 0.046855 0.234563 0.522289
Si Si6 0.008992 0.151259 0.123320
O O1 0.095895 0.448363 0.113595
O O2 0.865982 0.363864 0.183363
O O3 0.044180 0.413415 0.940892
O O4 0.255087 0.361909 0.008140
O O5 0.359162 0.720614 0.687838
O O6 0.000000 0.712522 0.750000
O O7 0.003411 0.718774 0.960649
O O8 0.500000 0.104142 0.250000
O O9 0.879261 0.100151 0.176942
O O10 0.669901 0.019073 0.235364
O O11 0.250000 0.250000 0.500000
O O12 0.089448 0.187815 0.423483
O O13 0.000000 0.175168 0.250000
#
# Coordination Sequence:
#
# PCOD8140004 Si02
#       6
#     8   8   8   4   8   8
#     4  11  21  42  68  91 134 175 230 272 334 411
#     4  12  25  44  68  96 129 186 223 271 337 409
#     4   9  23  37  65  96 129 174 218 282 343 390
#     4  10  20  40  64  98 130 172 224 280 342 394
#     4  12  27  42  64  99 134 170 226 285 338 391
#     4  10  22  42  65  92 128 176 223 272 334 408
#
# _framework density 21.045805999999999
#
# number of rings (size 3 to 8) (size 9 to 14) (size 15 to 20)
#    0.545    0.727    2.727    2.182    7.636    0.727 
#    0.000    0.000    0.000    0.000    0.000    0.000 
#    0.000    0.000    0.000    0.000    0.000    0.000 
#
# Total GULP energy -272646.679995 kJ/mol
# GULP energy per Si atom -12393.030909 kJ/mol
# Density = 2.099791 g / cm^3
# Si number density = 21.045806 Si / 1000 Ang^3
#
#
#
# Elastic Constant Matrix: (Units=GPa)
#
#
# Indices 1 2 3 4 5 6 
#
# 1 114.1096 46.4168 51.3123 0.0000 21.7207 0.0000
# 2 46.4168 128.7060 50.5140 0.0000 9.2268 0.0000
# 3 51.3123 50.5140 109.3784 0.0000 11.2324 0.0000
# 4 0.0000 0.0000 0.0000 24.2337 0.0000 8.5747
# 5 21.7207 9.2268 11.2324 0.0000 36.0269 0.0000
# 6 0.0000 0.0000 0.0000 8.5747 0.0000 34.4449
#
#
#
# Elastic Compliance Matrix: (Units=1/GPa)
#
#
# Indices 1 2 3 4 5 6 
#
# 1 0.012796 -0.002539 -0.004241 0.000000 -0.005743 0.000000
# 2 -0.002539 0.010036 -0.003447 0.000000 0.000035 0.000000
# 3 -0.004241 -0.003447 0.012780 0.000000 -0.000545 0.000000
# 4 0.000000 0.000000 0.000000 0.045251 0.000000 -0.011265
# 5 -0.005743 0.000035 -0.000545 0.000000 0.031380 0.000000
# 6 0.000000 0.000000 0.000000 -0.011265 0.000000 0.031836
#
#
# Mechanical properties :
#
#
# Convention : Reuss Voigt Hill
#
# Bulk Modulus (GPa) = 65.97146 72.07558 69.02352
# Shear Modulus (GPa) = 29.48361 32.53783 31.01072
#
# Velocity S-wave (km/s) = 3.74695 3.93625 3.84277
# Velocity P-wave (km/s) = 7.08055 7.41486 7.24963
#
# Compressibility (1/GPa) = 0.01515807
#
# Stress axis : x y z
#
# Youngs Moduli (GPa) = 78.14741 99.64395 78.24641
#
# Poissons Ratio (x) = 0.25297 0.33184
# Poissons Ratio (y) = 0.19840 0.26975
# Poissons Ratio (z) = 0.33142 0.34351
#
# Static dielectric constant tensor:
#      x y z
#    x 3.711300 0.000000 0.310470 
#    y 0.000000 3.805920 0.000000 
#    z 0.310470 0.000000 3.971870 
# 
# 
# High freq. dielectric constant tensor:
#      x y z
#    x 1.812530 0.000000 0.024690 
#    y 0.000000 1.827360 0.000000 
#    z 0.024690 0.000000 1.830730 
# 
# From -- ./inp_files/81119.got.cif
#   From: 2010.06.25/outbox.cif.g09.slc.cpg/sg15_41_cif.got.tgz:81119.got - 2010.06.28 07:06:18.
