data_PCOD8140509
_publ_section_title
;
Structure prediction by ZEFSAII (Michael W. Deem and Ramdas Pophale) SiO2 
 PCOD8140509
Probable space group: C 2/C
;
_chemical_formula_sum "Si O2"
_cell_formula_units_Z 56
_cell_length_a 21.015130
_cell_length_b 8.813170
_cell_length_c 19.430457
_cell_angle_alpha 90.000000
_cell_angle_beta 131.271590
_cell_angle_gamma 90.000000
_cell_volume 2704.761580
_symmetry_space_group_name_H-M "C 2/C"
_symmetry_group_IT_number 15
_symmetry_cell_setting 'monoclinic'
loop_
_space_group_symop_operation_xyz
x,y,z
-x,y,1/2-z
-x,-y,-z
x,-y,1/2+z
1/2+x,1/2+y,z
1/2-x,1/2+y,1/2-z
1/2-x,1/2-y,-z
1/2+x,1/2-y,1/2+z
loop_
_atom_site_type_symbol
_atom_site_label
_atom_site_fract_x
_atom_site_fract_y
_atom_site_fract_z
Si Si1 0.994475 0.758499 0.359970
Si Si2 0.161568 0.730039 0.698831
Si Si3 0.500000 0.501233 0.750000
Si Si4 0.500000 0.012526 0.250000
Si Si5 0.587514 0.932340 0.588030
Si Si6 0.089072 0.938898 0.533277
Si Si7 0.699490 0.722671 0.599412
Si Si8 0.377181 0.250666 0.681871
O O1 0.967324 0.896625 0.290452
O O2 0.014619 0.612772 0.328232
O O3 0.074331 0.818578 0.461220
O O4 0.923880 0.705277 0.364794
O O5 0.144033 0.562420 0.659983
O O6 0.145205 0.857113 0.630760
O O7 0.259048 0.723600 0.794007
O O8 0.102007 0.770315 0.721832
O O9 0.421083 0.391149 0.672912
O O10 0.584124 0.910638 0.311682
O O11 0.634083 0.863340 0.553891
O O12 0.500000 0.000000 0.500000
O O13 0.146969 0.072374 0.544533
O O14 0.000000 0.000000 0.500000
O O15 0.774947 0.745941 0.596911
#
# Coordination Sequence:
#
# PCOD8140509 Si02
#       8
#     8   8   4   4   8   8   8   8
#     4  11  22  36  64  88 126 161 211 254 303 380
#     4  10  21  36  63  91 123 158 200 260 320 366
#     4  10  22  40  62  92 122 180 210 244 308 384
#     4  10  20  42  62  88 122 176 210 244 302 384
#     4  12  21  38  62  97 120 158 203 263 332 367
#     4  12  21  38  61  98 126 155 205 266 323 370
#     4  10  23  38  62  92 128 156 201 268 320 367
#     4   9  21  39  64  86 121 166 213 247 304 378
#
# _framework density 20.704226999999999
#
# number of rings (size 3 to 8) (size 9 to 14) (size 15 to 20)
#    0.857    0.571    4.286    1.714    0.000    0.000 
#    0.000    2.857    0.000    0.000    0.000    0.000 
#    0.000    0.000    0.000    0.000    0.000    0.000 
#
# Total GULP energy -346903.788592 kJ/mol
# GULP energy per Si atom -12389.421021 kJ/mol
# Density = 2.065710 g / cm^3
# Si number density = 20.704227 Si / 1000 Ang^3
#
#
#
# Elastic Constant Matrix: (Units=GPa)
#
#
# Indices 1 2 3 4 5 6 
#
# 1 113.6908 51.0406 11.8902 0.0000 24.0039 0.0000
# 2 51.0406 122.3738 17.7417 0.0000 11.6784 0.0000
# 3 11.8902 17.7417 52.7356 0.0000 6.0850 0.0000
# 4 0.0000 0.0000 0.0000 29.2134 0.0000 9.4091
# 5 24.0039 11.6784 6.0850 0.0000 32.1774 0.0000
# 6 0.0000 0.0000 0.0000 9.4091 0.0000 23.8653
#
#
#
# Elastic Compliance Matrix: (Units=1/GPa)
#
#
# Indices 1 2 3 4 5 6 
#
# 1 0.012414 -0.004389 -0.000447 0.000000 -0.007583 0.000000
# 2 -0.004389 0.010366 -0.002496 0.000000 -0.000016 0.000000
# 3 -0.000447 -0.002496 0.020201 0.000000 -0.002581 0.000000
# 4 0.000000 0.000000 0.000000 0.039210 0.000000 -0.015459
# 5 -0.007583 -0.000016 -0.002581 0.000000 0.037228 0.000000
# 6 0.000000 0.000000 0.000000 -0.015459 0.000000 0.047997
#
#
# Mechanical properties :
#
#
# Convention : Reuss Voigt Hill
#
# Bulk Modulus (GPa) = 35.31593 50.01614 42.66603
# Shear Modulus (GPa) = 26.10704 30.92639 28.51672
#
# Velocity S-wave (km/s) = 3.55484 3.86906 3.71528
# Velocity P-wave (km/s) = 5.82611 6.64601 6.24952
#
# Compressibility (1/GPa) = 0.02831583
#
# Stress axis : x y z
#
# Youngs Moduli (GPa) = 80.55337 96.47155 49.50289
#
# Poissons Ratio (x) = 0.42344 0.02214
# Poissons Ratio (y) = 0.35357 0.12355
# Poissons Ratio (z) = 0.03603 0.24078
#
# Static dielectric constant tensor:
#      x y z
#    x 3.819670 0.000000 0.004220 
#    y 0.000000 3.906710 0.000000 
#    z 0.004220 0.000000 3.611770 
# 
# 
# High freq. dielectric constant tensor:
#      x y z
#    x 1.797700 0.000000 -0.000070 
#    y 0.000000 1.827800 0.000000 
#    z -0.000070 0.000000 1.791490 
# 
# From -- ./inp_files/254902.got.cif
#   From: 2010.06.25/outbox.cif.g09.slc.cpg/sg15_128_cif.got.tgz:254902.got - 2010.06.28 07:06:18.
