data_PCOD8140450
_publ_section_title
;
Structure prediction by ZEFSAII (Michael W. Deem and Ramdas Pophale) SiO2 
 PCOD8140450
Probable space group: C 2/C
;
_chemical_formula_sum "Si O2"
_cell_formula_units_Z 48
_cell_length_a 13.296775
_cell_length_b 12.855121
_cell_length_c 13.309742
_cell_angle_alpha 90.000000
_cell_angle_beta 116.679764
_cell_angle_gamma 90.000000
_cell_volume 2032.831007
_symmetry_space_group_name_H-M "C 2/C"
_symmetry_group_IT_number 15
_symmetry_cell_setting 'monoclinic'
loop_
_space_group_symop_operation_xyz
x,y,z
-x,y,1/2-z
-x,-y,-z
x,-y,1/2+z
1/2+x,1/2+y,z
1/2-x,1/2+y,1/2-z
1/2-x,1/2-y,-z
1/2+x,1/2-y,1/2+z
loop_
_atom_site_type_symbol
_atom_site_label
_atom_site_fract_x
_atom_site_fract_y
_atom_site_fract_z
Si Si1 0.304854 0.311937 0.934991
Si Si2 0.594054 0.678180 0.367106
Si Si3 0.593065 0.559160 0.864875
Si Si4 0.333482 0.762842 0.897153
Si Si5 0.110958 0.425353 0.734101
Si Si6 0.280277 0.121842 0.801641
O O1 0.218064 0.393931 0.848629
O O2 0.343302 0.227743 0.868487
O O3 0.250000 0.250000 0.000000
O O4 0.407535 0.377543 0.029535
O O5 0.500000 0.726480 0.250000
O O6 0.561966 0.559075 0.375569
O O7 0.593338 0.740726 0.471103
O O8 0.715929 0.682061 0.371407
O O9 0.500000 0.609985 0.750000
O O10 0.713347 0.567785 0.863108
O O11 0.406374 0.842622 0.863189
O O12 0.306692 0.655861 0.825337
O O13 0.128394 0.541391 0.699124
O O14 0.000000 0.425831 0.750000
#
# Coordination Sequence:
#
# PCOD8140450 Si02
#       6
#     8   8   8   8   8   8
#     4   9  21  40  65  97 136 174 226 282 339 404
#     4  10  21  42  70 101 132 175 233 283 348 405
#     4  10  20  41  69 101 132 172 225 288 340 409
#     4  10  22  42  68  98 143 176 225 291 340 413
#     4  11  23  44  68 101 140 185 231 278 342 416
#     4  10  21  41  66  99 135 179 224 282 344 410
#
# _framework density 23.612392
#
# number of rings (size 3 to 8) (size 9 to 14) (size 15 to 20)
#    0.000    2.000    1.667    1.000    0.000    6.667 
#   15.000    5.833    0.000    1.000    0.000    0.000 
#    0.000    0.000    0.000    0.000    0.000    0.000 
#
# Total GULP energy -297598.841943 kJ/mol
# GULP energy per Si atom -12399.951748 kJ/mol
# Density = 2.355865 g / cm^3
# Si number density = 23.612392 Si / 1000 Ang^3
#
#
#
# Elastic Constant Matrix: (Units=GPa)
#
#
# Indices 1 2 3 4 5 6 
#
# 1 95.7126 49.5852 47.9434 0.0000 -13.5012 0.0000
# 2 49.5852 133.8817 80.9986 0.0000 -2.4913 0.0000
# 3 47.9434 80.9986 201.6571 0.0000 5.6954 0.0000
# 4 0.0000 0.0000 0.0000 35.7382 0.0000 -4.5418
# 5 -13.5012 -2.4913 5.6954 0.0000 31.9085 0.0000
# 6 0.0000 0.0000 0.0000 -4.5418 0.0000 18.7532
#
#
#
# Elastic Compliance Matrix: (Units=1/GPa)
#
#
# Indices 1 2 3 4 5 6 
#
# 1 0.014384 -0.004016 -0.001980 0.000000 0.006126 0.000000
# 2 -0.004016 0.011059 -0.003481 0.000000 -0.000214 0.000000
# 3 -0.001980 -0.003481 0.006894 0.000000 -0.002340 0.000000
# 4 0.000000 0.000000 0.000000 0.028870 0.000000 0.006992
# 5 0.006126 -0.000214 -0.002340 0.000000 0.034333 0.000000
# 6 0.000000 0.000000 0.000000 0.006992 0.000000 0.055018
#
#
# Mechanical properties :
#
#
# Convention : Reuss Voigt Hill
#
# Bulk Modulus (GPa) = 74.71847 87.58953 81.15400
# Shear Modulus (GPa) = 28.74037 34.12824 31.43431
#
# Velocity S-wave (km/s) = 3.49259 3.80590 3.65261
# Velocity P-wave (km/s) = 6.92652 7.51588 7.22721
#
# Compressibility (1/GPa) = 0.01338357
#
# Stress axis : x y z
#
# Youngs Moduli (GPa) = 69.52083 90.42741 145.05447
#
# Poissons Ratio (x) = 0.36312 0.28720
# Poissons Ratio (y) = 0.27917 0.50495
# Poissons Ratio (z) = 0.13765 0.31479
#
# Static dielectric constant tensor:
#      x y z
#    x 3.868790 0.000000 -0.194140 
#    y 0.000000 4.488640 0.000000 
#    z -0.194140 0.000000 4.689840 
# 
# 
# High freq. dielectric constant tensor:
#      x y z
#    x 1.914040 0.000000 -0.014500 
#    y 0.000000 1.936410 0.000000 
#    z -0.014500 0.000000 1.948170 
# 
# From -- ./inp_files/152762.got.cif
#   From: 2010.06.25/outbox.cif.g09.slc.cpg/sg15_77_cif.got.tgz:152762.got - 2010.06.28 07:06:18.
