data_PCOD8140937
_publ_section_title
;
Structure prediction by ZEFSAII (Michael W. Deem and Ramdas Pophale) SiO2 
 PCOD8140937
Probable space group: C 2/C
;
_chemical_formula_sum "Si O2"
_cell_formula_units_Z 64
_cell_length_a 15.931966
_cell_length_b 22.006838
_cell_length_c 13.549463
_cell_angle_alpha 90.000000
_cell_angle_beta 144.248674
_cell_angle_gamma 90.000000
_cell_volume 2775.629755
_symmetry_space_group_name_H-M "C 2/C"
_symmetry_group_IT_number 15
_symmetry_cell_setting 'monoclinic'
loop_
_space_group_symop_operation_xyz
x,y,z
-x,y,1/2-z
-x,-y,-z
x,-y,1/2+z
1/2+x,1/2+y,z
1/2-x,1/2+y,1/2-z
1/2-x,1/2-y,-z
1/2+x,1/2-y,1/2+z
loop_
_atom_site_type_symbol
_atom_site_label
_atom_site_fract_x
_atom_site_fract_y
_atom_site_fract_z
Si Si1 0.663671 0.159025 0.933690
Si Si2 0.713184 0.437653 0.519013
Si Si3 0.000224 0.215291 0.564192
Si Si4 0.301468 0.967308 0.249957
Si Si5 0.592561 0.412340 0.196546
Si Si6 0.682385 0.173258 0.279627
Si Si7 0.605721 0.080510 0.041759
Si Si8 0.102612 0.216633 0.442191
O O1 0.500000 0.166119 0.750000
O O2 0.690676 0.219699 0.026123
O O3 0.681926 0.095787 0.010052
O O4 0.776845 0.162104 0.950875
O O5 0.785039 0.499961 0.627504
O O6 0.681033 0.440857 0.372419
O O7 0.572458 0.432824 0.454155
O O8 0.815362 0.378415 0.632413
O O9 0.091175 0.160791 0.700997
O O10 0.055447 0.277233 0.668764
O O11 0.018923 0.211636 0.464366
O O12 0.831401 0.210069 0.422728
O O13 0.159604 0.933807 0.156251
O O14 0.432102 0.919766 0.364246
O O15 0.339117 0.016394 0.369398
O O16 0.653654 0.136651 0.153177
O O17 0.000000 0.207950 0.250000
#
# Coordination Sequence:
#
# PCOD8140937 Si02
#       8
#     8   8   8   8   8   8   8   8
#     4  10  21  33  55  82 124 162 203 263 317 371
#     4   9  21  45  64  93 131 169 214 284 330 387
#     4  11  23  37  66  93 130 176 223 268 338 396
#     4  10  22  39  69  92 121 171 221 269 337 386
#     4  10  22  40  68  93 129 169 218 272 336 396
#     4  10  22  39  64  92 132 172 215 276 327 395
#     4  10  21  40  60  90 129 166 213 274 327 387
#     4  10  21  35  53  87 123 167 210 255 321 393
#
# _framework density 23.057831
#
# number of rings (size 3 to 8) (size 9 to 14) (size 15 to 20)
#    0.000    2.000    1.250    1.125    7.000    1.500 
#    0.000    5.000    0.000    0.000    0.000    0.000 
#    0.000    0.000    0.000    0.000    0.000    0.000 
#
# Total GULP energy -396551.577571 kJ/mol
# GULP energy per Si atom -12392.236799 kJ/mol
# Density = 2.300535 g / cm^3
# Si number density = 23.057831 Si / 1000 Ang^3
#
#
#
# Elastic Constant Matrix: (Units=GPa)
#
#
# Indices 1 2 3 4 5 6 
#
# 1 38.4003 15.7276 6.1978 0.0000 -4.9077 0.0000
# 2 15.7276 73.5840 31.1265 0.0000 7.4066 0.0000
# 3 6.1978 31.1265 94.7576 0.0000 0.4727 0.0000
# 4 0.0000 0.0000 0.0000 26.4763 0.0000 6.6617
# 5 -4.9077 7.4066 0.4727 0.0000 25.9460 0.0000
# 6 0.0000 0.0000 0.0000 6.6617 0.0000 25.9294
#
#
#
# Elastic Compliance Matrix: (Units=1/GPa)
#
#
# Indices 1 2 3 4 5 6 
#
# 1 0.029984 -0.007368 0.000420 0.000000 0.007767 0.000000
# 2 -0.007368 0.018115 -0.005436 0.000000 -0.006466 0.000000
# 3 0.000420 -0.005436 0.012305 0.000000 0.001407 0.000000
# 4 0.000000 0.000000 0.000000 0.040380 0.000000 -0.010374
# 5 0.007767 -0.006466 0.001407 0.000000 0.041831 0.000000
# 6 0.000000 0.000000 0.000000 -0.010374 0.000000 0.041232
#
#
# Mechanical properties :
#
#
# Convention : Reuss Voigt Hill
#
# Bulk Modulus (GPa) = 28.06207 34.76064 31.41136
# Shear Modulus (GPa) = 22.67643 25.91635 24.29639
#
# Velocity S-wave (km/s) = 3.13942 3.35621 3.24962
# Velocity P-wave (km/s) = 5.03368 5.48880 5.26616
#
# Compressibility (1/GPa) = 0.03563529
#
# Stress axis : x y z
#
# Youngs Moduli (GPa) = 33.35095 55.20203 81.27105
#
# Poissons Ratio (x) = 0.40675 -0.03417
# Poissons Ratio (y) = 0.24574 0.44182
# Poissons Ratio (z) = -0.01402 0.30010
#
# Static dielectric constant tensor:
#      x y z
#    x 3.866110 0.000000 0.071060 
#    y 0.000000 4.382380 0.000000 
#    z 0.071060 0.000000 4.183570 
# 
# 
# High freq. dielectric constant tensor:
#      x y z
#    x 1.888950 0.000000 0.001950 
#    y 0.000000 1.915660 0.000000 
#    z 0.001950 0.000000 1.912040 
# 
# From -- ./inp_files/164250.got.cif
#   From: 2010.06.25/outbox.cif.g09.slc.cpg/sg15_83_cif.got.tgz:164250.got - 2010.06.28 07:06:18.
