data_PCOD8140070
_publ_section_title
;
Structure prediction by ZEFSAII (Michael W. Deem and Ramdas Pophale) SiO2 
 PCOD8140070
Probable space group: C 2/C
;
_chemical_formula_sum "Si O2"
_cell_formula_units_Z 52
_cell_length_a 11.413008
_cell_length_b 15.949882
_cell_length_c 14.015123
_cell_angle_alpha 90.000000
_cell_angle_beta 76.610172
_cell_angle_gamma 90.000000
_cell_volume 2481.907913
_symmetry_space_group_name_H-M "C 2/C"
_symmetry_group_IT_number 15
_symmetry_cell_setting 'monoclinic'
loop_
_space_group_symop_operation_xyz
x,y,z
-x,y,1/2-z
-x,-y,-z
x,-y,1/2+z
1/2+x,1/2+y,z
1/2-x,1/2+y,1/2-z
1/2-x,1/2-y,-z
1/2+x,1/2-y,1/2+z
loop_
_atom_site_type_symbol
_atom_site_label
_atom_site_fract_x
_atom_site_fract_y
_atom_site_fract_z
Si Si1 0.756907 0.330530 0.934028
Si Si2 0.019606 0.912543 0.041510
Si Si3 0.500000 0.373734 0.250000
Si Si4 0.166744 0.770075 0.428733
Si Si5 0.019364 0.608556 0.434318
Si Si6 0.749437 0.702340 0.715856
Si Si7 0.553301 0.065531 0.846937
O O1 0.883900 0.378662 0.919733
O O2 0.722638 0.294155 0.834902
O O3 0.750000 0.250000 0.000000
O O4 0.656610 0.393402 0.990148
O O5 0.990363 0.930034 0.158093
O O6 0.928720 0.840836 0.021400
O O7 0.000000 0.000000 0.000000
O O8 0.387276 0.313706 0.289267
O O9 0.250000 0.750000 0.500000
O O10 0.258794 0.798152 0.328508
O O11 0.094880 0.691443 0.399625
O O12 0.030984 0.591455 0.546778
O O13 0.080772 0.532849 0.361672
O O14 0.831336 0.625719 0.662948
O O15 0.500000 0.078254 0.750000
#
# Coordination Sequence:
#
# PCOD8140070 Si02
#       7
#     8   8   4   8   8   8   8
#     4  12  20  43  71  93 125 171 228 261 317 392
#     4  11  24  42  66  95 132 170 215 270 321 380
#     4  10  20  40  66  88 128 166 214 260 318 374
#     4  11  24  43  63  95 138 169 213 267 333 386
#     4  11  24  42  67  97 129 174 219 274 319 393
#     4  11  22  40  69  94 127 175 215 268 320 384
#     4  11  24  40  63  97 136 166 218 268 331 380
#
# _framework density 20.951623000000001
#
# number of rings (size 3 to 8) (size 9 to 14) (size 15 to 20)
#    0.000    0.923    4.615    1.846    2.154    6.154 
#    2.769    0.000    0.000    0.000    0.000    0.000 
#    0.000    0.000    0.000    0.000    0.000    0.000 
#
# Total GULP energy -322209.431417 kJ/mol
# GULP energy per Si atom -12392.670439 kJ/mol
# Density = 2.090394 g / cm^3
# Si number density = 20.951623 Si / 1000 Ang^3
#
#
#
# Elastic Constant Matrix: (Units=GPa)
#
#
# Indices 1 2 3 4 5 6 
#
# 1 101.5043 47.5409 41.8896 0.0000 5.2336 0.0000
# 2 47.5409 134.7084 32.5635 0.0000 -2.9766 0.0000
# 3 41.8896 32.5635 99.6049 0.0000 8.3239 0.0000
# 4 0.0000 0.0000 0.0000 34.4934 0.0000 3.1671
# 5 5.2336 -2.9766 8.3239 0.0000 33.4516 0.0000
# 6 0.0000 0.0000 0.0000 3.1671 0.0000 32.3911
#
#
#
# Elastic Compliance Matrix: (Units=1/GPa)
#
#
# Indices 1 2 3 4 5 6 
#
# 1 0.013455 -0.003733 -0.004324 0.000000 -0.001361 0.000000
# 2 -0.003733 0.009161 -0.001575 0.000000 0.001791 0.000000
# 3 -0.004324 -0.001575 0.012590 0.000000 -0.002596 0.000000
# 4 0.000000 0.000000 0.000000 0.029254 0.000000 -0.002860
# 5 -0.001361 0.001791 -0.002596 0.000000 0.030912 0.000000
# 6 0.000000 0.000000 0.000000 -0.002860 0.000000 0.031152
#
#
# Mechanical properties :
#
#
# Convention : Reuss Voigt Hill
#
# Bulk Modulus (GPa) = 62.72831 64.42286 63.57558
# Shear Modulus (GPa) = 33.08989 34.32211 33.70600
#
# Velocity S-wave (km/s) = 3.97841 4.05181 4.01528
# Velocity P-wave (km/s) = 7.14900 7.25980 7.20461
#
# Compressibility (1/GPa) = 0.01594177
#
# Stress axis : x y z
#
# Youngs Moduli (GPa) = 74.32098 109.15588 79.42742
#
# Poissons Ratio (x) = 0.40751 0.34348
# Poissons Ratio (y) = 0.27746 0.12507
# Poissons Ratio (z) = 0.32139 0.17188
#
# Static dielectric constant tensor:
#      x y z
#    x 3.718840 0.000000 0.071130 
#    y 0.000000 3.820000 0.000000 
#    z 0.071130 0.000000 4.740240 
# 
# 
# High freq. dielectric constant tensor:
#      x y z
#    x 1.808860 0.000000 -0.000600 
#    y 0.000000 1.817870 0.000000 
#    z -0.000600 0.000000 1.840360 
# 
# From -- ./inp_files/144136.got.cif
#   From: 2010.06.25/outbox.cif.g09.slc.cpg/sg15_73_cif.got.tgz:144136.got - 2010.06.28 07:06:18.
