data_PCOD8140475
_publ_section_title
;
Structure prediction by ZEFSAII (Michael W. Deem and Ramdas Pophale) SiO2 
 PCOD8140475
Probable space group: C 2/C
;
_chemical_formula_sum "Si O2"
_cell_formula_units_Z 64
_cell_length_a 15.143568
_cell_length_b 8.969711
_cell_length_c 23.274774
_cell_angle_alpha 90.000000
_cell_angle_beta 72.724407
_cell_angle_gamma 90.000000
_cell_volume 3018.869176
_symmetry_space_group_name_H-M "C 2/C"
_symmetry_group_IT_number 15
_symmetry_cell_setting 'monoclinic'
loop_
_space_group_symop_operation_xyz
x,y,z
-x,y,1/2-z
-x,-y,-z
x,-y,1/2+z
1/2+x,1/2+y,z
1/2-x,1/2+y,1/2-z
1/2-x,1/2-y,-z
1/2+x,1/2-y,1/2+z
loop_
_atom_site_type_symbol
_atom_site_label
_atom_site_fract_x
_atom_site_fract_y
_atom_site_fract_z
Si Si1 0.110126 0.647782 0.650247
Si Si2 0.311933 0.987178 0.257744
Si Si3 0.989496 0.770527 0.358430
Si Si4 0.187387 0.389310 0.581491
Si Si5 0.316303 0.868755 0.048703
Si Si6 0.349574 0.318247 0.257098
Si Si7 0.637093 0.505765 0.129715
Si Si8 0.930987 0.485259 0.125627
O O1 0.115085 0.602952 0.716397
O O2 0.195431 0.559685 0.602035
O O3 0.015149 0.601301 0.638530
O O4 0.123125 0.821416 0.640547
O O5 0.212533 0.905331 0.278337
O O6 0.344752 0.979707 0.185399
O O7 0.301482 0.158549 0.280782
O O8 0.049478 0.786868 0.289169
O O9 0.044091 0.660737 0.391627
O O10 0.891678 0.686438 0.362700
O O11 0.952695 0.933443 0.387058
O O12 0.284136 0.301405 0.568053
O O13 0.150871 0.384533 0.522947
O O14 0.230483 0.980379 0.075841
O O15 0.403460 0.908216 0.071447
O O16 0.359821 0.424863 0.309503
#
# Coordination Sequence:
#
# PCOD8140475 Si02
#       8
#     8   8   8   8   8   8   8   8
#     4  11  24  37  58  93 133 162 208 259 321 375
#     4  11  22  35  59  91 127 163 204 259 322 388
#     4   9  21  37  59  87 122 160 203 254 315 370
#     4   9  21  43  67  92 121 173 212 264 315 380
#     4  10  20  41  72  88 121 167 221 256 320 382
#     4  11  21  37  60  90 124 168 207 258 316 382
#     4  11  22  40  58  89 127 166 207 259 316 378
#     4  10  21  39  62  92 120 165 206 263 315 388
#
# _framework density 21.199992000000002
#
# number of rings (size 3 to 8) (size 9 to 14) (size 15 to 20)
#    0.000    1.750    1.250    3.750    1.750    8.500 
#    0.000    0.000    2.750    3.000    0.000    0.000 
#    0.000    0.000    0.000    0.000    0.000    0.000 
#
# Total GULP energy -396477.500613 kJ/mol
# GULP energy per Si atom -12389.921894 kJ/mol
# Density = 2.115174 g / cm^3
# Si number density = 21.199992 Si / 1000 Ang^3
#
#
#
# Elastic Constant Matrix: (Units=GPa)
#
#
# Indices 1 2 3 4 5 6 
#
# 1 82.6400 45.6598 34.0928 0.0000 10.0739 0.0000
# 2 45.6598 187.6339 46.6558 0.0000 7.6558 0.0000
# 3 34.0928 46.6558 50.8784 0.0000 4.4712 0.0000
# 4 0.0000 0.0000 0.0000 22.6093 0.0000 1.9231
# 5 10.0739 7.6558 4.4712 0.0000 31.2949 0.0000
# 6 0.0000 0.0000 0.0000 1.9231 0.0000 27.7117
#
#
#
# Elastic Compliance Matrix: (Units=1/GPa)
#
#
# Indices 1 2 3 4 5 6 
#
# 1 0.017576 -0.001653 -0.009925 0.000000 -0.003835 0.000000
# 2 -0.001653 0.007079 -0.005345 0.000000 -0.000436 0.000000
# 3 -0.009925 -0.005345 0.031203 0.000000 0.000044 0.000000
# 4 0.000000 0.000000 0.000000 0.044492 0.000000 -0.003088
# 5 -0.003835 -0.000436 0.000044 0.000000 0.033289 0.000000
# 6 0.000000 0.000000 0.000000 -0.003088 0.000000 0.036300
#
#
# Mechanical properties :
#
#
# Convention : Reuss Voigt Hill
#
# Bulk Modulus (GPa) = 45.43015 63.77435 54.60225
# Shear Modulus (GPa) = 23.68305 29.30609 26.49457
#
# Velocity S-wave (km/s) = 3.34597 3.72205 3.53901
# Velocity P-wave (km/s) = 6.03351 6.97274 6.52006
#
# Compressibility (1/GPa) = 0.02201181
#
# Stress axis : x y z
#
# Youngs Moduli (GPa) = 56.89667 141.27006 32.04830
#
# Poissons Ratio (x) = 0.23347 0.31807
# Poissons Ratio (y) = 0.09403 0.17131
# Poissons Ratio (z) = 0.56468 0.75515
#
# Static dielectric constant tensor:
#      x y z
#    x 3.887120 0.000000 -0.106250 
#    y 0.000000 4.235480 0.000000 
#    z -0.106250 0.000000 3.694770 
# 
# 
# High freq. dielectric constant tensor:
#      x y z
#    x 1.821410 0.000000 -0.003900 
#    y 0.000000 1.835980 0.000000 
#    z -0.003900 0.000000 1.815000 
# 
# From -- ./inp_files/295146.got.cif
#   From: 2010.06.25/outbox.cif.g09.slc.cpg/sg15_148_cif.got.tgz:295146.got - 2010.06.28 07:06:18.
