data_PCOD8140837
_publ_section_title
;
Structure prediction by ZEFSAII (Michael W. Deem and Ramdas Pophale) SiO2 
 PCOD8140837
Probable space group: C 2/C
;
_chemical_formula_sum "Si O2"
_cell_formula_units_Z 64
_cell_length_a 9.124567
_cell_length_b 20.755663
_cell_length_c 20.231557
_cell_angle_alpha 90.000000
_cell_angle_beta 52.782377
_cell_angle_gamma 90.000000
_cell_volume 3051.257428
_symmetry_space_group_name_H-M "C 2/C"
_symmetry_group_IT_number 15
_symmetry_cell_setting 'monoclinic'
loop_
_space_group_symop_operation_xyz
x,y,z
-x,y,1/2-z
-x,-y,-z
x,-y,1/2+z
1/2+x,1/2+y,z
1/2-x,1/2+y,1/2-z
1/2-x,1/2-y,-z
1/2+x,1/2-y,1/2+z
loop_
_atom_site_type_symbol
_atom_site_label
_atom_site_fract_x
_atom_site_fract_y
_atom_site_fract_z
Si Si1 0.806347 0.865688 0.269955
Si Si2 0.017734 0.334679 0.894421
Si Si3 0.210359 0.871412 0.437836
Si Si4 0.281628 0.033845 0.813768
Si Si5 0.199966 0.272034 0.192549
Si Si6 0.197048 0.607097 0.227357
Si Si7 0.018068 0.341362 0.450050
Si Si8 0.644590 0.693752 0.418392
O O1 0.815931 0.923071 0.214994
O O2 0.754603 0.798084 0.249814
O O3 0.660575 0.881959 0.367206
O O4 0.000000 0.854732 0.250000
O O5 0.835611 0.310590 0.906502
O O6 0.140376 0.272900 0.879039
O O7 0.154460 0.382613 0.816805
O O8 0.965731 0.366380 0.978887
O O9 0.217675 0.944317 0.405401
O O10 0.321141 0.831093 0.352417
O O11 0.314503 0.859238 0.478838
O O12 0.999867 0.850356 0.502616
O O13 0.500000 0.038603 0.750000
O O14 0.213653 0.961432 0.816125
O O15 0.000000 0.237568 0.250000
O O16 0.326624 0.663745 0.162909
O O17 0.000000 0.613844 0.250000
O O18 0.067898 0.265607 0.432520
#
# Coordination Sequence:
#
# PCOD8140837 Si02
#       8
#     8   8   8   8   8   8   8   8
#     4  11  22  36  63  91 122 163 207 266 314 369
#     4  11  24  38  60  96 127 167 202 261 322 365
#     4  11  22  37  62  96 120 170 207 260 315 376
#     4  10  20  44  67  83 121 167 226 252 302 385
#     4  11  21  39  59  88 129 169 207 242 318 396
#     4   9  22  43  65  84 121 176 214 253 309 381
#     4  12  22  37  59  98 131 156 205 260 327 374
#     4  11  23  39  62  92 131 163 207 255 321 386
#
# _framework density 20.974959999999999
#
# number of rings (size 3 to 8) (size 9 to 14) (size 15 to 20)
#    0.000    1.250    3.750    3.000    3.500    1.500 
#    0.000    2.500    0.000    0.000    0.000    0.000 
#    0.000    0.000    0.000    0.000    0.000    0.000 
#
# Total GULP energy -396703.163404 kJ/mol
# GULP energy per Si atom -12396.973856 kJ/mol
# Density = 2.092722 g / cm^3
# Si number density = 20.974960 Si / 1000 Ang^3
#
#
#
# Elastic Constant Matrix: (Units=GPa)
#
#
# Indices 1 2 3 4 5 6 
#
# 1 109.2196 23.5032 28.4917 0.0000 4.2713 0.0000
# 2 23.5032 87.8268 27.0654 0.0000 10.3357 0.0000
# 3 28.4917 27.0654 104.0137 0.0000 16.7835 0.0000
# 4 0.0000 0.0000 0.0000 24.5270 0.0000 -2.3945
# 5 4.2713 10.3357 16.7835 0.0000 41.8691 0.0000
# 6 0.0000 0.0000 0.0000 -2.3945 0.0000 8.7577
#
#
#
# Elastic Compliance Matrix: (Units=1/GPa)
#
#
# Indices 1 2 3 4 5 6 
#
# 1 0.010188 -0.002059 -0.002319 0.000000 0.000399 0.000000
# 2 -0.002059 0.012936 -0.002481 0.000000 -0.001989 0.000000
# 3 -0.002319 -0.002481 0.011502 0.000000 -0.003762 0.000000
# 4 0.000000 0.000000 0.000000 0.041890 0.000000 0.011453
# 5 0.000399 -0.001989 -0.003762 0.000000 0.025842 0.000000
# 6 0.000000 0.000000 0.000000 0.011453 0.000000 0.117316
#
#
# Mechanical properties :
#
#
# Convention : Reuss Voigt Hill
#
# Bulk Modulus (GPa) = 47.82973 51.02005 49.42489
# Shear Modulus (GPa) = 20.80201 29.83076 25.31639
#
# Velocity S-wave (km/s) = 3.15263 3.77531 3.47793
# Velocity P-wave (km/s) = 6.00873 6.58643 6.30420
#
# Compressibility (1/GPa) = 0.02090750
#
# Stress axis : x y z
#
# Youngs Moduli (GPa) = 98.15144 77.30600 86.94095
#
# Poissons Ratio (x) = 0.15914 0.20166
# Poissons Ratio (y) = 0.20206 0.21572
# Poissons Ratio (z) = 0.22766 0.19181
#
# Static dielectric constant tensor:
#      x y z
#    x 3.751850 0.000000 0.202200 
#    y 0.000000 3.742860 0.000000 
#    z 0.202200 0.000000 4.181740 
# 
# 
# High freq. dielectric constant tensor:
#      x y z
#    x 1.817880 0.000000 0.001890 
#    y 0.000000 1.790180 0.000000 
#    z 0.001890 0.000000 1.835550 
# 
# From -- ./inp_files/234433.got.cif
#   From: 2010.06.25/outbox.cif.g09.slc.cpg/sg15_118_cif.got.tgz:234433.got - 2010.06.28 07:06:18.
