data_PCOD8140052
_publ_section_title
;
Structure prediction by ZEFSAII (Michael W. Deem and Ramdas Pophale) SiO2 
 PCOD8140052
Probable space group: C 2/C
;
_chemical_formula_sum "Si O2"
_cell_formula_units_Z 56
_cell_length_a 26.954095
_cell_length_b 7.588970
_cell_length_c 15.164099
_cell_angle_alpha 90.000000
_cell_angle_beta 54.345396
_cell_angle_gamma 90.000000
_cell_volume 2520.414410
_symmetry_space_group_name_H-M "C 2/C"
_symmetry_group_IT_number 15
_symmetry_cell_setting 'monoclinic'
loop_
_space_group_symop_operation_xyz
x,y,z
-x,y,1/2-z
-x,-y,-z
x,-y,1/2+z
1/2+x,1/2+y,z
1/2-x,1/2+y,1/2-z
1/2-x,1/2-y,-z
1/2+x,1/2-y,1/2+z
loop_
_atom_site_type_symbol
_atom_site_label
_atom_site_fract_x
_atom_site_fract_y
_atom_site_fract_z
Si Si1 0.844723 0.544472 0.038061
Si Si2 0.434805 0.070219 0.797039
Si Si3 0.432646 0.471552 0.818783
Si Si4 0.566358 0.960897 0.895386
Si Si5 0.622995 0.381365 0.294686
Si Si6 0.160298 0.961133 0.440154
Si Si7 0.250104 0.253498 0.395988
O O1 0.884253 0.490281 0.081908
O O2 0.827324 0.752604 0.056498
O O3 0.783800 0.428501 0.104252
O O4 0.880950 0.484894 0.911484
O O5 0.500000 0.975135 0.750000
O O6 0.440824 0.266310 0.827931
O O7 0.419336 0.066251 0.709552
O O8 0.500000 0.562061 0.750000
O O9 0.397573 0.495213 0.763361
O O10 0.390414 0.543890 0.941437
O O11 0.568180 0.752830 0.872812
O O12 0.500000 0.000000 0.000000
O O13 0.636240 0.499474 0.366612
O O14 0.681378 0.261988 0.210561
O O15 0.222201 0.070800 0.388909
O O16 0.250000 0.250000 0.500000
#
# Coordination Sequence:
#
# PCOD8140052 Si02
#       7
#     8   8   8   8   8   8   8
#     4  10  24  44  67 100 134 179 226 279 346 399
#     4  10  20  40  65  95 136 177 220 277 344 405
#     4  10  23  44  68  97 137 177 222 288 352 404
#     4  11  23  42  67  99 135 172 229 282 339 410
#     4  11  26  44  66 105 133 180 235 278 347 415
#     4  10  25  46  67 101 141 173 231 283 338 414
#     4  12  25  47  70  97 138 181 234 282 335 410
#
# _framework density 22.218567
#
# number of rings (size 3 to 8) (size 9 to 14) (size 15 to 20)
#    0.000    1.429    2.857    0.857    8.000    2.857 
#    2.571    0.000    0.000    0.000    0.000    0.000 
#    0.000    0.000    0.000    0.000    0.000    0.000 
#
# Total GULP energy -347216.377374 kJ/mol
# GULP energy per Si atom -12400.584906 kJ/mol
# Density = 2.216800 g / cm^3
# Si number density = 22.218567 Si / 1000 Ang^3
#
#
#
# Elastic Constant Matrix: (Units=GPa)
#
#
# Indices 1 2 3 4 5 6 
#
# 1 120.0023 38.8326 41.9515 0.0001 17.6920 -0.0004
# 2 38.8326 67.6865 15.7989 0.0003 -7.8252 -0.0009
# 3 41.9515 15.7989 105.8350 0.0001 30.5201 -0.0003
# 4 0.0001 0.0003 0.0001 25.9285 0.0000 2.8151
# 5 17.6920 -7.8252 30.5201 0.0000 43.5968 0.0000
# 6 -0.0004 -0.0009 -0.0003 2.8151 0.0000 38.0268
#
#
#
# Elastic Compliance Matrix: (Units=1/GPa)
#
#
# Indices 1 2 3 4 5 6 
#
# 1 0.012067 -0.006846 -0.002500 0.000000 -0.004376 0.000000
# 2 -0.006846 0.020298 -0.002717 0.000000 0.008323 0.000000
# 3 -0.002500 -0.002717 0.013398 0.000000 -0.008852 0.000000
# 4 0.000000 0.000000 0.000000 0.038880 0.000000 -0.002878
# 5 -0.004376 0.008323 -0.008852 0.000000 0.032404 0.000000
# 6 0.000000 0.000000 0.000000 -0.002878 0.000000 0.026510
#
#
# Mechanical properties :
#
#
# Convention : Reuss Voigt Hill
#
# Bulk Modulus (GPa) = 46.21229 54.07666 50.14447
# Shear Modulus (GPa) = 28.58865 34.63981 31.61423
#
# Velocity S-wave (km/s) = 3.59095 3.95276 3.77619
# Velocity P-wave (km/s) = 6.16744 6.72486 6.45218
#
# Compressibility (1/GPa) = 0.02163927
#
# Stress axis : x y z
#
# Youngs Moduli (GPa) = 82.86794 49.26643 74.63907
#
# Poissons Ratio (x) = 0.33726 0.18656
# Poissons Ratio (y) = 0.56729 0.20277
# Poissons Ratio (z) = 0.20713 0.13384
#
# Static dielectric constant tensor:
#      x y z
#    x 4.095530 0.000000 -0.044450 
#    y 0.000000 3.763300 0.000000 
#    z -0.044450 0.000000 4.364040 
# 
# 
# High freq. dielectric constant tensor:
#      x y z
#    x 1.878420 0.000000 0.006750 
#    y 0.000000 1.857800 0.000000 
#    z 0.006750 0.000000 1.894090 
# 
# From -- ./inp_files/172253.got.cif
#   From: 2010.06.25/outbox.cif.g09.slc.cpg/sg15_87_cif.got.tgz:172253.got - 2010.06.28 07:06:18.
