data_PCOD8140581
_publ_section_title
;
Structure prediction by ZEFSAII (Michael W. Deem and Ramdas Pophale) SiO2 
 PCOD8140581
Probable space group: C 2/C
;
_chemical_formula_sum "Si O2"
_cell_formula_units_Z 36
_cell_length_a 13.341474
_cell_length_b 16.925760
_cell_length_c 9.346717
_cell_angle_alpha 90.000000
_cell_angle_beta 131.251040
_cell_angle_gamma 90.000000
_cell_volume 1586.826663
_symmetry_space_group_name_H-M "C 2/C"
_symmetry_group_IT_number 15
_symmetry_cell_setting 'monoclinic'
loop_
_space_group_symop_operation_xyz
x,y,z
-x,y,1/2-z
-x,-y,-z
x,-y,1/2+z
1/2+x,1/2+y,z
1/2-x,1/2+y,1/2-z
1/2-x,1/2-y,-z
1/2+x,1/2-y,1/2+z
loop_
_atom_site_type_symbol
_atom_site_label
_atom_site_fract_x
_atom_site_fract_y
_atom_site_fract_z
Si Si1 0.217258 0.821218 0.163882
Si Si2 0.500000 0.337889 0.750000
Si Si3 0.650558 0.580205 0.873237
Si Si4 0.649287 0.938033 0.422251
Si Si5 0.706950 0.649614 0.228540
O O1 0.152069 0.857074 0.245404
O O2 0.302325 0.890800 0.172030
O O3 0.306146 0.744843 0.281107
O O4 0.103385 0.789037 0.946257
O O5 0.410670 0.387891 0.779984
O O6 0.500000 0.547042 0.750000
O O7 0.756730 0.511575 0.951435
O O8 0.695496 0.625507 0.056287
O O9 0.500000 0.967373 0.250000
O O10 0.655602 0.882484 0.570629
#
# Coordination Sequence:
#
# PCOD8140581 Si02
#       5
#     8   4   8   8   8
#     4  11  25  43  74 101 135 182 232 287 341 406
#     4  10  20  42  66 102 126 180 230 272 342 388
#     4  12  26  46  70 103 145 182 226 284 347 416
#     4  11  27  46  71 102 140 186 232 281 343 412
#     4  11  25  43  74 101 135 182 232 287 341 406
#
# _framework density 22.686788
#
# number of rings (size 3 to 8) (size 9 to 14) (size 15 to 20)
#    0.000    0.889    2.222    4.667   12.444    5.333 
#    0.000    0.000    0.000    0.000    0.000    0.000 
#    0.000    0.000    0.000    0.000    0.000    0.000 
#
# Total GULP energy -223046.083661 kJ/mol
# GULP energy per Si atom -12391.449092 kJ/mol
# Density = 2.263515 g / cm^3
# Si number density = 22.686788 Si / 1000 Ang^3
#
#
#
# Elastic Constant Matrix: (Units=GPa)
#
#
# Indices 1 2 3 4 5 6 
#
# 1 100.5194 34.9523 61.1378 0.0000 3.0973 0.0000
# 2 34.9523 94.0179 34.6880 0.0000 0.3573 0.0000
# 3 61.1378 34.6880 127.8461 0.0000 -6.7058 0.0000
# 4 0.0000 0.0000 0.0000 39.9476 0.0000 -11.2010
# 5 3.0973 0.3573 -6.7058 0.0000 52.2351 0.0000
# 6 0.0000 0.0000 0.0000 -11.2010 0.0000 33.0383
#
#
#
# Elastic Compliance Matrix: (Units=1/GPa)
#
#
# Indices 1 2 3 4 5 6 
#
# 1 0.015006 -0.003214 -0.006393 0.000000 -0.001688 0.000000
# 2 -0.003214 0.012520 -0.001867 0.000000 -0.000135 0.000000
# 3 -0.006393 -0.001867 0.011484 0.000000 0.001866 0.000000
# 4 0.000000 0.000000 0.000000 0.027662 0.000000 0.009378
# 5 -0.001688 -0.000135 0.001866 0.000000 0.019485 0.000000
# 6 0.000000 0.000000 0.000000 0.009378 0.000000 0.033447
#
#
# Mechanical properties :
#
#
# Convention : Reuss Voigt Hill
#
# Bulk Modulus (GPa) = 62.25674 64.88218 63.56946
# Shear Modulus (GPa) = 33.80520 37.81788 35.81154
#
# Velocity S-wave (km/s) = 3.86435 4.08727 3.97737
# Velocity P-wave (km/s) = 6.88566 7.13691 7.01241
#
# Compressibility (1/GPa) = 0.01606252
#
# Stress axis : x y z
#
# Youngs Moduli (GPa) = 66.64029 79.86922 87.08126
#
# Poissons Ratio (x) = 0.25667 0.55668
# Poissons Ratio (y) = 0.21416 0.16262
# Poissons Ratio (z) = 0.42601 0.14915
#
# Static dielectric constant tensor:
#      x y z
#    x 4.145850 0.000000 -0.003330 
#    y 0.000000 3.835660 0.000000 
#    z -0.003330 0.000000 4.333450 
# 
# 
# High freq. dielectric constant tensor:
#      x y z
#    x 1.889130 0.000000 -0.005970 
#    y 0.000000 1.877700 0.000000 
#    z -0.005970 0.000000 1.915600 
# 
# From -- ./inp_files/39466.got.cif
#   From: 2010.06.25/outbox.cif.g09.slc.cpg/sg15_20_cif.got.tgz:39466.got - 2010.06.28 07:06:18.
