data_PCOD8140953
_publ_section_title
;
Structure prediction by ZEFSAII (Michael W. Deem and Ramdas Pophale) SiO2 
 PCOD8140953
Probable space group: C 2/C
;
_chemical_formula_sum "Si O2"
_cell_formula_units_Z 40
_cell_length_a 22.567346
_cell_length_b 4.991170
_cell_length_c 21.066288
_cell_angle_alpha 90.000000
_cell_angle_beta 123.315629
_cell_angle_gamma 90.000000
_cell_volume 1982.892720
_symmetry_space_group_name_H-M "C 2/C"
_symmetry_group_IT_number 15
_symmetry_cell_setting 'monoclinic'
loop_
_space_group_symop_operation_xyz
x,y,z
-x,y,1/2-z
-x,-y,-z
x,-y,1/2+z
1/2+x,1/2+y,z
1/2-x,1/2+y,1/2-z
1/2-x,1/2-y,-z
1/2+x,1/2-y,1/2+z
loop_
_atom_site_type_symbol
_atom_site_label
_atom_site_fract_x
_atom_site_fract_y
_atom_site_fract_z
Si Si1 0.434969 0.793706 0.471482
Si Si2 0.043847 0.506352 0.713847
Si Si3 0.482511 0.501548 0.882966
Si Si4 0.789628 0.482774 0.350396
Si Si5 0.799772 0.480944 0.207696
O O1 0.446079 0.615826 0.541691
O O2 0.429619 0.592501 0.408052
O O3 0.360529 0.945950 0.434047
O O4 0.500000 0.000000 0.500000
O O5 0.053298 0.243033 0.676228
O O6 0.124188 0.586789 0.779309
O O7 0.000000 0.428450 0.750000
O O8 0.002509 0.748136 0.653948
O O9 0.810766 0.460543 0.289444
O O10 0.729361 0.266512 0.331811
O O11 0.757720 0.767921 0.350204
#
# Coordination Sequence:
#
# PCOD8140953 Si02
#       5
#     8   8   8   8   8
#     4  11  22  37  65  92 129 150 198 264 312 367
#     4  12  24  42  63  87 127 167 211 248 287 372
#     4  11  23  37  62  94 118 158 212 244 312 349
#     4  10  21  33  59  87 124 149 187 263 308 361
#     4  10  21  35  55  88 120 157 199 239 316 354
#
# _framework density 20.172550000000001
#
# number of rings (size 3 to 8) (size 9 to 14) (size 15 to 20)
#    0.000    1.200    4.000    1.800   11.200    0.000 
#    0.000    0.000    0.000    7.200    0.000    0.000 
#    0.000    0.000    0.000    0.000    0.000    0.000 
#
# Total GULP energy -248007.402587 kJ/mol
# GULP energy per Si atom -12400.370129 kJ/mol
# Density = 2.012664 g / cm^3
# Si number density = 20.172550 Si / 1000 Ang^3
#
#
#
# Elastic Constant Matrix: (Units=GPa)
#
#
# Indices 1 2 3 4 5 6 
#
# 1 97.0574 18.4895 35.7569 0.0005 17.2206 0.0013
# 2 18.4895 102.2137 22.9581 -0.0015 -1.7048 0.0075
# 3 35.7569 22.9581 70.2315 0.0006 13.0377 0.0010
# 4 0.0005 -0.0015 0.0006 37.6786 -0.0003 2.1398
# 5 17.2206 -1.7048 13.0377 -0.0003 20.4422 -0.0005
# 6 0.0013 0.0075 0.0010 2.1398 -0.0005 17.6023
#
#
#
# Elastic Compliance Matrix: (Units=1/GPa)
#
#
# Indices 1 2 3 4 5 6 
#
# 1 0.013987 -0.001554 -0.004993 0.000000 -0.008728 0.000000
# 2 -0.001554 0.010956 -0.003633 0.000001 0.004540 -0.000004
# 3 -0.004993 -0.003633 0.019560 0.000000 -0.008572 0.000001
# 4 0.000000 0.000001 0.000000 0.026725 0.000001 -0.003249
# 5 -0.008728 0.004540 -0.008572 0.000001 0.062116 0.000001
# 6 0.000000 -0.000004 0.000001 -0.003249 0.000001 0.057206
#
#
# Mechanical properties :
#
#
# Convention : Reuss Voigt Hill
#
# Bulk Modulus (GPa) = 41.42053 47.10128 44.26091
# Shear Modulus (GPa) = 22.83542 27.96450 25.39996
#
# Velocity S-wave (km/s) = 3.36818 3.72730 3.55228
# Velocity P-wave (km/s) = 5.97527 6.47484 6.23006
#
# Compressibility (1/GPa) = 0.02414262
#
# Stress axis : x y z
#
# Youngs Moduli (GPa) = 71.49312 91.27163 51.12591
#
# Poissons Ratio (x) = 0.14186 0.25527
# Poissons Ratio (y) = 0.11112 0.18574
# Poissons Ratio (z) = 0.35696 0.33159
#
# Static dielectric constant tensor:
#      x y z
#    x 3.218740 -0.000010 0.135270 
#    y -0.000010 3.971690 0.000000 
#    z 0.135270 0.000000 3.618150 
# 
# 
# High freq. dielectric constant tensor:
#      x y z
#    x 1.739640 0.000000 0.028410 
#    y 0.000000 1.813740 0.000000 
#    z 0.028410 0.000000 1.772110 
# 
# From -- ./inp_files/217428.got.cif
#   From: 2010.06.25/outbox.cif.g09.slc.cpg/sg15_109_cif.got.tgz:217428.got - 2010.06.28 07:06:18.
