data_PCOD8140203
_publ_section_title
;
Structure prediction by ZEFSAII (Michael W. Deem and Ramdas Pophale) SiO2 
 PCOD8140203
Probable space group: C 2/C
;
_chemical_formula_sum "Si O2"
_cell_formula_units_Z 40
_cell_length_a 9.812564
_cell_length_b 23.022279
_cell_length_c 8.094130
_cell_angle_alpha 90.000000
_cell_angle_beta 77.515511
_cell_angle_gamma 90.000000
_cell_volume 1785.289093
_symmetry_space_group_name_H-M "C 2/C"
_symmetry_group_IT_number 15
_symmetry_cell_setting 'monoclinic'
loop_
_space_group_symop_operation_xyz
x,y,z
-x,y,1/2-z
-x,-y,-z
x,-y,1/2+z
1/2+x,1/2+y,z
1/2-x,1/2+y,1/2-z
1/2-x,1/2-y,-z
1/2+x,1/2-y,1/2+z
loop_
_atom_site_type_symbol
_atom_site_label
_atom_site_fract_x
_atom_site_fract_y
_atom_site_fract_z
Si Si1 0.040430 0.622201 0.547526
Si Si2 0.918132 0.749193 0.946754
Si Si3 0.210189 0.944313 0.401900
Si Si4 0.772405 0.570725 0.506594
Si Si5 0.026916 0.867611 0.934881
O O1 0.040565 0.688163 0.479069
O O2 0.192774 0.592846 0.498048
O O3 0.000000 0.619280 0.750000
O O4 0.936751 0.585784 0.456393
O O5 0.000000 0.749487 0.750000
O O6 0.972485 0.806676 0.030373
O O7 0.750000 0.750000 0.000000
O O8 0.231521 0.930808 0.206648
O O9 0.052388 0.924974 0.478849
O O10 0.238481 0.011739 0.421393
O O11 0.688484 0.622779 0.438449
O O12 0.000000 0.862363 0.750000
#
# Coordination Sequence:
#
# PCOD8140203 Si02
#       5
#     8   8   8   8   8
#     4   9  20  38  63  90 124 165 210 261 324 382
#     4  10  20  40  69  95 130 172 213 267 330 387
#     4  11  21  40  62  88 128 166 211 266 324 385
#     4  11  23  38  63  93 123 168 215 267 320 387
#     4  11  23  39  63  90 127 165 215 264 321 384
#
# _framework density 22.405335999999998
#
# number of rings (size 3 to 8) (size 9 to 14) (size 15 to 20)
#    0.000    1.600    2.000    3.000    0.000    0.800 
#    0.000    3.000    0.000    0.000    0.000    0.000 
#    0.000    0.000    0.000    0.000    0.000    0.000 
#
# Total GULP energy -247834.040229 kJ/mol
# GULP energy per Si atom -12391.702011 kJ/mol
# Density = 2.235434 g / cm^3
# Si number density = 22.405336 Si / 1000 Ang^3
#
#
#
# Elastic Constant Matrix: (Units=GPa)
#
#
# Indices 1 2 3 4 5 6 
#
# 1 100.0052 25.9482 23.1859 0.0000 13.9893 0.0000
# 2 25.9482 145.0809 5.3835 0.0000 16.7187 0.0000
# 3 23.1859 5.3835 41.4835 0.0000 1.5591 0.0000
# 4 0.0000 0.0000 0.0000 10.1632 0.0000 -12.4803
# 5 13.9893 16.7187 1.5591 0.0000 34.4092 0.0000
# 6 0.0000 0.0000 0.0000 -12.4803 0.0000 43.0683
#
#
#
# Elastic Compliance Matrix: (Units=1/GPa)
#
#
# Indices 1 2 3 4 5 6 
#
# 1 0.012499 -0.001524 -0.006636 0.000000 -0.004040 0.000000
# 2 -0.001524 0.007515 -0.000010 0.000000 -0.003031 0.000000
# 3 -0.006636 -0.000010 0.027762 0.000000 0.001445 0.000000
# 4 0.000000 0.000000 0.000000 0.152750 0.000000 0.044264
# 5 -0.004040 -0.003031 0.001445 0.000000 0.032112 0.000000
# 6 0.000000 0.000000 0.000000 0.044264 0.000000 0.036046
#
#
# Mechanical properties :
#
#
# Convention : Reuss Voigt Hill
#
# Bulk Modulus (GPa) = 31.81005 43.95607 37.88306
# Shear Modulus (GPa) = 16.92043 32.99827 24.95935
#
# Velocity S-wave (km/s) = 2.75107 3.84185 3.34127
# Velocity P-wave (km/s) = 4.93148 6.27224 5.64183
#
# Compressibility (1/GPa) = 0.03143661
#
# Stress axis : x y z
#
# Youngs Moduli (GPa) = 80.00932 133.06901 36.02047
#
# Poissons Ratio (x) = 0.20274 0.23904
# Poissons Ratio (y) = 0.12190 0.00035
# Poissons Ratio (z) = 0.53095 0.00130
#
# Static dielectric constant tensor:
#      x y z
#    x 4.469250 0.000000 -0.119220 
#    y 0.000000 5.002040 0.000000 
#    z -0.119220 0.000000 3.661760 
# 
# 
# High freq. dielectric constant tensor:
#      x y z
#    x 1.890140 0.000000 -0.011760 
#    y 0.000000 1.901560 0.000000 
#    z -0.011760 0.000000 1.852010 
# 
# From -- ./inp_files/23402.got.cif
#   From: 2010.06.25/outbox.cif.g09.slc.cpg/sg15_12_cif.got.tgz:23402.got - 2010.06.28 07:06:18.
