data_PCOD8140932
_publ_section_title
;
Structure prediction by ZEFSAII (Michael W. Deem and Ramdas Pophale) SiO2 
 PCOD8140932
Probable space group: C 2/C
;
_chemical_formula_sum "Si O2"
_cell_formula_units_Z 60
_cell_length_a 23.228818
_cell_length_b 13.971913
_cell_length_c 8.998743
_cell_angle_alpha 90.000000
_cell_angle_beta 81.364438
_cell_angle_gamma 90.000000
_cell_volume 2887.442071
_symmetry_space_group_name_H-M "C 2/C"
_symmetry_group_IT_number 15
_symmetry_cell_setting 'monoclinic'
loop_
_space_group_symop_operation_xyz
x,y,z
-x,y,1/2-z
-x,-y,-z
x,-y,1/2+z
1/2+x,1/2+y,z
1/2-x,1/2+y,1/2-z
1/2-x,1/2-y,-z
1/2+x,1/2-y,1/2+z
loop_
_atom_site_type_symbol
_atom_site_label
_atom_site_fract_x
_atom_site_fract_y
_atom_site_fract_z
Si Si1 0.094944 0.155921 0.498158
Si Si2 0.112353 0.204817 0.170554
Si Si3 0.500000 0.382787 0.250000
Si Si4 0.902383 0.938476 0.077923
Si Si5 0.208165 0.522246 0.861339
Si Si6 0.665258 0.886339 0.095648
Si Si7 0.752264 0.175610 0.337022
Si Si8 0.191993 0.841742 0.176900
O O1 0.080437 0.199690 0.342500
O O2 0.039858 0.181218 0.624985
O O3 0.152628 0.198459 0.556122
O O4 0.107704 0.042380 0.486126
O O5 0.083620 0.132899 0.064659
O O6 0.109977 0.314106 0.106461
O O7 0.178818 0.178990 0.180844
O O8 0.541777 0.447691 0.336165
O O9 0.846606 0.899197 0.187457
O O10 0.172690 0.588471 0.763648
O O11 0.236209 0.428481 0.772407
O O12 0.260102 0.586039 0.910107
O O13 0.161053 0.484393 0.002536
O O14 0.722502 0.825268 0.015710
O O15 0.723442 0.253100 0.241351
#
# Coordination Sequence:
#
# PCOD8140932 Si02
#       8
#     8   8   4   8   8   8   8   8
#     4  11  25  35  59  84 116 160 209 248 302 364
#     4  12  21  36  58  86 114 161 207 242 294 359
#     4  10  24  44  54  82 120 152 200 274 312 344
#     4  11  21  39  60  85 119 161 208 251 298 362
#     4  10  21  33  54  77 121 170 200 233 292 335
#     4  10  22  36  52  79 120 159 202 240 285 343
#     4  10  21  34  56  79 129 163 198 247 281 343
#     4  11  21  36  55  86 124 169 207 235 290 360
#
# _framework density 20.779637999999998
#
# number of rings (size 3 to 8) (size 9 to 14) (size 15 to 20)
#    0.800    0.533    2.667    4.800    3.733    2.133 
#    0.000    0.000    0.000    0.000    0.000    0.000 
#    0.000   53.333    0.000    0.000    0.000    0.000 
#
# Total GULP energy -371741.887037 kJ/mol
# GULP energy per Si atom -12391.396235 kJ/mol
# Density = 2.073234 g / cm^3
# Si number density = 20.779638 Si / 1000 Ang^3
#
#
#
# Elastic Constant Matrix: (Units=GPa)
#
#
# Indices 1 2 3 4 5 6 
#
# 1 46.0264 17.4054 15.0871 0.0000 11.6391 0.0000
# 2 17.4054 52.5201 6.8394 0.0000 1.5112 0.0000
# 3 15.0871 6.8394 106.6091 0.0000 -3.3452 0.0000
# 4 0.0000 0.0000 0.0000 36.9457 0.0000 2.1582
# 5 11.6391 1.5112 -3.3452 0.0000 30.6321 0.0000
# 6 0.0000 0.0000 0.0000 2.1582 0.0000 9.0625
#
#
#
# Elastic Compliance Matrix: (Units=1/GPa)
#
#
# Indices 1 2 3 4 5 6 
#
# 1 0.029145 -0.008832 -0.003905 0.000000 -0.011065 0.000000
# 2 -0.008832 0.021913 -0.000085 0.000000 0.002265 0.000000
# 3 -0.003905 -0.000085 0.010019 0.000000 0.002582 0.000000
# 4 0.000000 0.000000 0.000000 0.027449 0.000000 -0.006537
# 5 -0.011065 0.002265 0.002582 0.000000 0.037020 0.000000
# 6 0.000000 0.000000 0.000000 -0.006537 0.000000 0.111901
#
#
# Mechanical properties :
#
#
# Convention : Reuss Voigt Hill
#
# Bulk Modulus (GPa) = 28.22197 31.53551 29.87874
# Shear Modulus (GPa) = 18.18837 26.38298 22.28568
#
# Velocity S-wave (km/s) = 2.96175 3.56709 3.27842
# Velocity P-wave (km/s) = 5.03061 5.67227 5.36104
#
# Compressibility (1/GPa) = 0.03543339
#
# Stress axis : x y z
#
# Youngs Moduli (GPa) = 34.31176 45.63488 99.80873
#
# Poissons Ratio (x) = 0.40304 0.38976
# Poissons Ratio (y) = 0.30303 0.00847
# Poissons Ratio (z) = 0.13399 0.00387
#
# Static dielectric constant tensor:
#      x y z
#    x 3.489880 0.000000 -0.096480 
#    y 0.000000 3.842080 0.000000 
#    z -0.096480 0.000000 3.968530 
# 
# 
# High freq. dielectric constant tensor:
#      x y z
#    x 1.768130 0.000000 0.001760 
#    y 0.000000 1.801730 0.000000 
#    z 0.001760 0.000000 1.828590 
# 
# From -- ./inp_files/61570.got.cif
#   From: 2010.06.25/outbox.cif.g09.slc.cpg/sg15_31_cif.got.tgz:61570.got - 2010.06.28 07:06:18.
