data_PCOD8140566
_publ_section_title
;
Structure prediction by ZEFSAII (Michael W. Deem and Ramdas Pophale) SiO2 
 PCOD8140566
Probable space group: C 2/C
;
_chemical_formula_sum "Si O2"
_cell_formula_units_Z 60
_cell_length_a 6.090056
_cell_length_b 17.690043
_cell_length_c 29.786493
_cell_angle_alpha 90.000000
_cell_angle_beta 119.266244
_cell_angle_gamma 90.000000
_cell_volume 2799.393943
_symmetry_space_group_name_H-M "C 2/C"
_symmetry_group_IT_number 15
_symmetry_cell_setting 'monoclinic'
loop_
_space_group_symop_operation_xyz
x,y,z
-x,y,1/2-z
-x,-y,-z
x,-y,1/2+z
1/2+x,1/2+y,z
1/2-x,1/2+y,1/2-z
1/2-x,1/2-y,-z
1/2+x,1/2-y,1/2+z
loop_
_atom_site_type_symbol
_atom_site_label
_atom_site_fract_x
_atom_site_fract_y
_atom_site_fract_z
Si Si1 0.930458 0.066686 0.054424
Si Si2 0.203670 0.083533 0.358634
Si Si3 0.400846 0.680837 0.894593
Si Si4 0.824142 0.683417 0.109119
Si Si5 0.725617 0.931451 0.439770
Si Si6 0.159212 0.081685 0.848718
Si Si7 0.500000 0.316746 0.250000
Si Si8 0.094819 0.771384 0.676698
O O1 0.778687 0.064329 0.086064
O O2 0.064916 0.148255 0.065690
O O3 0.729369 0.059697 0.993990
O O4 0.145762 0.003173 0.071428
O O5 0.468794 0.116141 0.367581
O O6 0.989724 0.142912 0.323462
O O7 0.112901 0.004668 0.327931
O O8 0.596860 0.749910 0.917024
O O9 0.381003 0.643948 0.941842
O O10 0.479759 0.611393 0.870225
O O11 0.136238 0.714967 0.852517
O O12 0.781406 0.726022 0.152150
O O13 0.447046 0.917540 0.393820
O O14 0.096157 0.133112 0.800277
O O15 0.739261 0.260731 0.264953
#
# Coordination Sequence:
#
# PCOD8140566 Si02
#       8
#     8   8   8   8   8   8   4   8
#     4  10  22  38  66  97 135 179 215 262 335 395
#     4  10  22  42  67  95 134 172 216 267 332 398
#     4  11  21  41  66  90 132 172 211 275 327 382
#     4  10  20  42  65  89 132 174 210 269 322 397
#     4  11  22  39  62 101 139 170 219 274 319 401
#     4  12  24  43  65  99 133 168 221 280 328 395
#     4  12  24  46  68  92 128 166 216 274 338 382
#     4  10  23  44  64  94 127 172 216 272 329 394
#
# _framework density 21.433212000000001
#
# number of rings (size 3 to 8) (size 9 to 14) (size 15 to 20)
#    0.000    1.333    5.333    0.000    0.000    2.667 
#    2.400    9.333    0.000    0.000    0.000    0.000 
#    0.000    0.000    0.000    0.000    0.000    0.000 
#
# Total GULP energy -371716.313545 kJ/mol
# GULP energy per Si atom -12390.543785 kJ/mol
# Density = 2.138443 g / cm^3
# Si number density = 21.433212 Si / 1000 Ang^3
#
#
#
# Elastic Constant Matrix: (Units=GPa)
#
#
# Indices 1 2 3 4 5 6 
#
# 1 86.0511 29.9873 33.9288 0.0000 -0.6103 0.0000
# 2 29.9873 133.8076 35.7038 0.0000 8.9842 0.0000
# 3 33.9288 35.7038 95.0324 -0.0001 20.6269 0.0001
# 4 0.0000 0.0000 -0.0001 21.9276 0.0000 5.4090
# 5 -0.6103 8.9842 20.6269 0.0000 14.3250 0.0000
# 6 0.0000 0.0000 0.0001 5.4090 0.0000 41.1332
#
#
#
# Elastic Compliance Matrix: (Units=1/GPa)
#
#
# Indices 1 2 3 4 5 6 
#
# 1 0.015453 -0.002344 -0.007416 0.000000 0.012807 0.000000
# 2 -0.002344 0.008672 -0.001773 0.000000 -0.002986 0.000000
# 3 -0.007416 -0.001773 0.019876 0.000000 -0.027824 0.000000
# 4 0.000000 0.000000 0.000000 0.047134 0.000000 -0.006198
# 5 0.012807 -0.002986 -0.027824 0.000000 0.112290 0.000000
# 6 0.000000 0.000000 0.000000 -0.006198 0.000000 0.025126
#
#
# Mechanical properties :
#
#
# Convention : Reuss Voigt Hill
#
# Bulk Modulus (GPa) = 47.76947 57.12565 52.44756
# Shear Modulus (GPa) = 19.33516 29.82858 24.58187
#
# Velocity S-wave (km/s) = 3.00678 3.73460 3.39027
# Velocity P-wave (km/s) = 5.86432 6.73105 6.31258
#
# Compressibility (1/GPa) = 0.02093387
#
# Stress axis : x y z
#
# Youngs Moduli (GPa) = 64.71312 115.30857 50.31230
#
# Poissons Ratio (x) = 0.27030 0.37312
# Poissons Ratio (y) = 0.15170 0.08922
# Poissons Ratio (z) = 0.47992 0.20447
#
# Static dielectric constant tensor:
#      x y z
#    x 4.041630 0.000000 -0.060960 
#    y 0.000000 4.444720 0.000000 
#    z -0.060960 0.000000 3.571030 
# 
# 
# High freq. dielectric constant tensor:
#      x y z
#    x 1.847660 0.000000 0.001490 
#    y 0.000000 1.871900 0.000000 
#    z 0.001490 0.000000 1.801630 
# 
# From -- ./inp_files/286063.got.cif
#   From: 2010.06.25/outbox.cif.g09.slc.cpg/sg15_144_cif.got.tgz:286063.got - 2010.06.28 07:06:18.
