data_PCOD8140172
_publ_section_title
;
Structure prediction by ZEFSAII (Michael W. Deem and Ramdas Pophale) SiO2 
 PCOD8140172
Probable space group: C 2/C
;
_chemical_formula_sum "Si O2"
_cell_formula_units_Z 56
_cell_length_a 9.165714
_cell_length_b 17.690197
_cell_length_c 27.002402
_cell_angle_alpha 90.000000
_cell_angle_beta 144.209311
_cell_angle_gamma 90.000000
_cell_volume 2560.518630
_symmetry_space_group_name_H-M "C 2/C"
_symmetry_group_IT_number 15
_symmetry_cell_setting 'monoclinic'
loop_
_space_group_symop_operation_xyz
x,y,z
-x,y,1/2-z
-x,-y,-z
x,-y,1/2+z
1/2+x,1/2+y,z
1/2-x,1/2+y,1/2-z
1/2-x,1/2-y,-z
1/2+x,1/2-y,1/2+z
loop_
_atom_site_type_symbol
_atom_site_label
_atom_site_fract_x
_atom_site_fract_y
_atom_site_fract_z
Si Si1 0.008762 0.590229 0.564087
Si Si2 0.259121 0.680706 0.466780
Si Si3 0.787096 0.050771 0.546346
Si Si4 0.781259 0.819217 0.729587
Si Si5 0.513656 0.677363 0.439733
Si Si6 0.229064 0.940073 0.686535
Si Si7 0.221489 0.702662 0.689307
O O1 0.919779 0.503243 0.536864
O O2 0.773689 0.644268 0.493271
O O3 0.185847 0.599940 0.564908
O O4 0.153220 0.614506 0.655820
O O5 0.250000 0.750000 0.500000
O O6 0.358631 0.607683 0.522966
O O7 0.479215 0.695023 0.487934
O O8 0.985418 0.671227 0.368895
O O9 0.029596 0.007269 0.632855
O O10 0.808423 0.888647 0.775132
O O11 0.807593 0.735420 0.763036
O O12 0.000000 0.825989 0.750000
O O13 0.303939 0.615269 0.369333
O O14 0.476632 0.754342 0.399784
O O15 0.500000 0.976079 0.750000
O O16 0.500000 0.722315 0.750000
#
# Coordination Sequence:
#
# PCOD8140172 Si02
#       7
#     8   8   8   8   8   8   8
#     4  10  23  41  66  94 134 172 221 276 333 407
#     4  12  25  43  66  95 136 174 224 282 335 400
#     4  10  25  43  65 102 132 173 224 277 338 407
#     4  11  25  41  67 100 134 175 227 281 336 395
#     4  10  20  40  68  93 126 182 217 267 334 406
#     4  10  20  46  69  95 136 178 221 274 338 410
#     4  11  21  42  65  96 131 173 227 273 334 397
#
# _framework density 21.870569
#
# number of rings (size 3 to 8) (size 9 to 14) (size 15 to 20)
#    0.000    1.429    2.857    2.143   10.000    2.286 
#    2.571    0.714    0.000    0.000    0.000    0.000 
#    0.000    0.000    0.000    0.000    0.000    0.000 
#
# Total GULP energy -346926.449042 kJ/mol
# GULP energy per Si atom -12390.230323 kJ/mol
# Density = 2.182079 g / cm^3
# Si number density = 21.870569 Si / 1000 Ang^3
#
#
#
# Elastic Constant Matrix: (Units=GPa)
#
#
# Indices 1 2 3 4 5 6 
#
# 1 152.3903 48.8725 44.6066 -0.0002 2.5260 0.0001
# 2 48.8725 89.6863 54.4981 -0.0005 -3.5589 -0.0001
# 3 44.6066 54.4981 86.4664 -0.0012 -8.8999 -0.0003
# 4 -0.0002 -0.0005 -0.0012 31.1274 -0.0002 -2.3447
# 5 2.5260 -3.5589 -8.8999 -0.0002 23.2355 0.0002
# 6 0.0001 -0.0001 -0.0003 -2.3447 0.0002 26.7884
#
#
#
# Elastic Compliance Matrix: (Units=1/GPa)
#
#
# Indices 1 2 3 4 5 6 
#
# 1 0.008349 -0.003043 -0.002634 0.000000 -0.002383 0.000000
# 2 -0.003043 0.019242 -0.010640 0.000000 -0.000797 0.000000
# 3 -0.002634 -0.010640 0.020292 0.000001 0.006429 0.000000
# 4 0.000000 0.000000 0.000001 0.032339 0.000000 0.002831
# 5 -0.002383 -0.000797 0.006429 0.000000 0.045637 0.000000
# 6 0.000000 0.000000 0.000000 0.002831 0.000000 0.037577
#
#
# Mechanical properties :
#
#
# Convention : Reuss Voigt Hill
#
# Bulk Modulus (GPa) = 65.58238 69.38861 67.48549
# Shear Modulus (GPa) = 24.85662 28.26799 26.56230
#
# Velocity S-wave (km/s) = 3.37491 3.59905 3.48878
# Velocity P-wave (km/s) = 6.72595 7.00476 6.86677
#
# Compressibility (1/GPa) = 0.01524800
#
# Stress axis : x y z
#
# Youngs Moduli (GPa) = 119.78020 51.96911 49.28070
#
# Poissons Ratio (x) = 0.15816 0.12980
# Poissons Ratio (y) = 0.36454 0.52435
# Poissons Ratio (z) = 0.31550 0.55295
#
# Static dielectric constant tensor:
#      x y z
#    x 3.896570 0.000000 -0.021560 
#    y 0.000000 4.017560 0.000000 
#    z -0.021560 0.000000 4.190630 
# 
# 
# High freq. dielectric constant tensor:
#      x y z
#    x 1.861010 0.000000 0.009450 
#    y 0.000000 1.855770 0.000000 
#    z 0.009450 0.000000 1.865440 
# 
# From -- ./inp_files/289761.got.cif
#   From: 2010.06.25/outbox.cif.g09.slc.cpg/sg15_145_cif.got.tgz:289761.got - 2010.06.28 07:06:18.
