data_PCOD8140895
_publ_section_title
;
Structure prediction by ZEFSAII (Michael W. Deem and Ramdas Pophale) SiO2 
 PCOD8140895
Probable space group: C 2/C
;
_chemical_formula_sum "Si O2"
_cell_formula_units_Z 44
_cell_length_a 8.760499
_cell_length_b 28.305255
_cell_length_c 8.409853
_cell_angle_alpha 90.000000
_cell_angle_beta 69.207940
_cell_angle_gamma 90.000000
_cell_volume 1949.565407
_symmetry_space_group_name_H-M "C 2/C"
_symmetry_group_IT_number 15
_symmetry_cell_setting 'monoclinic'
loop_
_space_group_symop_operation_xyz
x,y,z
-x,y,1/2-z
-x,-y,-z
x,-y,1/2+z
1/2+x,1/2+y,z
1/2-x,1/2+y,1/2-z
1/2-x,1/2-y,-z
1/2+x,1/2-y,1/2+z
loop_
_atom_site_type_symbol
_atom_site_label
_atom_site_fract_x
_atom_site_fract_y
_atom_site_fract_z
Si Si1 0.931965 0.301433 0.952252
Si Si2 0.000000 0.497148 0.750000
Si Si3 0.231132 0.465452 0.906296
Si Si4 0.500000 0.851041 0.250000
Si Si5 0.431954 0.307602 0.447582
Si Si6 0.000000 0.041707 0.750000
Si Si7 0.154507 0.111841 0.942560
O O1 0.937815 0.246444 0.000581
O O2 0.000000 0.309972 0.750000
O O3 0.753904 0.323913 0.997142
O O4 0.022899 0.323488 0.072026
O O5 0.139751 0.463645 0.771889
O O6 0.087946 0.530632 0.590491
O O7 0.355059 0.509190 0.871124
O O8 0.320305 0.415119 0.898533
O O9 0.669614 0.878821 0.203944
O O10 0.500000 0.315059 0.250000
O O11 0.544911 0.341346 0.516497
O O12 0.940123 0.074547 0.630788
#
# Coordination Sequence:
#
# PCOD8140895 Si02
#       7
#     8   4   8   4   8   4   8
#     4  10  23  46  75 104 140 188 234 283 370 424
#     4  10  23  44  70  92 133 185 230 284 348 417
#     4  11  24  45  68  99 133 188 230 287 353 412
#     4  12  25  46  71 106 142 190 227 302 360 431
#     4  10  20  46  72 101 142 184 227 297 350 426
#     4  12  24  44  71  96 137 189 231 288 348 422
#     4  12  24  43  71 101 141 185 238 285 363 413
#
# _framework density 22.569130999999999
#
# number of rings (size 3 to 8) (size 9 to 14) (size 15 to 20)
#    0.000    1.091    4.545    1.091    2.545    0.727 
#    4.909    0.000    0.000    0.000    0.000    0.000 
#    0.000    0.000    0.000    0.000    0.000    0.000 
#
# Total GULP energy -272589.747014 kJ/mol
# GULP energy per Si atom -12390.443046 kJ/mol
# Density = 2.251776 g / cm^3
# Si number density = 22.569131 Si / 1000 Ang^3
#
#
#
# Elastic Constant Matrix: (Units=GPa)
#
#
# Indices 1 2 3 4 5 6 
#
# 1 162.3428 65.8750 32.0774 0.0000 1.3430 0.0000
# 2 65.8750 98.9963 7.2147 0.0000 11.4455 0.0000
# 3 32.0774 7.2147 51.1230 0.0000 11.7509 0.0000
# 4 0.0000 0.0000 0.0000 30.4049 0.0000 3.3033
# 5 1.3430 11.4455 11.7509 0.0000 47.0865 0.0000
# 6 0.0000 0.0000 0.0000 3.3033 0.0000 25.1377
#
#
#
# Elastic Compliance Matrix: (Units=1/GPa)
#
#
# Indices 1 2 3 4 5 6 
#
# 1 0.009960 -0.006515 -0.005971 0.000000 0.002790 0.000000
# 2 -0.006515 0.014698 0.002962 0.000000 -0.004126 0.000000
# 3 -0.005971 0.002962 0.024416 0.000000 -0.006643 0.000000
# 4 0.000000 0.000000 0.000000 0.033366 0.000000 -0.004385
# 5 0.002790 -0.004126 -0.006643 0.000000 0.023819 0.000000
# 6 0.000000 0.000000 0.000000 -0.004385 0.000000 0.040357
#
#
# Mechanical properties :
#
#
# Convention : Reuss Voigt Hill
#
# Bulk Modulus (GPa) = 33.30482 58.08847 45.69664
# Shear Modulus (GPa) = 28.46179 34.34548 31.40363
#
# Velocity S-wave (km/s) = 3.55504 3.90524 3.73425
# Velocity P-wave (km/s) = 5.62494 6.79179 6.23572
#
# Compressibility (1/GPa) = 0.03002569
#
# Stress axis : x y z
#
# Youngs Moduli (GPa) = 100.39772 68.03646 40.95605
#
# Poissons Ratio (x) = 0.44328 0.24457
# Poissons Ratio (y) = 0.65412 -0.12132
# Poissons Ratio (z) = 0.59952 -0.20154
#
# Static dielectric constant tensor:
#      x y z
#    x 4.516700 0.000000 0.155730 
#    y 0.000000 4.398840 0.000000 
#    z 0.155730 0.000000 3.937850 
# 
# 
# High freq. dielectric constant tensor:
#      x y z
#    x 1.912480 0.000000 -0.004550 
#    y 0.000000 1.881670 0.000000 
#    z -0.004550 0.000000 1.879230 
# 
# From -- ./inp_files/25489.got.cif
#   From: 2010.06.25/outbox.cif.g09.slc.cpg/sg15_13_cif.got.tgz:25489.got - 2010.06.28 07:06:18.
