data_PCOD8140857
_publ_section_title
;
Structure prediction by ZEFSAII (Michael W. Deem and Ramdas Pophale) SiO2 
 PCOD8140857
Probable space group: C 2/C
;
_chemical_formula_sum "Si O2"
_cell_formula_units_Z 56
_cell_length_a 13.895314
_cell_length_b 26.760368
_cell_length_c 13.957507
_cell_angle_alpha 90.000000
_cell_angle_beta 28.639263
_cell_angle_gamma 90.000000
_cell_volume 2487.538146
_symmetry_space_group_name_H-M "C 2/C"
_symmetry_group_IT_number 15
_symmetry_cell_setting 'monoclinic'
loop_
_space_group_symop_operation_xyz
x,y,z
-x,y,1/2-z
-x,-y,-z
x,-y,1/2+z
1/2+x,1/2+y,z
1/2-x,1/2+y,1/2-z
1/2-x,1/2-y,-z
1/2+x,1/2-y,1/2+z
loop_
_atom_site_type_symbol
_atom_site_label
_atom_site_fract_x
_atom_site_fract_y
_atom_site_fract_z
Si Si1 0.615593 0.571639 0.518916
Si Si2 0.253958 0.820961 0.660776
Si Si3 0.553108 0.418275 0.864546
Si Si4 0.000000 0.626656 0.250000
Si Si5 0.695546 0.212612 0.764705
Si Si6 0.000000 0.013347 0.250000
Si Si7 0.159048 0.837401 0.180339
Si Si8 0.733179 0.148713 0.558663
O O1 0.551567 0.553771 0.467819
O O2 0.636797 0.521594 0.563656
O O3 0.435631 0.607924 0.713046
O O4 0.836645 0.595558 0.332243
O O5 0.188791 0.870265 0.774287
O O6 0.490459 0.816586 0.460132
O O7 0.154530 0.771763 0.794911
O O8 0.175294 0.831951 0.621621
O O9 0.636177 0.453155 0.705089
O O10 0.335596 0.400769 0.013564
O O11 0.875487 0.658626 0.438238
O O12 0.835558 0.197280 0.730636
O O13 0.785910 0.194115 0.584940
O O14 0.000000 0.809561 0.250000
O O15 0.500000 0.136703 0.750000
#
# Coordination Sequence:
#
# PCOD8140857 Si02
#       8
#     8   8   8   4   8   4   8   8
#     4  11  23  44  73 100 136 183 222 289 347 400
#     4  11  23  39  64  99 135 179 218 278 334 410
#     4  12  23  43  71  94 140 176 226 276 349 399
#     4  10  20  44  72 101 138 173 228 282 344 398
#     4  11  22  39  67  99 136 178 231 263 343 412
#     4  12  24  46  68 101 130 183 230 280 348 406
#     4  10  21  42  72  97 136 180 227 286 336 395
#     4  10  21  39  63  97 135 178 215 276 335 407
#
# _framework density 22.512217
#
# number of rings (size 3 to 8) (size 9 to 14) (size 15 to 20)
#    0.000    1.143    5.000    2.571    0.000    2.286 
#    1.286    1.429    1.571    0.857    0.000    0.000 
#    0.000    0.000    0.000    0.000    0.000    0.000 
#
# Total GULP energy -346967.194960 kJ/mol
# GULP energy per Si atom -12391.685534 kJ/mol
# Density = 2.246098 g / cm^3
# Si number density = 22.512217 Si / 1000 Ang^3
#
#
#
# Elastic Constant Matrix: (Units=GPa)
#
#
# Indices 1 2 3 4 5 6 
#
# 1 169.9664 53.2862 33.7104 0.0013 14.6844 -0.0150
# 2 53.2862 101.5578 30.5990 0.0068 5.2269 -0.0041
# 3 33.7104 30.5990 62.6354 -0.0028 4.4479 -0.0028
# 4 0.0013 0.0068 -0.0028 15.1927 0.0091 8.5044
# 5 14.6844 5.2269 4.4479 0.0091 35.4340 0.0106
# 6 -0.0150 -0.0041 -0.0028 8.5044 0.0106 27.1411
#
#
#
# Elastic Compliance Matrix: (Units=1/GPa)
#
#
# Indices 1 2 3 4 5 6 
#
# 1 0.007535 -0.003120 -0.002363 -0.000001 -0.002366 0.000005
# 2 -0.003120 0.012873 -0.004608 -0.000008 -0.000028 0.000002
# 3 -0.002363 -0.004608 0.019545 0.000007 -0.000794 -0.000002
# 4 -0.000001 -0.000008 0.000007 0.079822 -0.000012 -0.025011
# 5 -0.002366 -0.000028 -0.000794 -0.000012 0.029306 -0.000009
# 6 0.000005 0.000002 -0.000002 -0.025011 -0.000009 0.044682
#
#
# Mechanical properties :
#
#
# Convention : Reuss Voigt Hill
#
# Bulk Modulus (GPa) = 50.57858 63.26123 56.91990
# Shear Modulus (GPa) = 22.67229 29.99115 26.33172
#
# Velocity S-wave (km/s) = 3.17694 3.65391 3.42374
# Velocity P-wave (km/s) = 5.99777 6.77962 6.40065
#
# Compressibility (1/GPa) = 0.01977122
#
# Stress axis : x y z
#
# Youngs Moduli (GPa) = 132.72090 77.68070 51.16451
#
# Poissons Ratio (x) = 0.24233 0.12091
# Poissons Ratio (y) = 0.41403 0.23577
# Poissons Ratio (z) = 0.31364 0.35795
#
# Static dielectric constant tensor:
#      x y z
#    x 4.354840 -0.000030 0.214670 
#    y -0.000030 3.913500 0.000000 
#    z 0.214670 0.000000 3.982480 
# 
# 
# High freq. dielectric constant tensor:
#      x y z
#    x 1.910020 0.000000 0.011790 
#    y 0.000000 1.866620 0.000000 
#    z 0.011790 0.000000 1.880380 
# 
# From -- ./inp_files/156927.got.cif
#   From: 2010.06.25/outbox.cif.g09.slc.cpg/sg15_79_cif.got.tgz:156927.got - 2010.06.28 07:06:18.
