data_PCOD8140069
_publ_section_title
;
Structure prediction by ZEFSAII (Michael W. Deem and Ramdas Pophale) SiO2 
 PCOD8140069
Probable space group: C 2/C
;
_chemical_formula_sum "Si O2"
_cell_formula_units_Z 56
_cell_length_a 28.082102
_cell_length_b 11.172637
_cell_length_c 23.060379
_cell_angle_alpha 90.000000
_cell_angle_beta 159.370538
_cell_angle_gamma 90.000000
_cell_volume 2549.133928
_symmetry_space_group_name_H-M "C 2/C"
_symmetry_group_IT_number 15
_symmetry_cell_setting 'monoclinic'
loop_
_space_group_symop_operation_xyz
x,y,z
-x,y,1/2-z
-x,-y,-z
x,-y,1/2+z
1/2+x,1/2+y,z
1/2-x,1/2+y,1/2-z
1/2-x,1/2-y,-z
1/2+x,1/2-y,1/2+z
loop_
_atom_site_type_symbol
_atom_site_label
_atom_site_fract_x
_atom_site_fract_y
_atom_site_fract_z
Si Si1 0.825019 0.384605 0.763869
Si Si2 0.687970 0.779345 0.024032
Si Si3 0.224536 0.135658 0.628900
Si Si4 0.693734 0.412324 0.441716
Si Si5 0.854896 0.837379 0.589999
Si Si6 0.978999 0.682605 0.552994
Si Si7 0.529286 0.040851 0.180797
O O1 0.741107 0.268270 0.646777
O O2 0.732425 0.502696 0.664029
O O3 0.888858 0.369352 0.899014
O O4 0.940884 0.403143 0.848088
O O5 0.806723 0.833802 0.117944
O O6 0.586640 0.886190 0.919563
O O7 0.626332 0.666751 0.917046
O O8 0.204113 0.120324 0.537773
O O9 0.096202 0.197608 0.512266
O O10 0.369257 0.206253 0.799227
O O11 0.617955 0.538349 0.343439
O O12 0.844972 0.452221 0.632654
O O13 0.750000 0.750000 0.500000
O O14 0.000000 0.771231 0.750000
O O15 0.981890 0.594975 0.612579
#
# Coordination Sequence:
#
# PCOD8140069 Si02
#       7
#     8   8   8   8   8   8   8
#     4  10  23  42  64  95 130 176 219 274 328 387
#     4  10  21  38  65  92 129 166 221 271 325 392
#     4  11  23  49  62  99 131 173 220 271 331 389
#     4  10  22  42  59  98 126 170 217 273 332 391
#     4  12  26  42  66  94 132 175 212 270 331 394
#     4  11  24  41  73  92 134 177 223 269 324 394
#     4  10  20  40  66  88 127 172 221 265 332 392
#
# _framework density 21.968245
#
# number of rings (size 3 to 8) (size 9 to 14) (size 15 to 20)
#    0.000    1.429    4.286    3.000    6.000    3.429 
#    0.000    0.714    0.000    0.000    0.000    0.000 
#    0.000    0.000    0.000    0.000    0.000    0.000 
#
# Total GULP energy -347029.041464 kJ/mol
# GULP energy per Si atom -12393.894338 kJ/mol
# Density = 2.191824 g / cm^3
# Si number density = 21.968245 Si / 1000 Ang^3
#
#
#
# Elastic Constant Matrix: (Units=GPa)
#
#
# Indices 1 2 3 4 5 6 
#
# 1 41.0653 27.0150 11.9330 -0.0014 1.9630 -0.0003
# 2 27.0150 76.9455 20.1814 -0.0017 0.8605 0.0000
# 3 11.9330 20.1814 79.4304 -0.0018 -2.4782 -0.0005
# 4 -0.0014 -0.0017 -0.0018 31.9925 -0.0017 5.8626
# 5 1.9630 0.8605 -2.4782 -0.0017 33.2210 -0.0004
# 6 -0.0003 0.0000 -0.0005 5.8626 -0.0004 30.6492
#
#
#
# Elastic Compliance Matrix: (Units=1/GPa)
#
#
# Indices 1 2 3 4 5 6 
#
# 1 0.032091 -0.010680 -0.002163 0.000001 -0.001781 0.000000
# 2 -0.010680 0.017491 -0.002841 0.000000 -0.000034 0.000000
# 3 -0.002163 -0.002841 0.013674 0.000001 0.001221 0.000000
# 4 0.000001 0.000000 0.000001 0.032393 0.000002 -0.006196
# 5 -0.001781 -0.000034 0.001221 0.000002 0.030299 0.000000
# 6 0.000000 0.000000 0.000000 -0.006196 0.000000 0.033812
#
#
# Mechanical properties :
#
#
# Convention : Reuss Voigt Hill
#
# Bulk Modulus (GPa) = 31.35832 35.07777 33.21805
# Shear Modulus (GPa) = 24.78228 28.39334 26.58781
#
# Velocity S-wave (km/s) = 3.36236 3.59900 3.48269
# Velocity P-wave (km/s) = 5.42027 5.76823 5.59696
#
# Compressibility (1/GPa) = 0.03188946
#
# Stress axis : x y z
#
# Youngs Moduli (GPa) = 31.16162 57.17173 73.12883
#
# Poissons Ratio (x) = 0.61057 0.15819
# Poissons Ratio (y) = 0.33279 0.20774
# Poissons Ratio (z) = 0.06741 0.16241
#
# Static dielectric constant tensor:
#      x y z
#    x 4.033260 0.000000 -0.042450 
#    y 0.000000 4.195260 -0.000010 
#    z -0.042450 -0.000010 4.096150 
# 
# 
# High freq. dielectric constant tensor:
#      x y z
#    x 1.850090 0.000000 -0.001730 
#    y 0.000000 1.867550 0.000000 
#    z -0.001730 0.000000 1.858590 
# 
# From -- ./inp_files/284648.got.cif
#   From: 2010.06.25/outbox.cif.g09.slc.cpg/sg15_143_cif.got.tgz:284648.got - 2010.06.28 07:06:18.
