data_PCOD8140847
_publ_section_title
;
Structure prediction by ZEFSAII (Michael W. Deem and Ramdas Pophale) SiO2 
 PCOD8140847
Probable space group: C 2/C
;
_chemical_formula_sum "Si O2"
_cell_formula_units_Z 64
_cell_length_a 15.948160
_cell_length_b 16.109379
_cell_length_c 12.079962
_cell_angle_alpha 90.000000
_cell_angle_beta 90.716303
_cell_angle_gamma 90.000000
_cell_volume 3103.280348
_symmetry_space_group_name_H-M "C 2/C"
_symmetry_group_IT_number 15
_symmetry_cell_setting 'monoclinic'
loop_
_space_group_symop_operation_xyz
x,y,z
-x,y,1/2-z
-x,-y,-z
x,-y,1/2+z
1/2+x,1/2+y,z
1/2-x,1/2+y,1/2-z
1/2-x,1/2-y,-z
1/2+x,1/2-y,1/2+z
loop_
_atom_site_type_symbol
_atom_site_label
_atom_site_fract_x
_atom_site_fract_y
_atom_site_fract_z
Si Si1 0.201683 0.976271 0.056450
Si Si2 0.882343 0.276657 0.991489
Si Si3 0.630755 0.956648 0.032948
Si Si4 0.572315 0.390946 0.908083
Si Si5 0.746749 0.691578 0.658767
Si Si6 0.013684 0.415358 0.625450
Si Si7 0.890127 0.119546 0.339303
Si Si8 0.694458 0.779520 0.101047
O O1 0.206633 0.899428 0.141312
O O2 0.184914 0.059882 0.124210
O O3 0.125921 0.962552 0.968323
O O4 0.288045 0.987974 0.992128
O O5 0.929779 0.191074 0.016953
O O6 0.838594 0.309216 0.103417
O O7 0.810383 0.262681 0.898224
O O8 0.950754 0.341266 0.949414
O O9 0.653332 0.868284 0.083411
O O10 0.577390 0.006824 0.123647
O O11 0.576279 0.944105 0.921600
O O12 0.615860 0.371821 0.792230
O O13 0.477113 0.419802 0.884634
O O14 0.749179 0.714355 0.787792
O O15 0.000000 0.384452 0.750000
O O16 0.878771 0.211766 0.387159
O O17 0.750000 0.750000 0.000000
#
# Coordination Sequence:
#
# PCOD8140847 Si02
#       8
#     8   8   8   8   8   8   8   8
#     4  11  23  42  68  93 133 172 226 268 326 402
#     4  10  20  44  69  92 129 173 225 267 328 404
#     4  11  26  42  61  98 135 176 217 274 339 394
#     4  10  23  42  66  99 126 176 218 275 330 397
#     4  10  23  40  69  97 124 175 222 271 331 398
#     4  11  26  43  68  98 134 175 223 277 335 401
#     4  11  23  41  68  94 131 172 221 274 337 394
#     4  12  25  41  65 101 134 171 223 281 332 391
#
# _framework density 20.623338
#
# number of rings (size 3 to 8) (size 9 to 14) (size 15 to 20)
#    0.000    1.250    3.750    1.125    5.250    0.000 
#    2.250    0.000    5.500    0.000    0.000    0.000 
#    0.000    0.000    0.000    0.000    0.000    0.000 
#
# Total GULP energy -396920.414149 kJ/mol
# GULP energy per Si atom -12403.762942 kJ/mol
# Density = 2.057640 g / cm^3
# Si number density = 20.623338 Si / 1000 Ang^3
#
#
#
# Elastic Constant Matrix: (Units=GPa)
#
#
# Indices 1 2 3 4 5 6 
#
# 1 77.3275 25.7774 39.4796 0.0000 5.2647 0.0000
# 2 25.7774 100.3161 31.4686 0.0000 0.1903 0.0000
# 3 39.4796 31.4686 126.4955 0.0000 -3.7163 0.0000
# 4 0.0000 0.0000 0.0000 26.6079 0.0000 -0.7507
# 5 5.2647 0.1903 -3.7163 0.0000 24.0707 0.0000
# 6 0.0000 0.0000 0.0000 -0.7507 0.0000 32.4969
#
#
#
# Elastic Compliance Matrix: (Units=1/GPa)
#
#
# Indices 1 2 3 4 5 6 
#
# 1 0.016493 -0.002794 -0.004579 0.000000 -0.004292 0.000000
# 2 -0.002794 0.011292 -0.001931 0.000000 0.000224 0.000000
# 3 -0.004579 -0.001931 0.009889 0.000000 0.002544 0.000000
# 4 0.000000 0.000000 0.000000 0.037607 0.000000 0.000869
# 5 -0.004292 0.000224 0.002544 0.000000 0.042874 0.000000
# 6 0.000000 0.000000 0.000000 0.000869 0.000000 0.030792
#
#
# Mechanical properties :
#
#
# Convention : Reuss Voigt Hill
#
# Bulk Modulus (GPa) = 52.44291 55.28783 53.86537
# Shear Modulus (GPa) = 28.75059 30.46268 29.60664
#
# Velocity S-wave (km/s) = 3.73779 3.84747 3.79303
# Velocity P-wave (km/s) = 6.64170 6.82671 6.73484
#
# Compressibility (1/GPa) = 0.01906836
#
# Stress axis : x y z
#
# Youngs Moduli (GPa) = 60.63124 88.56199 101.11813
#
# Poissons Ratio (x) = 0.24741 0.46299
# Poissons Ratio (y) = 0.16938 0.19521
# Poissons Ratio (z) = 0.27761 0.17097
#
# Static dielectric constant tensor:
#      x y z
#    x 3.712320 0.000000 0.071970 
#    y 0.000000 3.733680 0.000000 
#    z 0.071970 0.000000 3.646880 
# 
# 
# High freq. dielectric constant tensor:
#      x y z
#    x 1.807920 0.000000 0.004240 
#    y 0.000000 1.815240 0.000000 
#    z 0.004240 0.000000 1.801450 
# 
# From -- ./inp_files/105726.got.cif
#   From: 2010.06.25/outbox.cif.g09.slc.cpg/sg15_53_cif.got.tgz:105726.got - 2010.06.28 07:06:18.
