data_PCOD8140996
_publ_section_title
;
Structure prediction by ZEFSAII (Michael W. Deem and Ramdas Pophale) SiO2 
 PCOD8140996
Probable space group: C 2/C
;
_chemical_formula_sum "Si O2"
_cell_formula_units_Z 56
_cell_length_a 16.071018
_cell_length_b 16.263325
_cell_length_c 18.850951
_cell_angle_alpha 90.000000
_cell_angle_beta 142.674102
_cell_angle_gamma 90.000000
_cell_volume 2987.499686
_symmetry_space_group_name_H-M "C 2/C"
_symmetry_group_IT_number 15
_symmetry_cell_setting 'monoclinic'
loop_
_space_group_symop_operation_xyz
x,y,z
-x,y,1/2-z
-x,-y,-z
x,-y,1/2+z
1/2+x,1/2+y,z
1/2-x,1/2+y,1/2-z
1/2-x,1/2-y,-z
1/2+x,1/2-y,1/2+z
loop_
_atom_site_type_symbol
_atom_site_label
_atom_site_fract_x
_atom_site_fract_y
_atom_site_fract_z
Si Si1 0.462213 0.627358 0.001733
Si Si2 0.974856 0.452718 0.909564
Si Si3 0.866378 0.306631 0.912202
Si Si4 0.871521 0.495345 0.115728
Si Si5 0.288451 0.529030 0.364866
Si Si6 0.375086 0.814061 0.076703
Si Si7 0.048098 0.828816 0.708974
O O1 0.621624 0.610177 0.090032
O O2 0.456819 0.632662 0.083890
O O3 0.403846 0.710977 0.927440
O O4 0.373378 0.554114 0.909470
O O5 0.955037 0.356474 0.914429
O O6 0.840187 0.482216 0.775408
O O7 0.108075 0.466312 0.949121
O O8 0.000000 0.500000 0.000000
O O9 0.706814 0.330836 0.796321
O O10 0.905268 0.338526 0.016256
O O11 0.746852 0.535677 0.074997
O O12 0.848244 0.397079 0.101139
O O13 0.000000 0.518800 0.250000
O O14 0.511710 0.767631 0.195372
O O15 0.250000 0.750000 0.000000
O O16 0.000000 0.874385 0.750000
#
# Coordination Sequence:
#
# PCOD8140996 Si02
#       7
#     8   8   8   8   8   8   8
#     4  10  23  38  60  85 123 160 189 242 305 359
#     4  11  22  39  59  87 117 156 199 248 286 344
#     4  11  22  35  55  85 118 152 199 237 289 351
#     4  10  21  34  57  79 114 152 195 236 291 354
#     4  10  22  41  58  87 120 159 194 240 304 357
#     4  11  20  31  52  87 116 147 184 235 304 356
#     4  11  21  32  54  88 121 152 187 240 295 362
#
# _framework density 18.744772000000001
#
# number of rings (size 3 to 8) (size 9 to 14) (size 15 to 20)
#    0.000    1.429    4.286    2.143    4.000    0.000 
#    0.000    0.714    0.000    0.000    0.000    0.000 
#    0.000    0.000    0.000    0.000    0.000    0.000 
#
# Total GULP energy -346921.223611 kJ/mol
# GULP energy per Si atom -12390.043700 kJ/mol
# Density = 1.870211 g / cm^3
# Si number density = 18.744772 Si / 1000 Ang^3
#
#
#
# Elastic Constant Matrix: (Units=GPa)
#
#
# Indices 1 2 3 4 5 6 
#
# 1 119.9550 40.3356 19.5381 0.0004 -9.4768 0.0001
# 2 40.3356 70.4816 9.0785 0.0004 -4.3856 0.0002
# 3 19.5381 9.0785 51.5165 0.0013 -8.0604 0.0006
# 4 0.0004 0.0004 0.0013 23.5822 0.0005 -0.8448
# 5 -9.4768 -4.3856 -8.0604 0.0005 28.8387 0.0002
# 6 0.0001 0.0002 0.0006 -0.8448 0.0002 30.9049
#
#
#
# Elastic Compliance Matrix: (Units=1/GPa)
#
#
# Indices 1 2 3 4 5 6 
#
# 1 0.010877 -0.005743 -0.002814 0.000000 0.001915 0.000000
# 2 -0.005743 0.017618 -0.000839 0.000000 0.000557 0.000000
# 3 -0.002814 -0.000839 0.021397 -0.000001 0.004928 0.000000
# 4 0.000000 0.000000 -0.000001 0.042446 -0.000001 0.001160
# 5 0.001915 0.000557 0.004928 -0.000001 0.036767 0.000000
# 6 0.000000 0.000000 0.000000 0.001160 0.000000 0.032389
#
#
# Mechanical properties :
#
#
# Convention : Reuss Voigt Hill
#
# Bulk Modulus (GPa) = 32.15451 42.20640 37.18046
# Shear Modulus (GPa) = 26.22556 28.19856 27.21206
#
# Velocity S-wave (km/s) = 3.74449 3.88279 3.81427
# Velocity P-wave (km/s) = 5.99050 6.53197 6.26709
#
# Compressibility (1/GPa) = 0.03109983
#
# Stress axis : x y z
#
# Youngs Moduli (GPa) = 91.93524 56.76105 46.73480
#
# Poissons Ratio (x) = 0.32600 0.13149
# Poissons Ratio (y) = 0.52802 0.03922
# Poissons Ratio (z) = 0.25867 0.04764
#
# Static dielectric constant tensor:
#      x y z
#    x 3.881210 0.000000 -0.041790 
#    y 0.000000 3.305920 0.000000 
#    z -0.041790 0.000000 3.512140 
# 
# 
# High freq. dielectric constant tensor:
#      x y z
#    x 1.729880 0.000000 -0.003310 
#    y 0.000000 1.702770 0.000000 
#    z -0.003310 0.000000 1.731660 
# 
# From -- ./inp_files/206287.got.cif
#   From: 2010.06.25/outbox.cif.g09.slc.cpg/sg15_104_cif.got.tgz:206287.got - 2010.06.28 07:06:18.
