data_PCOD8140301
_publ_section_title
;
Structure prediction by ZEFSAII (Michael W. Deem and Ramdas Pophale) SiO2 
 PCOD8140301
Probable space group: C 2/C
;
_chemical_formula_sum "Si O2"
_cell_formula_units_Z 60
_cell_length_a 27.621341
_cell_length_b 13.370707
_cell_length_c 7.887845
_cell_angle_alpha 90.000000
_cell_angle_beta 92.432216
_cell_angle_gamma 90.000000
_cell_volume 2910.489780
_symmetry_space_group_name_H-M "C 2/C"
_symmetry_group_IT_number 15
_symmetry_cell_setting 'monoclinic'
loop_
_space_group_symop_operation_xyz
x,y,z
-x,y,1/2-z
-x,-y,-z
x,-y,1/2+z
1/2+x,1/2+y,z
1/2-x,1/2+y,1/2-z
1/2-x,1/2-y,-z
1/2+x,1/2-y,1/2+z
loop_
_atom_site_type_symbol
_atom_site_label
_atom_site_fract_x
_atom_site_fract_y
_atom_site_fract_z
Si Si1 0.672598 0.718057 0.488063
Si Si2 0.259155 0.869449 0.848789
Si Si3 0.962090 0.702105 0.895114
Si Si4 0.084197 0.881824 0.106035
Si Si5 0.634377 0.113714 0.738837
Si Si6 0.553694 0.587116 0.228836
Si Si7 0.500000 0.747813 0.750000
Si Si8 0.189889 0.459022 0.944862
O O1 0.713763 0.765673 0.611221
O O2 0.701026 0.642079 0.365533
O O3 0.638004 0.664073 0.620805
O O4 0.642607 0.796292 0.370244
O O5 0.271999 0.897597 0.659871
O O6 0.278856 0.950599 0.981043
O O7 0.919271 0.623689 0.848873
O O8 0.944911 0.818631 0.899029
O O9 0.000000 0.687761 0.750000
O O10 0.985697 0.682610 0.085313
O O11 0.046325 0.820298 0.212590
O O12 0.086318 0.997790 0.160966
O O13 0.072055 0.871176 0.907802
O O14 0.671229 0.116731 0.585823
O O15 0.643885 0.006451 0.833413
O O16 0.500000 0.543275 0.250000
#
# Coordination Sequence:
#
# PCOD8140301 Si02
#       8
#     8   8   8   8   8   8   4   8
#     4  10  21  37  60  88 125 151 201 257 298 358
#     4   9  20  39  59  87 117 158 196 253 305 357
#     4  11  22  40  61  88 127 162 206 258 300 370
#     4  12  22  35  56  86 120 167 204 244 296 367
#     4  10  20  41  63  90 115 157 204 249 310 369
#     4  11  20  37  53  81 124 165 199 244 294 357
#     4  12  22  36  62  88 122 170 208 248 306 360
#     4   9  20  39  66  83 114 158 201 246 313 373
#
# _framework density 20.615086000000002
#
# number of rings (size 3 to 8) (size 9 to 14) (size 15 to 20)
#    0.000    1.600    4.667    1.200    1.867    1.600 
#    2.400    0.667    0.000    0.000    0.000    0.000 
#    0.000    0.000    0.000    0.000    0.000    0.000 
#
# Total GULP energy -371880.242819 kJ/mol
# GULP energy per Si atom -12396.008094 kJ/mol
# Density = 2.056816 g / cm^3
# Si number density = 20.615086 Si / 1000 Ang^3
#
#
#
# Elastic Constant Matrix: (Units=GPa)
#
#
# Indices 1 2 3 4 5 6 
#
# 1 78.9153 18.3995 11.2481 0.0000 -25.0740 0.0000
# 2 18.3995 41.8604 7.2184 0.0000 -20.5830 0.0000
# 3 11.2481 7.2184 89.5047 0.0000 -11.3631 0.0000
# 4 0.0000 0.0000 0.0000 63.8660 0.0000 -26.2480
# 5 -25.0740 -20.5830 -11.3631 0.0000 38.5258 0.0000
# 6 0.0000 0.0000 0.0000 -26.2480 0.0000 31.0361
#
#
#
# Elastic Compliance Matrix: (Units=1/GPa)
#
#
# Indices 1 2 3 4 5 6 
#
# 1 0.016226 -0.002605 -0.000691 0.000000 0.008965 0.000000
# 2 -0.002605 0.032835 -0.000321 0.000000 0.015753 0.000000
# 3 -0.000691 -0.000321 0.011642 0.000000 0.002813 0.000000
# 4 0.000000 0.000000 0.000000 0.024000 0.000000 0.020297
# 5 0.008965 0.015753 0.002813 0.000000 0.041037 0.000000
# 6 0.000000 0.000000 0.000000 0.020297 0.000000 0.049386
#
#
# Mechanical properties :
#
#
# Convention : Reuss Voigt Hill
#
# Bulk Modulus (GPa) = 18.70191 31.55692 25.12942
# Shear Modulus (GPa) = 24.97716 38.24654 31.61185
#
# Velocity S-wave (km/s) = 3.48458 4.31196 3.92016
# Velocity P-wave (km/s) = 5.02805 6.33495 5.71895
#
# Compressibility (1/GPa) = 0.05347047
#
# Stress axis : x y z
#
# Youngs Moduli (GPa) = 61.62902 30.45546 85.89291
#
# Poissons Ratio (x) = 0.07933 0.05934
# Poissons Ratio (y) = 0.16053 0.02756
# Poissons Ratio (z) = 0.04258 0.00977
#
# Static dielectric constant tensor:
#      x y z
#    x 2.408740 0.000000 0.488880 
#    y 0.000000 3.582110 0.000000 
#    z 0.488880 0.000000 3.603550 
# 
# 
# High freq. dielectric constant tensor:
#      x y z
#    x 1.796800 0.000000 -0.007010 
#    y 0.000000 1.785230 0.000000 
#    z -0.007010 0.000000 1.813480 
# 
# From -- ./inp_files/65949.got.cif
#   From: 2010.06.25/outbox.cif.g09.slc.cpg/sg15_33_cif.got.tgz:65949.got - 2010.06.28 07:06:18.
