data_PCOD8140552
_publ_section_title
;
Structure prediction by ZEFSAII (Michael W. Deem and Ramdas Pophale) SiO2 
 PCOD8140552
Probable space group: C 2/C
;
_chemical_formula_sum "Si O2"
_cell_formula_units_Z 60
_cell_length_a 16.460198
_cell_length_b 9.127260
_cell_length_c 19.653823
_cell_angle_alpha 90.000000
_cell_angle_beta 109.160748
_cell_angle_gamma 90.000000
_cell_volume 2789.145204
_symmetry_space_group_name_H-M "C 2/C"
_symmetry_group_IT_number 15
_symmetry_cell_setting 'monoclinic'
loop_
_space_group_symop_operation_xyz
x,y,z
-x,y,1/2-z
-x,-y,-z
x,-y,1/2+z
1/2+x,1/2+y,z
1/2-x,1/2+y,1/2-z
1/2-x,1/2-y,-z
1/2+x,1/2-y,1/2+z
loop_
_atom_site_type_symbol
_atom_site_label
_atom_site_fract_x
_atom_site_fract_y
_atom_site_fract_z
Si Si1 0.072676 0.325286 0.517682
Si Si2 0.845756 0.581132 0.032043
Si Si3 0.000000 0.243915 0.750000
Si Si4 0.668812 0.546131 0.508661
Si Si5 0.140506 0.648228 0.190344
Si Si6 0.135825 0.852354 0.375209
Si Si7 0.882748 0.784830 0.929827
Si Si8 0.270504 0.149679 0.796370
O O1 0.077371 0.479791 0.477844
O O2 0.143417 0.214845 0.506445
O O3 0.097155 0.347910 0.603733
O O4 0.979044 0.259042 0.478140
O O5 0.869621 0.680537 0.102962
O O6 0.771189 0.469098 0.032289
O O7 0.818628 0.698051 0.965354
O O8 0.066602 0.344532 0.726614
O O9 0.047229 0.128905 0.811402
O O10 0.628502 0.472820 0.431054
O O11 0.630626 0.458424 0.563346
O O12 0.212836 0.775098 0.221545
O O13 0.190584 0.499515 0.221045
O O14 0.214751 0.884994 0.347577
O O15 0.852828 0.747204 0.844923
#
# Coordination Sequence:
#
# PCOD8140552 Si02
#       8
#     8   8   4   8   8   8   8   8
#     4  12  25  37  64 101 132 155 212 273 315 354
#     4  11  20  38  67  89 123 163 211 253 307 378
#     4  10  24  40  68  84 122 170 218 252 306 384
#     4  11  21  38  63  95 127 162 206 260 316 370
#     4  11  25  44  64  93 125 170 211 260 313 380
#     4  10  20  42  64  93 121 172 209 249 314 387
#     4  11  21  39  62  91 122 171 203 258 308 369
#     4  11  23  42  68  90 128 168 212 253 315 385
#
# _framework density 21.511966999999999
#
# number of rings (size 3 to 8) (size 9 to 14) (size 15 to 20)
#    0.000    1.067    4.000    3.600    3.733    0.000 
#    2.400    0.000    0.000    0.800    0.000    0.000 
#    0.000    0.000    0.000    0.000    0.000    0.000 
#
# Total GULP energy -371814.033015 kJ/mol
# GULP energy per Si atom -12393.801100 kJ/mol
# Density = 2.146300 g / cm^3
# Si number density = 21.511967 Si / 1000 Ang^3
#
#
#
# Elastic Constant Matrix: (Units=GPa)
#
#
# Indices 1 2 3 4 5 6 
#
# 1 69.2717 1.8039 29.7502 0.0000 9.3572 0.0000
# 2 1.8039 58.0631 10.7043 0.0000 -7.2126 0.0000
# 3 29.7502 10.7043 89.0833 0.0000 16.2144 0.0000
# 4 0.0000 0.0000 0.0000 17.0314 0.0000 -7.3447
# 5 9.3572 -7.2126 16.2144 0.0000 33.1155 0.0000
# 6 0.0000 0.0000 0.0000 -7.3447 0.0000 39.7746
#
#
#
# Elastic Compliance Matrix: (Units=1/GPa)
#
#
# Indices 1 2 3 4 5 6 
#
# 1 0.017002 0.000181 -0.005305 0.000000 -0.002167 0.000000
# 2 0.000181 0.018522 -0.003306 0.000000 0.005602 0.000000
# 3 -0.005305 -0.003306 0.014549 0.000000 -0.006345 0.000000
# 4 0.000000 0.000000 0.000000 0.063795 0.000000 0.011780
# 5 -0.002167 0.005602 -0.006345 0.000000 0.035136 0.000000
# 6 0.000000 0.000000 0.000000 0.011780 0.000000 0.027317
#
#
# Mechanical properties :
#
#
# Convention : Reuss Voigt Hill
#
# Bulk Modulus (GPa) = 30.10834 33.43722 31.77278
# Shear Modulus (GPa) = 24.47931 29.59495 27.03713
#
# Velocity S-wave (km/s) = 3.37699 3.71313 3.54904
# Velocity P-wave (km/s) = 5.40666 5.82755 5.62104
#
# Compressibility (1/GPa) = 0.03321339
#
# Stress axis : x y z
#
# Youngs Moduli (GPa) = 58.81503 53.98901 68.73224
#
# Poissons Ratio (x) = -0.00975 0.36465
# Poissons Ratio (y) = -0.01062 0.22720
# Poissons Ratio (z) = 0.31203 0.17846
#
# Static dielectric constant tensor:
#      x y z
#    x 3.901560 0.000000 0.148650 
#    y 0.000000 3.766450 0.000000 
#    z 0.148650 0.000000 3.968700 
# 
# 
# High freq. dielectric constant tensor:
#      x y z
#    x 1.850190 0.000000 0.014610 
#    y 0.000000 1.833010 0.000000 
#    z 0.014610 0.000000 1.842100 
# 
# From -- ./inp_files/247541.got.cif
#   From: 2010.06.25/outbox.cif.g09.slc.cpg/sg15_124_cif.got.tgz:247541.got - 2010.06.28 07:06:18.
