data_PCOD8140272
_publ_section_title
;
Structure prediction by ZEFSAII (Michael W. Deem and Ramdas Pophale) SiO2 
 PCOD8140272
Probable space group: C 2/C
;
_chemical_formula_sum "Si O2"
_cell_formula_units_Z 48
_cell_length_a 15.381649
_cell_length_b 14.219715
_cell_length_c 17.814895
_cell_angle_alpha 90.000000
_cell_angle_beta 144.728726
_cell_angle_gamma 90.000000
_cell_volume 2250.039881
_symmetry_space_group_name_H-M "C 2/C"
_symmetry_group_IT_number 15
_symmetry_cell_setting 'monoclinic'
loop_
_space_group_symop_operation_xyz
x,y,z
-x,y,1/2-z
-x,-y,-z
x,-y,1/2+z
1/2+x,1/2+y,z
1/2-x,1/2+y,1/2-z
1/2-x,1/2-y,-z
1/2+x,1/2-y,1/2+z
loop_
_atom_site_type_symbol
_atom_site_label
_atom_site_fract_x
_atom_site_fract_y
_atom_site_fract_z
Si Si1 0.397419 0.621935 0.366979
Si Si2 0.528188 0.294201 0.186024
Si Si3 0.602404 0.047459 0.758226
Si Si4 0.456940 0.109238 0.389512
Si Si5 0.648497 0.831535 0.152871
Si Si6 0.600157 0.465186 0.475141
O O1 0.222786 0.604178 0.226465
O O2 0.432967 0.732474 0.386447
O O3 0.497874 0.556940 0.382179
O O4 0.454113 0.587994 0.488095
O O5 0.500000 0.257302 0.250000
O O6 0.482908 0.208530 0.100028
O O7 0.700472 0.320693 0.288887
O O8 0.420881 0.385557 0.103029
O O9 0.500000 0.097117 0.750000
O O10 0.678964 0.121852 0.755643
O O11 0.501080 0.973981 0.638653
O O12 0.727401 0.992869 0.894188
O O13 0.537237 0.099920 0.527215
#
# Coordination Sequence:
#
# PCOD8140272 Si02
#       6
#     8   8   8   8   8   8
#     4   9  19  37  65  88 115 166 203 248 312 363
#     4  11  23  37  64  98 125 163 204 253 318 374
#     4  11  25  41  62  90 124 169 209 257 309 359
#     4  10  21  38  62  94 126 156 205 263 313 369
#     4  11  22  39  65  91 124 161 209 259 304 368
#     4  10  20  41  61  85 127 163 203 251 308 376
#
# _framework density 21.332955999999999
#
# number of rings (size 3 to 8) (size 9 to 14) (size 15 to 20)
#    0.000    1.667    1.667    4.000    4.667    0.667 
#    0.000    1.667    0.000    0.000    0.000    0.000 
#    0.000    0.000    0.000    0.000    0.000    0.000 
#
# Total GULP energy -297505.609182 kJ/mol
# GULP energy per Si atom -12396.067049 kJ/mol
# Density = 2.128440 g / cm^3
# Si number density = 21.332956 Si / 1000 Ang^3
#
#
#
# Elastic Constant Matrix: (Units=GPa)
#
#
# Indices 1 2 3 4 5 6 
#
# 1 87.7546 21.1044 15.0999 0.0003 -2.2518 0.0001
# 2 21.1044 82.6213 8.6542 0.0003 5.0697 0.0001
# 3 15.0999 8.6542 65.9731 0.0006 -4.8068 0.0002
# 4 0.0003 0.0003 0.0006 35.3799 0.0001 2.1705
# 5 -2.2518 5.0697 -4.8068 0.0001 10.6078 0.0001
# 6 0.0001 0.0001 0.0002 2.1705 0.0001 20.0217
#
#
#
# Elastic Compliance Matrix: (Units=1/GPa)
#
#
# Indices 1 2 3 4 5 6 
#
# 1 0.012629 -0.003187 -0.002240 0.000000 0.003189 0.000000
# 2 -0.003187 0.013573 -0.001627 0.000000 -0.007900 0.000000
# 3 -0.002240 -0.001627 0.016449 0.000000 0.007755 0.000000
# 4 0.000000 0.000000 0.000000 0.028454 0.000000 -0.003085
# 5 0.003189 -0.007900 0.007755 0.000000 0.102237 0.000000
# 6 0.000000 0.000000 0.000000 -0.003085 0.000000 0.050280
#
#
# Mechanical properties :
#
#
# Convention : Reuss Voigt Hill
#
# Bulk Modulus (GPa) = 35.03466 36.22958 35.63212
# Shear Modulus (GPa) = 20.22300 25.96792 23.09546
#
# Velocity S-wave (km/s) = 3.08225 3.49272 3.29389
# Velocity P-wave (km/s) = 5.39680 5.76934 5.58618
#
# Compressibility (1/GPa) = 0.02854317
#
# Stress axis : x y z
#
# Youngs Moduli (GPa) = 79.18193 73.67775 60.79455
#
# Poissons Ratio (x) = 0.23481 0.13619
# Poissons Ratio (y) = 0.25235 0.09889
# Poissons Ratio (z) = 0.17738 0.11984
#
# Static dielectric constant tensor:
#      x y z
#    x 3.463870 0.000000 -0.061910 
#    y 0.000000 4.084240 0.000000 
#    z -0.061910 0.000000 3.694550 
# 
# 
# High freq. dielectric constant tensor:
#      x y z
#    x 1.799190 0.000000 0.002920 
#    y 0.000000 1.845130 0.000000 
#    z 0.002920 0.000000 1.835810 
# 
# From -- ./inp_files/205528.got.cif
#   From: 2010.06.25/outbox.cif.g09.slc.cpg/sg15_103_cif.got.tgz:205528.got - 2010.06.28 07:06:18.
