data_PCOD8140800
_publ_section_title
;
Structure prediction by ZEFSAII (Michael W. Deem and Ramdas Pophale) SiO2 
 PCOD8140800
Probable space group: C 2/C
;
_chemical_formula_sum "Si O2"
_cell_formula_units_Z 44
_cell_length_a 6.859997
_cell_length_b 12.236157
_cell_length_c 25.671062
_cell_angle_alpha 90.000000
_cell_angle_beta 100.431389
_cell_angle_gamma 90.000000
_cell_volume 2119.214860
_symmetry_space_group_name_H-M "C 2/C"
_symmetry_group_IT_number 15
_symmetry_cell_setting 'monoclinic'
loop_
_space_group_symop_operation_xyz
x,y,z
-x,y,1/2-z
-x,-y,-z
x,-y,1/2+z
1/2+x,1/2+y,z
1/2-x,1/2+y,1/2-z
1/2-x,1/2-y,-z
1/2+x,1/2-y,1/2+z
loop_
_atom_site_type_symbol
_atom_site_label
_atom_site_fract_x
_atom_site_fract_y
_atom_site_fract_z
Si Si1 0.039062 0.452480 0.922981
Si Si2 0.308138 0.721057 0.385477
Si Si3 0.421033 0.167264 0.520965
Si Si4 0.000000 0.494148 0.750000
Si Si5 0.086116 0.102082 0.203172
Si Si6 0.747915 0.559075 0.833130
O O1 0.169724 0.381963 0.890368
O O2 0.147989 0.566070 0.945516
O O3 0.837358 0.484407 0.883822
O O4 0.002801 0.379043 0.971396
O O5 0.411681 0.761264 0.442845
O O6 0.461795 0.675897 0.349607
O O7 0.194521 0.821485 0.352652
O O8 0.250000 0.250000 0.500000
O O9 0.177861 0.418841 0.780877
O O10 0.094479 0.565872 0.707377
O O11 0.000000 0.164660 0.250000
O O12 0.962350 0.989239 0.194149
#
# Coordination Sequence:
#
# PCOD8140800 Si02
#       6
#     8   8   8   4   8   8
#     4  10  21  40  60  90 132 154 208 261 295 372
#     4  11  22  39  63  91 122 169 204 256 316 363
#     4  10  22  38  62  93 123 168 205 249 312 370
#     4  10  20  44  60  84 128 156 206 266 302 368
#     4  10  22  41  61  88 123 162 207 260 313 370
#     4  10  22  40  60  89 123 161 206 254 309 369
#
# _framework density 20.762405999999999
#
# number of rings (size 3 to 8) (size 9 to 14) (size 15 to 20)
#    0.000    1.818    1.818    1.636    1.273    2.182 
#    8.182    0.000    0.000    0.000    0.000    0.000 
#    0.000    0.000    0.000    0.000    0.000    0.000 
#
# Total GULP energy -272658.225478 kJ/mol
# GULP energy per Si atom -12393.555704 kJ/mol
# Density = 2.071515 g / cm^3
# Si number density = 20.762406 Si / 1000 Ang^3
#
#
#
# Elastic Constant Matrix: (Units=GPa)
#
#
# Indices 1 2 3 4 5 6 
#
# 1 91.3200 48.3871 39.7022 0.0000 3.5735 0.0000
# 2 48.3871 112.7033 46.2716 0.0000 -2.8193 0.0000
# 3 39.7022 46.2716 121.3031 0.0000 -7.1215 0.0000
# 4 0.0000 0.0000 0.0000 27.2734 0.0000 -5.3366
# 5 3.5735 -2.8193 -7.1215 0.0000 27.0174 0.0000
# 6 0.0000 0.0000 0.0000 -5.3366 0.0000 24.8885
#
#
#
# Elastic Compliance Matrix: (Units=1/GPa)
#
#
# Indices 1 2 3 4 5 6 
#
# 1 0.015297 -0.005353 -0.003165 0.000000 -0.003416 0.000000
# 2 -0.005353 0.012394 -0.002903 0.000000 0.001236 0.000000
# 3 -0.003165 -0.002903 0.010557 0.000000 0.002898 0.000000
# 4 0.000000 0.000000 0.000000 0.038272 0.000000 0.008206
# 5 -0.003416 0.001236 0.002898 0.000000 0.038358 0.000000
# 6 0.000000 0.000000 0.000000 0.008206 0.000000 0.041939
#
#
# Mechanical properties :
#
#
# Convention : Reuss Voigt Hill
#
# Bulk Modulus (GPa) = 64.91363 66.00536 65.45949
# Shear Modulus (GPa) = 27.05709 28.56689 27.81199
#
# Velocity S-wave (km/s) = 3.61387 3.71333 3.66394
# Velocity P-wave (km/s) = 6.98185 7.08836 7.03531
#
# Compressibility (1/GPa) = 0.01540509
#
# Stress axis : x y z
#
# Youngs Moduli (GPa) = 65.37318 80.68401 94.72142
#
# Poissons Ratio (x) = 0.43193 0.29980
# Poissons Ratio (y) = 0.34997 0.27498
# Poissons Ratio (z) = 0.20691 0.23423
#
# Static dielectric constant tensor:
#      x y z
#    x 3.456810 0.000000 -0.100080 
#    y 0.000000 3.703560 0.000000 
#    z -0.100080 0.000000 4.081010 
# 
# 
# High freq. dielectric constant tensor:
#      x y z
#    x 1.782300 0.000000 -0.005250 
#    y 0.000000 1.810710 0.000000 
#    z -0.005250 0.000000 1.847500 
# 
# From -- ./inp_files/304943.got.cif
#   From: 2010.06.25/outbox.cif.g09.slc.cpg/sg15_153_cif.got.tgz:304943.got - 2010.06.28 07:06:18.
