data_PCOD8140253
_publ_section_title
;
Structure prediction by ZEFSAII (Michael W. Deem and Ramdas Pophale) SiO2 
 PCOD8140253
Probable space group: C 2/C
;
_chemical_formula_sum "Si O2"
_cell_formula_units_Z 60
_cell_length_a 14.532305
_cell_length_b 17.147864
_cell_length_c 20.455450
_cell_angle_alpha 90.000000
_cell_angle_beta 36.233585
_cell_angle_gamma 90.000000
_cell_volume 3012.997662
_symmetry_space_group_name_H-M "C 2/C"
_symmetry_group_IT_number 15
_symmetry_cell_setting 'monoclinic'
loop_
_space_group_symop_operation_xyz
x,y,z
-x,y,1/2-z
-x,-y,-z
x,-y,1/2+z
1/2+x,1/2+y,z
1/2-x,1/2+y,1/2-z
1/2-x,1/2-y,-z
1/2+x,1/2-y,1/2+z
loop_
_atom_site_type_symbol
_atom_site_label
_atom_site_fract_x
_atom_site_fract_y
_atom_site_fract_z
Si Si1 0.085346 0.602610 0.556881
Si Si2 0.595982 0.448393 0.895585
Si Si3 0.500000 0.846080 0.750000
Si Si4 0.884485 0.735043 0.711147
Si Si5 0.179910 0.782299 0.892725
Si Si6 0.569349 0.945123 0.827285
Si Si7 0.446912 0.389900 0.854823
Si Si8 0.590188 0.187475 0.418425
O O1 0.264701 0.601295 0.473519
O O2 0.066477 0.642978 0.498849
O O3 0.974821 0.652440 0.670512
O O4 0.030801 0.513071 0.582843
O O5 0.596438 0.363813 0.927745
O O6 0.771857 0.481728 0.792325
O O7 0.528775 0.447716 0.860023
O O8 0.500000 0.500000 0.000000
O O9 0.350816 0.790656 0.825657
O O10 0.468524 0.902835 0.829303
O O11 0.809956 0.736788 0.681524
O O12 0.735583 0.752153 0.843157
O O13 0.011993 0.801017 0.652345
O O14 0.068845 0.734342 0.006224
O O15 0.625880 0.877218 0.843909
O O16 0.500000 0.412060 0.750000
#
# Coordination Sequence:
#
# PCOD8140253 Si02
#       8
#     8   8   4   8   8   8   8   8
#     4  11  24  36  64  93 120 161 212 255 314 378
#     4  10  22  40  61  89 128 167 199 255 323 374
#     4  10  20  42  58  88 126 152 208 260 298 366
#     4  10  20  41  56  91 124 159 202 253 318 369
#     4   9  21  37  65  82 116 164 208 249 312 369
#     4  11  23  41  60  88 125 160 203 260 314 368
#     4  11  20  40  63  89 124 166 210 261 308 373
#     4  11  20  42  65  85 122 168 201 257 316 370
#
# _framework density 19.913722
#
# number of rings (size 3 to 8) (size 9 to 14) (size 15 to 20)
#    0.000    1.600    5.333    0.800    5.600    0.533 
#    1.200    0.000    4.400    0.000    0.000    0.000 
#    0.000    0.000    0.000    0.000    0.000    0.000 
#
# Total GULP energy -371828.288380 kJ/mol
# GULP energy per Si atom -12394.276279 kJ/mol
# Density = 1.986840 g / cm^3
# Si number density = 19.913722 Si / 1000 Ang^3
#
#
#
# Elastic Constant Matrix: (Units=GPa)
#
#
# Indices 1 2 3 4 5 6 
#
# 1 87.8682 23.1973 40.8862 0.0003 -14.9759 -0.0001
# 2 23.1973 60.3410 56.6240 0.0003 -10.0015 -0.0005
# 3 40.8862 56.6240 137.1199 -0.0008 -23.7595 -0.0018
# 4 0.0003 0.0003 -0.0008 40.0853 -0.0011 1.5225
# 5 -14.9759 -10.0015 -23.7595 -0.0011 34.5522 0.0006
# 6 -0.0001 -0.0005 -0.0018 1.5225 0.0006 8.3821
#
#
#
# Elastic Compliance Matrix: (Units=1/GPa)
#
#
# Indices 1 2 3 4 5 6 
#
# 1 0.013780 -0.002336 -0.002528 0.000000 0.003558 -0.000001
# 2 -0.002336 0.027455 -0.010716 0.000000 -0.000434 -0.000001
# 3 -0.002528 -0.010716 0.013333 0.000000 0.004971 0.000002
# 4 0.000000 0.000000 0.000000 0.025120 0.000001 -0.004563
# 5 0.003558 -0.000434 0.004971 0.000001 0.033777 -0.000001
# 6 -0.000001 -0.000001 0.000002 -0.004563 -0.000001 0.120130
#
#
# Mechanical properties :
#
#
# Convention : Reuss Voigt Hill
#
# Bulk Modulus (GPa) = 42.71964 58.52711 50.62338
# Shear Modulus (GPa) = 18.34478 27.57868 22.96173
#
# Velocity S-wave (km/s) = 3.03844 3.72547 3.39936
# Velocity P-wave (km/s) = 5.81450 6.92529 6.39406
#
# Compressibility (1/GPa) = 0.02340844
#
# Stress axis : x y z
#
# Youngs Moduli (GPa) = 72.56898 36.42383 75.00036
#
# Poissons Ratio (x) = 0.08507 0.18959
# Poissons Ratio (y) = 0.16950 0.80372
# Poissons Ratio (z) = 0.18344 0.39033
#
# Static dielectric constant tensor:
#      x y z
#    x 3.719210 0.000000 0.043200 
#    y 0.000000 3.579440 0.000000 
#    z 0.043200 0.000000 3.927150 
# 
# 
# High freq. dielectric constant tensor:
#      x y z
#    x 1.772270 0.000000 -0.007620 
#    y 0.000000 1.758500 0.000000 
#    z -0.007620 0.000000 1.788040 
# 
# From -- ./inp_files/274708.got.cif
#   From: 2010.06.25/outbox.cif.g09.slc.cpg/sg15_138_cif.got.tgz:274708.got - 2010.06.28 07:06:18.
