data_PCOD8140612
_publ_section_title
;
Structure prediction by ZEFSAII (Michael W. Deem and Ramdas Pophale) SiO2 
 PCOD8140612
Probable space group: C 2/C
;
_chemical_formula_sum "Si O2"
_cell_formula_units_Z 52
_cell_length_a 25.861247
_cell_length_b 11.036644
_cell_length_c 13.860166
_cell_angle_alpha 90.000000
_cell_angle_beta 37.687232
_cell_angle_gamma 90.000000
_cell_volume 2418.495848
_symmetry_space_group_name_H-M "C 2/C"
_symmetry_group_IT_number 15
_symmetry_cell_setting 'monoclinic'
loop_
_space_group_symop_operation_xyz
x,y,z
-x,y,1/2-z
-x,-y,-z
x,-y,1/2+z
1/2+x,1/2+y,z
1/2-x,1/2+y,1/2-z
1/2-x,1/2-y,-z
1/2+x,1/2-y,1/2+z
loop_
_atom_site_type_symbol
_atom_site_label
_atom_site_fract_x
_atom_site_fract_y
_atom_site_fract_z
Si Si1 0.445364 0.844538 0.640959
Si Si2 0.131976 0.978552 0.085362
Si Si3 0.500000 0.274180 0.250000
Si Si4 0.265820 0.363397 0.190506
Si Si5 0.198582 0.166495 0.648301
Si Si6 0.592859 0.260809 0.635582
Si Si7 0.610693 0.892305 0.288232
O O1 0.493354 0.815403 0.669637
O O2 0.388425 0.731515 0.693332
O O3 0.514598 0.859765 0.456193
O O4 0.386014 0.963613 0.737584
O O5 0.081272 0.861484 0.123919
O O6 0.178776 0.955003 0.118127
O O7 0.076520 0.098509 0.190511
O O8 0.199109 0.007004 0.900637
O O9 0.251862 0.364781 0.326407
O O10 0.174134 0.346734 0.277900
O O11 0.335876 0.260903 0.055372
O O12 0.250000 0.250000 0.500000
O O13 0.500000 0.205138 0.750000
O O14 0.635206 0.180580 0.656248
#
# Coordination Sequence:
#
# PCOD8140612 Si02
#       7
#     8   8   4   8   8   8   8
#     4  10  25  40  64  95 134 180 217 269 334 410
#     4   9  21  40  65  98 123 168 223 270 332 387
#     4  10  20  42  66  94 134 172 226 270 338 386
#     4  10  23  42  66 101 129 174 219 281 330 387
#     4  11  23  44  65  96 136 172 223 275 333 397
#     4  10  21  42  69  98 131 170 222 278 326 394
#     4  11  23  44  62 101 135 176 229 262 342 403
#
# _framework density 21.500968
#
# number of rings (size 3 to 8) (size 9 to 14) (size 15 to 20)
#    0.923    0.923    0.769    2.308    5.385    1.231 
#    2.769    3.846    0.000    0.000    0.000    0.000 
#    0.000    0.000    0.000    0.000    0.000    0.000 
#
# Total GULP energy -322218.090384 kJ/mol
# GULP energy per Si atom -12393.003476 kJ/mol
# Density = 2.145203 g / cm^3
# Si number density = 21.500968 Si / 1000 Ang^3
#
#
#
# Elastic Constant Matrix: (Units=GPa)
#
#
# Indices 1 2 3 4 5 6 
#
# 1 145.3678 24.0109 38.1475 0.0000 22.3980 0.0000
# 2 24.0109 55.2685 23.1606 0.0000 15.3580 0.0000
# 3 38.1475 23.1606 82.8519 0.0000 13.2083 0.0000
# 4 0.0000 0.0000 0.0000 27.6041 0.0000 7.7598
# 5 22.3980 15.3580 13.2083 0.0000 43.4609 0.0000
# 6 0.0000 0.0000 0.0000 7.7598 0.0000 24.0160
#
#
#
# Elastic Compliance Matrix: (Units=1/GPa)
#
#
# Indices 1 2 3 4 5 6 
#
# 1 0.008355 -0.001606 -0.002945 0.000000 -0.002844 0.000000
# 2 -0.001606 0.022285 -0.004589 0.000000 -0.005653 0.000000
# 3 -0.002945 -0.004589 0.014931 0.000000 -0.001398 0.000000
# 4 0.000000 0.000000 0.000000 0.039846 0.000000 -0.012875
# 5 -0.002844 -0.005653 -0.001398 0.000000 0.026897 0.000000
# 6 0.000000 0.000000 0.000000 -0.012875 0.000000 0.045799
#
#
# Mechanical properties :
#
#
# Convention : Reuss Voigt Hill
#
# Bulk Modulus (GPa) = 36.64021 50.45847 43.54934
# Shear Modulus (GPa) = 26.95560 32.22745 29.59153
#
# Velocity S-wave (km/s) = 3.54459 3.87574 3.71386
# Velocity P-wave (km/s) = 5.81639 6.59905 6.22004
#
# Compressibility (1/GPa) = 0.02729242
#
# Stress axis : x y z
#
# Youngs Moduli (GPa) = 119.68548 44.87337 66.97281
#
# Poissons Ratio (x) = 0.07205 0.19722
# Poissons Ratio (y) = 0.19217 0.30735
# Poissons Ratio (z) = 0.35245 0.20593
#
# Static dielectric constant tensor:
#      x y z
#    x 3.924210 0.000000 -0.086790 
#    y 0.000000 3.763200 0.000000 
#    z -0.086790 0.000000 3.628350 
# 
# 
# High freq. dielectric constant tensor:
#      x y z
#    x 1.852810 0.000000 -0.007170 
#    y 0.000000 1.831240 0.000000 
#    z -0.007170 0.000000 1.832550 
# 
# From -- ./inp_files/117924.got.cif
#   From: 2010.06.25/outbox.cif.g09.slc.cpg/sg15_59_cif.got.tgz:117924.got - 2010.06.28 07:06:18.
