data_PCOD8140909
_publ_section_title
;
Structure prediction by ZEFSAII (Michael W. Deem and Ramdas Pophale) SiO2 
 PCOD8140909
Probable space group: C 2/C
;
_chemical_formula_sum "Si O2"
_cell_formula_units_Z 56
_cell_length_a 18.807761
_cell_length_b 28.244032
_cell_length_c 19.551033
_cell_angle_alpha 90.000000
_cell_angle_beta 158.697472
_cell_angle_gamma 90.000000
_cell_volume 3773.025493
_symmetry_space_group_name_H-M "C 2/C"
_symmetry_group_IT_number 15
_symmetry_cell_setting 'monoclinic'
loop_
_space_group_symop_operation_xyz
x,y,z
-x,y,1/2-z
-x,-y,-z
x,-y,1/2+z
1/2+x,1/2+y,z
1/2-x,1/2+y,1/2-z
1/2-x,1/2-y,-z
1/2+x,1/2-y,1/2+z
loop_
_atom_site_type_symbol
_atom_site_label
_atom_site_fract_x
_atom_site_fract_y
_atom_site_fract_z
Si Si1 0.244042 0.512098 0.644674
Si Si2 0.499559 0.959451 0.330356
Si Si3 0.609731 0.794762 0.276252
Si Si4 0.096483 0.430880 0.614564
Si Si5 0.890530 0.633607 0.491802
Si Si6 0.633872 0.483527 0.557065
Si Si7 0.027602 0.187873 0.196075
O O1 0.175318 0.495675 0.507693
O O2 0.177869 0.468996 0.633755
O O3 0.124471 0.558555 0.559882
O O4 0.476348 0.524305 0.854670
O O5 0.500000 0.957119 0.250000
O O6 0.543500 0.907395 0.397642
O O7 0.292519 0.977015 0.176727
O O8 0.500000 0.803224 0.250000
O O9 0.506556 0.819667 0.119366
O O10 0.626065 0.739245 0.274868
O O11 0.825375 0.816049 0.474545
O O12 0.079807 0.380314 0.561585
O O13 0.247679 0.435417 0.814801
O O14 0.661262 0.645493 0.288604
O O15 0.500000 0.500000 0.500000
O O16 0.000000 0.177459 0.250000
#
# Coordination Sequence:
#
# PCOD8140909 Si02
#       7
#     8   8   8   8   8   8   8
#     4   8  15  30  46  58  83 111 133 168 218 267
#     4  10  21  31  41  67  93 109 142 192 228 253
#     4  11  19  33  45  54  75 111 149 189 230 275
#     4   8  16  28  43  64  80 101 141 180 211 255
#     4  11  20  30  43  64  84 107 146 193 227 259
#     4   9  16  31  49  59  82 117 142 171 219 272
#     4  11  20  32  45  54  75 113 149 183 236 275
#
# _framework density 14.842200999999999
#
# number of rings (size 3 to 8) (size 9 to 14) (size 15 to 20)
#    0.000    2.286    2.857    3.857    0.000    5.143 
#    0.000    0.000    0.000    0.000    0.000    0.000 
#    0.000    0.000    0.000    0.000    0.000   22.857 
#
# Total GULP energy -346867.291988 kJ/mol
# GULP energy per Si atom -12388.117571 kJ/mol
# Density = 1.480842 g / cm^3
# Si number density = 14.842201 Si / 1000 Ang^3
#
#
#
# Elastic Constant Matrix: (Units=GPa)
#
#
# Indices 1 2 3 4 5 6 
#
# 1 32.1394 22.0471 20.9023 0.0001 -0.3310 0.0000
# 2 22.0471 48.4351 25.7125 0.0002 5.5462 0.0000
# 3 20.9023 25.7125 121.6111 0.0014 -4.2931 -0.0003
# 4 0.0001 0.0002 0.0014 23.9393 0.0002 -2.3294
# 5 -0.3310 5.5462 -4.2931 0.0002 16.0597 0.0001
# 6 0.0000 0.0000 -0.0003 -2.3294 0.0001 25.8747
#
#
#
# Elastic Compliance Matrix: (Units=1/GPa)
#
#
# Indices 1 2 3 4 5 6 
#
# 1 0.047654 -0.020608 -0.003581 0.000000 0.007142 0.000000
# 2 -0.020608 0.033677 -0.004042 0.000000 -0.013136 0.000000
# 3 -0.003581 -0.004042 0.009833 -0.000001 0.003951 0.000000
# 4 0.000000 0.000000 -0.000001 0.042142 -0.000001 0.003794
# 5 0.007142 -0.013136 0.003951 -0.000001 0.068007 0.000000
# 6 0.000000 0.000000 0.000000 0.003794 0.000000 0.038989
#
#
# Mechanical properties :
#
#
# Convention : Reuss Voigt Hill
#
# Bulk Modulus (GPa) = 28.81819 37.72327 33.27073
# Shear Modulus (GPa) = 16.21635 22.07632 19.14633
#
# Velocity S-wave (km/s) = 3.30901 3.86087 3.59554
# Velocity P-wave (km/s) = 5.83592 6.73398 6.30097
#
# Compressibility (1/GPa) = 0.03470030
#
# Stress axis : x y z
#
# Youngs Moduli (GPa) = 20.98460 29.69419 101.70306
#
# Poissons Ratio (x) = 0.61194 0.36423
# Poissons Ratio (y) = 0.43245 0.41108
# Poissons Ratio (z) = 0.07515 0.12002
#
# Static dielectric constant tensor:
#      x y z
#    x 2.331700 0.000000 -0.757280 
#    y 0.000000 2.763640 0.000000 
#    z -0.757280 0.000000 3.160880 
# 
# 
# High freq. dielectric constant tensor:
#      x y z
#    x 1.525970 0.000000 -0.014700 
#    y 0.000000 1.533210 0.000000 
#    z -0.014700 0.000000 1.596020 
# 
# From -- ./inp_files/250408.got.cif
#   From: 2010.06.25/outbox.cif.g09.slc.cpg/sg15_126_cif.got.tgz:250408.got - 2010.06.28 07:06:18.
