data_PCOD8140952
_publ_section_title
;
Structure prediction by ZEFSAII (Michael W. Deem and Ramdas Pophale) SiO2 
 PCOD8140952
Probable space group: C 2/C
;
_chemical_formula_sum "Si O2"
_cell_formula_units_Z 40
_cell_length_a 4.938969
_cell_length_b 20.226784
_cell_length_c 22.485520
_cell_angle_alpha 90.000000
_cell_angle_beta 119.096685
_cell_angle_gamma 90.000000
_cell_volume 1962.810134
_symmetry_space_group_name_H-M "C 2/C"
_symmetry_group_IT_number 15
_symmetry_cell_setting 'monoclinic'
loop_
_space_group_symop_operation_xyz
x,y,z
-x,y,1/2-z
-x,-y,-z
x,-y,1/2+z
1/2+x,1/2+y,z
1/2-x,1/2+y,1/2-z
1/2-x,1/2-y,-z
1/2+x,1/2-y,1/2+z
loop_
_atom_site_type_symbol
_atom_site_label
_atom_site_fract_x
_atom_site_fract_y
_atom_site_fract_z
Si Si1 0.657128 0.888189 0.829525
Si Si2 0.836449 0.184344 0.943847
Si Si3 0.818230 0.556992 0.401121
Si Si4 0.779374 0.764590 0.910829
Si Si5 0.876291 0.949182 0.036556
O O1 0.500000 0.900363 0.750000
O O2 0.505296 0.941667 0.858723
O O3 0.612484 0.812435 0.845415
O O4 0.025596 0.895796 0.863780
O O5 0.472840 0.203337 0.903701
O O6 0.999858 0.236106 0.918470
O O7 0.875338 0.108797 0.926042
O O8 0.983217 0.190674 0.025256
O O9 0.697071 0.484219 0.408045
O O10 0.053605 0.582754 0.477818
O O11 0.000000 0.000000 0.000000
#
# Coordination Sequence:
#
# PCOD8140952 Si02
#       5
#     8   8   8   8   8
#     4  12  24  42  62  87 125 165 212 258 297 378
#     4  10  21  33  59  87 122 150 187 261 303 368
#     4  11  23  37  61  94 121 161 211 247 319 363
#     4  10  21  35  55  89 119 152 202 239 315 354
#     4  11  22  37  64  92 135 154 196 267 320 372
#
# _framework density 20.378945000000002
#
# number of rings (size 3 to 8) (size 9 to 14) (size 15 to 20)
#    0.000    1.200    4.000    1.800   11.200    0.000 
#    0.000    0.000    0.000    4.800    0.000    0.000 
#    0.000    0.000    0.000    0.000    0.000    0.000 
#
# Total GULP energy -247968.644003 kJ/mol
# GULP energy per Si atom -12398.432200 kJ/mol
# Density = 2.033256 g / cm^3
# Si number density = 20.378945 Si / 1000 Ang^3
#
#
#
# Elastic Constant Matrix: (Units=GPa)
#
#
# Indices 1 2 3 4 5 6 
#
# 1 91.7286 14.5954 26.2858 0.0000 -0.8934 0.0000
# 2 14.5954 86.2256 35.4053 0.0000 -5.1699 0.0000
# 3 26.2858 35.4053 81.4178 0.0000 -11.1350 0.0000
# 4 0.0000 0.0000 0.0000 23.9159 0.0000 -2.2070
# 5 -0.8934 -5.1699 -11.1350 0.0000 23.1160 0.0000
# 6 0.0000 0.0000 0.0000 -2.2070 0.0000 43.1886
#
#
#
# Elastic Compliance Matrix: (Units=1/GPa)
#
#
# Indices 1 2 3 4 5 6 
#
# 1 0.012083 -0.000547 -0.003871 0.000000 -0.001520 0.000000
# 2 -0.000547 0.014144 -0.005935 0.000000 0.000283 0.000000
# 3 -0.003871 -0.005935 0.017033 0.000000 0.006728 0.000000
# 4 0.000000 0.000000 0.000000 0.042011 0.000000 0.002147
# 5 -0.001520 0.000283 0.006728 0.000000 0.046505 0.000000
# 6 0.000000 0.000000 0.000000 0.002147 0.000000 0.023264
#
#
# Mechanical properties :
#
#
# Convention : Reuss Voigt Hill
#
# Bulk Modulus (GPa) = 44.33847 45.77166 45.05507
# Shear Modulus (GPa) = 27.28269 30.24982 28.76625
#
# Velocity S-wave (km/s) = 3.66289 3.85693 3.76116
# Velocity P-wave (km/s) = 6.30026 6.50719 6.40456
#
# Compressibility (1/GPa) = 0.02255378
#
# Stress axis : x y z
#
# Youngs Moduli (GPa) = 82.75912 70.70035 58.70842
#
# Poissons Ratio (x) = 0.03867 0.22727
# Poissons Ratio (y) = 0.04526 0.34846
# Poissons Ratio (z) = 0.32037 0.41964
#
# Static dielectric constant tensor:
#      x y z
#    x 4.058300 0.000000 -0.038860 
#    y 0.000000 3.629860 0.000000 
#    z -0.038860 0.000000 3.305660 
# 
# 
# High freq. dielectric constant tensor:
#      x y z
#    x 1.827020 0.000000 -0.005330 
#    y 0.000000 1.789580 0.000000 
#    z -0.005330 0.000000 1.733650 
# 
# From -- ./inp_files/227194.got.cif
#   From: 2010.06.25/outbox.cif.g09.slc.cpg/sg15_114_cif.got.tgz:227194.got - 2010.06.28 07:06:18.
