data_PCOD8140921
_publ_section_title
;
Structure prediction by ZEFSAII (Michael W. Deem and Ramdas Pophale) SiO2 
 PCOD8140921
Probable space group: C 2/C
;
_chemical_formula_sum "Si O2"
_cell_formula_units_Z 60
_cell_length_a 22.892044
_cell_length_b 18.300125
_cell_length_c 8.943569
_cell_angle_alpha 90.000000
_cell_angle_beta 114.881988
_cell_angle_gamma 90.000000
_cell_volume 3398.922015
_symmetry_space_group_name_H-M "C 2/C"
_symmetry_group_IT_number 15
_symmetry_cell_setting 'monoclinic'
loop_
_space_group_symop_operation_xyz
x,y,z
-x,y,1/2-z
-x,-y,-z
x,-y,1/2+z
1/2+x,1/2+y,z
1/2-x,1/2+y,1/2-z
1/2-x,1/2-y,-z
1/2+x,1/2-y,1/2+z
loop_
_atom_site_type_symbol
_atom_site_label
_atom_site_fract_x
_atom_site_fract_y
_atom_site_fract_z
Si Si1 0.808659 0.302048 0.243975
Si Si2 0.361258 0.319601 0.975880
Si Si3 0.000000 0.981148 0.750000
Si Si4 0.877304 0.849019 0.330891
Si Si5 0.243921 0.087884 0.300568
Si Si6 0.523654 0.599049 0.998541
Si Si7 0.675174 0.778929 0.561405
Si Si8 0.264830 0.436145 0.359612
O O1 0.843617 0.264962 0.423193
O O2 0.738019 0.271042 0.135964
O O3 0.795734 0.387258 0.263139
O O4 0.849455 0.289031 0.135793
O O5 0.318785 0.370558 0.824828
O O6 0.349367 0.337763 0.134922
O O7 0.435085 0.331129 0.004949
O O8 0.041661 0.928521 0.685492
O O9 0.957533 0.033208 0.596052
O O10 0.948763 0.881121 0.405530
O O11 0.878681 0.767872 0.407853
O O12 0.832698 0.908528 0.365183
O O13 0.306655 0.141087 0.351488
O O14 0.230729 0.066176 0.456884
O O15 0.253816 0.017016 0.210702
#
# Coordination Sequence:
#
# PCOD8140921 Si02
#       8
#     8   8   4   8   8   8   8   8
#     4   8  17  34  49  68  95 125 161 203 242 287
#     4  11  21  33  50  70 100 132 167 201 238 285
#     4  10  24  38  48  62 108 130 170 202 236 270
#     4  11  21  33  50  70 100 132 167 201 238 285
#     4  10  21  33  50  73  99 127 163 202 246 292
#     4  11  24  36  48  72  97 136 166 202 236 280
#     4   8  17  34  49  68  95 125 161 203 242 287
#     4  10  21  33  50  73  99 127 163 202 246 292
#
# _framework density 17.652656
#
# number of rings (size 3 to 8) (size 9 to 14) (size 15 to 20)
#    0.000    2.133    1.333    3.200    7.467    5.867 
#    0.000    0.000    0.000    0.000    0.000    0.933 
#    0.000    0.000    0.000    0.000    0.000    0.000 
#
# Total GULP energy -371768.899988 kJ/mol
# GULP energy per Si atom -12392.296666 kJ/mol
# Density = 1.761248 g / cm^3
# Si number density = 17.652656 Si / 1000 Ang^3
#
#
#
# Elastic Constant Matrix: (Units=GPa)
#
#
# Indices 1 2 3 4 5 6 
#
# 1 42.0934 22.6503 20.0126 0.0000 -8.2239 0.0000
# 2 22.6503 92.8134 27.5281 0.0000 -2.6575 0.0000
# 3 20.0126 27.5281 75.7340 0.0000 -17.1688 0.0000
# 4 0.0000 0.0000 0.0000 27.1526 0.0000 -7.6827
# 5 -8.2239 -2.6575 -17.1688 0.0000 19.9731 0.0000
# 6 0.0000 0.0000 0.0000 -7.6827 0.0000 16.0768
#
#
#
# Elastic Compliance Matrix: (Units=1/GPa)
#
#
# Indices 1 2 3 4 5 6 
#
# 1 0.030525 -0.006029 -0.003984 0.000000 0.008342 0.000000
# 2 -0.006029 0.013385 -0.004261 0.000000 -0.004365 0.000000
# 3 -0.003984 -0.004261 0.019010 0.000000 0.014133 0.000000
# 4 0.000000 0.000000 0.000000 0.042587 0.000000 0.020351
# 5 0.008342 -0.004365 0.014133 0.000000 0.065071 0.000000
# 6 0.000000 0.000000 0.000000 0.020351 0.000000 0.071927
#
#
# Mechanical properties :
#
#
# Convention : Reuss Voigt Hill
#
# Bulk Modulus (GPa) = 29.09410 39.00253 34.04832
# Shear Modulus (GPa) = 17.69860 22.00381 19.85121
#
# Velocity S-wave (km/s) = 3.16983 3.53439 3.35706
# Velocity P-wave (km/s) = 5.46939 6.22883 5.86142
#
# Compressibility (1/GPa) = 0.03437123
#
# Stress axis : x y z
#
# Youngs Moduli (GPa) = 32.76048 74.71303 52.60463
#
# Poissons Ratio (x) = 0.45044 0.20955
# Poissons Ratio (y) = 0.19751 0.22417
# Poissons Ratio (z) = 0.13050 0.31838
#
# Static dielectric constant tensor:
#      x y z
#    x 3.088700 0.000000 -0.326420 
#    y 0.000000 3.577410 0.000000 
#    z -0.326420 0.000000 3.356440 
# 
# 
# High freq. dielectric constant tensor:
#      x y z
#    x 1.644850 0.000000 -0.031760 
#    y 0.000000 1.679640 0.000000 
#    z -0.031760 0.000000 1.685300 
# 
# From -- ./inp_files/62731.got.cif
#   From: 2010.06.25/outbox.cif.g09.slc.cpg/sg15_32_cif.got.tgz:62731.got - 2010.06.28 07:06:18.
