data_PCOD8140216
_publ_section_title
;
Structure prediction by ZEFSAII (Michael W. Deem and Ramdas Pophale) SiO2 
 PCOD8140216
Probable space group: C 2/C
;
_chemical_formula_sum "Si O2"
_cell_formula_units_Z 44
_cell_length_a 9.132349
_cell_length_b 27.126426
_cell_length_c 9.117621
_cell_angle_alpha 90.000000
_cell_angle_beta 121.602426
_cell_angle_gamma 90.000000
_cell_volume 1923.736925
_symmetry_space_group_name_H-M "C 2/C"
_symmetry_group_IT_number 15
_symmetry_cell_setting 'monoclinic'
loop_
_space_group_symop_operation_xyz
x,y,z
-x,y,1/2-z
-x,-y,-z
x,-y,1/2+z
1/2+x,1/2+y,z
1/2-x,1/2+y,1/2-z
1/2-x,1/2-y,-z
1/2+x,1/2-y,1/2+z
loop_
_atom_site_type_symbol
_atom_site_label
_atom_site_fract_x
_atom_site_fract_y
_atom_site_fract_z
Si Si1 0.376932 0.108865 0.958205
Si Si2 0.500000 0.735636 0.750000
Si Si3 0.643416 0.571032 0.590069
Si Si4 0.726495 0.536601 0.089724
Si Si5 0.219187 0.814115 0.591889
Si Si6 0.237166 0.891282 0.844868
O O1 0.245898 0.105860 0.754476
O O2 0.365703 0.059001 0.050498
O O3 0.333319 0.154715 0.038731
O O4 0.567827 0.118412 0.998317
O O5 0.331767 0.767520 0.702740
O O6 0.455031 0.702609 0.583082
O O7 0.462816 0.554321 0.565810
O O8 0.751965 0.521993 0.607180
O O9 0.615554 0.601952 0.423978
O O10 0.745594 0.557128 0.263232
O O11 0.168461 0.846877 0.706024
#
# Coordination Sequence:
#
# PCOD8140216 Si02
#       6
#     8   4   8   8   8   8
#     4  11  22  37  60  91 124 157 213 249 298 370
#     4  10  20  40  70  90 118 154 210 250 310 396
#     4  11  23  37  59  87 129 169 203 252 303 347
#     4  10  22  39  57  86 122 175 217 240 285 368
#     4  10  21  39  65  96 115 156 203 254 309 382
#     4  11  22  38  58  93 127 156 203 263 302 358
#
# _framework density 22.872147999999999
#
# number of rings (size 3 to 8) (size 9 to 14) (size 15 to 20)
#    0.000    1.455    1.818    4.364    5.091    7.273 
#    0.000    0.000    0.000    6.545    0.000    0.000 
#    0.000    0.000    0.000    0.000    0.000    0.000 
#
# Total GULP energy -272838.202226 kJ/mol
# GULP energy per Si atom -12401.736465 kJ/mol
# Density = 2.282009 g / cm^3
# Si number density = 22.872148 Si / 1000 Ang^3
#
#
#
# Elastic Constant Matrix: (Units=GPa)
#
#
# Indices 1 2 3 4 5 6 
#
# 1 56.3807 17.8475 8.1595 0.0000 -1.7870 0.0000
# 2 17.8475 80.9793 27.8601 0.0000 3.3265 0.0000
# 3 8.1595 27.8601 116.9502 0.0000 2.2388 0.0000
# 4 0.0000 0.0000 0.0000 39.1034 0.0000 11.5925
# 5 -1.7870 3.3265 2.2388 0.0000 37.7386 0.0000
# 6 0.0000 0.0000 0.0000 11.5925 0.0000 19.6308
#
#
#
# Elastic Compliance Matrix: (Units=1/GPa)
#
#
# Indices 1 2 3 4 5 6 
#
# 1 0.019143 -0.004144 -0.000373 0.000000 0.001294 0.000000
# 2 -0.004144 0.014386 -0.003113 0.000000 -0.001280 0.000000
# 3 -0.000373 -0.003113 0.009324 0.000000 -0.000296 0.000000
# 4 0.000000 0.000000 0.000000 0.031000 0.000000 -0.018307
# 5 0.001294 -0.001280 -0.000296 0.000000 0.026690 0.000000
# 6 0.000000 0.000000 0.000000 -0.018307 0.000000 0.061751
#
#
# Mechanical properties :
#
#
# Convention : Reuss Voigt Hill
#
# Bulk Modulus (GPa) = 36.24210 40.22716 38.23463
# Shear Modulus (GPa) = 26.77339 32.65742 29.71540
#
# Velocity S-wave (km/s) = 3.42507 3.78276 3.60835
# Velocity P-wave (km/s) = 5.61439 6.05847 5.84065
#
# Compressibility (1/GPa) = 0.02759222
#
# Stress axis : x y z
#
# Youngs Moduli (GPa) = 52.23748 69.51293 107.24958
#
# Poissons Ratio (x) = 0.28805 0.04003
# Poissons Ratio (y) = 0.21646 0.33391
# Poissons Ratio (z) = 0.01950 0.21642
#
# Static dielectric constant tensor:
#      x y z
#    x 3.865360 0.000000 0.183160 
#    y 0.000000 4.135320 0.000000 
#    z 0.183160 0.000000 4.258110 
# 
# 
# High freq. dielectric constant tensor:
#      x y z
#    x 1.881720 0.000000 0.019360 
#    y 0.000000 1.889220 0.000000 
#    z 0.019360 0.000000 1.916830 
# 
# From -- ./inp_files/26257.got.cif
#   From: 2010.06.25/outbox.cif.g09.slc.cpg/sg15_14_cif.got.tgz:26257.got - 2010.06.28 07:06:18.
