data_PCOD8140057
_publ_section_title
;
Structure prediction by ZEFSAII (Michael W. Deem and Ramdas Pophale) SiO2 
 PCOD8140057
Probable space group: C 2/C
;
_chemical_formula_sum "Si O2"
_cell_formula_units_Z 52
_cell_length_a 12.007610
_cell_length_b 25.732057
_cell_length_c 9.099267
_cell_angle_alpha 90.000000
_cell_angle_beta 116.925430
_cell_angle_gamma 90.000000
_cell_volume 2506.720471
_symmetry_space_group_name_H-M "C 2/C"
_symmetry_group_IT_number 15
_symmetry_cell_setting 'monoclinic'
loop_
_space_group_symop_operation_xyz
x,y,z
-x,y,1/2-z
-x,-y,-z
x,-y,1/2+z
1/2+x,1/2+y,z
1/2-x,1/2+y,1/2-z
1/2-x,1/2-y,-z
1/2+x,1/2-y,1/2+z
loop_
_atom_site_type_symbol
_atom_site_label
_atom_site_fract_x
_atom_site_fract_y
_atom_site_fract_z
Si Si1 0.362190 0.961604 0.197574
Si Si2 0.865929 0.639598 0.193182
Si Si3 0.163956 0.820231 0.013703
Si Si4 0.596667 0.793080 0.527504
Si Si5 0.755994 0.947293 0.691237
Si Si6 0.846744 0.645268 0.852583
Si Si7 0.500000 0.402058 0.750000
O O1 0.500000 0.984850 0.250000
O O2 0.376988 0.911696 0.309890
O O3 0.278318 0.002271 0.236112
O O4 0.298332 0.948285 0.005398
O O5 0.887417 0.695148 0.288564
O O6 0.787801 0.604061 0.253562
O O7 0.000000 0.612184 0.250000
O O8 0.804674 0.645948 0.997565
O O9 0.084018 0.767554 0.981782
O O10 0.222592 0.831949 0.206543
O O11 0.279764 0.816498 0.972370
O O12 0.071030 0.865786 0.909916
O O13 0.469803 0.820150 0.393562
O O14 0.905187 0.941151 0.774249
#
# Coordination Sequence:
#
# PCOD8140057 Si02
#       7
#     8   8   8   8   8   8   4
#     4  12  23  42  71 101 128 167 226 281 337 385
#     4  10  20  40  65  99 136 165 218 286 330 380
#     4  11  23  41  65  95 132 183 220 265 324 400
#     4  10  22  38  68  98 131 172 225 274 327 380
#     4  12  25  44  67  97 133 177 216 277 334 399
#     4  11  22  41  68 100 132 172 223 280 330 387
#     4  12  26  46  64  94 142 174 226 262 328 404
#
# _framework density 20.744236000000001
#
# number of rings (size 3 to 8) (size 9 to 14) (size 15 to 20)
#    0.000    0.923    3.077    5.077    4.308    1.231 
#    0.000    3.846    0.000    0.000    0.000    0.000 
#    0.000    0.000    0.000    0.000    0.000    0.000 
#
# Total GULP energy -322368.591302 kJ/mol
# GULP energy per Si atom -12398.791973 kJ/mol
# Density = 2.069702 g / cm^3
# Si number density = 20.744236 Si / 1000 Ang^3
#
#
#
# Elastic Constant Matrix: (Units=GPa)
#
#
# Indices 1 2 3 4 5 6 
#
# 1 126.7554 66.1577 61.5164 0.0000 12.9922 0.0000
# 2 66.1577 121.5883 46.8651 0.0000 6.4720 0.0000
# 3 61.5164 46.8651 154.6696 0.0000 -3.9538 0.0000
# 4 0.0000 0.0000 0.0000 -0.7770 0.0000 -4.7367
# 5 12.9922 6.4720 -3.9538 0.0000 33.1904 0.0000
# 6 0.0000 0.0000 0.0000 -4.7367 0.0000 40.1514
#
#
#
# Elastic Compliance Matrix: (Units=1/GPa)
#
#
# Indices 1 2 3 4 5 6 
#
# 1 0.012915 -0.005398 -0.003614 0.000000 -0.004434 0.000000
# 2 -0.005398 0.011725 -0.001414 0.000000 -0.000342 0.000000
# 3 -0.003614 -0.001414 0.008400 0.000000 0.002691 0.000000
# 4 0.000000 0.000000 0.000000 -0.748648 0.000000 -0.088318
# 5 -0.004434 -0.000342 0.002691 0.000000 0.032252 0.000000
# 6 0.000000 0.000000 0.000000 -0.088318 0.000000 0.014487
#
#
# Mechanical properties :
#
#
# Convention : Reuss Voigt Hill
#
# Bulk Modulus (GPa) = 82.05782 83.56573 82.81177
# Shear Modulus (GPa) = -7.76455 29.74460 10.99002
#
# Velocity S-wave (km/s) = -1.93678 3.79076 2.30421
# Velocity P-wave (km/s) = 5.88569 7.71564 6.86194
#
# Compressibility (1/GPa) = 0.01218653
#
# Stress axis : x y z
#
# Youngs Moduli (GPa) = 77.42766 85.28725 119.04307
#
# Poissons Ratio (x) = 0.46040 0.43027
# Poissons Ratio (y) = 0.41797 0.16838
# Poissons Ratio (z) = 0.27986 0.12063
#
# Static dielectric constant tensor:
#      x y z
#    x 3.965220 0.000000 -0.130720 
#    y 0.000000 3.750550 0.000000 
#    z -0.130720 0.000000 3.932060 
# 
# 
# High freq. dielectric constant tensor:
#      x y z
#    x 1.810590 0.000000 -0.006560 
#    y 0.000000 1.809460 0.000000 
#    z -0.006560 0.000000 1.821900 
# 
# From -- ./inp_files/34450.got.cif
#   From: 2010.06.25/outbox.cif.g09.slc.cpg/sg15_18_cif.got.tgz:34450.got - 2010.06.28 07:06:18.
