data_PCOD8140542
_publ_section_title
;
Structure prediction by ZEFSAII (Michael W. Deem and Ramdas Pophale) SiO2 
 PCOD8140542
Probable space group: C 2/C
;
_chemical_formula_sum "Si O2"
_cell_formula_units_Z 52
_cell_length_a 10.259153
_cell_length_b 15.483228
_cell_length_c 22.363567
_cell_angle_alpha 90.000000
_cell_angle_beta 133.316266
_cell_angle_gamma 90.000000
_cell_volume 2584.601940
_symmetry_space_group_name_H-M "C 2/C"
_symmetry_group_IT_number 15
_symmetry_cell_setting 'monoclinic'
loop_
_space_group_symop_operation_xyz
x,y,z
-x,y,1/2-z
-x,-y,-z
x,-y,1/2+z
1/2+x,1/2+y,z
1/2-x,1/2+y,1/2-z
1/2-x,1/2-y,-z
1/2+x,1/2-y,1/2+z
loop_
_atom_site_type_symbol
_atom_site_label
_atom_site_fract_x
_atom_site_fract_y
_atom_site_fract_z
Si Si1 0.500000 0.222893 0.250000
Si Si2 0.871636 0.247548 0.933251
Si Si3 0.125405 0.066679 0.504823
Si Si4 0.515774 0.331358 0.860736
Si Si5 0.329302 0.151984 0.310683
Si Si6 0.147646 0.308151 0.111869
Si Si7 0.002696 0.510675 0.571635
O O1 0.414727 0.159635 0.272116
O O2 0.355518 0.284207 0.172646
O O3 0.830871 0.148811 0.938495
O O4 0.719246 0.315677 0.905518
O O5 0.877797 0.260519 0.863473
O O6 0.055222 0.281688 0.020200
O O7 0.012868 0.097040 0.411880
O O8 0.307187 0.021836 0.539785
O O9 0.000000 0.000000 0.500000
O O10 0.385672 0.359796 0.765514
O O11 0.445201 0.240666 0.862846
O O12 0.405428 0.070369 0.368951
O O13 0.128554 0.407629 0.123136
O O14 0.000000 0.500000 0.500000
#
# Coordination Sequence:
#
# PCOD8140542 Si02
#       7
#     4   8   8   8   8   8   8
#     4  10  26  44  60  90 134 178 216 276 338 390
#     4  11  20  43  70  89 123 182 222 258 327 414
#     4  11  24  41  69 102 129 170 226 277 327 396
#     4  10  20  44  65  93 130 171 223 268 327 394
#     4  11  25  40  65  96 134 173 217 279 337 390
#     4  10  20  42  64  90 129 171 215 268 326 396
#     4  12  23  43  66 101 133 170 219 276 333 390
#
# _framework density 20.119152
#
# number of rings (size 3 to 8) (size 9 to 14) (size 15 to 20)
#    0.000    1.231    4.615    1.385    6.462    1.846 
#   11.077    0.000    0.000    0.000    0.000    0.000 
#    0.000    0.000    0.000    0.000    0.000    0.000 
#
# Total GULP energy -322361.244435 kJ/mol
# GULP energy per Si atom -12398.509401 kJ/mol
# Density = 2.007336 g / cm^3
# Si number density = 20.119152 Si / 1000 Ang^3
#
#
#
# Elastic Constant Matrix: (Units=GPa)
#
#
# Indices 1 2 3 4 5 6 
#
# 1 89.2550 46.6598 48.2642 0.0000 -2.4025 0.0000
# 2 46.6598 119.8617 63.1309 0.0000 -0.5298 0.0000
# 3 48.2642 63.1309 162.5961 0.0000 7.2005 0.0000
# 4 0.0000 0.0000 0.0000 33.2606 0.0000 2.3597
# 5 -2.4025 -0.5298 7.2005 0.0000 35.6494 0.0000
# 6 0.0000 0.0000 0.0000 2.3597 0.0000 32.3913
#
#
#
# Elastic Compliance Matrix: (Units=1/GPa)
#
#
# Indices 1 2 3 4 5 6 
#
# 1 0.015062 -0.004357 -0.002847 0.000000 0.001525 0.000000
# 2 -0.004357 0.011783 -0.003306 0.000000 0.000549 0.000000
# 3 -0.002847 -0.003306 0.008364 0.000000 -0.001930 0.000000
# 4 0.000000 0.000000 0.000000 0.030222 0.000000 -0.002202
# 5 0.001525 0.000549 -0.001930 0.000000 0.028552 0.000000
# 6 0.000000 0.000000 0.000000 -0.002202 0.000000 0.031033
#
#
# Mechanical properties :
#
#
# Convention : Reuss Voigt Hill
#
# Bulk Modulus (GPa) = 70.47458 76.42472 73.44965
# Shear Modulus (GPa) = 33.16421 34.50413 33.83417
#
# Velocity S-wave (km/s) = 4.06444 4.14574 4.10529
# Velocity P-wave (km/s) = 7.55850 7.80927 7.68491
#
# Compressibility (1/GPa) = 0.01418951
#
# Stress axis : x y z
#
# Youngs Moduli (GPa) = 66.39172 84.87001 119.55670
#
# Poissons Ratio (x) = 0.36980 0.34034
# Poissons Ratio (y) = 0.28929 0.39523
# Poissons Ratio (z) = 0.18900 0.28056
#
# Static dielectric constant tensor:
#      x y z
#    x 3.812560 0.000000 0.011620 
#    y 0.000000 3.709710 0.000000 
#    z 0.011620 0.000000 4.176570 
# 
# 
# High freq. dielectric constant tensor:
#      x y z
#    x 1.788520 0.000000 0.002480 
#    y 0.000000 1.778550 0.000000 
#    z 0.002480 0.000000 1.794960 
# 
# From -- ./inp_files/270010.got.cif
#   From: 2010.06.25/outbox.cif.g09.slc.cpg/sg15_136_cif.got.tgz:270010.got - 2010.06.28 07:06:18.
