data_PCOD8140954
_publ_section_title
;
Structure prediction by ZEFSAII (Michael W. Deem and Ramdas Pophale) SiO2 
 PCOD8140954
Probable space group: C 2/C
;
_chemical_formula_sum "Si O2"
_cell_formula_units_Z 56
_cell_length_a 16.956644
_cell_length_b 13.858658
_cell_length_c 16.063278
_cell_angle_alpha 90.000000
_cell_angle_beta 131.886990
_cell_angle_gamma 90.000000
_cell_volume 2810.208045
_symmetry_space_group_name_H-M "C 2/C"
_symmetry_group_IT_number 15
_symmetry_cell_setting 'monoclinic'
loop_
_space_group_symop_operation_xyz
x,y,z
-x,y,1/2-z
-x,-y,-z
x,-y,1/2+z
1/2+x,1/2+y,z
1/2-x,1/2+y,1/2-z
1/2-x,1/2-y,-z
1/2+x,1/2-y,1/2+z
loop_
_atom_site_type_symbol
_atom_site_label
_atom_site_fract_x
_atom_site_fract_y
_atom_site_fract_z
Si Si1 0.055359 0.579211 0.598834
Si Si2 0.547455 0.232167 0.471433
Si Si3 0.234555 0.406277 0.342952
Si Si4 0.699925 0.391881 0.616386
Si Si5 0.149247 0.408330 0.461495
Si Si6 0.891263 0.610103 0.130211
Si Si7 0.195739 0.300986 0.655323
O O1 0.107726 0.663739 0.580356
O O2 0.146985 0.538588 0.723469
O O3 0.000000 0.500000 0.500000
O O4 0.970586 0.625124 0.603471
O O5 0.588143 0.341450 0.512923
O O6 0.580592 0.205406 0.401448
O O7 0.424975 0.205463 0.399206
O O8 0.321221 0.492530 0.409537
O O9 0.190445 0.372370 0.401417
O O10 0.275070 0.310931 0.328834
O O11 0.798483 0.360281 0.627877
O O12 0.728751 0.358242 0.729179
O O13 0.151011 0.525491 0.461261
O O14 0.216023 0.359935 0.583606
O O15 0.000000 0.572701 0.250000
#
# Coordination Sequence:
#
# PCOD8140954 Si02
#       7
#     8   8   8   8   8   8   8
#     4  11  19  34  60  90 117 146 195 252 299 337
#     4  11  22  37  59  88 119 154 194 242 297 360
#     4  11  22  39  58  84 121 159 198 241 299 357
#     4  11  23  38  59  88 117 160 198 240 302 358
#     4  10  21  33  59  88 116 150 190 251 299 345
#     4  11  20  37  62  91 121 147 194 255 306 351
#     4  11  23  39  59  86 120 157 200 245 295 356
#
# _framework density 19.927350000000001
#
# number of rings (size 3 to 8) (size 9 to 14) (size 15 to 20)
#    0.000    1.143    4.286    4.714    0.000    0.571 
#    0.000    0.000    0.000    0.000    0.000    0.000 
#    0.000    0.000    0.000    0.000    0.000    0.000 
#
# Total GULP energy -346866.437754 kJ/mol
# GULP energy per Si atom -12388.087063 kJ/mol
# Density = 1.988199 g / cm^3
# Si number density = 19.927350 Si / 1000 Ang^3
#
#
#
# Elastic Constant Matrix: (Units=GPa)
#
#
# Indices 1 2 3 4 5 6 
#
# 1 46.0407 19.5377 10.4924 0.0000 -19.4136 0.0000
# 2 19.5377 106.6307 34.7891 0.0000 -13.1345 0.0000
# 3 10.4924 34.7891 70.4965 0.0000 -13.9614 0.0000
# 4 0.0000 0.0000 0.0000 29.0907 0.0000 1.3548
# 5 -19.4136 -13.1345 -13.9614 0.0000 25.2360 0.0000
# 6 0.0000 0.0000 0.0000 1.3548 0.0000 31.2555
#
#
#
# Elastic Compliance Matrix: (Units=1/GPa)
#
#
# Indices 1 2 3 4 5 6 
#
# 1 0.033259 -0.003618 0.001717 0.000000 0.024653 0.000000
# 2 -0.003618 0.011792 -0.005185 0.000000 0.000486 0.000000
# 3 0.001717 -0.005185 0.018211 0.000000 0.008697 0.000000
# 4 0.000000 0.000000 0.000000 0.034445 0.000000 -0.001493
# 5 0.024653 0.000486 0.008697 0.000000 0.063656 0.000000
# 6 0.000000 0.000000 0.000000 -0.001493 0.000000 0.032059
#
#
# Mechanical properties :
#
#
# Convention : Reuss Voigt Hill
#
# Bulk Modulus (GPa) = 20.36988 39.20071 29.78529
# Shear Modulus (GPa) = 22.32592 27.67303 24.99947
#
# Velocity S-wave (km/s) = 3.35082 3.73056 3.54578
# Velocity P-wave (km/s) = 5.02144 6.18633 5.63407
#
# Compressibility (1/GPa) = 0.04909209
#
# Stress axis : x y z
#
# Youngs Moduli (GPa) = 30.06722 84.79997 54.91334
#
# Poissons Ratio (x) = 0.30677 -0.09431
# Poissons Ratio (y) = 0.10877 0.28471
# Poissons Ratio (z) = -0.05164 0.43966
#
# Static dielectric constant tensor:
#      x y z
#    x 3.696800 0.000000 -0.268240 
#    y 0.000000 3.583000 0.000000 
#    z -0.268240 0.000000 3.683140 
# 
# 
# High freq. dielectric constant tensor:
#      x y z
#    x 1.771010 0.000000 -0.026490 
#    y 0.000000 1.771040 0.000000 
#    z -0.026490 0.000000 1.768840 
# 
# From -- ./inp_files/162324.got.cif
#   From: 2010.06.25/outbox.cif.g09.slc.cpg/sg15_82_cif.got.tgz:162324.got - 2010.06.28 07:06:18.
