data_PCOD8140534
_publ_section_title
;
Structure prediction by ZEFSAII (Michael W. Deem and Ramdas Pophale) SiO2 
 PCOD8140534
Probable space group: C 2/C
;
_chemical_formula_sum "Si O2"
_cell_formula_units_Z 64
_cell_length_a 12.552169
_cell_length_b 13.938149
_cell_length_c 18.485010
_cell_angle_alpha 90.000000
_cell_angle_beta 69.718071
_cell_angle_gamma 90.000000
_cell_volume 3033.511369
_symmetry_space_group_name_H-M "C 2/C"
_symmetry_group_IT_number 15
_symmetry_cell_setting 'monoclinic'
loop_
_space_group_symop_operation_xyz
x,y,z
-x,y,1/2-z
-x,-y,-z
x,-y,1/2+z
1/2+x,1/2+y,z
1/2-x,1/2+y,1/2-z
1/2-x,1/2-y,-z
1/2+x,1/2-y,1/2+z
loop_
_atom_site_type_symbol
_atom_site_label
_atom_site_fract_x
_atom_site_fract_y
_atom_site_fract_z
Si Si1 0.633893 0.396250 0.921975
Si Si2 0.262962 0.553266 0.506352
Si Si3 0.022556 0.573849 0.558232
Si Si4 0.725922 0.950464 0.365236
Si Si5 0.909307 0.003010 0.214943
Si Si6 0.828184 0.251772 0.842131
Si Si7 0.916933 0.217459 0.513107
Si Si8 0.070953 0.212578 0.828199
O O1 0.594898 0.426003 0.851373
O O2 0.748537 0.335346 0.890069
O O3 0.652117 0.488172 0.968076
O O4 0.535432 0.338287 0.983968
O O5 0.137752 0.545066 0.574302
O O6 0.244448 0.523304 0.427369
O O7 0.317447 0.660300 0.493671
O O8 0.057344 0.679199 0.524174
O O9 0.000000 0.500000 0.500000
O O10 0.904600 0.570094 0.630086
O O11 0.777646 0.849871 0.379001
O O12 0.785726 0.994510 0.280660
O O13 0.000000 0.046575 0.250000
O O14 0.954111 0.899230 0.180212
O O15 0.840507 0.253918 0.751769
O O16 0.950753 0.267331 0.850047
O O17 0.875695 0.228787 0.605765
#
# Coordination Sequence:
#
# PCOD8140534 Si02
#       8
#     8   8   8   8   8   8   8   8
#     4  12  25  38  68 104 126 159 228 276 320 376
#     4  11  24  40  64  99 127 166 216 272 328 379
#     4  10  24  42  61  91 127 177 210 255 328 392
#     4  10  20  42  64  86 131 176 212 257 325 397
#     4  11  21  41  65  91 130 171 209 265 335 389
#     4  10  21  39  61  93 128 165 217 261 324 386
#     4  12  23  40  68  96 131 161 223 274 321 383
#     4  10  21  38  65  90 125 174 209 265 327 385
#
# _framework density 21.097662
#
# number of rings (size 3 to 8) (size 9 to 14) (size 15 to 20)
#    0.000    1.250    5.000    2.250    3.500    3.000 
#    2.250    1.250    0.000    0.000    0.000    0.000 
#    0.000    0.000    0.000    0.000    0.000    0.000 
#
# Total GULP energy -396700.560084 kJ/mol
# GULP energy per Si atom -12396.892503 kJ/mol
# Density = 2.104964 g / cm^3
# Si number density = 21.097662 Si / 1000 Ang^3
#
#
#
# Elastic Constant Matrix: (Units=GPa)
#
#
# Indices 1 2 3 4 5 6 
#
# 1 89.7113 18.2429 14.5785 0.0000 -19.4498 0.0000
# 2 18.2429 73.6992 8.1621 0.0000 -3.0545 0.0000
# 3 14.5785 8.1621 68.6918 0.0000 -4.4825 0.0000
# 4 0.0000 0.0000 0.0000 14.8244 0.0000 -6.7793
# 5 -19.4498 -3.0545 -4.4825 0.0000 37.6134 0.0000
# 6 0.0000 0.0000 0.0000 -6.7793 0.0000 36.8096
#
#
#
# Elastic Compliance Matrix: (Units=1/GPa)
#
#
# Indices 1 2 3 4 5 6 
#
# 1 0.013470 -0.002833 -0.002099 0.000000 0.006485 0.000000
# 2 -0.002833 0.014378 -0.001135 0.000000 -0.000433 0.000000
# 3 -0.002099 -0.001135 0.015179 0.000000 0.000631 0.000000
# 4 0.000000 0.000000 0.000000 0.073660 0.000000 0.013566
# 5 0.006485 -0.000433 0.000631 0.000000 0.029980 0.000000
# 6 0.000000 0.000000 0.000000 0.013566 0.000000 0.029665
#
#
# Mechanical properties :
#
#
# Convention : Reuss Voigt Hill
#
# Bulk Modulus (GPa) = 32.37037 34.89660 33.63349
# Shear Modulus (GPa) = 25.15540 30.59074 27.87307
#
# Velocity S-wave (km/s) = 3.45676 3.81196 3.63870
# Velocity P-wave (km/s) = 5.59542 5.99593 5.79913
#
# Compressibility (1/GPa) = 0.03089245
#
# Stress axis : x y z
#
# Youngs Moduli (GPa) = 74.23870 69.55191 65.87893
#
# Poissons Ratio (x) = 0.19704 0.13828
# Poissons Ratio (y) = 0.21032 0.07480
# Poissons Ratio (z) = 0.15582 0.07897
#
# Static dielectric constant tensor:
#      x y z
#    x 4.256590 0.000000 -0.300890 
#    y 0.000000 3.838360 0.000000 
#    z -0.300890 0.000000 3.863060 
# 
# 
# High freq. dielectric constant tensor:
#      x y z
#    x 1.834550 0.000000 -0.020150 
#    y 0.000000 1.824120 0.000000 
#    z -0.020150 0.000000 1.815590 
# 
# From -- ./inp_files/238732.got.cif
#   From: 2010.06.25/outbox.cif.g09.slc.cpg/sg15_120_cif.got.tgz:238732.got - 2010.06.28 07:06:18.
