data_PCOD8140290
_publ_section_title
;
Structure prediction by ZEFSAII (Michael W. Deem and Ramdas Pophale) SiO2 
 PCOD8140290
Probable space group: C 2/C
;
_chemical_formula_sum "Si O2"
_cell_formula_units_Z 64
_cell_length_a 9.137875
_cell_length_b 18.276559
_cell_length_c 29.033175
_cell_angle_alpha 90.000000
_cell_angle_beta 38.978728
_cell_angle_gamma 90.000000
_cell_volume 3050.048830
_symmetry_space_group_name_H-M "C 2/C"
_symmetry_group_IT_number 15
_symmetry_cell_setting 'monoclinic'
loop_
_space_group_symop_operation_xyz
x,y,z
-x,y,1/2-z
-x,-y,-z
x,-y,1/2+z
1/2+x,1/2+y,z
1/2-x,1/2+y,1/2-z
1/2-x,1/2-y,-z
1/2+x,1/2-y,1/2+z
loop_
_atom_site_type_symbol
_atom_site_label
_atom_site_fract_x
_atom_site_fract_y
_atom_site_fract_z
Si Si1 0.947250 0.228299 0.360796
Si Si2 0.912128 0.795021 0.572126
Si Si3 0.933409 0.392756 0.338965
Si Si4 0.928988 0.744872 0.216542
Si Si5 0.851279 0.941020 0.012658
Si Si6 0.361332 0.608221 0.678400
Si Si7 0.777170 0.538855 0.536866
Si Si8 0.932105 0.698349 0.481939
O O1 0.996838 0.312534 0.339654
O O2 0.702678 0.202317 0.397763
O O3 0.941422 0.214887 0.416940
O O4 0.186925 0.196874 0.278582
O O5 0.637676 0.808582 0.648968
O O6 0.941393 0.722992 0.533100
O O7 0.017849 0.863543 0.519237
O O8 0.877769 0.436388 0.399223
O O9 0.719726 0.388767 0.355218
O O10 0.160758 0.427906 0.259073
O O11 0.919799 0.810638 0.181758
O O12 0.000000 0.775618 0.250000
O O13 0.814553 0.972777 0.971576
O O14 0.000000 0.000000 0.000000
O O15 0.589105 0.556383 0.623030
O O16 0.843072 0.615693 0.496459
O O17 0.000000 0.500000 0.500000
O O18 0.750000 0.750000 0.500000
#
# Coordination Sequence:
#
# PCOD8140290 Si02
#       8
#     8   8   8   8   8   8   8   8
#     4  10  21  38  64  99 126 162 218 279 325 385
#     4  11  22  39  66  91 129 167 220 271 327 387
#     4  10  21  38  69  93 123 172 226 267 320 395
#     4   9  20  37  64  98 131 165 217 278 335 384
#     4  12  24  43  62  94 129 174 223 265 321 399
#     4  10  20  41  62  96 128 170 221 269 321 400
#     4  12  26  39  63  98 138 169 212 276 336 383
#     4  12  23  40  65  95 127 169 221 267 327 383
#
# _framework density 20.983269
#
# number of rings (size 3 to 8) (size 9 to 14) (size 15 to 20)
#    0.000    1.250    3.750    2.625    1.750    1.000 
#    0.000    5.000    0.000    1.500    0.000    0.000 
#    0.000    0.000    0.000    0.000    0.000    0.000 
#
# Total GULP energy -396431.156436 kJ/mol
# GULP energy per Si atom -12388.473639 kJ/mol
# Density = 2.093551 g / cm^3
# Si number density = 20.983269 Si / 1000 Ang^3
#
#
#
# Elastic Constant Matrix: (Units=GPa)
#
#
# Indices 1 2 3 4 5 6 
#
# 1 67.4181 11.3511 42.1507 0.0131 -18.3207 0.0009
# 2 11.3511 62.5087 38.0330 -0.0050 0.1293 0.0018
# 3 42.1507 38.0330 164.8521 0.0427 -22.3132 0.0161
# 4 0.0131 -0.0050 0.0427 33.3813 0.0014 -1.3538
# 5 -18.3207 0.1293 -22.3132 0.0014 40.0812 -0.0026
# 6 0.0009 0.0018 0.0161 -1.3538 -0.0026 33.9699
#
#
#
# Elastic Compliance Matrix: (Units=1/GPa)
#
#
# Indices 1 2 3 4 5 6 
#
# 1 0.019185 -0.001239 -0.003712 -0.000003 0.006707 0.000002
# 2 -0.001239 0.018954 -0.004478 0.000009 -0.003121 0.000001
# 3 -0.003712 -0.004478 0.008458 -0.000010 0.003026 -0.000004
# 4 -0.000003 0.000009 -0.000010 0.030005 -0.000008 0.001196
# 5 0.006707 -0.003121 0.003026 -0.000008 0.029710 0.000001
# 6 0.000002 0.000001 -0.000004 0.001196 0.000001 0.029486
#
#
# Mechanical properties :
#
#
# Convention : Reuss Voigt Hill
#
# Bulk Modulus (GPa) = 36.05172 53.09429 44.57300
# Shear Modulus (GPa) = 30.50601 35.03607 32.77104
#
# Velocity S-wave (km/s) = 3.81704 4.09065 3.95621
# Velocity P-wave (km/s) = 6.05350 6.90429 6.49285
#
# Compressibility (1/GPa) = 0.02773793
#
# Stress axis : x y z
#
# Youngs Moduli (GPa) = 52.12528 52.75886 118.23262
#
# Poissons Ratio (x) = 0.06539 0.43882
# Poissons Ratio (y) = 0.06460 0.52950
# Poissons Ratio (z) = 0.19346 0.23628
#
# Static dielectric constant tensor:
#      x y z
#    x 3.835990 -0.000040 -0.245080 
#    y -0.000040 3.344320 0.000070 
#    z -0.245080 0.000070 4.227670 
# 
# 
# High freq. dielectric constant tensor:
#      x y z
#    x 1.826780 0.000000 -0.015260 
#    y 0.000000 1.781480 0.000000 
#    z -0.015260 0.000000 1.846470 
# 
# From -- ./inp_files/308759.got.cif
#   From: 2010.06.25/outbox.cif.g09.slc.cpg/sg15_155_cif.got.tgz:308759.got - 2010.06.28 07:06:18.
