data_PCOD8140400
_publ_section_title
;
Structure prediction by ZEFSAII (Michael W. Deem and Ramdas Pophale) SiO2 
 PCOD8140400
Probable space group: C 2/C
;
_chemical_formula_sum "Si O2"
_cell_formula_units_Z 48
_cell_length_a 17.132220
_cell_length_b 14.592086
_cell_length_c 9.694640
_cell_angle_alpha 90.000000
_cell_angle_beta 100.464265
_cell_angle_gamma 90.000000
_cell_volume 2383.301286
_symmetry_space_group_name_H-M "C 2/C"
_symmetry_group_IT_number 15
_symmetry_cell_setting 'monoclinic'
loop_
_space_group_symop_operation_xyz
x,y,z
-x,y,1/2-z
-x,-y,-z
x,-y,1/2+z
1/2+x,1/2+y,z
1/2-x,1/2+y,1/2-z
1/2-x,1/2-y,-z
1/2+x,1/2-y,1/2+z
loop_
_atom_site_type_symbol
_atom_site_label
_atom_site_fract_x
_atom_site_fract_y
_atom_site_fract_z
Si Si1 0.600908 0.945186 0.628950
Si Si2 0.083754 0.595517 0.419751
Si Si3 0.063581 0.072339 0.886072
Si Si4 0.825735 0.770040 0.115429
Si Si5 0.172954 0.264030 0.566848
Si Si6 0.458739 0.630369 0.099323
O O1 0.510033 0.912924 0.600322
O O2 0.623749 0.952039 0.797464
O O3 0.648833 0.870470 0.555861
O O4 0.618245 0.043531 0.565009
O O5 0.105222 0.702616 0.419450
O O6 0.145706 0.126063 0.893060
O O7 0.000000 0.101156 0.750000
O O8 0.086653 0.965079 0.881479
O O9 0.029964 0.101645 0.022477
O O10 0.805803 0.759171 0.269279
O O11 0.750000 0.750000 0.000000
O O12 0.250000 0.250000 0.500000
O O13 0.101077 0.202830 0.485750
O O14 0.500000 0.672032 0.250000
#
# Coordination Sequence:
#
# PCOD8140400 Si02
#       6
#     8   8   8   8   8   8
#     4   9  19  38  60  84 111 152 191 243 290 341
#     4   9  19  37  61  84 112 147 198 238 288 345
#     4  10  20  41  67  88 116 158 207 252 298 357
#     4  11  24  39  61  87 120 165 199 237 302 364
#     4  11  24  41  57  87 128 158 192 251 302 352
#     4  10  22  39  65  94 117 154 204 255 303 353
#
# _framework density 20.140131
#
# number of rings (size 3 to 8) (size 9 to 14) (size 15 to 20)
#    0.000    2.000    1.667    1.000    4.667    2.667 
#    6.000    3.333    0.000    0.000    0.000    0.000 
#    0.000    0.000    0.000    0.000    0.000    0.000 
#
# Total GULP energy -297525.517640 kJ/mol
# GULP energy per Si atom -12396.896568 kJ/mol
# Density = 2.009429 g / cm^3
# Si number density = 20.140131 Si / 1000 Ang^3
#
#
#
# Elastic Constant Matrix: (Units=GPa)
#
#
# Indices 1 2 3 4 5 6 
#
# 1 56.3236 20.5840 29.1087 0.0000 -6.0773 0.0000
# 2 20.5840 68.1102 29.4402 0.0000 -8.2275 0.0000
# 3 29.1087 29.4402 115.8480 0.0000 7.9078 0.0000
# 4 0.0000 0.0000 0.0000 31.7079 0.0000 -3.6460
# 5 -6.0773 -8.2275 7.9078 0.0000 37.1606 0.0000
# 6 0.0000 0.0000 0.0000 -3.6460 0.0000 19.0460
#
#
#
# Elastic Compliance Matrix: (Units=1/GPa)
#
#
# Indices 1 2 3 4 5 6 
#
# 1 0.022141 -0.004190 -0.004751 0.000000 0.003704 0.000000
# 2 -0.004190 0.018104 -0.003830 0.000000 0.004138 0.000000
# 3 -0.004751 -0.003830 0.011071 0.000000 -0.003981 0.000000
# 4 0.000000 0.000000 0.000000 0.032248 0.000000 0.006173
# 5 0.003704 0.004138 -0.003981 0.000000 0.029279 0.000000
# 6 0.000000 0.000000 0.000000 0.006173 0.000000 0.053686
#
#
# Mechanical properties :
#
#
# Convention : Reuss Voigt Hill
#
# Bulk Modulus (GPa) = 38.80129 44.28307 41.54218
# Shear Modulus (GPa) = 24.91727 28.32614 26.62171
#
# Velocity S-wave (km/s) = 3.52119 3.75434 3.63963
# Velocity P-wave (km/s) = 5.98659 6.38973 6.19144
#
# Compressibility (1/GPa) = 0.02577234
#
# Stress axis : x y z
#
# Youngs Moduli (GPa) = 45.16480 55.23653 90.32615
#
# Poissons Ratio (x) = 0.23145 0.42917
# Poissons Ratio (y) = 0.18925 0.34598
# Poissons Ratio (z) = 0.21459 0.21157
#
# Static dielectric constant tensor:
#      x y z
#    x 3.356470 0.000000 -0.055020 
#    y 0.000000 3.801880 0.000000 
#    z -0.055020 0.000000 4.023220 
# 
# 
# High freq. dielectric constant tensor:
#      x y z
#    x 1.760840 0.000000 -0.007660 
#    y 0.000000 1.788650 0.000000 
#    z -0.007660 0.000000 1.802250 
# 
# From -- ./inp_files/47456.got.cif
#   From: 2010.06.25/outbox.cif.g09.slc.cpg/sg15_24_cif.got.tgz:47456.got - 2010.06.28 07:06:18.
