data_PCOD8140368
_publ_section_title
;
Structure prediction by ZEFSAII (Michael W. Deem and Ramdas Pophale) SiO2 
 PCOD8140368
Probable space group: C 2/C
;
_chemical_formula_sum "Si O2"
_cell_formula_units_Z 56
_cell_length_a 20.763866
_cell_length_b 10.896745
_cell_length_c 12.609137
_cell_angle_alpha 90.000000
_cell_angle_beta 97.066889
_cell_angle_gamma 90.000000
_cell_volume 2831.251994
_symmetry_space_group_name_H-M "C 2/C"
_symmetry_group_IT_number 15
_symmetry_cell_setting 'monoclinic'
loop_
_space_group_symop_operation_xyz
x,y,z
-x,y,1/2-z
-x,-y,-z
x,-y,1/2+z
1/2+x,1/2+y,z
1/2-x,1/2+y,1/2-z
1/2-x,1/2-y,-z
1/2+x,1/2-y,1/2+z
loop_
_atom_site_type_symbol
_atom_site_label
_atom_site_fract_x
_atom_site_fract_y
_atom_site_fract_z
Si Si1 0.079931 0.611317 0.468347
Si Si2 0.926517 0.254156 0.744305
Si Si3 0.218010 0.371606 0.033585
Si Si4 0.750925 0.088919 0.903600
Si Si5 0.059897 0.330316 0.516592
Si Si6 0.324282 0.456790 0.213445
Si Si7 0.160401 0.801222 0.898013
O O1 0.085150 0.637108 0.342924
O O2 0.142954 0.658479 0.546238
O O3 0.075590 0.467205 0.485252
O O4 0.018020 0.685685 0.501876
O O5 0.911820 0.305072 0.859455
O O6 0.879683 0.142654 0.702960
O O7 0.000000 0.204921 0.750000
O O8 0.257940 0.426819 0.138487
O O9 0.250000 0.250000 0.000000
O O10 0.213367 0.469468 0.937127
O O11 0.803950 0.044392 0.830665
O O12 0.697097 0.185859 0.849671
O O13 0.791501 0.148647 0.004758
O O14 0.092552 0.238492 0.438633
O O15 0.352494 0.591028 0.189639
#
# Coordination Sequence:
#
# PCOD8140368 Si02
#       7
#     8   8   8   8   8   8   8
#     4  10  21  38  64  94 120 162 206 252 314 370
#     4  10  21  40  64  88 122 168 209 247 312 380
#     4  11  22  37  58  93 127 150 203 251 304 368
#     4  10  22  39  58  89 125 158 203 255 310 363
#     4  10  20  41  66  88 125 163 204 260 307 370
#     4  11  23  37  64  88 121 170 204 250 310 373
#     4  10  21  39  62  90 119 165 209 251 311 362
#
# _framework density 19.779235
#
# number of rings (size 3 to 8) (size 9 to 14) (size 15 to 20)
#    0.000    1.714    4.286    0.000    2.000    1.143 
#    0.000    4.286    0.000    0.000    0.000    0.000 
#    0.000    0.000    0.000    0.000    0.000    0.000 
#
# Total GULP energy -347106.082382 kJ/mol
# GULP energy per Si atom -12396.645799 kJ/mol
# Density = 1.973422 g / cm^3
# Si number density = 19.779235 Si / 1000 Ang^3
#
#
#
# Elastic Constant Matrix: (Units=GPa)
#
#
# Indices 1 2 3 4 5 6 
#
# 1 132.0603 51.9596 31.6883 0.0000 -1.4175 0.0000
# 2 51.9596 129.8243 45.0680 0.0000 -9.5920 0.0000
# 3 31.6883 45.0680 64.6917 0.0000 -16.7968 0.0000
# 4 0.0000 0.0000 0.0000 24.0197 0.0000 -5.9598
# 5 -1.4175 -9.5920 -16.7968 0.0000 32.0557 0.0000
# 6 0.0000 0.0000 0.0000 -5.9598 0.0000 34.7619
#
#
#
# Elastic Compliance Matrix: (Units=1/GPa)
#
#
# Indices 1 2 3 4 5 6 
#
# 1 0.009426 -0.002817 -0.003201 0.000000 -0.002103 0.000000
# 2 -0.002817 0.011018 -0.006334 0.000000 -0.000147 0.000000
# 3 -0.003201 -0.006334 0.024203 0.000000 0.010645 0.000000
# 4 0.000000 0.000000 0.000000 0.043482 0.000000 0.007455
# 5 -0.002103 -0.000147 0.010645 0.000000 0.036637 0.000000
# 6 0.000000 0.000000 0.000000 0.007455 0.000000 0.030045
#
#
# Mechanical properties :
#
#
# Convention : Reuss Voigt Hill
#
# Bulk Modulus (GPa) = 50.14339 64.88980 57.51660
# Shear Modulus (GPa) = 26.85827 31.35816 29.10821
#
# Velocity S-wave (km/s) = 3.68897 3.98604 3.84038
# Velocity P-wave (km/s) = 6.59934 7.35275 6.98621
#
# Compressibility (1/GPa) = 0.01994281
#
# Stress axis : x y z
#
# Youngs Moduli (GPa) = 106.08850 90.75935 41.31794
#
# Poissons Ratio (x) = 0.25565 0.13226
# Poissons Ratio (y) = 0.29883 0.26172
# Poissons Ratio (z) = 0.33959 0.57489
#
# Static dielectric constant tensor:
#      x y z
#    x 5.139870 0.000000 0.762860 
#    y 0.000000 3.802720 0.000000 
#    z 0.762860 0.000000 4.038810 
# 
# 
# High freq. dielectric constant tensor:
#      x y z
#    x 1.782460 0.000000 -0.009200 
#    y 0.000000 1.770280 0.000000 
#    z -0.009200 0.000000 1.754280 
# 
# From -- ./inp_files/111057.got.cif
#   From: 2010.06.25/outbox.cif.g09.slc.cpg/sg15_56_cif.got.tgz:111057.got - 2010.06.28 07:06:18.
