data_PCOD8140540
_publ_section_title
;
Structure prediction by ZEFSAII (Michael W. Deem and Ramdas Pophale) SiO2 
 PCOD8140540
Probable space group: C 2/C
;
_chemical_formula_sum "Si O2"
_cell_formula_units_Z 40
_cell_length_a 8.576021
_cell_length_b 15.553647
_cell_length_c 13.921373
_cell_angle_alpha 90.000000
_cell_angle_beta 103.034770
_cell_angle_gamma 90.000000
_cell_volume 1809.102387
_symmetry_space_group_name_H-M "C 2/C"
_symmetry_group_IT_number 15
_symmetry_cell_setting 'monoclinic'
loop_
_space_group_symop_operation_xyz
x,y,z
-x,y,1/2-z
-x,-y,-z
x,-y,1/2+z
1/2+x,1/2+y,z
1/2-x,1/2+y,1/2-z
1/2-x,1/2-y,-z
1/2+x,1/2-y,1/2+z
loop_
_atom_site_type_symbol
_atom_site_label
_atom_site_fract_x
_atom_site_fract_y
_atom_site_fract_z
Si Si1 0.426331 0.044869 0.138549
Si Si2 0.926341 0.789077 0.528951
Si Si3 0.427322 0.115577 0.934849
Si Si4 0.556461 0.457061 0.604610
Si Si5 0.446231 0.374143 0.145732
O O1 0.500000 0.075713 0.250000
O O2 0.471836 0.945307 0.123609
O O3 0.241058 0.065683 0.123619
O O4 0.485116 0.098075 0.053047
O O5 0.750000 0.750000 0.500000
O O6 0.985655 0.819305 0.432742
O O7 0.037637 0.713993 0.585402
O O8 0.949581 0.870111 0.605215
O O9 0.239677 0.104110 0.893093
O O10 0.500000 0.500000 0.500000
O O11 0.528608 0.532383 0.676706
O O12 0.500000 0.322946 0.250000
#
# Coordination Sequence:
#
# PCOD8140540 Si02
#       5
#     8   8   8   8   8
#     4  11  23  40  69  94 130 173 226 267 335 398
#     4  11  24  42  66  91 134 174 217 271 340 386
#     4  11  23  41  66  95 131 171 217 278 330 385
#     4  10  20  42  64  89 127 172 212 266 329 394
#     4  11  23  42  68  96 130 173 224 270 330 396
#
# _framework density 22.110410999999999
#
# number of rings (size 3 to 8) (size 9 to 14) (size 15 to 20)
#    0.000    1.200    4.000    4.200    2.800    0.800 
#    0.000    1.000    0.000    0.000    0.000    0.000 
#    0.000    0.000    0.000    0.000    0.000    0.000 
#
# Total GULP energy -247777.543836 kJ/mol
# GULP energy per Si atom -12388.877192 kJ/mol
# Density = 2.206009 g / cm^3
# Si number density = 22.110411 Si / 1000 Ang^3
#
#
#
# Elastic Constant Matrix: (Units=GPa)
#
#
# Indices 1 2 3 4 5 6 
#
# 1 111.1550 32.5568 8.3038 0.0000 13.3977 0.0000
# 2 32.5568 115.1759 -15.8626 0.0000 4.1637 0.0000
# 3 8.3038 -15.8626 91.2114 0.0000 15.7030 0.0000
# 4 0.0000 0.0000 0.0000 13.2496 0.0000 1.2173
# 5 13.3977 4.1637 15.7030 0.0000 24.0638 0.0000
# 6 0.0000 0.0000 0.0000 1.2173 0.0000 41.4142
#
#
#
# Elastic Compliance Matrix: (Units=1/GPa)
#
#
# Indices 1 2 3 4 5 6 
#
# 1 0.010477 -0.002865 -0.000601 0.000000 -0.004945 0.000000
# 2 -0.002865 0.009859 0.002247 0.000000 -0.001577 0.000000
# 3 -0.000601 0.002247 0.012863 0.000000 -0.008448 0.000000
# 4 0.000000 0.000000 0.000000 0.075679 0.000000 -0.002224
# 5 -0.004945 -0.001577 -0.008448 0.000000 0.050095 0.000000
# 6 0.000000 0.000000 0.000000 -0.002224 0.000000 0.024212
#
#
# Mechanical properties :
#
#
# Convention : Reuss Voigt Hill
#
# Bulk Modulus (GPa) = 32.50946 40.83760 36.67353
# Shear Modulus (GPa) = 25.52629 35.24845 30.38737
#
# Velocity S-wave (km/s) = 3.40147 3.99708 3.71124
# Velocity P-wave (km/s) = 5.49198 6.30968 5.91498
#
# Compressibility (1/GPa) = 0.03076028
#
# Stress axis : x y z
#
# Youngs Moduli (GPa) = 95.45054 101.43237 77.73952
#
# Poissons Ratio (x) = 0.29064 0.04670
# Poissons Ratio (y) = 0.27350 -0.17467
# Poissons Ratio (z) = 0.05734 -0.22790
#
# Static dielectric constant tensor:
#      x y z
#    x 4.089130 0.000000 -0.251090 
#    y 0.000000 4.572030 0.000000 
#    z -0.251090 0.000000 4.502440 
# 
# 
# High freq. dielectric constant tensor:
#      x y z
#    x 1.872520 0.000000 0.007860 
#    y 0.000000 1.872240 0.000000 
#    z 0.007860 0.000000 1.867660 
# 
# From -- ./inp_files/188496.got.cif
#   From: 2010.06.25/outbox.cif.g09.slc.cpg/sg15_95_cif.got.tgz:188496.got - 2010.06.28 07:06:18.
