data_PCOD8140165
_publ_section_title
;
Structure prediction by ZEFSAII (Michael W. Deem and Ramdas Pophale) SiO2 
 PCOD8140165
Probable space group: C 2/C
;
_chemical_formula_sum "Si O2"
_cell_formula_units_Z 48
_cell_length_a 19.416336
_cell_length_b 9.787203
_cell_length_c 18.118481
_cell_angle_alpha 90.000000
_cell_angle_beta 43.750498
_cell_angle_gamma 90.000000
_cell_volume 2380.959385
_symmetry_space_group_name_H-M "C 2/C"
_symmetry_group_IT_number 15
_symmetry_cell_setting 'monoclinic'
loop_
_space_group_symop_operation_xyz
x,y,z
-x,y,1/2-z
-x,-y,-z
x,-y,1/2+z
1/2+x,1/2+y,z
1/2-x,1/2+y,1/2-z
1/2-x,1/2-y,-z
1/2+x,1/2-y,1/2+z
loop_
_atom_site_type_symbol
_atom_site_label
_atom_site_fract_x
_atom_site_fract_y
_atom_site_fract_z
Si Si1 0.739347 0.462887 0.418875
Si Si2 0.718085 0.243788 0.173627
Si Si3 0.617983 0.461812 0.152438
Si Si4 0.112401 0.125857 0.885768
Si Si5 0.398498 0.245489 0.785141
Si Si6 0.410063 0.312177 0.612695
O O1 0.800658 0.592688 0.342317
O O2 0.651994 0.512451 0.541648
O O3 0.689568 0.376546 0.392482
O O4 0.822358 0.358250 0.384614
O O5 0.692188 0.348458 0.127905
O O6 0.645130 0.270012 0.297669
O O7 0.830770 0.252962 0.117117
O O8 0.500000 0.421165 0.250000
O O9 0.640673 0.600855 0.177388
O O10 0.105034 0.973354 0.857789
O O11 0.012878 0.197045 0.990480
O O12 0.500000 0.225775 0.750000
O O13 0.411582 0.223186 0.686825
#
# Coordination Sequence:
#
# PCOD8140165 Si02
#       6
#     8   8   8   8   8   8
#     4  11  24  42  63  96 130 164 208 268 319 365
#     4  11  23  40  67  96 126 160 212 272 307 373
#     4  11  24  42  68  93 123 173 218 252 313 383
#     4  10  20  40  68  91 123 165 210 262 300 384
#     4  11  22  41  64  92 129 170 209 257 315 384
#     4  10  21  39  66  95 121 164 217 248 316 371
#
# _framework density 20.159941
#
# number of rings (size 3 to 8) (size 9 to 14) (size 15 to 20)
#    0.000    1.333    3.333    3.000    4.667    0.667 
#    3.000    0.833    0.000    0.000    0.000    0.000 
#    0.000    0.000    0.000    0.000    0.000    0.000 
#
# Total GULP energy -297498.172562 kJ/mol
# GULP energy per Si atom -12395.757190 kJ/mol
# Density = 2.011406 g / cm^3
# Si number density = 20.159941 Si / 1000 Ang^3
#
#
#
# Elastic Constant Matrix: (Units=GPa)
#
#
# Indices 1 2 3 4 5 6 
#
# 1 65.8143 43.9266 16.1491 0.0000 0.2094 0.0000
# 2 43.9266 72.1840 41.4139 0.0000 -18.6582 0.0000
# 3 16.1491 41.4139 114.0329 0.0000 -0.8387 0.0000
# 4 0.0000 0.0000 0.0000 28.7565 0.0000 1.9991
# 5 0.2094 -18.6582 -0.8387 0.0000 31.6983 0.0000
# 6 0.0000 0.0000 0.0000 1.9991 0.0000 14.4531
#
#
#
# Elastic Compliance Matrix: (Units=1/GPa)
#
#
# Indices 1 2 3 4 5 6 
#
# 1 0.031185 -0.025645 0.004786 0.000000 -0.015175 0.000000
# 2 -0.025645 0.042588 -0.011652 0.000000 0.024929 0.000000
# 3 0.004786 -0.011652 0.012275 0.000000 -0.006565 0.000000
# 4 0.000000 0.000000 0.000000 0.035112 0.000000 -0.004857
# 5 -0.015175 0.024929 -0.006565 0.000000 0.046148 0.000000
# 6 0.000000 0.000000 0.000000 -0.004857 0.000000 0.069861
#
#
# Mechanical properties :
#
#
# Convention : Reuss Voigt Hill
#
# Bulk Modulus (GPa) = 47.56116 50.55673 49.05894
# Shear Modulus (GPa) = 16.17079 25.01768 20.59424
#
# Velocity S-wave (km/s) = 2.83525 3.52655 3.19963
# Velocity P-wave (km/s) = 5.86185 6.45866 6.16748
#
# Compressibility (1/GPa) = 0.02102556
#
# Stress axis : x y z
#
# Youngs Moduli (GPa) = 32.06717 23.48071 81.46633
#
# Poissons Ratio (x) = 0.60216 -0.38987
# Poissons Ratio (y) = 0.82236 0.94923
# Poissons Ratio (z) = -0.15346 0.27359
#
# Static dielectric constant tensor:
#      x y z
#    x 3.723600 0.000000 0.004500 
#    y 0.000000 3.614830 0.000000 
#    z 0.004500 0.000000 3.732570 
# 
# 
# High freq. dielectric constant tensor:
#      x y z
#    x 1.795180 0.000000 0.004490 
#    y 0.000000 1.771760 0.000000 
#    z 0.004490 0.000000 1.793440 
# 
# From -- ./inp_files/251766.got.cif
#   From: 2010.06.25/outbox.cif.g09.slc.cpg/sg15_126_cif.got.tgz:251766.got - 2010.06.28 07:06:18.
