data_PCOD8140752
_publ_section_title
;
Structure prediction by ZEFSAII (Michael W. Deem and Ramdas Pophale) SiO2 
 PCOD8140752
Probable space group: C 2/C
;
_chemical_formula_sum "Si O2"
_cell_formula_units_Z 36
_cell_length_a 11.808164
_cell_length_b 15.119354
_cell_length_c 15.167727
_cell_angle_alpha 90.000000
_cell_angle_beta 141.371451
_cell_angle_gamma 90.000000
_cell_volume 1690.471433
_symmetry_space_group_name_H-M "C 2/C"
_symmetry_group_IT_number 15
_symmetry_cell_setting 'monoclinic'
loop_
_space_group_symop_operation_xyz
x,y,z
-x,y,1/2-z
-x,-y,-z
x,-y,1/2+z
1/2+x,1/2+y,z
1/2-x,1/2+y,1/2-z
1/2-x,1/2-y,-z
1/2+x,1/2-y,1/2+z
loop_
_atom_site_type_symbol
_atom_site_label
_atom_site_fract_x
_atom_site_fract_y
_atom_site_fract_z
Si Si1 0.000000 0.823426 0.750000
Si Si2 0.236042 0.419797 0.464818
Si Si3 0.313215 0.886350 0.590983
Si Si4 0.714301 0.704593 0.860491
Si Si5 0.357284 0.163082 0.761416
O O1 0.849367 0.885657 0.616254
O O2 0.921679 0.762692 0.780673
O O3 0.294370 0.521482 0.481999
O O4 0.277339 0.366148 0.399702
O O5 0.025528 0.405731 0.364888
O O6 0.500000 0.912754 0.750000
O O7 0.222608 0.807986 0.594951
O O8 0.334305 0.848514 0.504535
O O9 0.500000 0.697599 0.750000
O O10 0.751084 0.661896 0.788307
#
# Coordination Sequence:
#
# PCOD8140752 Si02
#       5
#     4   8   8   8   8
#     4  10  22  36  66  94 124 156 212 262 306 362
#     4  10  21  40  67  92 123 159 217 255 305 367
#     4  10  21  42  61  89 125 168 201 255 306 376
#     4  10  24  41  65  89 128 163 209 251 317 371
#     4  10  20  43  65  91 124 167 200 257 320 367
#
# _framework density 21.295836000000001
#
# number of rings (size 3 to 8) (size 9 to 14) (size 15 to 20)
#    0.000    2.222    2.222    2.667    1.556   11.556 
#    4.000    2.222    0.000    0.000    0.000    0.000 
#    0.000    0.000    0.000    0.000    0.000    0.000 
#
# Total GULP energy -223058.747473 kJ/mol
# GULP energy per Si atom -12392.152637 kJ/mol
# Density = 2.124737 g / cm^3
# Si number density = 21.295836 Si / 1000 Ang^3
#
#
#
# Elastic Constant Matrix: (Units=GPa)
#
#
# Indices 1 2 3 4 5 6 
#
# 1 125.6902 27.6100 29.1154 0.0011 -26.1297 0.0002
# 2 27.6100 132.0942 35.3303 0.0009 -2.6350 0.0002
# 3 29.1154 35.3303 112.0267 0.0021 -10.8508 0.0007
# 4 0.0011 0.0009 0.0021 -96.7984 0.0024 18.3055
# 5 -26.1297 -2.6350 -10.8508 0.0024 20.7576 0.0003
# 6 0.0002 0.0002 0.0007 18.3055 0.0003 4.4482
#
#
#
# Elastic Compliance Matrix: (Units=1/GPa)
#
#
# Indices 1 2 3 4 5 6 
#
# 1 0.011435 -0.001831 -0.001077 0.000000 0.013599 -0.000002
# 2 -0.001831 0.008563 -0.002468 0.000000 -0.002507 0.000000
# 3 -0.001077 -0.002468 0.010347 0.000000 0.003739 -0.000002
# 4 0.000000 0.000000 0.000000 -0.005810 0.000000 0.023908
# 5 0.013599 -0.002507 0.003739 0.000000 0.066929 -0.000007
# 6 -0.000002 0.000000 -0.000002 0.023908 -0.000007 0.126423
#
#
# Mechanical properties :
#
#
# Convention : Reuss Voigt Hill
#
# Bulk Modulus (GPa) = 51.03783 61.54692 56.29238
# Shear Modulus (GPa) = 21.26123 4.19851 12.72987
#
# Velocity S-wave (km/s) = 3.16314 1.40563 2.44757
# Velocity P-wave (km/s) = 6.11218 5.62121 5.87183
#
# Compressibility (1/GPa) = 0.01959331
#
# Stress axis : x y z
#
# Youngs Moduli (GPa) = 87.45260 116.78190 96.64773
#
# Poissons Ratio (x) = 0.21379 0.10413
# Poissons Ratio (y) = 0.16009 0.23849
# Poissons Ratio (z) = 0.09422 0.28817
#
# Static dielectric constant tensor:
#      x y z
#    x 3.385740 0.000000 -0.250680 
#    y 0.000000 3.955530 0.000000 
#    z -0.250680 0.000000 3.989780 
# 
# 
# High freq. dielectric constant tensor:
#      x y z
#    x 1.787930 0.000000 -0.025710 
#    y 0.000000 1.844000 0.000000 
#    z -0.025710 0.000000 1.852100 
# 
# From -- ./inp_files/144457.got.cif
#   From: 2010.06.25/outbox.cif.g09.slc.cpg/sg15_73_cif.got.tgz:144457.got - 2010.06.28 07:06:18.
