data_PCOD8140886
_publ_section_title
;
Structure prediction by ZEFSAII (Michael W. Deem and Ramdas Pophale) SiO2 
 PCOD8140886
Probable space group: C 2/C
;
_chemical_formula_sum "Si O2"
_cell_formula_units_Z 60
_cell_length_a 31.189533
_cell_length_b 8.936775
_cell_length_c 11.156402
_cell_angle_alpha 90.000000
_cell_angle_beta 74.006981
_cell_angle_gamma 90.000000
_cell_volume 2989.307953
_symmetry_space_group_name_H-M "C 2/C"
_symmetry_group_IT_number 15
_symmetry_cell_setting 'monoclinic'
loop_
_space_group_symop_operation_xyz
x,y,z
-x,y,1/2-z
-x,-y,-z
x,-y,1/2+z
1/2+x,1/2+y,z
1/2-x,1/2+y,1/2-z
1/2-x,1/2-y,-z
1/2+x,1/2-y,1/2+z
loop_
_atom_site_type_symbol
_atom_site_label
_atom_site_fract_x
_atom_site_fract_y
_atom_site_fract_z
Si Si1 0.653608 0.282996 0.331176
Si Si2 0.412096 0.435962 0.290675
Si Si3 0.300564 0.781144 0.928539
Si Si4 0.000000 0.199953 0.750000
Si Si5 0.354484 0.592011 0.044859
Si Si6 0.868081 0.459110 0.451927
Si Si7 0.894452 0.262503 0.211642
Si Si8 0.541285 0.098939 0.013296
O O1 0.612741 0.308714 0.270047
O O2 0.694719 0.220660 0.219587
O O3 0.664521 0.441923 0.381899
O O4 0.645169 0.162412 0.439581
O O5 0.463370 0.408855 0.222083
O O6 0.402532 0.424169 0.441320
O O7 0.400794 0.603966 0.267493
O O8 0.327360 0.922193 0.967048
O O9 0.250000 0.750000 0.000000
O O10 0.321475 0.628704 0.962792
O O11 0.021856 0.295168 0.628928
O O12 0.358148 0.730937 0.134718
O O13 0.874600 0.383865 0.317169
O O14 0.915950 0.519563 0.458377
O O15 0.941082 0.317655 0.119302
O O16 0.500000 0.000000 0.000000
#
# Coordination Sequence:
#
# PCOD8140886 Si02
#       8
#     8   8   8   4   8   8   8   8
#     4  10  22  42  68  92 124 172 215 260 327 394
#     4  10  21  39  66  88 126 173 223 266 323 388
#     4  11  25  43  68  99 130 162 211 271 332 399
#     4  12  22  38  56  90 132 170 216 278 320 374
#     4  10  20  46  65  89 129 171 214 264 330 391
#     4  12  23  43  69  97 131 175 220 267 339 394
#     4  11  22  40  67  92 125 180 217 269 330 389
#     4  12  24  38  59  92 135 173 220 271 326 391
#
# _framework density 20.071535999999998
#
# number of rings (size 3 to 8) (size 9 to 14) (size 15 to 20)
#    0.000    1.067    4.000    3.200    0.000    2.667 
#    0.000    0.667    0.000    0.000    0.000    0.000 
#    0.000    0.000    0.000    0.000    0.000    0.000 
#
# Total GULP energy -371660.794730 kJ/mol
# GULP energy per Si atom -12388.693158 kJ/mol
# Density = 2.002585 g / cm^3
# Si number density = 20.071536 Si / 1000 Ang^3
#
#
#
# Elastic Constant Matrix: (Units=GPa)
#
#
# Indices 1 2 3 4 5 6 
#
# 1 93.1631 43.5606 46.3428 0.0000 -17.6816 0.0000
# 2 43.5606 81.1453 42.5727 0.0000 -6.4242 0.0000
# 3 46.3428 42.5727 137.8810 0.0000 -8.0517 0.0000
# 4 0.0000 0.0000 0.0000 45.9538 0.0000 -3.9147
# 5 -17.6816 -6.4242 -8.0517 0.0000 30.3338 0.0000
# 6 0.0000 0.0000 0.0000 -3.9147 0.0000 27.3648
#
#
#
# Elastic Compliance Matrix: (Units=1/GPa)
#
#
# Indices 1 2 3 4 5 6 
#
# 1 0.016934 -0.006845 -0.003135 0.000000 0.007589 0.000000
# 2 -0.006845 0.017586 -0.003194 0.000000 -0.001113 0.000000
# 3 -0.003135 -0.003194 0.009290 0.000000 -0.000038 0.000000
# 4 0.000000 0.000000 0.000000 0.022029 0.000000 0.003151
# 5 0.007589 -0.001113 -0.000038 0.000000 0.037144 0.000000
# 6 0.000000 0.000000 0.000000 0.003151 0.000000 0.036994
#
#
# Mechanical properties :
#
#
# Convention : Reuss Voigt Hill
#
# Bulk Modulus (GPa) = 57.26773 64.12684 60.69729
# Shear Modulus (GPa) = 29.04481 32.71136 30.87808
#
# Velocity S-wave (km/s) = 3.80816 4.04138 3.92650
# Velocity P-wave (km/s) = 6.92314 7.33454 7.13181
#
# Compressibility (1/GPa) = 0.01746184
#
# Stress axis : x y z
#
# Youngs Moduli (GPa) = 59.05175 56.86389 107.63813
#
# Poissons Ratio (x) = 0.38924 0.33745
# Poissons Ratio (y) = 0.40421 0.34382
# Poissons Ratio (z) = 0.18513 0.18164
#
# Static dielectric constant tensor:
#      x y z
#    x 3.639030 0.000000 0.200030 
#    y 0.000000 3.771830 0.000000 
#    z 0.200030 0.000000 4.175300 
# 
# 
# High freq. dielectric constant tensor:
#      x y z
#    x 1.759450 0.000000 0.006470 
#    y 0.000000 1.793340 0.000000 
#    z 0.006470 0.000000 1.809210 
# 
# From -- ./inp_files/125878.got.cif
#   From: 2010.06.25/outbox.cif.g09.slc.cpg/sg15_63_cif.got.tgz:125878.got - 2010.06.28 07:06:18.
