data_PCOD8140666
_publ_section_title
;
Structure prediction by ZEFSAII (Michael W. Deem and Ramdas Pophale) SiO2 
 PCOD8140666
Probable space group: C 2/C
;
_chemical_formula_sum "Si O2"
_cell_formula_units_Z 44
_cell_length_a 11.017972
_cell_length_b 19.727808
_cell_length_c 11.464939
_cell_angle_alpha 90.000000
_cell_angle_beta 55.204244
_cell_angle_gamma 90.000000
_cell_volume 2046.428995
_symmetry_space_group_name_H-M "C 2/C"
_symmetry_group_IT_number 15
_symmetry_cell_setting 'monoclinic'
loop_
_space_group_symop_operation_xyz
x,y,z
-x,y,1/2-z
-x,-y,-z
x,-y,1/2+z
1/2+x,1/2+y,z
1/2-x,1/2+y,1/2-z
1/2-x,1/2-y,-z
1/2+x,1/2-y,1/2+z
loop_
_atom_site_type_symbol
_atom_site_label
_atom_site_fract_x
_atom_site_fract_y
_atom_site_fract_z
Si Si1 0.178526 0.116221 0.361846
Si Si2 0.000000 0.062730 0.250000
Si Si3 0.828693 0.713262 0.117674
Si Si4 0.087579 0.779799 0.080938
Si Si5 0.661498 0.517677 0.963581
Si Si6 0.828508 0.345533 0.367060
O O1 0.299310 0.168781 0.249246
O O2 0.095511 0.145412 0.521007
O O3 0.058556 0.108898 0.323681
O O4 0.257047 0.046098 0.362818
O O5 0.864944 0.018803 0.380767
O O6 0.726253 0.780589 0.176003
O O7 0.999413 0.733846 0.035503
O O8 0.799973 0.668364 0.019283
O O9 0.000000 0.784351 0.250000
O O10 0.250000 0.750000 0.000000
O O11 0.737567 0.587314 0.879165
O O12 0.500000 0.500000 0.000000
O O13 0.000000 0.358968 0.250000
#
# Coordination Sequence:
#
# PCOD8140666 Si02
#       6
#     8   4   8   8   8   8
#     4  11  23  42  71 100 138 183 236 291 355 420
#     4  10  20  42  68  98 132 178 234 292 342 414
#     4  11  23  44  73 104 142 185 235 305 360 421
#     4  12  26  46  67 104 147 194 239 289 361 441
#     4  10  22  41  66  98 140 181 228 282 363 424
#     4  11  24  43  74 110 139 179 245 306 360 425
#
# _framework density 21.500868000000001
#
# number of rings (size 3 to 8) (size 9 to 14) (size 15 to 20)
#    0.000    1.091    3.636    3.273    5.091    0.000 
#    3.273    0.909    0.000    0.000    0.000    0.000 
#    0.000    0.000    0.000    0.000    0.000    0.000 
#
# Total GULP energy -272607.993913 kJ/mol
# GULP energy per Si atom -12391.272451 kJ/mol
# Density = 2.145193 g / cm^3
# Si number density = 21.500868 Si / 1000 Ang^3
#
#
#
# Elastic Constant Matrix: (Units=GPa)
#
#
# Indices 1 2 3 4 5 6 
#
# 1 100.8209 52.1824 29.9639 0.0000 -11.0585 0.0000
# 2 52.1824 181.3474 70.1625 0.0000 -4.5921 0.0000
# 3 29.9639 70.1625 119.4684 0.0000 -1.7844 0.0000
# 4 0.0000 0.0000 0.0000 38.7567 0.0000 6.7871
# 5 -11.0585 -4.5921 -1.7844 0.0000 36.1201 0.0000
# 6 0.0000 0.0000 0.0000 6.7871 0.0000 36.9988
#
#
#
# Elastic Compliance Matrix: (Units=1/GPa)
#
#
# Indices 1 2 3 4 5 6 
#
# 1 0.012175 -0.002921 -0.001289 0.000000 0.003292 0.000000
# 2 -0.002921 0.007854 -0.003881 0.000000 -0.000088 0.000000
# 3 -0.001289 -0.003881 0.010968 0.000000 -0.000346 0.000000
# 4 0.000000 0.000000 0.000000 0.026658 0.000000 -0.004890
# 5 0.003292 -0.000088 -0.000346 0.000000 0.028665 0.000000
# 6 0.000000 0.000000 0.000000 -0.004890 0.000000 0.027925
#
#
# Mechanical properties :
#
#
# Convention : Reuss Voigt Hill
#
# Bulk Modulus (GPa) = 67.50279 78.47272 72.98776
# Shear Modulus (GPa) = 36.93680 38.99699 37.96689
#
# Velocity S-wave (km/s) = 4.14928 4.26342 4.20674
# Velocity P-wave (km/s) = 7.37692 7.79823 7.59050
#
# Compressibility (1/GPa) = 0.01481420
#
# Stress axis : x y z
#
# Youngs Moduli (GPa) = 82.13771 127.31810 91.17456
#
# Poissons Ratio (x) = 0.37193 0.11750
# Poissons Ratio (y) = 0.23995 0.35388
# Poissons Ratio (z) = 0.10585 0.49417
#
# Static dielectric constant tensor:
#      x y z
#    x 3.758230 0.000000 0.189350 
#    y 0.000000 4.534530 0.000000 
#    z 0.189350 0.000000 4.607420 
# 
# 
# High freq. dielectric constant tensor:
#      x y z
#    x 1.824840 0.000000 0.009800 
#    y 0.000000 1.849500 0.000000 
#    z 0.009800 0.000000 1.852430 
# 
# From -- ./inp_files/78124.got.cif
#   From: 2010.06.25/outbox.cif.g09.slc.cpg/sg15_40_cif.got.tgz:78124.got - 2010.06.28 07:06:18.
