data_PCOD8140914
_publ_section_title
;
Structure prediction by ZEFSAII (Michael W. Deem and Ramdas Pophale) SiO2 
 PCOD8140914
Probable space group: C 2/C
;
_chemical_formula_sum "Si O2"
_cell_formula_units_Z 56
_cell_length_a 23.831571
_cell_length_b 11.616762
_cell_length_c 28.550062
_cell_angle_alpha 90.000000
_cell_angle_beta 18.429804
_cell_angle_gamma 90.000000
_cell_volume 2498.778791
_symmetry_space_group_name_H-M "C 2/C"
_symmetry_group_IT_number 15
_symmetry_cell_setting 'monoclinic'
loop_
_space_group_symop_operation_xyz
x,y,z
-x,y,1/2-z
-x,-y,-z
x,-y,1/2+z
1/2+x,1/2+y,z
1/2-x,1/2+y,1/2-z
1/2-x,1/2-y,-z
1/2+x,1/2-y,1/2+z
loop_
_atom_site_type_symbol
_atom_site_label
_atom_site_fract_x
_atom_site_fract_y
_atom_site_fract_z
Si Si1 0.871521 0.327811 0.613177
Si Si2 0.998463 0.217090 0.599312
Si Si3 0.154740 0.970824 0.914138
Si Si4 0.942455 0.540774 0.423178
Si Si5 0.599206 0.184292 0.591095
Si Si6 0.274784 0.949745 0.152761
Si Si7 0.206007 0.195188 0.916569
O O1 0.852060 0.277299 0.680989
O O2 0.738486 0.436992 0.713055
O O3 0.831184 0.232001 0.607068
O O4 0.071661 0.372607 0.446109
O O5 0.904544 0.125678 0.707738
O O6 0.134184 0.153682 0.455913
O O7 0.091342 0.320045 0.556376
O O8 0.346504 0.978502 0.737042
O O9 0.152497 0.061271 0.959110
O O10 0.000000 0.000000 0.000000
O O11 0.872686 0.455700 0.436668
O O12 0.833251 0.503614 0.555602
O O13 0.750000 0.250000 0.500000
O O14 0.414893 0.209799 0.763245
O O15 0.589839 0.235714 0.546037
#
# Coordination Sequence:
#
# PCOD8140914 Si02
#       7
#     8   8   8   8   8   8   8
#     4  10  21  32  53  87 130 170 210 247 301 381
#     4  11  23  35  58  92 140 176 210 247 315 399
#     4  11  24  36  55  93 137 172 208 254 318 402
#     4  10  22  42  58  86 125 175 214 269 323 382
#     4  11  25  45  66  90 118 161 225 291 337 366
#     4  10  22  33  57  87 132 177 210 242 306 395
#     4  11  24  38  66  91 128 164 216 269 329 384
#
# _framework density 22.410948000000001
#
# number of rings (size 3 to 8) (size 9 to 14) (size 15 to 20)
#    0.000    1.429    2.857    2.143   10.000    0.000 
#    0.000    0.000    0.000    0.857    0.000    4.000 
#    0.000    0.000    0.000    0.000    0.000    0.000 
#
# Total GULP energy -346926.161993 kJ/mol
# GULP energy per Si atom -12390.220071 kJ/mol
# Density = 2.235994 g / cm^3
# Si number density = 22.410948 Si / 1000 Ang^3
#
#
#
# Elastic Constant Matrix: (Units=GPa)
#
#
# Indices 1 2 3 4 5 6 
#
# 1 46.7265 28.6132 17.8656 -0.0441 -2.9275 0.0048
# 2 28.6132 134.3816 20.1356 -0.0064 0.2340 -0.0134
# 3 17.8656 20.1356 72.9107 -0.1745 8.0244 -0.0830
# 4 -0.0441 -0.0064 -0.1745 34.9949 -0.0707 2.7159
# 5 -2.9275 0.2340 8.0244 -0.0707 27.9610 -0.0033
# 6 0.0048 -0.0134 -0.0830 2.7159 -0.0033 39.8851
#
#
#
# Elastic Compliance Matrix: (Units=1/GPa)
#
#
# Indices 1 2 3 4 5 6 
#
# 1 0.026855 -0.004867 -0.005731 0.000015 0.004497 -0.000017
# 2 -0.004867 0.008654 -0.001170 -0.000011 -0.000246 0.000002
# 3 -0.005731 -0.001170 0.016014 0.000060 -0.005186 0.000029
# 4 0.000015 -0.000011 0.000060 0.028728 0.000057 -0.001956
# 5 0.004497 -0.000246 -0.005186 0.000057 0.037725 -0.000012
# 6 -0.000017 0.000002 0.000029 -0.001956 -0.000012 0.025205
#
#
# Mechanical properties :
#
#
# Convention : Reuss Voigt Hill
#
# Bulk Modulus (GPa) = 35.73309 43.02749 39.38029
# Shear Modulus (GPa) = 28.40174 33.06182 30.73178
#
# Velocity S-wave (km/s) = 3.56380 3.84507 3.70710
# Velocity P-wave (km/s) = 5.73701 6.24129 5.99446
#
# Compressibility (1/GPa) = 0.02798526
#
# Stress axis : x y z
#
# Youngs Moduli (GPa) = 37.23761 115.55899 62.44613
#
# Poissons Ratio (x) = 0.56244 0.35788
# Poissons Ratio (y) = 0.18124 0.07307
# Poissons Ratio (z) = 0.21341 0.13522
#
# Static dielectric constant tensor:
#      x y z
#    x 3.436700 0.000110 0.221860 
#    y 0.000110 4.719940 0.000510 
#    z 0.221860 0.000510 3.875590 
# 
# 
# High freq. dielectric constant tensor:
#      x y z
#    x 1.817510 0.000000 0.030270 
#    y 0.000000 1.914920 0.000020 
#    z 0.030270 0.000020 1.874420 
# 
# From -- ./inp_files/318773.got.cif
#   From: 2010.06.25/outbox.cif.g09.slc.cpg/sg15_160_cif.got.tgz:318773.got - 2010.06.28 07:06:18.
