data_PCOD8140625
_publ_section_title
;
Structure prediction by ZEFSAII (Michael W. Deem and Ramdas Pophale) SiO2 
 PCOD8140625
Probable space group: C 2/C
;
_chemical_formula_sum "Si O2"
_cell_formula_units_Z 48
_cell_length_a 17.773790
_cell_length_b 15.020705
_cell_length_c 17.838050
_cell_angle_alpha 90.000000
_cell_angle_beta 30.901642
_cell_angle_gamma 90.000000
_cell_volume 2445.760177
_symmetry_space_group_name_H-M "C 2/C"
_symmetry_group_IT_number 15
_symmetry_cell_setting 'monoclinic'
loop_
_space_group_symop_operation_xyz
x,y,z
-x,y,1/2-z
-x,-y,-z
x,-y,1/2+z
1/2+x,1/2+y,z
1/2-x,1/2+y,1/2-z
1/2-x,1/2-y,-z
1/2+x,1/2-y,1/2+z
loop_
_atom_site_type_symbol
_atom_site_label
_atom_site_fract_x
_atom_site_fract_y
_atom_site_fract_z
Si Si1 0.630471 0.143964 0.821552
Si Si2 0.558561 0.347969 0.380636
Si Si3 0.581067 0.146102 0.368262
Si Si4 0.117413 0.153978 0.328468
Si Si5 0.457482 0.505027 0.371686
Si Si6 0.622212 0.998294 0.708679
O O1 0.801719 0.128344 0.688186
O O2 0.584158 0.243428 0.836404
O O3 0.583888 0.083178 0.792257
O O4 0.559761 0.118271 0.962475
O O5 0.569081 0.245943 0.344809
O O6 0.420756 0.363643 0.552172
O O7 0.536739 0.414144 0.329945
O O8 0.709261 0.136143 0.321107
O O9 0.605521 0.087621 0.274632
O O10 0.026255 0.090473 0.353078
O O11 0.500000 0.516846 0.250000
O O12 0.282944 0.502737 0.533793
O O13 0.500000 0.992944 0.750000
#
# Coordination Sequence:
#
# PCOD8140625 Si02
#       6
#     8   8   8   8   8   8
#     4  10  22  39  68  94 118 154 206 259 303 351
#     4  10  20  42  67  91 116 159 211 253 296 359
#     4  10  22  39  68  94 118 154 206 259 303 351
#     4  10  20  42  67  91 116 159 211 253 296 359
#     4  12  26  41  62  88 127 171 200 240 307 371
#     4  12  26  42  58  92 131 162 197 253 306 362
#
# _framework density 19.625800999999999
#
# number of rings (size 3 to 8) (size 9 to 14) (size 15 to 20)
#    0.000    1.333    3.333    2.000    4.667    1.333 
#    0.000    3.333    0.000    0.000    0.000    0.000 
#    0.000    0.000    0.000    0.000    0.000    0.000 
#
# Total GULP energy -297579.744077 kJ/mol
# GULP energy per Si atom -12399.156003 kJ/mol
# Density = 1.958113 g / cm^3
# Si number density = 19.625801 Si / 1000 Ang^3
#
#
#
# Elastic Constant Matrix: (Units=GPa)
#
#
# Indices 1 2 3 4 5 6 
#
# 1 118.1416 79.7779 53.5332 0.0000 8.8235 -0.0001
# 2 79.7779 136.8069 70.6728 0.0004 16.2926 -0.0002
# 3 53.5332 70.6728 98.4903 0.0000 11.6211 -0.0011
# 4 0.0000 0.0004 0.0000 25.2588 -0.0003 -7.3181
# 5 8.8235 16.2926 11.6211 -0.0003 35.5672 0.0001
# 6 -0.0001 -0.0002 -0.0011 -7.3181 0.0001 5.5709
#
#
#
# Elastic Compliance Matrix: (Units=1/GPa)
#
#
# Indices 1 2 3 4 5 6 
#
# 1 0.014468 -0.007004 -0.002905 0.000000 0.000568 -0.000001
# 2 -0.007004 0.015260 -0.006785 -0.000001 -0.003036 -0.000002
# 3 -0.002905 -0.006785 0.016797 0.000002 -0.001659 0.000005
# 4 0.000000 -0.000001 0.000002 0.063916 0.000000 0.083962
# 5 0.000568 -0.003036 -0.001659 0.000000 0.029908 -0.000001
# 6 -0.000001 -0.000002 0.000005 0.083962 -0.000001 0.289799
#
#
# Mechanical properties :
#
#
# Convention : Reuss Voigt Hill
#
# Bulk Modulus (GPa) = 76.12207 84.60071 80.36139
# Shear Modulus (GPa) = 10.68568 23.24305 16.96437
#
# Velocity S-wave (km/s) = 2.33592 3.44512 2.94324
# Velocity P-wave (km/s) = 6.79311 7.68281 7.25162
#
# Compressibility (1/GPa) = 0.01313679
#
# Stress axis : x y z
#
# Youngs Moduli (GPa) = 69.11891 65.52872 59.53393
#
# Poissons Ratio (x) = 0.45894 0.17297
# Poissons Ratio (y) = 0.48408 0.40396
# Poissons Ratio (z) = 0.20081 0.44464
#
# Static dielectric constant tensor:
#      x y z
#    x 3.268590 0.000000 -0.129660 
#    y 0.000000 3.746870 0.000000 
#    z -0.129660 0.000000 3.787230 
# 
# 
# High freq. dielectric constant tensor:
#      x y z
#    x 1.741730 0.000000 -0.010820 
#    y 0.000000 1.779790 0.000000 
#    z -0.010820 0.000000 1.783730 
# 
# From -- ./inp_files/66400.got.cif
#   From: 2010.06.25/outbox.cif.g09.slc.cpg/sg15_34_cif.got.tgz:66400.got - 2010.06.28 07:06:18.
