data_PCOD8140645
_publ_section_title
;
Structure prediction by ZEFSAII (Michael W. Deem and Ramdas Pophale) SiO2 
 PCOD8140645
Probable space group: C 2/C
;
_chemical_formula_sum "Si O2"
_cell_formula_units_Z 52
_cell_length_a 10.670668
_cell_length_b 24.268387
_cell_length_c 13.394128
_cell_angle_alpha 90.000000
_cell_angle_beta 46.465552
_cell_angle_gamma 90.000000
_cell_volume 2514.555566
_symmetry_space_group_name_H-M "C 2/C"
_symmetry_group_IT_number 15
_symmetry_cell_setting 'monoclinic'
loop_
_space_group_symop_operation_xyz
x,y,z
-x,y,1/2-z
-x,-y,-z
x,-y,1/2+z
1/2+x,1/2+y,z
1/2-x,1/2+y,1/2-z
1/2-x,1/2-y,-z
1/2+x,1/2-y,1/2+z
loop_
_atom_site_type_symbol
_atom_site_label
_atom_site_fract_x
_atom_site_fract_y
_atom_site_fract_z
Si Si1 0.846488 0.568007 0.624665
Si Si2 0.054216 0.231388 0.112030
Si Si3 0.500000 0.378886 0.250000
Si Si4 0.914719 0.460212 0.689185
Si Si5 0.743695 0.685947 0.484746
Si Si6 0.006917 0.672891 0.504537
Si Si7 0.203939 0.853564 0.789779
O O1 0.647866 0.582343 0.712895
O O2 0.842896 0.521919 0.713158
O O3 0.956413 0.621267 0.603913
O O4 0.935493 0.547558 0.473978
O O5 0.000000 0.249920 0.250000
O O6 0.955147 0.270015 0.085465
O O7 0.996789 0.167724 0.116062
O O8 0.250000 0.250000 0.000000
O O9 0.435152 0.340021 0.376535
O O10 0.748445 0.418743 0.766375
O O11 0.000000 0.452796 0.750000
O O12 0.750000 0.750000 0.500000
O O13 0.898867 0.659700 0.463346
O O14 0.776222 0.672187 0.351923
O O15 0.205632 0.673211 0.358433
#
# Coordination Sequence:
#
# PCOD8140645 Si02
#       7
#     8   8   4   8   8   8   8
#     4   9  21  40  62  91 124 163 204 266 327 372
#     4  12  25  41  60  89 134 174 215 254 319 404
#     4  10  22  38  56  96 136 154 206 264 318 392
#     4  10  20  42  68  90 119 161 218 267 317 387
#     4  11  22  34  63  93 125 163 206 263 325 372
#     4  10  21  39  62  90 127 165 212 263 316 387
#     4  11  22  40  63  91 122 165 214 267 320 377
#
# _framework density 20.679597999999999
#
# number of rings (size 3 to 8) (size 9 to 14) (size 15 to 20)
#    0.000    1.538    3.077    3.231    2.154    3.077 
#    1.385    3.077    0.000    0.000    0.000    0.000 
#    0.000    0.000    0.000    0.000    0.000    0.000 
#
# Total GULP energy -322105.007215 kJ/mol
# GULP energy per Si atom -12388.654124 kJ/mol
# Density = 2.063253 g / cm^3
# Si number density = 20.679598 Si / 1000 Ang^3
#
#
#
# Elastic Constant Matrix: (Units=GPa)
#
#
# Indices 1 2 3 4 5 6 
#
# 1 82.9106 39.3695 39.9572 0.0000 -10.2582 0.0000
# 2 39.3695 139.3077 46.3737 0.0000 -9.0687 0.0000
# 3 39.9572 46.3737 80.3311 0.0000 -11.1221 0.0000
# 4 0.0000 0.0000 0.0000 30.6102 0.0000 -1.2053
# 5 -10.2582 -9.0687 -11.1221 0.0000 36.5154 0.0000
# 6 0.0000 0.0000 0.0000 -1.2053 0.0000 35.3432
#
#
#
# Elastic Compliance Matrix: (Units=1/GPa)
#
#
# Indices 1 2 3 4 5 6 
#
# 1 0.016630 -0.002360 -0.006623 0.000000 0.002068 0.000000
# 2 -0.002360 0.009237 -0.004106 0.000000 0.000380 0.000000
# 3 -0.006623 -0.004106 0.018494 0.000000 0.002753 0.000000
# 4 0.000000 0.000000 0.000000 0.032713 0.000000 0.001116
# 5 0.002068 0.000380 0.002753 0.000000 0.028900 0.000000
# 6 0.000000 0.000000 0.000000 0.001116 0.000000 0.028332
#
#
# Mechanical properties :
#
#
# Convention : Reuss Voigt Hill
#
# Bulk Modulus (GPa) = 54.99628 61.55006 58.27317
# Shear Modulus (GPa) = 30.02226 32.28368 31.15297
#
# Velocity S-wave (km/s) = 3.81436 3.95541 3.88552
# Velocity P-wave (km/s) = 6.78611 7.11959 6.95485
#
# Compressibility (1/GPa) = 0.01818305
#
# Stress axis : x y z
#
# Youngs Moduli (GPa) = 60.13380 108.26182 54.07211
#
# Poissons Ratio (x) = 0.25554 0.35810
# Poissons Ratio (y) = 0.14194 0.22199
# Poissons Ratio (z) = 0.39825 0.44447
#
# Static dielectric constant tensor:
#      x y z
#    x 3.919690 0.000000 0.146410 
#    y 0.000000 4.325770 0.000000 
#    z 0.146410 0.000000 3.649590 
# 
# 
# High freq. dielectric constant tensor:
#      x y z
#    x 1.797880 0.000000 0.004600 
#    y 0.000000 1.813700 0.000000 
#    z 0.004600 0.000000 1.807460 
# 
# From -- ./inp_files/148054.got.cif
#   From: 2010.06.25/outbox.cif.g09.slc.cpg/sg15_75_cif.got.tgz:148054.got - 2010.06.28 07:06:18.
