data_PCOD8140217
_publ_section_title
;
Structure prediction by ZEFSAII (Michael W. Deem and Ramdas Pophale) SiO2 
 PCOD8140217
Probable space group: C 2/C
;
_chemical_formula_sum "Si O2"
_cell_formula_units_Z 44
_cell_length_a 29.370682
_cell_length_b 8.416175
_cell_length_c 28.049056
_cell_angle_alpha 90.000000
_cell_angle_beta 161.976654
_cell_angle_gamma 90.000000
_cell_volume 2145.228957
_symmetry_space_group_name_H-M "C 2/C"
_symmetry_group_IT_number 15
_symmetry_cell_setting 'monoclinic'
loop_
_space_group_symop_operation_xyz
x,y,z
-x,y,1/2-z
-x,-y,-z
x,-y,1/2+z
1/2+x,1/2+y,z
1/2-x,1/2+y,1/2-z
1/2-x,1/2-y,-z
1/2+x,1/2-y,1/2+z
loop_
_atom_site_type_symbol
_atom_site_label
_atom_site_fract_x
_atom_site_fract_y
_atom_site_fract_z
Si Si1 0.897097 0.103948 0.959476
Si Si2 0.325317 0.409413 0.283581
Si Si3 0.242902 0.366058 0.055655
Si Si4 0.609665 0.060062 0.002678
Si Si5 0.179225 0.372668 0.787784
Si Si6 0.000000 0.781085 0.250000
O O1 0.810112 0.140298 0.823699
O O2 0.892997 0.252572 0.991043
O O3 0.825056 0.955045 0.913568
O O4 0.064057 0.057661 0.113172
O O5 0.167275 0.467897 0.107030
O O6 0.380304 0.256729 0.309051
O O7 0.215891 0.516773 0.063587
O O8 0.274844 0.206427 0.117027
O O9 0.388677 0.395794 0.168706
O O10 0.097232 0.335475 0.879650
O O11 0.446121 0.002478 0.828145
#
# Coordination Sequence:
#
# PCOD8140217 Si02
#       6
#     8   8   8   8   8   4
#     4  11  23  37  58  88 126 165 202 252 301 345
#     4  10  22  38  58  86 121 171 212 239 289 359
#     4  10  21  39  66  96 113 159 197 253 298 377
#     4  11  22  37  58  90 126 157 200 257 302 352
#     4  11  22  38  59  89 121 158 207 245 293 369
#     4  10  20  40  70  92 116 150 214 242 306 384
#
# _framework density 20.510631
#
# number of rings (size 3 to 8) (size 9 to 14) (size 15 to 20)
#    0.000    1.455    1.818    4.364    2.545    5.818 
#    0.000    0.000    0.000    6.545    0.000    0.000 
#    0.000    0.000    0.000    0.000    0.000    0.000 
#
# Total GULP energy -272853.193284 kJ/mol
# GULP energy per Si atom -12402.417877 kJ/mol
# Density = 2.046395 g / cm^3
# Si number density = 20.510631 Si / 1000 Ang^3
#
#
#
# Elastic Constant Matrix: (Units=GPa)
#
#
# Indices 1 2 3 4 5 6 
#
# 1 106.3542 47.1623 38.4949 -0.0031 -3.1124 -0.0019
# 2 47.1623 100.5483 28.9377 -0.0028 -4.1618 -0.0011
# 3 38.4949 28.9377 98.1557 -0.0115 -4.3556 -0.0067
# 4 -0.0031 -0.0028 -0.0115 22.1659 -0.0040 4.5056
# 5 -3.1124 -4.1618 -4.3556 -0.0040 35.0862 -0.0008
# 6 -0.0019 -0.0011 -0.0067 4.5056 -0.0008 29.9529
#
#
#
# Elastic Compliance Matrix: (Units=1/GPa)
#
#
# Indices 1 2 3 4 5 6 
#
# 1 0.012934 -0.005031 -0.003585 -0.000001 0.000106 0.000000
# 2 -0.005031 0.012852 -0.001778 0.000000 0.000857 0.000000
# 3 -0.003585 -0.001778 0.012161 0.000005 0.000981 0.000002
# 4 -0.000001 0.000000 0.000005 0.046537 0.000006 -0.007000
# 5 0.000106 0.000857 0.000981 0.000006 0.028734 0.000000
# 6 0.000000 0.000000 0.000002 -0.007000 0.000000 0.034439
#
#
# Mechanical properties :
#
#
# Convention : Reuss Voigt Hill
#
# Bulk Modulus (GPa) = 58.27177 59.36087 58.81632
# Shear Modulus (GPa) = 28.70842 30.13855 29.42348
#
# Velocity S-wave (km/s) = 3.74529 3.83745 3.79165
# Velocity P-wave (km/s) = 6.86842 6.97417 6.92150
#
# Compressibility (1/GPa) = 0.01716097
#
# Stress axis : x y z
#
# Youngs Moduli (GPa) = 77.31616 77.80701 82.22694
#
# Poissons Ratio (x) = 0.39142 0.29476
# Poissons Ratio (y) = 0.38895 0.14621
# Poissons Ratio (z) = 0.27715 0.13835
#
# Static dielectric constant tensor:
#      x y z
#    x 3.886950 0.000000 -0.022510 
#    y 0.000000 3.436470 -0.000010 
#    z -0.022510 -0.000010 3.753020 
# 
# 
# High freq. dielectric constant tensor:
#      x y z
#    x 1.801560 0.000000 -0.000830 
#    y 0.000000 1.776030 0.000000 
#    z -0.000830 0.000000 1.815830 
# 
# From -- ./inp_files/68282.got.cif
#   From: 2010.06.25/outbox.cif.g09.slc.cpg/sg15_35_cif.got.tgz:68282.got - 2010.06.28 07:06:18.
