data_PCOD8140522
_publ_section_title
;
Structure prediction by ZEFSAII (Michael W. Deem and Ramdas Pophale) SiO2 
 PCOD8140522
Probable space group: C 2/C
;
_chemical_formula_sum "Si O2"
_cell_formula_units_Z 48
_cell_length_a 7.981609
_cell_length_b 27.977050
_cell_length_c 16.204227
_cell_angle_alpha 90.000000
_cell_angle_beta 35.338176
_cell_angle_gamma 90.000000
_cell_volume 2092.907028
_symmetry_space_group_name_H-M "C 2/C"
_symmetry_group_IT_number 15
_symmetry_cell_setting 'monoclinic'
loop_
_space_group_symop_operation_xyz
x,y,z
-x,y,1/2-z
-x,-y,-z
x,-y,1/2+z
1/2+x,1/2+y,z
1/2-x,1/2+y,1/2-z
1/2-x,1/2-y,-z
1/2+x,1/2-y,1/2+z
loop_
_atom_site_type_symbol
_atom_site_label
_atom_site_fract_x
_atom_site_fract_y
_atom_site_fract_z
Si Si1 0.908688 0.392608 0.196392
Si Si2 0.296520 0.902017 0.675409
Si Si3 0.954445 0.942455 0.941162
Si Si4 0.884944 0.048617 0.933970
Si Si5 0.998208 0.693062 0.153459
Si Si6 0.071275 0.799939 0.317072
O O1 0.634199 0.425285 0.279262
O O2 0.837666 0.335942 0.225937
O O3 0.000000 0.409424 0.250000
O O4 0.186686 0.405610 0.027882
O O5 0.588160 0.926129 0.523468
O O6 0.314966 0.844783 0.674679
O O7 0.000000 0.917356 0.750000
O O8 0.253608 0.923165 0.783996
O O9 0.867880 0.991878 0.930093
O O10 0.027845 0.943891 0.006824
O O11 0.844619 0.744506 0.202806
O O12 0.000000 0.680300 0.250000
O O13 0.318610 0.689503 0.984789
O O14 0.000000 0.807874 0.250000
#
# Coordination Sequence:
#
# PCOD8140522 Si02
#       6
#     8   8   8   8   8   8
#     4  10  21  36  63  94 122 165 212 264 322 381
#     4  12  25  38  61  95 130 168 211 269 329 378
#     4  10  22  38  65  92 121 166 221 264 316 384
#     4  10  20  42  63  88 125 170 217 264 312 391
#     4  10  22  43  68  92 125 175 217 258 324 397
#     4  10  22  41  68  95 127 168 212 268 330 386
#
# _framework density 22.934607
#
# number of rings (size 3 to 8) (size 9 to 14) (size 15 to 20)
#    0.000    1.667    1.667    2.500    4.667    4.000 
#    0.000    2.500    0.000    0.000    0.000    0.000 
#    0.000    0.000    0.000    0.000    0.000    0.000 
#
# Total GULP energy -297355.695483 kJ/mol
# GULP energy per Si atom -12389.820645 kJ/mol
# Density = 2.288241 g / cm^3
# Si number density = 22.934607 Si / 1000 Ang^3
#
#
#
# Elastic Constant Matrix: (Units=GPa)
#
#
# Indices 1 2 3 4 5 6 
#
# 1 47.6600 18.4626 12.5556 0.0000 -18.6326 0.0000
# 2 18.4626 123.3147 12.0602 0.0000 -26.0597 0.0000
# 3 12.5556 12.0602 93.0209 -0.0001 -10.7668 0.0001
# 4 0.0000 0.0000 -0.0001 25.9942 0.0000 -6.8573
# 5 -18.6326 -26.0597 -10.7668 0.0000 36.9637 0.0000
# 6 0.0000 0.0000 0.0001 -6.8573 0.0000 27.0083
#
#
#
# Elastic Compliance Matrix: (Units=1/GPa)
#
#
# Indices 1 2 3 4 5 6 
#
# 1 0.026691 -0.001267 -0.002054 0.000000 0.011963 0.000000
# 2 -0.001267 0.009609 -0.000377 0.000000 0.006026 0.000000
# 3 -0.002054 -0.000377 0.011307 0.000000 0.001992 0.000000
# 4 0.000000 0.000000 0.000000 0.041232 0.000000 0.010469
# 5 0.011963 0.006026 0.001992 0.000000 0.037912 0.000000
# 6 0.000000 0.000000 0.000000 0.010469 0.000000 0.039684
#
#
# Mechanical properties :
#
#
# Convention : Reuss Voigt Hill
#
# Bulk Modulus (GPa) = 24.86909 38.90584 31.88746
# Shear Modulus (GPa) = 26.70447 32.72107 29.71277
#
# Velocity S-wave (km/s) = 3.41600 3.78128 3.60327
# Velocity P-wave (km/s) = 5.14059 6.00539 5.58974
#
# Compressibility (1/GPa) = 0.04021056
#
# Stress axis : x y z
#
# Youngs Moduli (GPa) = 37.46634 104.06454 88.44086
#
# Poissons Ratio (x) = 0.13188 0.18163
# Poissons Ratio (y) = 0.04748 0.03337
# Poissons Ratio (z) = 0.07694 0.03927
#
# Static dielectric constant tensor:
#      x y z
#    x 3.764610 0.000000 0.057620 
#    y 0.000000 4.351500 0.000000 
#    z 0.057620 0.000000 4.546480 
# 
# 
# High freq. dielectric constant tensor:
#      x y z
#    x 1.885480 0.000000 0.009310 
#    y 0.000000 1.914930 0.000000 
#    z 0.009310 0.000000 1.915080 
# 
# From -- ./inp_files/138925.got.cif
#   From: 2010.06.25/outbox.cif.g09.slc.cpg/sg15_70_cif.got.tgz:138925.got - 2010.06.28 07:06:18.
