data_PCOD8140405
_publ_section_title
;
Structure prediction by ZEFSAII (Michael W. Deem and Ramdas Pophale) SiO2 
 PCOD8140405
Probable space group: C 2/C
;
_chemical_formula_sum "Si O2"
_cell_formula_units_Z 44
_cell_length_a 16.839942
_cell_length_b 14.517442
_cell_length_c 21.652785
_cell_angle_alpha 90.000000
_cell_angle_beta 157.341555
_cell_angle_gamma 90.000000
_cell_volume 2039.258485
_symmetry_space_group_name_H-M "C 2/C"
_symmetry_group_IT_number 15
_symmetry_cell_setting 'monoclinic'
loop_
_space_group_symop_operation_xyz
x,y,z
-x,y,1/2-z
-x,-y,-z
x,-y,1/2+z
1/2+x,1/2+y,z
1/2-x,1/2+y,1/2-z
1/2-x,1/2-y,-z
1/2+x,1/2-y,1/2+z
loop_
_atom_site_type_symbol
_atom_site_label
_atom_site_fract_x
_atom_site_fract_y
_atom_site_fract_z
Si Si1 0.000000 0.260493 0.250000
Si Si2 0.131250 0.729540 0.507297
Si Si3 0.171751 0.027832 0.170728
Si Si4 0.451072 0.688737 0.082590
Si Si5 0.541044 0.874028 0.717129
Si Si6 0.297752 0.164962 0.811248
O O1 0.207143 0.322551 0.391575
O O2 0.022732 0.194266 0.325244
O O3 0.322806 0.796142 0.651558
O O4 0.122114 0.664512 0.560974
O O5 0.153871 0.670799 0.459456
O O6 0.920019 0.785963 0.353030
O O7 0.348083 0.074834 0.257965
O O8 0.075440 0.098973 0.150241
O O9 0.275900 0.941440 0.278211
O O10 0.000000 0.000000 0.000000
O O11 0.535161 0.782169 0.111075
O O12 0.500000 0.936156 0.750000
#
# Coordination Sequence:
#
# PCOD8140405 Si02
#       6
#     4   8   8   8   8   8
#     4  10  24  42  68  98 130 176 212 282 324 392
#     4  10  20  41  67  91 127 172 214 273 319 399
#     4  12  23  41  69  94 131 177 217 270 330 400
#     4  11  22  45  68  94 137 169 223 268 335 388
#     4  11  23  41  64  98 128 167 221 270 331 383
#     4  11  21  41  69  95 127 174 226 261 332 395
#
# _framework density 21.576468999999999
#
# number of rings (size 3 to 8) (size 9 to 14) (size 15 to 20)
#    0.000    1.091    5.455    2.727    0.000    0.727 
#    9.818    0.000    2.000    0.000    0.000    0.000 
#    0.000    0.000    0.000    0.000    0.000    0.000 
#
# Total GULP energy -272633.614649 kJ/mol
# GULP energy per Si atom -12392.437029 kJ/mol
# Density = 2.152736 g / cm^3
# Si number density = 21.576469 Si / 1000 Ang^3
#
#
#
# Elastic Constant Matrix: (Units=GPa)
#
#
# Indices 1 2 3 4 5 6 
#
# 1 135.8383 46.9693 44.0854 0.0008 -22.6373 -0.0040
# 2 46.9693 110.2434 32.4461 0.0038 -7.1562 0.0020
# 3 44.0854 32.4461 105.8762 -0.0410 -15.6548 -0.0028
# 4 0.0008 0.0038 -0.0410 26.1418 0.0156 -8.0330
# 5 -22.6373 -7.1562 -15.6548 0.0156 44.7610 0.0070
# 6 -0.0040 0.0020 -0.0028 -8.0330 0.0070 9.6163
#
#
#
# Elastic Compliance Matrix: (Units=1/GPa)
#
#
# Indices 1 2 3 4 5 6 
#
# 1 0.009923 -0.003226 -0.002613 -0.000008 0.003589 -0.000005
# 2 -0.003226 0.011032 -0.002128 -0.000008 -0.000612 -0.000010
# 3 -0.002613 -0.002128 0.011536 0.000023 0.002373 0.000020
# 4 -0.000008 -0.000008 0.000023 0.051463 -0.000022 0.042990
# 5 0.003589 -0.000612 0.002373 -0.000022 0.024888 -0.000034
# 6 -0.000005 -0.000010 0.000020 0.042990 -0.000034 0.139903
#
#
# Mechanical properties :
#
#
# Convention : Reuss Voigt Hill
#
# Bulk Modulus (GPa) = 60.39439 66.55106 63.47272
# Shear Modulus (GPa) = 18.50501 31.33429 24.91965
#
# Velocity S-wave (km/s) = 2.93174 3.81497 3.40214
# Velocity P-wave (km/s) = 6.28584 7.09341 6.70180
#
# Compressibility (1/GPa) = 0.01655783
#
# Stress axis : x y z
#
# Youngs Moduli (GPa) = 100.77480 90.64713 86.68605
#
# Poissons Ratio (x) = 0.29241 0.22648
# Poissons Ratio (y) = 0.32508 0.18447
# Poissons Ratio (z) = 0.26329 0.19290
#
# Static dielectric constant tensor:
#      x y z
#    x 4.446590 -0.000050 -0.159510 
#    y -0.000050 3.619850 0.000240 
#    z -0.159510 0.000240 4.157730 
# 
# 
# High freq. dielectric constant tensor:
#      x y z
#    x 1.874860 0.000000 -0.011150 
#    y 0.000000 1.817910 -0.000010 
#    z -0.011150 -0.000010 1.862230 
# 
# From -- ./inp_files/47001.got.cif
#   From: 2010.06.25/outbox.cif.g09.slc.cpg/sg15_24_cif.got.tgz:47001.got - 2010.06.28 07:06:18.
