data_PCOD8140839
_publ_section_title
;
Structure prediction by ZEFSAII (Michael W. Deem and Ramdas Pophale) SiO2 
 PCOD8140839
Probable space group: C 2/C
;
_chemical_formula_sum "Si O2"
_cell_formula_units_Z 52
_cell_length_a 17.076413
_cell_length_b 8.881933
_cell_length_c 15.096376
_cell_angle_alpha 90.000000
_cell_angle_beta 89.793948
_cell_angle_gamma 90.000000
_cell_volume 2289.676034
_symmetry_space_group_name_H-M "C 2/C"
_symmetry_group_IT_number 15
_symmetry_cell_setting 'monoclinic'
loop_
_space_group_symop_operation_xyz
x,y,z
-x,y,1/2-z
-x,-y,-z
x,-y,1/2+z
1/2+x,1/2+y,z
1/2-x,1/2+y,1/2-z
1/2-x,1/2-y,-z
1/2+x,1/2-y,1/2+z
loop_
_atom_site_type_symbol
_atom_site_label
_atom_site_fract_x
_atom_site_fract_y
_atom_site_fract_z
Si Si1 0.000000 0.649736 0.250000
Si Si2 0.721030 0.496489 0.700618
Si Si3 0.871384 0.661766 0.999167
Si Si4 0.236696 0.822570 0.367441
Si Si5 0.563586 0.390671 0.115341
Si Si6 0.979551 0.177591 0.076663
Si Si7 0.389883 0.058892 0.644384
O O1 0.032982 0.748221 0.169625
O O2 0.071575 0.546229 0.281107
O O3 0.729466 0.317113 0.689945
O O4 0.709750 0.542417 0.803339
O O5 0.648786 0.556512 0.644365
O O6 0.798545 0.578385 0.664151
O O7 0.838795 0.773294 0.075638
O O8 0.903271 0.511806 0.046538
O O9 0.802967 0.614068 0.932335
O O10 0.939006 0.741482 0.945147
O O11 0.499300 0.522861 0.127261
O O12 0.570403 0.350117 0.011823
O O13 0.929608 0.277372 0.145070
#
# Coordination Sequence:
#
# PCOD8140839 Si02
#       7
#     4   8   8   8   8   8   8
#     4  12  26  44  68 102 134 180 216 290 330 396
#     4  11  24  44  63 103 127 179 218 281 329 397
#     4  10  20  44  67  97 128 182 216 272 328 401
#     4  10  23  41  71  93 138 171 225 270 340 391
#     4  11  25  44  69  97 142 169 228 270 348 387
#     4  11  24  45  70  99 133 184 220 277 330 412
#     4  11  26  42  70  99 136 173 233 267 339 391
#
# _framework density 22.710636999999998
#
# number of rings (size 3 to 8) (size 9 to 14) (size 15 to 20)
#    0.000    1.231    3.077    2.308    2.154    3.692 
#    2.769    0.000    0.000    0.000    0.000    0.000 
#    0.000    0.000    0.000    0.000    0.000    0.000 
#
# Total GULP energy -322542.934351 kJ/mol
# GULP energy per Si atom -12405.497475 kJ/mol
# Density = 2.265895 g / cm^3
# Si number density = 22.710637 Si / 1000 Ang^3
#
#
#
# Elastic Constant Matrix: (Units=GPa)
#
#
# Indices 1 2 3 4 5 6 
#
# 1 89.3895 27.0008 38.3093 0.0000 25.1551 0.0000
# 2 27.0008 93.2943 38.2689 0.0000 11.9510 0.0000
# 3 38.3093 38.2689 89.3198 0.0000 19.8245 0.0000
# 4 0.0000 0.0000 0.0000 33.1604 0.0000 -6.9518
# 5 25.1551 11.9510 19.8245 0.0000 31.2994 0.0000
# 6 0.0000 0.0000 0.0000 -6.9518 0.0000 14.2294
#
#
#
# Elastic Compliance Matrix: (Units=1/GPa)
#
#
# Indices 1 2 3 4 5 6 
#
# 1 0.016203 -0.001790 -0.004007 0.000000 -0.009801 0.000000
# 2 -0.001790 0.013278 -0.004788 0.000000 -0.000598 0.000000
# 3 -0.004007 -0.004788 0.016110 0.000000 -0.005155 0.000000
# 4 0.000000 0.000000 0.000000 0.033598 0.000000 0.016414
# 5 -0.009801 -0.000598 -0.005155 0.000000 0.043320 0.000000
# 6 0.000000 0.000000 0.000000 0.016414 0.000000 0.078296
#
#
# Mechanical properties :
#
#
# Convention : Reuss Voigt Hill
#
# Bulk Modulus (GPa) = 40.95082 53.24017 47.09549
# Shear Modulus (GPa) = 21.72822 26.96614 24.34718
#
# Velocity S-wave (km/s) = 3.09648 3.44958 3.27779
# Velocity P-wave (km/s) = 5.55472 6.27374 5.92515
#
# Compressibility (1/GPa) = 0.02441954
#
# Stress axis : x y z
#
# Youngs Moduli (GPa) = 61.71649 75.31476 62.07294
#
# Poissons Ratio (x) = 0.13483 0.24874
# Poissons Ratio (y) = 0.11049 0.29722
# Poissons Ratio (z) = 0.24731 0.36062
#
# Static dielectric constant tensor:
#      x y z
#    x 4.096400 0.000000 0.215170 
#    y 0.000000 4.178560 0.000000 
#    z 0.215170 0.000000 4.101210 
# 
# 
# High freq. dielectric constant tensor:
#      x y z
#    x 1.905530 0.000000 0.015760 
#    y 0.000000 1.891140 0.000000 
#    z 0.015760 0.000000 1.896360 
# 
# From -- ./inp_files/209131.got.cif
#   From: 2010.06.25/outbox.cif.g09.slc.cpg/sg15_105_cif.got.tgz:209131.got - 2010.06.28 07:06:18.
