data_PCOD8140430
_publ_section_title
;
Structure prediction by ZEFSAII (Michael W. Deem and Ramdas Pophale) SiO2 
 PCOD8140430
Probable space group: C 2/C
;
_chemical_formula_sum "Si O2"
_cell_formula_units_Z 48
_cell_length_a 19.040481
_cell_length_b 19.463301
_cell_length_c 8.577370
_cell_angle_alpha 90.000000
_cell_angle_beta 135.120826
_cell_angle_gamma 90.000000
_cell_volume 2242.930320
_symmetry_space_group_name_H-M "C 2/C"
_symmetry_group_IT_number 15
_symmetry_cell_setting 'monoclinic'
loop_
_space_group_symop_operation_xyz
x,y,z
-x,y,1/2-z
-x,-y,-z
x,-y,1/2+z
1/2+x,1/2+y,z
1/2-x,1/2+y,1/2-z
1/2-x,1/2-y,-z
1/2+x,1/2-y,1/2+z
loop_
_atom_site_type_symbol
_atom_site_label
_atom_site_fract_x
_atom_site_fract_y
_atom_site_fract_z
Si Si1 0.523552 0.801964 0.113665
Si Si2 0.189043 0.589013 0.818412
Si Si3 0.851829 0.222709 0.726810
Si Si4 0.268868 0.496858 0.690457
Si Si5 0.330363 0.299854 0.555138
Si Si6 0.390010 0.578261 0.635843
O O1 0.500000 0.830736 0.250000
O O2 0.598169 0.857569 0.156277
O O3 0.567375 0.724142 0.204276
O O4 0.430544 0.787215 0.852724
O O5 0.205327 0.555037 0.677523
O O6 0.294523 0.623870 0.038588
O O7 0.179997 0.533770 0.942131
O O8 0.750000 0.250000 0.500000
O O9 0.835287 0.201840 0.877554
O O10 0.886987 0.158824 0.676248
O O11 0.359035 0.531387 0.734892
O O12 0.312771 0.439280 0.875821
O O13 0.250000 0.250000 0.500000
O O14 0.500000 0.558730 0.750000
#
# Coordination Sequence:
#
# PCOD8140430 Si02
#       6
#     8   8   8   8   8   8
#     4   9  21  39  65  96 125 171 218 265 330 397
#     4  10  20  41  68  89 133 170 219 258 333 388
#     4  11  24  40  65  98 130 164 224 283 327 376
#     4  10  23  41  66  93 129 179 214 270 322 398
#     4   9  19  38  65  88 125 171 210 263 332 393
#     4  11  24  41  63  96 132 168 224 271 334 388
#
# _framework density 21.400573999999999
#
# number of rings (size 3 to 8) (size 9 to 14) (size 15 to 20)
#    0.000    2.000    1.667    0.500    9.333    1.333 
#    0.000    0.833    0.000    0.000    0.000    0.000 
#    0.000    0.000    0.000    0.000    0.000    0.000 
#
# Total GULP energy -297324.657358 kJ/mol
# GULP energy per Si atom -12388.527390 kJ/mol
# Density = 2.135187 g / cm^3
# Si number density = 21.400574 Si / 1000 Ang^3
#
#
#
# Elastic Constant Matrix: (Units=GPa)
#
#
# Indices 1 2 3 4 5 6 
#
# 1 117.6360 58.0644 49.0365 0.0000 -2.6958 0.0000
# 2 58.0644 110.5009 51.8501 0.0000 3.2494 0.0000
# 3 49.0365 51.8501 113.7950 0.0000 12.7398 0.0000
# 4 0.0000 0.0000 0.0000 28.0063 0.0000 2.8328
# 5 -2.6958 3.2494 12.7398 0.0000 29.4775 0.0000
# 6 0.0000 0.0000 0.0000 2.8328 0.0000 37.1977
#
#
#
# Elastic Compliance Matrix: (Units=1/GPa)
#
#
# Indices 1 2 3 4 5 6 
#
# 1 0.012500 -0.005046 -0.003444 0.000000 0.003188 0.000000
# 2 -0.005046 0.013579 -0.003986 0.000000 -0.000235 0.000000
# 3 -0.003444 -0.003986 0.012688 0.000000 -0.005359 0.000000
# 4 0.000000 0.000000 0.000000 0.035983 0.000000 -0.002740
# 5 0.003188 -0.000235 -0.005359 0.000000 0.036558 0.000000
# 6 0.000000 0.000000 0.000000 -0.002740 0.000000 0.027092
#
#
# Mechanical properties :
#
#
# Convention : Reuss Voigt Hill
#
# Bulk Modulus (GPa) = 72.39049 73.31488 72.85268
# Shear Modulus (GPa) = 29.76927 31.13503 30.45215
#
# Velocity S-wave (km/s) = 3.73372 3.81841 3.77631
# Velocity P-wave (km/s) = 7.24482 7.33301 7.28905
#
# Compressibility (1/GPa) = 0.01381397
#
# Stress axis : x y z
#
# Youngs Moduli (GPa) = 79.99784 73.64540 78.81305
#
# Poissons Ratio (x) = 0.37162 0.27146
# Poissons Ratio (y) = 0.40367 0.31416
# Poissons Ratio (z) = 0.27554 0.29357
#
# Static dielectric constant tensor:
#      x y z
#    x 4.365110 0.000000 0.143650 
#    y 0.000000 4.444990 0.000000 
#    z 0.143650 0.000000 3.821510 
# 
# 
# High freq. dielectric constant tensor:
#      x y z
#    x 1.853190 0.000000 -0.009220 
#    y 0.000000 1.837480 0.000000 
#    z -0.009220 0.000000 1.823540 
# 
# From -- ./inp_files/57979.got.cif
#   From: 2010.06.25/outbox.cif.g09.slc.cpg/sg15_29_cif.got.tgz:57979.got - 2010.06.28 07:06:18.
