data_PCOD8140292
_publ_section_title
;
Structure prediction by ZEFSAII (Michael W. Deem and Ramdas Pophale) SiO2 
 PCOD8140292
Probable space group: C 2/C
;
_chemical_formula_sum "Si O2"
_cell_formula_units_Z 64
_cell_length_a 24.114295
_cell_length_b 16.203682
_cell_length_c 15.208327
_cell_angle_alpha 90.000000
_cell_angle_beta 150.357781
_cell_angle_gamma 90.000000
_cell_volume 2939.059688
_symmetry_space_group_name_H-M "C 2/C"
_symmetry_group_IT_number 15
_symmetry_cell_setting 'monoclinic'
loop_
_space_group_symop_operation_xyz
x,y,z
-x,y,1/2-z
-x,-y,-z
x,-y,1/2+z
1/2+x,1/2+y,z
1/2-x,1/2+y,1/2-z
1/2-x,1/2-y,-z
1/2+x,1/2-y,1/2+z
loop_
_atom_site_type_symbol
_atom_site_label
_atom_site_fract_x
_atom_site_fract_y
_atom_site_fract_z
Si Si1 0.230533 0.206759 0.358946
Si Si2 0.854895 0.826106 0.238305
Si Si3 0.396187 0.368109 0.966034
Si Si4 0.258384 0.156721 0.096395
Si Si5 0.123734 0.437225 0.395850
Si Si6 0.624683 0.650078 0.385787
Si Si7 0.210775 0.526138 0.836612
Si Si8 0.727088 0.469222 0.264453
O O1 0.173147 0.197433 0.186666
O O2 0.343558 0.152688 0.523754
O O3 0.275167 0.299618 0.427524
O O4 0.135393 0.177113 0.298618
O O5 0.842101 0.729348 0.246273
O O6 0.834535 0.884226 0.294758
O O7 0.973680 0.850907 0.362623
O O8 0.760783 0.838604 0.034094
O O9 0.360409 0.345816 0.015874
O O10 0.363730 0.461779 0.892063
O O11 0.316793 0.070414 0.197373
O O12 0.128846 0.434213 0.296406
O O13 0.206512 0.502314 0.557192
O O14 0.000000 0.462073 0.250000
O O15 0.500000 0.666301 0.250000
O O16 0.662303 0.554996 0.457053
O O17 0.192549 0.550829 0.708861
#
# Coordination Sequence:
#
# PCOD8140292 Si02
#       8
#     8   8   8   8   8   8   8   8
#     4   9  21  38  56  93 125 153 210 262 311 388
#     4  11  22  41  66  90 126 174 211 262 323 375
#     4  10  22  39  65  92 126 165 207 268 324 369
#     4  10  23  42  60  93 133 160 213 266 310 384
#     4  10  20  41  63  85 132 172 202 262 324 381
#     4  10  21  36  62  88 122 165 203 257 325 376
#     4  10  22  40  59  95 126 160 215 269 308 381
#     4  10  22  39  65  95 125 161 221 271 308 384
#
# _framework density 21.775670999999999
#
# number of rings (size 3 to 8) (size 9 to 14) (size 15 to 20)
#    0.000    2.000    1.250    1.125    3.500    2.500 
#    2.250    6.250    0.000    0.000    0.000    0.000 
#    0.000    0.000    0.000    0.000    0.000    0.000 
#
# Total GULP energy -396493.250512 kJ/mol
# GULP energy per Si atom -12390.414079 kJ/mol
# Density = 2.172611 g / cm^3
# Si number density = 21.775671 Si / 1000 Ang^3
#
#
#
# Elastic Constant Matrix: (Units=GPa)
#
#
# Indices 1 2 3 4 5 6 
#
# 1 101.2378 20.3871 23.3044 0.0000 0.0018 0.0000
# 2 20.3871 82.8501 21.6825 0.0000 3.2114 0.0000
# 3 23.3044 21.6825 39.4328 0.0000 8.4145 0.0000
# 4 0.0000 0.0000 0.0000 13.7111 0.0000 1.4233
# 5 0.0018 3.2114 8.4145 0.0000 35.5933 0.0000
# 6 0.0000 0.0000 0.0000 1.4233 0.0000 26.0636
#
#
#
# Elastic Compliance Matrix: (Units=1/GPa)
#
#
# Indices 1 2 3 4 5 6 
#
# 1 0.011632 -0.001209 -0.006564 0.000000 0.001660 0.000000
# 2 -0.001209 0.014236 -0.007203 0.000000 0.000418 0.000000
# 3 -0.006564 -0.007203 0.034817 0.000000 -0.007581 0.000000
# 4 0.000000 0.000000 0.000000 0.073350 0.000000 -0.004005
# 5 0.001660 0.000418 -0.007581 0.000000 0.029849 0.000000
# 6 0.000000 0.000000 0.000000 -0.004005 0.000000 0.038586
#
#
# Mechanical properties :
#
#
# Convention : Reuss Voigt Hill
#
# Bulk Modulus (GPa) = 32.53722 39.36320 35.95021
# Shear Modulus (GPa) = 20.60436 25.61671 23.11053
#
# Velocity S-wave (km/s) = 3.07939 3.43358 3.26130
# Velocity P-wave (km/s) = 5.25528 5.81680 5.54316
#
# Compressibility (1/GPa) = 0.03073404
#
# Stress axis : x y z
#
# Youngs Moduli (GPa) = 85.96859 70.24323 28.72155
#
# Poissons Ratio (x) = 0.08491 0.18853
# Poissons Ratio (y) = 0.10392 0.20688
# Poissons Ratio (z) = 0.56431 0.50595
#
# Static dielectric constant tensor:
#      x y z
#    x 4.145440 0.000000 -0.187340 
#    y 0.000000 4.109070 0.000000 
#    z -0.187340 0.000000 3.458130 
# 
# 
# High freq. dielectric constant tensor:
#      x y z
#    x 1.870930 0.000000 -0.015950 
#    y 0.000000 1.862010 0.000000 
#    z -0.015950 0.000000 1.813130 
# 
# From -- ./inp_files/174261.got.cif
#   From: 2010.06.25/outbox.cif.g09.slc.cpg/sg15_88_cif.got.tgz:174261.got - 2010.06.28 07:06:18.
