data_PCOD8140781
_publ_section_title
;
Structure prediction by ZEFSAII (Michael W. Deem and Ramdas Pophale) SiO2 
 PCOD8140781
Probable space group: C 2/C
;
_chemical_formula_sum "Si O2"
_cell_formula_units_Z 56
_cell_length_a 17.600918
_cell_length_b 9.135161
_cell_length_c 18.836117
_cell_angle_alpha 90.000000
_cell_angle_beta 71.189399
_cell_angle_gamma 90.000000
_cell_volume 2866.847830
_symmetry_space_group_name_H-M "C 2/C"
_symmetry_group_IT_number 15
_symmetry_cell_setting 'monoclinic'
loop_
_space_group_symop_operation_xyz
x,y,z
-x,y,1/2-z
-x,-y,-z
x,-y,1/2+z
1/2+x,1/2+y,z
1/2-x,1/2+y,1/2-z
1/2-x,1/2-y,-z
1/2+x,1/2-y,1/2+z
loop_
_atom_site_type_symbol
_atom_site_label
_atom_site_fract_x
_atom_site_fract_y
_atom_site_fract_z
Si Si1 0.033255 0.060726 0.563123
Si Si2 0.536036 0.228522 0.309712
Si Si3 0.988725 0.208501 0.337057
Si Si4 0.902264 0.498152 0.878670
Si Si5 0.833248 0.716740 0.671624
Si Si6 0.807623 0.432460 0.770993
Si Si7 0.833367 0.710530 0.508533
O O1 0.114191 0.145904 0.521837
O O2 0.970038 0.170745 0.618992
O O3 0.000000 0.000000 0.500000
O O4 0.049905 0.933157 0.614707
O O5 0.500000 0.310315 0.250000
O O6 0.484067 0.080691 0.330729
O O7 0.628816 0.186106 0.276825
O O8 0.074685 0.243040 0.344490
O O9 0.000000 0.187203 0.250000
O O10 0.923853 0.331940 0.376235
O O11 0.830642 0.473694 0.844348
O O12 0.872288 0.435022 0.962635
O O13 0.805261 0.578654 0.725546
O O14 0.779650 0.858364 0.706317
O O15 0.822154 0.672445 0.593653
O O16 0.750000 0.750000 0.500000
#
# Coordination Sequence:
#
# PCOD8140781 Si02
#       7
#     8   8   8   8   8   8   8
#     4  11  24  38  63  96 130 164 215 273 317 378
#     4   9  19  39  64  89 121 175 215 248 322 397
#     4  12  23  42  67 100 130 166 221 274 318 377
#     4  10  20  43  69  88 130 174 212 260 323 391
#     4  12  25  40  69  97 133 170 219 269 325 385
#     4  11  23  41  64  99 132 168 214 273 327 378
#     4  11  24  45  66  91 132 177 212 259 332 394
#
# _framework density 19.533647999999999
#
# number of rings (size 3 to 8) (size 9 to 14) (size 15 to 20)
#    0.000    1.143    5.714    0.857    2.000    2.857 
#    0.000    0.714    0.000    0.000    0.000    0.000 
#    0.000    0.000    0.000    0.000    0.000    0.000 
#
# Total GULP energy -347247.105197 kJ/mol
# GULP energy per Si atom -12401.682328 kJ/mol
# Density = 1.948919 g / cm^3
# Si number density = 19.533648 Si / 1000 Ang^3
#
#
#
# Elastic Constant Matrix: (Units=GPa)
#
#
# Indices 1 2 3 4 5 6 
#
# 1 78.4195 23.7082 13.8773 0.0000 5.2820 0.0000
# 2 23.7082 114.4289 36.8383 0.0000 2.2757 0.0000
# 3 13.8773 36.8383 86.1392 0.0000 13.7284 0.0000
# 4 0.0000 0.0000 0.0000 32.0837 0.0000 7.1774
# 5 5.2820 2.2757 13.7284 0.0000 31.3898 0.0000
# 6 0.0000 0.0000 0.0000 7.1774 0.0000 23.2479
#
#
#
# Elastic Compliance Matrix: (Units=1/GPa)
#
#
# Indices 1 2 3 4 5 6 
#
# 1 0.013792 -0.002548 -0.000851 0.000000 -0.001764 0.000000
# 2 -0.002548 0.010651 -0.004396 0.000000 0.001579 0.000000
# 3 -0.000851 -0.004396 0.014568 0.000000 -0.005909 0.000000
# 4 0.000000 0.000000 0.000000 0.033481 0.000000 -0.010337
# 5 -0.001764 0.001579 -0.005909 0.000000 0.034624 0.000000
# 6 0.000000 0.000000 0.000000 -0.010337 0.000000 0.046206
#
#
# Mechanical properties :
#
#
# Convention : Reuss Voigt Hill
#
# Bulk Modulus (GPa) = 42.69894 47.53725 45.11810
# Shear Modulus (GPa) = 28.29345 30.98187 29.63766
#
# Velocity S-wave (km/s) = 3.80998 3.98688 3.89943
# Velocity P-wave (km/s) = 6.42349 6.75148 6.58953
#
# Compressibility (1/GPa) = 0.02341978
#
# Stress axis : x y z
#
# Youngs Moduli (GPa) = 72.50696 93.88873 68.64328
#
# Poissons Ratio (x) = 0.23927 0.05841
# Poissons Ratio (y) = 0.18478 0.30176
# Poissons Ratio (z) = 0.06170 0.41274
#
# Static dielectric constant tensor:
#      x y z
#    x 1.854650 0.000000 -1.002380 
#    y 0.000000 3.527580 0.000000 
#    z -1.002380 0.000000 3.082130 
# 
# 
# High freq. dielectric constant tensor:
#      x y z
#    x 1.757160 0.000000 0.003230 
#    y 0.000000 1.761690 0.000000 
#    z 0.003230 0.000000 1.773910 
# 
# From -- ./inp_files/209512.got.cif
#   From: 2010.06.25/outbox.cif.g09.slc.cpg/sg15_105_cif.got.tgz:209512.got - 2010.06.28 07:06:18.
