data_PCOD8140616
_publ_section_title
;
Structure prediction by ZEFSAII (Michael W. Deem and Ramdas Pophale) SiO2 
 PCOD8140616
Probable space group: C 2/C
;
_chemical_formula_sum "Si O2"
_cell_formula_units_Z 48
_cell_length_a 9.347856
_cell_length_b 18.276918
_cell_length_c 13.811102
_cell_angle_alpha 90.000000
_cell_angle_beta 107.839290
_cell_angle_gamma 90.000000
_cell_volume 2246.174808
_symmetry_space_group_name_H-M "C 2/C"
_symmetry_group_IT_number 15
_symmetry_cell_setting 'monoclinic'
loop_
_space_group_symop_operation_xyz
x,y,z
-x,y,1/2-z
-x,-y,-z
x,-y,1/2+z
1/2+x,1/2+y,z
1/2-x,1/2+y,1/2-z
1/2-x,1/2-y,-z
1/2+x,1/2-y,1/2+z
loop_
_atom_site_type_symbol
_atom_site_label
_atom_site_fract_x
_atom_site_fract_y
_atom_site_fract_z
Si Si1 0.664361 0.575828 0.316593
Si Si2 0.647485 0.802220 0.542814
Si Si3 0.043824 0.818537 0.147766
Si Si4 0.875612 0.632209 0.656074
Si Si5 0.347902 0.035570 0.177774
Si Si6 0.372671 0.456340 0.030815
O O1 0.500000 0.601075 0.250000
O O2 0.752072 0.648746 0.364796
O O3 0.726331 0.536749 0.235468
O O4 0.679830 0.513033 0.399420
O O5 0.750000 0.750000 0.500000
O O6 0.525566 0.756612 0.581319
O O7 0.573815 0.851424 0.444151
O O8 0.215611 0.841342 0.163727
O O9 0.000000 0.802772 0.250000
O O10 0.934871 0.881673 0.087814
O O11 0.889319 0.546164 0.660882
O O12 0.000000 0.669622 0.750000
O O13 0.500000 0.076012 0.250000
O O14 0.269564 0.068714 0.065052
O O15 0.500000 0.500000 0.000000
#
# Coordination Sequence:
#
# PCOD8140616 Si02
#       6
#     8   8   8   8   8   8
#     4  12  23  40  73 101 130 177 236 290 337 407
#     4  10  23  42  64  94 135 183 225 272 339 427
#     4  11  23  42  67  99 139 181 229 282 348 415
#     4  10  20  42  66  96 132 176 225 277 342 410
#     4  11  24  40  67 103 137 167 223 296 354 392
#     4  12  20  41  70 104 132 173 236 293 340 407
#
# _framework density 21.369662999999999
#
# number of rings (size 3 to 8) (size 9 to 14) (size 15 to 20)
#    0.000    1.000    5.000    2.500    0.000    4.000 
#    3.000    0.833    0.000    0.000    0.000    0.000 
#    0.000    0.000    0.000    0.000    0.000    0.000 
#
# Total GULP energy -297351.374094 kJ/mol
# GULP energy per Si atom -12389.640587 kJ/mol
# Density = 2.132102 g / cm^3
# Si number density = 21.369663 Si / 1000 Ang^3
#
#
#
# Elastic Constant Matrix: (Units=GPa)
#
#
# Indices 1 2 3 4 5 6 
#
# 1 60.6191 23.7825 38.9856 0.0000 -0.9223 0.0000
# 2 23.7825 109.1162 53.4182 0.0000 -10.8712 0.0000
# 3 38.9856 53.4182 151.1056 0.0000 -7.6615 0.0000
# 4 0.0000 0.0000 0.0000 68.8288 0.0000 -11.2450
# 5 -0.9223 -10.8712 -7.6615 0.0000 44.0831 0.0000
# 6 0.0000 0.0000 0.0000 -11.2450 0.0000 24.6523
#
#
#
# Elastic Compliance Matrix: (Units=1/GPa)
#
#
# Indices 1 2 3 4 5 6 
#
# 1 0.020258 -0.002329 -0.004450 0.000000 -0.000924 0.000000
# 2 -0.002329 0.011541 -0.003367 0.000000 0.002212 0.000000
# 3 -0.004450 -0.003367 0.008989 0.000000 0.000639 0.000000
# 4 0.000000 0.000000 0.000000 0.015699 0.000000 0.007161
# 5 -0.000924 0.002212 0.000639 0.000000 0.023322 0.000000
# 6 0.000000 0.000000 0.000000 0.007161 0.000000 0.043831
#
#
# Mechanical properties :
#
#
# Convention : Reuss Voigt Hill
#
# Bulk Modulus (GPa) = 48.79044 61.46818 55.12931
# Shear Modulus (GPa) = 33.16480 41.15647 37.16064
#
# Velocity S-wave (km/s) = 3.94376 4.39330 4.17459
# Velocity P-wave (km/s) = 6.60446 7.38657 7.00644
#
# Compressibility (1/GPa) = 0.02049582
#
# Stress axis : x y z
#
# Youngs Moduli (GPa) = 49.36294 86.64940 111.25100
#
# Poissons Ratio (x) = 0.20179 0.49509
# Poissons Ratio (y) = 0.11496 0.37456
# Poissons Ratio (z) = 0.21968 0.29174
#
# Static dielectric constant tensor:
#      x y z
#    x 4.120200 0.000000 0.385900 
#    y 0.000000 3.995270 0.000000 
#    z 0.385900 0.000000 3.899650 
# 
# 
# High freq. dielectric constant tensor:
#      x y z
#    x 1.824950 0.000000 -0.001180 
#    y 0.000000 1.832390 0.000000 
#    z -0.001180 0.000000 1.864490 
# 
# From -- ./inp_files/87859.got.cif
#   From: 2010.06.25/outbox.cif.g09.slc.cpg/sg15_44_cif.got.tgz:87859.got - 2010.06.28 07:06:18.
