data_PCOD8140923
_publ_section_title
;
Structure prediction by ZEFSAII (Michael W. Deem and Ramdas Pophale) SiO2 
 PCOD8140923
Probable space group: C 2/C
;
_chemical_formula_sum "Si O2"
_cell_formula_units_Z 56
_cell_length_a 25.684682
_cell_length_b 11.924787
_cell_length_c 16.538506
_cell_angle_alpha 90.000000
_cell_angle_beta 142.363087
_cell_angle_gamma 90.000000
_cell_volume 3093.266600
_symmetry_space_group_name_H-M "C 2/C"
_symmetry_group_IT_number 15
_symmetry_cell_setting 'monoclinic'
loop_
_space_group_symop_operation_xyz
x,y,z
-x,y,1/2-z
-x,-y,-z
x,-y,1/2+z
1/2+x,1/2+y,z
1/2-x,1/2+y,1/2-z
1/2-x,1/2-y,-z
1/2+x,1/2-y,1/2+z
loop_
_atom_site_type_symbol
_atom_site_label
_atom_site_fract_x
_atom_site_fract_y
_atom_site_fract_z
Si Si1 0.784099 0.022619 0.217299
Si Si2 0.806505 0.421759 0.041597
Si Si3 0.619020 0.088949 0.100033
Si Si4 0.601549 0.344429 0.056655
Si Si5 0.059155 0.447032 0.172283
Si Si6 0.912291 0.807482 0.810165
Si Si7 0.659033 0.322099 0.952148
O O1 0.709473 0.033926 0.191068
O O2 0.837358 0.137658 0.271096
O O3 0.847741 0.925989 0.321940
O O4 0.739624 0.991435 0.076114
O O5 0.895067 0.470956 0.185337
O O6 0.822786 0.309400 0.008504
O O7 0.746863 0.388887 0.044386
O O8 0.631743 0.221402 0.118808
O O9 0.587775 0.045808 0.148316
O O10 0.543842 0.055320 0.943367
O O11 0.501255 0.360491 0.948572
O O12 0.617694 0.372440 0.981972
O O13 0.089071 0.325625 0.175356
O O14 0.901357 0.832976 0.700860
#
# Coordination Sequence:
#
# PCOD8140923 Si02
#       7
#     8   8   8   8   8   8   8
#     4  11  21  31  50  78 109 132 172 210 260 318
#     4   9  17  31  51  77 102 136 168 219 262 297
#     4  10  21  33  52  80  99 138 174 210 267 303
#     4  11  20  33  51  78 108 137 171 211 261 317
#     4   9  19  36  54  72 106 132 172 222 255 310
#     4   9  20  34  54  77 103 135 170 219 266 301
#     4   9  16  30  53  76 102 130 176 216 258 302
#
# _framework density 18.103840000000002
#
# number of rings (size 3 to 8) (size 9 to 14) (size 15 to 20)
#    0.000    2.286    1.429    2.571    2.000    0.571 
#    0.000    0.714    0.000    0.000    0.000    0.000 
#    0.000    0.000    0.000    0.000    0.000    0.000 
#
# Total GULP energy -347083.910447 kJ/mol
# GULP energy per Si atom -12395.853945 kJ/mol
# Density = 1.806263 g / cm^3
# Si number density = 18.103840 Si / 1000 Ang^3
#
#
#
# Elastic Constant Matrix: (Units=GPa)
#
#
# Indices 1 2 3 4 5 6 
#
# 1 59.3385 18.0580 22.8062 0.0000 10.5902 0.0000
# 2 18.0580 54.3937 40.4984 0.0000 -0.5384 0.0000
# 3 22.8062 40.4984 123.3850 0.0000 13.8218 0.0000
# 4 0.0000 0.0000 0.0000 28.1325 0.0000 4.7578
# 5 10.5902 -0.5384 13.8218 0.0000 29.1917 0.0000
# 6 0.0000 0.0000 0.0000 4.7578 0.0000 17.7125
#
#
#
# Elastic Compliance Matrix: (Units=1/GPa)
#
#
# Indices 1 2 3 4 5 6 
#
# 1 0.020336 -0.006099 -0.000969 0.000000 -0.007031 0.000000
# 2 -0.006099 0.026724 -0.008392 0.000000 0.006679 0.000000
# 3 -0.000969 -0.008392 0.011633 0.000000 -0.005311 0.000000
# 4 0.000000 0.000000 0.000000 0.037238 0.000000 -0.010003
# 5 -0.007031 0.006679 -0.005311 0.000000 0.039445 0.000000
# 6 0.000000 0.000000 0.000000 -0.010003 0.000000 0.059144
#
#
# Mechanical properties :
#
#
# Convention : Reuss Voigt Hill
#
# Bulk Modulus (GPa) = 36.00798 44.42694 40.21746
# Shear Modulus (GPa) = 21.30385 25.39096 23.34740
#
# Velocity S-wave (km/s) = 3.43411 3.74908 3.59505
# Velocity P-wave (km/s) = 5.97135 6.58287 6.28455
#
# Compressibility (1/GPa) = 0.02777162
#
# Stress axis : x y z
#
# Youngs Moduli (GPa) = 49.17403 37.41964 85.95868
#
# Poissons Ratio (x) = 0.22823 0.08332
# Poissons Ratio (y) = 0.29992 0.72140
# Poissons Ratio (z) = 0.04766 0.31404
#
# Static dielectric constant tensor:
#      x y z
#    x 3.245120 0.000000 0.269890 
#    y 0.000000 3.024030 0.000000 
#    z 0.269890 0.000000 3.584580 
# 
# 
# High freq. dielectric constant tensor:
#      x y z
#    x 1.695570 0.000000 0.021690 
#    y 0.000000 1.659260 0.000000 
#    z 0.021690 0.000000 1.716220 
# 
# From -- ./inp_files/177600.got.cif
#   From: 2010.06.25/outbox.cif.g09.slc.cpg/sg15_89_cif.got.tgz:177600.got - 2010.06.28 07:06:18.
