data_PCOD8140034
_publ_section_title
;
Structure prediction by ZEFSAII (Michael W. Deem and Ramdas Pophale) SiO2 
 PCOD8140034
Probable space group: C 2/C
;
_chemical_formula_sum "Si O2"
_cell_formula_units_Z 60
_cell_length_a 12.044795
_cell_length_b 13.276374
_cell_length_c 21.293271
_cell_angle_alpha 90.000000
_cell_angle_beta 61.048355
_cell_angle_gamma 90.000000
_cell_volume 2979.500735
_symmetry_space_group_name_H-M "C 2/C"
_symmetry_group_IT_number 15
_symmetry_cell_setting 'monoclinic'
loop_
_space_group_symop_operation_xyz
x,y,z
-x,y,1/2-z
-x,-y,-z
x,-y,1/2+z
1/2+x,1/2+y,z
1/2-x,1/2+y,1/2-z
1/2-x,1/2-y,-z
1/2+x,1/2-y,1/2+z
loop_
_atom_site_type_symbol
_atom_site_label
_atom_site_fract_x
_atom_site_fract_y
_atom_site_fract_z
Si Si1 0.758490 0.600380 0.276871
Si Si2 0.182749 0.951050 0.399247
Si Si3 0.632701 0.585789 0.183767
Si Si4 0.403460 0.381499 0.488604
Si Si5 0.830549 0.269637 0.416774
Si Si6 0.900519 0.741445 0.605721
Si Si7 0.335521 0.633743 0.872341
Si Si8 0.000000 0.716481 0.250000
O O1 0.743288 0.496816 0.319556
O O2 0.738167 0.578868 0.209115
O O3 0.653396 0.677593 0.330808
O O4 0.898646 0.644582 0.244710
O O5 0.271797 0.858112 0.391739
O O6 0.038243 0.919710 0.425493
O O7 0.180994 0.031269 0.456376
O O8 0.500000 0.618045 0.250000
O O9 0.672621 0.667296 0.121722
O O10 0.618239 0.478919 0.153397
O O11 0.428715 0.292540 0.530860
O O12 0.323900 0.345801 0.450009
O O13 0.750000 0.250000 0.500000
O O14 0.971582 0.302421 0.399317
O O15 0.801012 0.651186 0.622650
O O16 0.437136 0.713856 0.819734
#
# Coordination Sequence:
#
# PCOD8140034 Si02
#       8
#     8   8   8   8   8   8   8   4
#     4  10  23  42  60  93 124 167 212 260 322 378
#     4  10  22  38  67  90 127 163 209 262 317 386
#     4  12  24  42  64  93 131 172 217 263 320 397
#     4  10  20  40  65  92 121 168 208 253 320 394
#     4  12  24  42  66 100 129 172 218 265 322 383
#     4  10  22  41  63  92 127 162 211 266 315 379
#     4  11  23  39  65  92 122 168 212 263 321 380
#     4  10  24  40  62  88 130 158 212 266 316 384
#
# _framework density 20.137602000000001
#
# number of rings (size 3 to 8) (size 9 to 14) (size 15 to 20)
#    0.000    1.333    3.333    2.000    3.733    2.133 
#    1.200    2.667    0.000    0.000    0.000    0.000 
#    0.000    0.000    0.000    0.000    0.000    0.000 
#
# Total GULP energy -372142.203007 kJ/mol
# GULP energy per Si atom -12404.740100 kJ/mol
# Density = 2.009177 g / cm^3
# Si number density = 20.137602 Si / 1000 Ang^3
#
#
#
# Elastic Constant Matrix: (Units=GPa)
#
#
# Indices 1 2 3 4 5 6 
#
# 1 106.9803 35.9842 47.6996 0.0000 1.0950 0.0000
# 2 35.9842 93.8968 41.1871 0.0000 -1.4928 0.0000
# 3 47.6996 41.1871 96.3813 0.0000 7.7121 0.0000
# 4 0.0000 0.0000 0.0000 33.8595 0.0000 -6.2042
# 5 1.0950 -1.4928 7.7121 0.0000 35.6968 0.0000
# 6 0.0000 0.0000 0.0000 -6.2042 0.0000 6.4383
#
#
#
# Elastic Compliance Matrix: (Units=1/GPa)
#
#
# Indices 1 2 3 4 5 6 
#
# 1 0.012485 -0.002514 -0.005155 0.000000 0.000626 0.000000
# 2 -0.002514 0.013726 -0.004756 0.000000 0.001679 0.000000
# 3 -0.005155 -0.004756 0.015225 0.000000 -0.003330 0.000000
# 4 0.000000 0.000000 0.000000 0.035867 0.000000 0.034562
# 5 0.000626 0.001679 -0.003330 0.000000 0.028784 0.000000
# 6 0.000000 0.000000 0.000000 0.034562 0.000000 0.188625
#
#
# Mechanical properties :
#
#
# Convention : Reuss Voigt Hill
#
# Bulk Modulus (GPa) = 60.28513 60.77780 60.53146
# Shear Modulus (GPa) = 15.38036 26.69144 21.03590
#
# Velocity S-wave (km/s) = 2.76662 3.64463 3.23555
# Velocity P-wave (km/s) = 6.34091 6.92516 6.63947
#
# Compressibility (1/GPa) = 0.01658784
#
# Stress axis : x y z
#
# Youngs Moduli (GPa) = 80.09634 72.85374 65.67940
#
# Poissons Ratio (x) = 0.18312 0.33856
# Poissons Ratio (y) = 0.20133 0.31237
# Poissons Ratio (z) = 0.41288 0.34649
#
# Static dielectric constant tensor:
#      x y z
#    x 3.781390 0.000000 0.047130 
#    y 0.000000 12.735060 0.000000 
#    z 0.047130 0.000000 3.669360 
# 
# 
# High freq. dielectric constant tensor:
#      x y z
#    x 1.792880 0.000000 0.007330 
#    y 0.000000 1.781050 0.000000 
#    z 0.007330 0.000000 1.790440 
# 
# From -- ./inp_files/238715.got.cif
#   From: 2010.06.25/outbox.cif.g09.slc.cpg/sg15_120_cif.got.tgz:238715.got - 2010.06.28 07:06:18.
