data_PCOD8140915
_publ_section_title
;
Structure prediction by ZEFSAII (Michael W. Deem and Ramdas Pophale) SiO2 
 PCOD8140915
Probable space group: C 2/C
;
_chemical_formula_sum "Si O2"
_cell_formula_units_Z 44
_cell_length_a 8.153650
_cell_length_b 15.589074
_cell_length_c 14.934697
_cell_angle_alpha 90.000000
_cell_angle_beta 82.741230
_cell_angle_gamma 90.000000
_cell_volume 1883.103441
_symmetry_space_group_name_H-M "C 2/C"
_symmetry_group_IT_number 15
_symmetry_cell_setting 'monoclinic'
loop_
_space_group_symop_operation_xyz
x,y,z
-x,y,1/2-z
-x,-y,-z
x,-y,1/2+z
1/2+x,1/2+y,z
1/2-x,1/2+y,1/2-z
1/2-x,1/2-y,-z
1/2+x,1/2-y,1/2+z
loop_
_atom_site_type_symbol
_atom_site_label
_atom_site_fract_x
_atom_site_fract_y
_atom_site_fract_z
Si Si1 0.499505 0.760658 0.971274
Si Si2 0.300764 0.384406 0.961772
Si Si3 0.773102 0.496272 0.180185
Si Si4 0.748383 0.195128 0.866346
Si Si5 0.136407 0.538091 0.637056
Si Si6 0.000000 0.693712 0.750000
O O1 0.540568 0.669011 0.016006
O O2 0.419002 0.743074 0.878604
O O3 0.660666 0.816337 0.945668
O O4 0.364198 0.812057 0.037319
O O5 0.247435 0.454372 0.040729
O O6 0.340631 0.437073 0.867672
O O7 0.707535 0.400332 0.168249
O O8 0.766870 0.510657 0.288556
O O9 0.962009 0.509583 0.131044
O O10 0.642173 0.245407 0.794934
O O11 0.091121 0.635111 0.669738
#
# Coordination Sequence:
#
# PCOD8140915 Si02
#       6
#     8   8   8   8   8   4
#     4  10  21  32  56  87 116 142 188 237 300 335
#     4  11  19  34  58  87 116 144 192 249 277 332
#     4   9  18  33  60  75 108 159 196 225 283 343
#     4   9  18  37  55  78 109 159 190 219 292 354
#     4   8  16  32  55  79 107 149 196 226 277 342
#     4   8  14  32  54  72 102 158 182 222 270 356
#
# _framework density 23.365684999999999
#
# number of rings (size 3 to 8) (size 9 to 14) (size 15 to 20)
#    0.000    3.273    3.636    0.545    0.000    0.727 
#    0.000    7.273    0.000    0.000    0.000    0.000 
#    0.000    0.000    0.000    0.000    0.000    0.000 
#
# Total GULP energy -272546.254967 kJ/mol
# GULP energy per Si atom -12388.466135 kJ/mol
# Density = 2.331250 g / cm^3
# Si number density = 23.365685 Si / 1000 Ang^3
#
#
#
# Elastic Constant Matrix: (Units=GPa)
#
#
# Indices 1 2 3 4 5 6 
#
# 1 54.8288 11.0522 31.2911 0.0000 35.9509 0.0000
# 2 11.0522 47.0853 35.8265 0.0000 20.1595 0.0000
# 3 31.2911 35.8265 116.9964 0.0000 49.5360 0.0000
# 4 0.0000 0.0000 0.0000 28.7088 0.0000 14.8047
# 5 35.9509 20.1595 49.5360 0.0000 47.6169 0.0000
# 6 0.0000 0.0000 0.0000 14.8047 0.0000 17.4126
#
#
#
# Elastic Compliance Matrix: (Units=1/GPa)
#
#
# Indices 1 2 3 4 5 6 
#
# 1 0.037181 0.002940 0.002802 0.000000 -0.032232 0.000000
# 2 0.002940 0.028658 -0.006228 0.000000 -0.007874 0.000000
# 3 0.002802 -0.006228 0.016950 0.000000 -0.017112 0.000000
# 4 0.000000 0.000000 0.000000 0.062029 0.000000 -0.052739
# 5 -0.032232 -0.007874 -0.017112 0.000000 0.066471 0.000000
# 6 0.000000 0.000000 0.000000 -0.052739 0.000000 0.102270
#
#
# Mechanical properties :
#
#
# Convention : Reuss Voigt Hill
#
# Bulk Modulus (GPa) = 12.22230 41.69446 26.95838
# Shear Modulus (GPa) = 14.62829 28.13037 21.37933
#
# Velocity S-wave (km/s) = 2.50483 3.47352 3.02816
# Velocity P-wave (km/s) = 3.68888 5.82839 4.87739
#
# Compressibility (1/GPa) = 0.08181763
#
# Stress axis : x y z
#
# Youngs Moduli (GPa) = 26.89571 34.89427 58.99578
#
# Poissons Ratio (x) = -0.10260 -0.16532
# Poissons Ratio (y) = -0.07908 0.36745
# Poissons Ratio (z) = -0.07537 0.21734
#
# Static dielectric constant tensor:
#      x y z
#    x 4.012030 0.000000 0.637610 
#    y 0.000000 3.780420 0.000000 
#    z 0.637610 0.000000 4.508740 
# 
# 
# High freq. dielectric constant tensor:
#      x y z
#    x 1.893530 0.000000 0.036940 
#    y 0.000000 1.878800 0.000000 
#    z 0.036940 0.000000 1.931780 
# 
# From -- ./inp_files/134523.got.cif
#   From: 2010.06.25/outbox.cif.g09.slc.cpg/sg15_68_cif.got.tgz:134523.got - 2010.06.28 07:06:18.
