data_PCOD8140189
_publ_section_title
;
Structure prediction by ZEFSAII (Michael W. Deem and Ramdas Pophale) SiO2 
 PCOD8140189
Probable space group: C 2/C
;
_chemical_formula_sum "Si O2"
_cell_formula_units_Z 44
_cell_length_a 10.368393
_cell_length_b 15.641659
_cell_length_c 12.963634
_cell_angle_alpha 90.000000
_cell_angle_beta 78.679508
_cell_angle_gamma 90.000000
_cell_volume 2061.523737
_symmetry_space_group_name_H-M "C 2/C"
_symmetry_group_IT_number 15
_symmetry_cell_setting 'monoclinic'
loop_
_space_group_symop_operation_xyz
x,y,z
-x,y,1/2-z
-x,-y,-z
x,-y,1/2+z
1/2+x,1/2+y,z
1/2-x,1/2+y,1/2-z
1/2-x,1/2-y,-z
1/2+x,1/2-y,1/2+z
loop_
_atom_site_type_symbol
_atom_site_label
_atom_site_fract_x
_atom_site_fract_y
_atom_site_fract_z
Si Si1 0.146810 0.695777 0.689640
Si Si2 0.068436 0.157085 0.075915
Si Si3 0.857608 0.230162 0.826740
Si Si4 0.203464 0.862312 0.964701
Si Si5 0.689916 0.452406 0.384272
Si Si6 0.500000 0.527240 0.250000
O O1 0.151388 0.757420 0.588044
O O2 0.252791 0.730720 0.752579
O O3 0.173411 0.595392 0.663516
O O4 0.000000 0.706923 0.750000
O O5 0.913332 0.176253 0.087494
O O6 0.111458 0.117925 0.961089
O O7 0.088191 0.086684 0.162223
O O8 0.835522 0.314073 0.903787
O O9 0.000000 0.229777 0.750000
O O10 0.829284 0.150379 0.908535
O O11 0.220238 0.963328 0.944705
O O12 0.602217 0.468432 0.296740
#
# Coordination Sequence:
#
# PCOD8140189 Si02
#       6
#     8   8   8   8   8   4
#     4  12  24  44  65  96 138 183 213 277 342 412
#     4  11  21  43  67  95 139 178 223 267 340 407
#     4  11  24  42  73  95 132 179 233 270 343 399
#     4  10  22  45  65 102 135 171 231 292 321 405
#     4  11  25  37  70 100 135 174 227 278 341 392
#     4  10  20  40  68  98 130 172 230 278 318 400
#
# _framework density 21.343434999999999
#
# number of rings (size 3 to 8) (size 9 to 14) (size 15 to 20)
#    0.000    1.091    2.727    4.909    6.364    0.727 
#    0.000    0.909    0.000    0.000    0.000    0.000 
#    0.000    0.000    0.000    0.000    0.000    0.000 
#
# Total GULP energy -272694.076575 kJ/mol
# GULP energy per Si atom -12395.185299 kJ/mol
# Density = 2.129486 g / cm^3
# Si number density = 21.343435 Si / 1000 Ang^3
#
#
#
# Elastic Constant Matrix: (Units=GPa)
#
#
# Indices 1 2 3 4 5 6 
#
# 1 91.3216 33.0441 33.0950 0.0000 -5.0783 0.0000
# 2 33.0441 114.9803 26.2444 0.0000 10.1471 0.0000
# 3 33.0950 26.2444 94.3897 0.0000 -3.1165 0.0000
# 4 0.0000 0.0000 0.0000 41.2850 0.0000 4.4250
# 5 -5.0783 10.1471 -3.1165 0.0000 36.7463 0.0000
# 6 0.0000 0.0000 0.0000 4.4250 0.0000 38.8466
#
#
#
# Elastic Compliance Matrix: (Units=1/GPa)
#
#
# Indices 1 2 3 4 5 6 
#
# 1 0.013647 -0.003274 -0.003793 0.000000 0.002468 0.000000
# 2 -0.003274 0.010367 -0.001849 0.000000 -0.003472 0.000000
# 3 -0.003793 -0.001849 0.012473 0.000000 0.001044 0.000000
# 4 0.000000 0.000000 0.000000 0.024521 0.000000 -0.002793
# 5 0.002468 -0.003472 0.001044 0.000000 0.028602 0.000000
# 6 0.000000 0.000000 0.000000 -0.002793 0.000000 0.026060
#
#
# Mechanical properties :
#
#
# Convention : Reuss Voigt Hill
#
# Bulk Modulus (GPa) = 53.60769 53.93984 53.77376
# Shear Modulus (GPa) = 35.78580 37.26278 36.52429
#
# Velocity S-wave (km/s) = 4.09915 4.18289 4.14123
# Velocity P-wave (km/s) = 6.89749 6.97538 6.93654
#
# Compressibility (1/GPa) = 0.01865404
#
# Stress axis : x y z
#
# Youngs Moduli (GPa) = 73.27690 96.46454 80.17390
#
# Poissons Ratio (x) = 0.31583 0.30410
# Poissons Ratio (y) = 0.23991 0.14824
# Poissons Ratio (z) = 0.27794 0.17837
#
# Static dielectric constant tensor:
#      x y z
#    x 4.164230 0.000000 -0.108880 
#    y 0.000000 4.000040 0.000000 
#    z -0.108880 0.000000 4.117840 
# 
# 
# High freq. dielectric constant tensor:
#      x y z
#    x 1.816590 0.000000 0.002710 
#    y 0.000000 1.840300 0.000000 
#    z 0.002710 0.000000 1.857070 
# 
# From -- ./inp_files/86060.got.cif
#   From: 2010.06.25/outbox.cif.g09.slc.cpg/sg15_44_cif.got.tgz:86060.got - 2010.06.28 07:06:18.
