data_PCOD8140926
_publ_section_title
;
Structure prediction by ZEFSAII (Michael W. Deem and Ramdas Pophale) SiO2 
 PCOD8140926
Probable space group: C 2/C
;
_chemical_formula_sum "Si O2"
_cell_formula_units_Z 56
_cell_length_a 20.163553
_cell_length_b 10.072921
_cell_length_c 15.702824
_cell_angle_alpha 90.000000
_cell_angle_beta 102.484795
_cell_angle_gamma 90.000000
_cell_volume 3113.918917
_symmetry_space_group_name_H-M "C 2/C"
_symmetry_group_IT_number 15
_symmetry_cell_setting 'monoclinic'
loop_
_space_group_symop_operation_xyz
x,y,z
-x,y,1/2-z
-x,-y,-z
x,-y,1/2+z
1/2+x,1/2+y,z
1/2-x,1/2+y,1/2-z
1/2-x,1/2-y,-z
1/2+x,1/2-y,1/2+z
loop_
_atom_site_type_symbol
_atom_site_label
_atom_site_fract_x
_atom_site_fract_y
_atom_site_fract_z
Si Si1 0.683850 0.010001 0.914994
Si Si2 0.701919 0.752386 0.814222
Si Si3 0.873237 0.613608 0.346118
Si Si4 0.179538 0.257136 0.283999
Si Si5 0.737986 0.475600 0.893093
Si Si6 0.953277 0.357336 0.314611
Si Si7 0.051959 0.397434 0.474375
O O1 0.694517 0.860730 0.886011
O O2 0.695108 0.104679 0.836553
O O3 0.608252 0.028106 0.931839
O O4 0.741517 0.035076 0.002194
O O5 0.640970 0.772820 0.728246
O O6 0.772187 0.765749 0.782977
O O7 0.698532 0.611227 0.860086
O O8 0.804095 0.538478 0.352444
O O9 0.921226 0.499628 0.325052
O O10 0.908658 0.681362 0.439201
O O11 0.103866 0.249761 0.223944
O O12 0.186175 0.143066 0.357059
O O13 0.000000 0.389957 0.250000
O O14 0.003391 0.302868 0.403661
O O15 0.000000 0.500000 0.500000
#
# Coordination Sequence:
#
# PCOD8140926 Si02
#       7
#     8   8   8   8   8   8   8
#     4  11  20  36  56  86 110 143 190 229 278 323
#     4  11  19  35  55  81 116 143 182 230 278 331
#     4   9  18  33  52  80 109 138 185 223 281 312
#     4  11  20  34  54  81 112 148 183 221 279 330
#     4  10  21  33  52  82 118 143 171 229 283 335
#     4  11  17  32  55  79 104 141 189 228 261 316
#     4   9  19  32  56  87 109 136 183 245 266 310
#
# _framework density 17.983768999999999
#
# number of rings (size 3 to 8) (size 9 to 14) (size 15 to 20)
#    0.000    1.714    4.286    1.714    0.000    0.000 
#    0.000    0.000    0.000    5.143    0.000    0.000 
#    0.000    0.000    0.000    0.000    0.000    0.000 
#
# Total GULP energy -346959.712564 kJ/mol
# GULP energy per Si atom -12391.418306 kJ/mol
# Density = 1.794284 g / cm^3
# Si number density = 17.983769 Si / 1000 Ang^3
#
#
#
# Elastic Constant Matrix: (Units=GPa)
#
#
# Indices 1 2 3 4 5 6 
#
# 1 86.8529 21.7745 48.8109 0.0000 15.8988 0.0000
# 2 21.7745 60.5940 21.4337 0.0000 18.0793 0.0000
# 3 48.8109 21.4337 119.5184 0.0000 34.2638 0.0000
# 4 0.0000 0.0000 0.0000 19.9871 0.0000 8.2276
# 5 15.8988 18.0793 34.2638 0.0000 42.5707 0.0000
# 6 0.0000 0.0000 0.0000 8.2276 0.0000 14.6693
#
#
#
# Elastic Compliance Matrix: (Units=1/GPa)
#
#
# Indices 1 2 3 4 5 6 
#
# 1 0.015647 -0.003681 -0.005854 0.000000 0.000431 0.000000
# 2 -0.003681 0.019950 -0.000051 0.000000 -0.007056 0.000000
# 3 -0.005854 -0.000051 0.013173 0.000000 -0.008395 0.000000
# 4 0.000000 0.000000 0.000000 0.065051 0.000000 -0.036486
# 5 0.000431 -0.007056 -0.008395 0.000000 0.033083 0.000000
# 6 0.000000 0.000000 0.000000 -0.036486 0.000000 0.088634
#
#
# Mechanical properties :
#
#
# Convention : Reuss Voigt Hill
#
# Bulk Modulus (GPa) = 33.78584 50.11150 41.94867
# Shear Modulus (GPa) = 18.89811 27.10851 23.00331
#
# Velocity S-wave (km/s) = 3.24519 3.88672 3.58035
# Velocity P-wave (km/s) = 5.73317 6.93307 6.36148
#
# Compressibility (1/GPa) = 0.02959820
#
# Stress axis : x y z
#
# Youngs Moduli (GPa) = 63.90818 50.12643 75.91016
#
# Poissons Ratio (x) = 0.18451 0.44436
# Poissons Ratio (y) = 0.23524 0.00391
# Poissons Ratio (z) = 0.37411 0.00258
#
# Static dielectric constant tensor:
#      x y z
#    x 3.631050 0.000000 0.522760 
#    y 0.000000 3.032110 0.000000 
#    z 0.522760 0.000000 4.169550 
# 
# 
# High freq. dielectric constant tensor:
#      x y z
#    x 1.691150 0.000000 0.008220 
#    y 0.000000 1.649790 0.000000 
#    z 0.008220 0.000000 1.728360 
# 
# From -- ./inp_files/213465.got.cif
#   From: 2010.06.25/outbox.cif.g09.slc.cpg/sg15_107_cif.got.tgz:213465.got - 2010.06.28 07:06:18.
