data_PCOD8140051
_publ_section_title
;
Structure prediction by ZEFSAII (Michael W. Deem and Ramdas Pophale) SiO2 
 PCOD8140051
Probable space group: C 2/C
;
_chemical_formula_sum "Si O2"
_cell_formula_units_Z 48
_cell_length_a 21.489954
_cell_length_b 14.492554
_cell_length_c 11.869592
_cell_angle_alpha 90.000000
_cell_angle_beta 142.693342
_cell_angle_gamma 90.000000
_cell_volume 2240.509317
_symmetry_space_group_name_H-M "C 2/C"
_symmetry_group_IT_number 15
_symmetry_cell_setting 'monoclinic'
loop_
_space_group_symop_operation_xyz
x,y,z
-x,y,1/2-z
-x,-y,-z
x,-y,1/2+z
1/2+x,1/2+y,z
1/2-x,1/2+y,1/2-z
1/2-x,1/2-y,-z
1/2+x,1/2-y,1/2+z
loop_
_atom_site_type_symbol
_atom_site_label
_atom_site_fract_x
_atom_site_fract_y
_atom_site_fract_z
Si Si1 0.851135 0.423534 0.730160
Si Si2 0.311385 0.086937 0.927924
Si Si3 0.753193 0.613503 0.302770
Si Si4 0.431731 0.882250 0.391369
Si Si5 0.640122 0.307463 0.044243
Si Si6 0.909468 0.188099 0.275013
O O1 0.828980 0.374077 0.579140
O O2 0.749961 0.408809 0.663087
O O3 0.881595 0.530435 0.756400
O O4 0.944789 0.376932 0.935300
O O5 0.408737 0.112959 0.992124
O O6 0.213761 0.132224 0.727590
O O7 0.301612 0.977020 0.929266
O O8 0.825018 0.702293 0.422397
O O9 0.640440 0.628772 0.194993
O O10 0.379965 0.794878 0.256350
O O11 0.634612 0.346452 0.908448
O O12 0.531918 0.318706 0.951568
#
# Coordination Sequence:
#
# PCOD8140051 Si02
#       6
#     8   8   8   8   8   8
#     4  10  22  39  62  99 130 156 208 260 326 374
#     4  11  24  39  65  95 131 166 205 258 320 376
#     4  11  23  40  67  91 122 170 206 258 315 373
#     4  10  20  40  65  95 126 164 203 268 314 370
#     4  11  24  42  66  92 126 165 212 266 304 377
#     4  11  23  42  65  92 123 165 222 253 309 375
#
# _framework density 21.423698999999999
#
# number of rings (size 3 to 8) (size 9 to 14) (size 15 to 20)
#    0.000    1.333    3.333    2.000    4.667    1.333 
#    0.000    0.833    0.000    0.000    0.000    0.000 
#    0.000    0.000    0.000    0.000    0.000    0.000 
#
# Total GULP energy -297419.779949 kJ/mol
# GULP energy per Si atom -12392.490831 kJ/mol
# Density = 2.137494 g / cm^3
# Si number density = 21.423699 Si / 1000 Ang^3
#
#
#
# Elastic Constant Matrix: (Units=GPa)
#
#
# Indices 1 2 3 4 5 6 
#
# 1 150.3615 43.5182 51.1302 0.0000 1.4994 0.0000
# 2 43.5182 50.7443 32.7349 0.0000 -0.6121 0.0000
# 3 51.1302 32.7349 83.8959 0.0000 -13.9348 0.0000
# 4 0.0000 0.0000 0.0000 19.5852 0.0000 5.2696
# 5 1.4994 -0.6121 -13.9348 0.0000 36.1954 0.0000
# 6 0.0000 0.0000 0.0000 5.2696 0.0000 33.5324
#
#
#
# Elastic Compliance Matrix: (Units=1/GPa)
#
#
# Indices 1 2 3 4 5 6 
#
# 1 0.009699 -0.005761 -0.004002 0.000000 -0.002040 0.000000
# 2 -0.005761 0.030242 -0.008722 0.000000 -0.002608 0.000000
# 3 -0.004002 -0.008722 0.018979 0.000000 0.007325 0.000000
# 4 0.000000 0.000000 0.000000 0.053313 0.000000 -0.008378
# 5 -0.002040 -0.002608 0.007325 0.000000 0.030488 0.000000
# 6 0.000000 0.000000 0.000000 -0.008378 0.000000 0.031139
#
#
# Mechanical properties :
#
#
# Convention : Reuss Voigt Hill
#
# Bulk Modulus (GPa) = 45.55925 59.97426 52.76675
# Shear Modulus (GPa) = 22.92023 28.37048 25.64535
#
# Velocity S-wave (km/s) = 3.27441 3.64298 3.46360
# Velocity P-wave (km/s) = 5.96722 6.76389 6.37800
#
# Compressibility (1/GPa) = 0.02194944
#
# Stress axis : x y z
#
# Youngs Moduli (GPa) = 103.10050 33.06608 52.69069
#
# Poissons Ratio (x) = 0.19049 0.21088
# Poissons Ratio (y) = 0.59395 0.45959
# Poissons Ratio (z) = 0.41263 0.28842
#
# Static dielectric constant tensor:
#      x y z
#    x 4.313940 0.000000 0.010220 
#    y 0.000000 3.729610 0.000000 
#    z 0.010220 0.000000 3.411100 
# 
# 
# High freq. dielectric constant tensor:
#      x y z
#    x 1.867970 0.000000 -0.002790 
#    y 0.000000 1.825070 0.000000 
#    z -0.002790 0.000000 1.811210 
# 
# From -- ./inp_files/96542.got.cif
#   From: 2010.06.25/outbox.cif.g09.slc.cpg/sg15_49_cif.got.tgz:96542.got - 2010.06.28 07:06:18.
