data_PCOD8140022
_publ_section_title
;
Structure prediction by ZEFSAII (Michael W. Deem and Ramdas Pophale) SiO2 
 PCOD8140022
Probable space group: C 2/C
;
_chemical_formula_sum "Si O2"
_cell_formula_units_Z 64
_cell_length_a 17.717265
_cell_length_b 9.380379
_cell_length_c 28.662420
_cell_angle_alpha 90.000000
_cell_angle_beta 42.673944
_cell_angle_gamma 90.000000
_cell_volume 3228.849136
_symmetry_space_group_name_H-M "C 2/C"
_symmetry_group_IT_number 15
_symmetry_cell_setting 'monoclinic'
loop_
_space_group_symop_operation_xyz
x,y,z
-x,y,1/2-z
-x,-y,-z
x,-y,1/2+z
1/2+x,1/2+y,z
1/2-x,1/2+y,1/2-z
1/2-x,1/2-y,-z
1/2+x,1/2-y,1/2+z
loop_
_atom_site_type_symbol
_atom_site_label
_atom_site_fract_x
_atom_site_fract_y
_atom_site_fract_z
Si Si1 0.768496 0.299613 0.193079
Si Si2 0.319448 0.866776 0.943119
Si Si3 0.487605 0.109373 0.447524
Si Si4 0.266997 0.870399 0.697983
Si Si5 0.367979 0.817047 0.311274
Si Si6 0.274794 0.332866 0.035268
Si Si7 0.372460 0.143558 0.315344
Si Si8 0.996453 0.291891 0.039525
O O1 0.730790 0.201964 0.252770
O O2 0.739508 0.463256 0.217656
O O3 0.697626 0.257959 0.180723
O O4 0.898184 0.270622 0.121777
O O5 0.429357 0.880358 0.924246
O O6 0.355460 0.815682 0.876427
O O7 0.243697 0.004915 0.970676
O O8 0.250000 0.750000 0.000000
O O9 0.616827 0.140640 0.381181
O O10 0.452699 0.220734 0.505145
O O11 0.456099 0.951405 0.478904
O O12 0.177085 0.786839 0.708032
O O13 0.500000 0.796197 0.250000
O O14 0.313759 0.777809 0.385809
O O15 0.337482 0.983015 0.315994
O O16 0.250000 0.250000 0.000000
O O17 0.402141 0.315635 0.995329
O O18 0.500000 0.170919 0.250000
#
# Coordination Sequence:
#
# PCOD8140022 Si02
#       8
#     8   8   8   8   8   8   8   8
#     4  11  24  40  65  91 125 164 209 264 318 382
#     4  11  23  39  61  93 127 163 206 259 323 376
#     4  10  20  40  65  88 123 169 207 255 316 383
#     4  11  23  41  64  92 124 163 210 260 319 381
#     4  10  23  41  65  91 124 167 211 258 310 380
#     4  11  22  40  64  94 127 163 212 259 311 381
#     4  10  22  43  63  86 124 169 212 259 314 380
#     4  10  21  39  65  94 125 162 215 260 312 379
#
# _framework density 19.821303
#
# number of rings (size 3 to 8) (size 9 to 14) (size 15 to 20)
#    0.000    1.500    2.500    2.250    1.750    3.500 
#    6.750    1.875    0.000    0.000    0.000    0.000 
#    0.000    0.000    0.000    0.000    0.000    0.000 
#
# Total GULP energy -396692.532084 kJ/mol
# GULP energy per Si atom -12396.641628 kJ/mol
# Density = 1.977619 g / cm^3
# Si number density = 19.821303 Si / 1000 Ang^3
#
#
#
# Elastic Constant Matrix: (Units=GPa)
#
#
# Indices 1 2 3 4 5 6 
#
# 1 119.7401 53.5256 30.5904 -0.0001 16.3834 0.0008
# 2 53.5256 83.8792 44.2989 -0.0002 5.9179 0.0016
# 3 30.5904 44.2989 97.9401 0.0000 10.6578 0.0001
# 4 -0.0001 -0.0002 0.0000 33.5331 -0.0001 2.8176
# 5 16.3834 5.9179 10.6578 -0.0001 36.3533 0.0000
# 6 0.0008 0.0016 0.0001 2.8176 0.0000 39.4569
#
#
#
# Elastic Compliance Matrix: (Units=1/GPa)
#
#
# Indices 1 2 3 4 5 6 
#
# 1 0.012321 -0.007585 0.000054 0.000000 -0.004334 0.000000
# 2 -0.007585 0.020342 -0.007069 0.000000 0.002179 -0.000001
# 3 0.000054 -0.007069 0.013705 0.000000 -0.002892 0.000000
# 4 0.000000 0.000000 0.000000 0.030001 0.000000 -0.002142
# 5 -0.004334 0.002179 -0.002892 0.000000 0.029954 0.000000
# 6 0.000000 -0.000001 0.000000 -0.002142 0.000000 0.025497
#
#
# Mechanical properties :
#
#
# Convention : Reuss Voigt Hill
#
# Bulk Modulus (GPa) = 58.24619 62.04326 60.14472
# Shear Modulus (GPa) = 29.98620 33.41164 31.69892
#
# Velocity S-wave (km/s) = 3.89373 4.11011 4.00338
# Velocity P-wave (km/s) = 7.04729 7.34120 7.19575
#
# Compressibility (1/GPa) = 0.01716851
#
# Stress axis : x y z
#
# Youngs Moduli (GPa) = 81.15977 49.16005 72.96462
#
# Poissons Ratio (x) = 0.37290 -0.00395
# Poissons Ratio (y) = 0.61563 0.51576
# Poissons Ratio (z) = -0.00439 0.34749
#
# Static dielectric constant tensor:
#      x y z
#    x 1.598230 -0.000050 3.060810 
#    y -0.000050 3.459410 0.000060 
#    z 3.060810 0.000060 0.528270 
# 
# 
# High freq. dielectric constant tensor:
#      x y z
#    x 1.783930 0.000000 0.011200 
#    y 0.000000 1.763830 0.000000 
#    z 0.011200 0.000000 1.787840 
# 
# From -- ./inp_files/315703.got.cif
#   From: 2010.06.25/outbox.cif.g09.slc.cpg/sg15_158_cif.got.tgz:315703.got - 2010.06.28 07:06:18.
