data_PCOD8140476
_publ_section_title
;
Structure prediction by ZEFSAII (Michael W. Deem and Ramdas Pophale) SiO2 
 PCOD8140476
Probable space group: C 2/C
;
_chemical_formula_sum "Si O2"
_cell_formula_units_Z 36
_cell_length_a 15.420271
_cell_length_b 10.705091
_cell_length_c 12.330920
_cell_angle_alpha 90.000000
_cell_angle_beta 120.321889
_cell_angle_gamma 90.000000
_cell_volume 1757.076459
_symmetry_space_group_name_H-M "C 2/C"
_symmetry_group_IT_number 15
_symmetry_cell_setting 'monoclinic'
loop_
_space_group_symop_operation_xyz
x,y,z
-x,y,1/2-z
-x,-y,-z
x,-y,1/2+z
1/2+x,1/2+y,z
1/2-x,1/2+y,1/2-z
1/2-x,1/2-y,-z
1/2+x,1/2-y,1/2+z
loop_
_atom_site_type_symbol
_atom_site_label
_atom_site_fract_x
_atom_site_fract_y
_atom_site_fract_z
Si Si1 0.767034 0.146518 0.099857
Si Si2 0.551572 0.129551 0.059101
Si Si3 0.895421 0.954398 0.070694
Si Si4 0.563458 0.353878 0.626885
Si Si5 0.500000 0.759261 0.750000
O O1 0.668404 0.119562 0.106287
O O2 0.855405 0.193477 0.235213
O O3 0.796913 0.019322 0.056990
O O4 0.750000 0.250000 0.000000
O O5 0.542843 0.154694 0.181559
O O6 0.502651 0.238888 0.956782
O O7 0.500000 0.000000 0.000000
O O8 0.911151 0.828210 0.148795
O O9 0.876916 0.920586 0.933431
O O10 0.992490 0.044691 0.140252
#
# Coordination Sequence:
#
# PCOD8140476 Si02
#       5
#     8   8   8   8   4
#     4  12  24  39  70 102 132 178 221 279 351 394
#     4  11  27  44  63 100 144 174 218 287 353 397
#     4  10  20  41  72  95 128 174 237 280 313 410
#     4  10  22  42  66 100 133 174 228 278 330 409
#     4  10  22  46  70  88 130 188 226 272 332 408
#
# _framework density 20.488578
#
# number of rings (size 3 to 8) (size 9 to 14) (size 15 to 20)
#    0.000    1.333    4.444    0.000    0.000    7.111 
#    0.000    4.444    0.000    0.000    0.000    0.000 
#    0.000    0.000    0.000    0.000    0.000    0.000 
#
# Total GULP energy -223265.668262 kJ/mol
# GULP energy per Si atom -12403.648237 kJ/mol
# Density = 2.044195 g / cm^3
# Si number density = 20.488578 Si / 1000 Ang^3
#
#
#
# Elastic Constant Matrix: (Units=GPa)
#
#
# Indices 1 2 3 4 5 6 
#
# 1 151.5141 65.2486 64.3318 0.0000 -17.2578 0.0000
# 2 65.2486 104.4405 46.3902 0.0000 -15.9924 0.0000
# 3 64.3318 46.3902 140.6341 0.0000 -11.5985 0.0000
# 4 0.0000 0.0000 0.0000 39.7623 0.0000 -6.1639
# 5 -17.2578 -15.9924 -11.5985 0.0000 34.8012 0.0000
# 6 0.0000 0.0000 0.0000 -6.1639 0.0000 39.8957
#
#
#
# Elastic Compliance Matrix: (Units=1/GPa)
#
#
# Indices 1 2 3 4 5 6 
#
# 1 0.010076 -0.004723 -0.002898 0.000000 0.001861 0.000000
# 2 -0.004723 0.014011 -0.002183 0.000000 0.003369 0.000000
# 3 -0.002898 -0.002183 0.009208 0.000000 0.000628 0.000000
# 4 0.000000 0.000000 0.000000 0.025767 0.000000 0.003981
# 5 0.001861 0.003369 0.000628 0.000000 0.031415 0.000000
# 6 0.000000 0.000000 0.000000 0.003981 0.000000 0.025680
#
#
# Mechanical properties :
#
#
# Convention : Reuss Voigt Hill
#
# Bulk Modulus (GPa) = 73.06160 83.16999 78.11579
# Shear Modulus (GPa) = 35.63054 37.59970 36.61512
#
# Velocity S-wave (km/s) = 4.17471 4.28852 4.23200
# Velocity P-wave (km/s) = 7.67950 8.07486 7.87966
#
# Compressibility (1/GPa) = 0.01368708
#
# Stress axis : x y z
#
# Youngs Moduli (GPa) = 99.24210 71.37139 108.59691
#
# Poissons Ratio (x) = 0.33709 0.31471
# Poissons Ratio (y) = 0.46873 0.23712
# Poissons Ratio (z) = 0.28760 0.15584
#
# Static dielectric constant tensor:
#      x y z
#    x 3.934850 0.000000 -0.178500 
#    y 0.000000 3.758230 0.000000 
#    z -0.178500 0.000000 3.843660 
# 
# 
# High freq. dielectric constant tensor:
#      x y z
#    x 1.802010 0.000000 -0.021540 
#    y 0.000000 1.798550 0.000000 
#    z -0.021540 0.000000 1.812810 
# 
# From -- ./inp_files/94772.got.cif
#   From: 2010.06.25/outbox.cif.g09.slc.cpg/sg15_48_cif.got.tgz:94772.got - 2010.06.28 07:06:18.
