data_PCOD8140722
_publ_section_title
;
Structure prediction by ZEFSAII (Michael W. Deem and Ramdas Pophale) SiO2 
 PCOD8140722
Probable space group: C 2/C
;
_chemical_formula_sum "Si O2"
_cell_formula_units_Z 60
_cell_length_a 8.590407
_cell_length_b 26.776703
_cell_length_c 24.545866
_cell_angle_alpha 90.000000
_cell_angle_beta 149.520899
_cell_angle_gamma 90.000000
_cell_volume 2863.841866
_symmetry_space_group_name_H-M "C 2/C"
_symmetry_group_IT_number 15
_symmetry_cell_setting 'monoclinic'
loop_
_space_group_symop_operation_xyz
x,y,z
-x,y,1/2-z
-x,-y,-z
x,-y,1/2+z
1/2+x,1/2+y,z
1/2-x,1/2+y,1/2-z
1/2-x,1/2-y,-z
1/2+x,1/2-y,1/2+z
loop_
_atom_site_type_symbol
_atom_site_label
_atom_site_fract_x
_atom_site_fract_y
_atom_site_fract_z
Si Si1 0.820222 0.272420 0.833696
Si Si2 0.348349 0.011476 0.090579
Si Si3 0.318890 0.923541 0.375160
Si Si4 0.449288 0.679445 0.531445
Si Si5 0.392394 0.577597 0.567910
Si Si6 0.321397 0.736923 0.326097
Si Si7 0.500000 0.986769 0.250000
Si Si8 0.204079 0.326628 0.476017
O O1 0.500000 0.301020 0.750000
O O2 0.741900 0.244913 0.753907
O O3 0.091292 0.312159 0.910243
O O4 0.898272 0.230146 0.901312
O O5 0.517696 0.968236 0.107594
O O6 0.521652 0.020148 0.201045
O O7 0.346288 0.060545 0.051644
O O8 0.000000 0.000000 0.000000
O O9 0.254800 0.936224 0.418612
O O10 0.553415 0.878000 0.447425
O O11 0.000000 0.908894 0.250000
O O12 0.468219 0.636099 0.582597
O O13 0.623363 0.664832 0.529028
O O14 0.707735 0.548341 0.657052
O O15 0.561040 0.691173 0.405948
O O16 0.438481 0.784996 0.394274
O O17 0.000000 0.716458 0.250000
#
# Coordination Sequence:
#
# PCOD8140722 Si02
#       8
#     8   8   8   8   8   8   4   8
#     4  11  24  41  64  89 131 177 220 273 323 383
#     4  10  22  45  69  95 132 166 208 268 327 390
#     4  12  25  42  70 102 132 170 222 270 326 388
#     4  11  25  41  63  98 129 173 223 270 327 387
#     4  11  25  41  69  98 133 164 217 271 320 389
#     4  11  23  41  62  90 132 179 222 270 330 381
#     4  10  20  42  72  98 126 174 206 256 332 390
#     4  11  24  39  64  98 133 172 222 279 319 388
#
# _framework density 20.950876999999998
#
# number of rings (size 3 to 8) (size 9 to 14) (size 15 to 20)
#    0.000    1.067    4.000    2.400    6.533    0.000 
#    0.000    4.667    1.467    0.000    0.000    0.000 
#    0.000    0.000    0.000    0.000    0.000    0.000 
#
# Total GULP energy -371838.603476 kJ/mol
# GULP energy per Si atom -12394.620116 kJ/mol
# Density = 2.090319 g / cm^3
# Si number density = 20.950877 Si / 1000 Ang^3
#
#
#
# Elastic Constant Matrix: (Units=GPa)
#
#
# Indices 1 2 3 4 5 6 
#
# 1 115.6782 28.8301 49.7728 -0.0018 -6.3967 0.0003
# 2 28.8301 57.2964 26.1732 -0.0031 0.8968 0.0048
# 3 49.7728 26.1732 120.4550 -0.0107 -0.8905 0.0094
# 4 -0.0018 -0.0031 -0.0107 4.2677 -0.0004 0.6366
# 5 -6.3967 0.8968 -0.8905 -0.0004 47.0982 -0.0003
# 6 0.0003 0.0048 0.0094 0.6366 -0.0003 22.8852
#
#
#
# Elastic Compliance Matrix: (Units=1/GPa)
#
#
# Indices 1 2 3 4 5 6 
#
# 1 0.011370 -0.004002 -0.003817 -0.000008 0.001548 0.000003
# 2 -0.004002 0.020794 -0.002872 0.000007 -0.000994 -0.000003
# 3 -0.003817 -0.002872 0.010501 0.000023 -0.000265 -0.000004
# 4 -0.000008 0.000007 0.000023 0.235292 0.000001 -0.006545
# 5 0.001548 -0.000994 -0.000265 0.000001 0.021456 0.000001
# 6 0.000003 -0.000003 -0.000004 -0.006545 0.000001 0.043878
#
#
# Mechanical properties :
#
#
# Convention : Reuss Voigt Hill
#
# Bulk Modulus (GPa) = 46.98470 55.88686 51.43578
# Shear Modulus (GPa) = 13.44921 27.42713 20.43817
#
# Velocity S-wave (km/s) = 2.53640 3.62210 3.12673
# Velocity P-wave (km/s) = 5.57249 6.65025 6.13508
#
# Compressibility (1/GPa) = 0.02128352
#
# Stress axis : x y z
#
# Youngs Moduli (GPa) = 87.95037 48.09035 95.22646
#
# Poissons Ratio (x) = 0.19244 0.36350
# Poissons Ratio (y) = 0.35195 0.27350
# Poissons Ratio (z) = 0.33573 0.13812
#
# Static dielectric constant tensor:
#      x y z
#    x -22.617370 0.001230 -2.231470 
#    y 0.001230 3.540480 0.000080 
#    z -2.231470 0.000080 4.092120 
# 
# 
# High freq. dielectric constant tensor:
#      x y z
#    x 1.841610 0.000000 -0.000320 
#    y 0.000000 1.787440 0.000000 
#    z -0.000320 0.000000 1.835390 
# 
# From -- ./inp_files/266662.got.cif
#   From: 2010.06.25/outbox.cif.g09.slc.cpg/sg15_134_cif.got.tgz:266662.got - 2010.06.28 07:06:18.
