data_PCOD8140881
_publ_section_title
;
Structure prediction by ZEFSAII (Michael W. Deem and Ramdas Pophale) SiO2 
 PCOD8140881
Probable space group: C 2/C
;
_chemical_formula_sum "Si O2"
_cell_formula_units_Z 52
_cell_length_a 15.109395
_cell_length_b 8.711146
_cell_length_c 23.674932
_cell_angle_alpha 90.000000
_cell_angle_beta 127.161686
_cell_angle_gamma 90.000000
_cell_volume 2483.324566
_symmetry_space_group_name_H-M "C 2/C"
_symmetry_group_IT_number 15
_symmetry_cell_setting 'monoclinic'
loop_
_space_group_symop_operation_xyz
x,y,z
-x,y,1/2-z
-x,-y,-z
x,-y,1/2+z
1/2+x,1/2+y,z
1/2-x,1/2+y,1/2-z
1/2-x,1/2-y,-z
1/2+x,1/2-y,1/2+z
loop_
_atom_site_type_symbol
_atom_site_label
_atom_site_fract_x
_atom_site_fract_y
_atom_site_fract_z
Si Si1 0.108025 0.112851 0.827198
Si Si2 0.000000 0.305003 0.250000
Si Si3 0.572478 0.923709 0.444925
Si Si4 0.841832 0.461197 0.633829
Si Si5 0.486305 0.623853 0.133601
Si Si6 0.354118 0.065722 0.914864
Si Si7 0.100514 0.912916 0.568099
O O1 0.115146 0.294301 0.832862
O O2 0.225443 0.055672 0.845189
O O3 0.000000 0.065268 0.750000
O O4 0.090580 0.023734 0.880272
O O5 0.102651 0.411084 0.305801
O O6 0.033856 0.201916 0.209080
O O7 0.585842 0.746107 0.430843
O O8 0.440927 0.973122 0.397984
O O9 0.630435 0.029727 0.421378
O O10 0.630684 0.947423 0.527638
O O11 0.713143 0.495221 0.593852
O O12 0.587142 0.574300 0.131259
O O13 0.389468 0.236710 0.949101
O O14 0.000000 0.000000 0.500000
#
# Coordination Sequence:
#
# PCOD8140881 Si02
#       7
#     8   4   8   8   8   8   8
#     4  11  22  40  62  93 122 164 206 260 317 381
#     4  10  20  46  58  86 122 170 212 248 316 384
#     4   9  20  42  62  88 120 167 205 261 310 371
#     4  10  22  41  67  86 124 167 209 254 314 383
#     4  10  22  41  60  91 130 158 213 262 313 385
#     4   9  21  41  63  89 129 161 211 257 316 380
#     4  10  23  41  61  97 128 160 213 270 320 374
#
# _framework density 20.939671000000001
#
# number of rings (size 3 to 8) (size 9 to 14) (size 15 to 20)
#    0.000    2.154    1.538    0.000    4.308    1.846 
#   24.923    0.000    0.000    0.000    0.000    0.000 
#    0.000    0.000    0.000    0.000    0.000    0.000 
#
# Total GULP energy -322179.478867 kJ/mol
# GULP energy per Si atom -12391.518418 kJ/mol
# Density = 2.089201 g / cm^3
# Si number density = 20.939671 Si / 1000 Ang^3
#
#
#
# Elastic Constant Matrix: (Units=GPa)
#
#
# Indices 1 2 3 4 5 6 
#
# 1 187.6567 48.4741 74.1516 0.0000 9.0044 0.0000
# 2 48.4741 70.9321 41.6880 0.0000 3.3496 0.0000
# 3 74.1516 41.6880 98.0078 0.0000 8.2487 0.0000
# 4 0.0000 0.0000 0.0000 25.7318 0.0000 -5.3701
# 5 9.0044 3.3496 8.2487 0.0000 41.7901 0.0000
# 6 0.0000 0.0000 0.0000 -5.3701 0.0000 34.1897
#
#
#
# Elastic Compliance Matrix: (Units=1/GPa)
#
#
# Indices 1 2 3 4 5 6 
#
# 1 0.007938 -0.002528 -0.004885 0.000000 -0.000544 0.000000
# 2 -0.002528 0.019603 -0.006446 0.000000 0.000246 0.000000
# 3 -0.004885 -0.006446 0.016788 0.000000 -0.001744 0.000000
# 4 0.000000 0.000000 0.000000 0.040179 0.000000 0.006311
# 5 -0.000544 0.000246 -0.001744 0.000000 0.024371 0.000000
# 6 0.000000 0.000000 0.000000 0.006311 0.000000 0.030240
#
#
# Mechanical properties :
#
#
# Convention : Reuss Voigt Hill
#
# Bulk Modulus (GPa) = 60.20280 76.13600 68.16940
# Shear Modulus (GPa) = 29.00681 33.16119 31.08400
#
# Velocity S-wave (km/s) = 3.72594 3.98383 3.85704
# Velocity P-wave (km/s) = 6.87919 7.58946 7.24303
#
# Compressibility (1/GPa) = 0.01661052
#
# Stress axis : x y z
#
# Youngs Moduli (GPa) = 125.97190 51.01383 59.56769
#
# Poissons Ratio (x) = 0.12898 0.29098
# Poissons Ratio (y) = 0.31850 0.38396
# Poissons Ratio (z) = 0.61535 0.32882
#
# Static dielectric constant tensor:
#      x y z
#    x 4.189590 0.000000 -0.089710 
#    y 0.000000 3.902630 0.000000 
#    z -0.089710 0.000000 3.597460 
# 
# 
# High freq. dielectric constant tensor:
#      x y z
#    x 1.832980 0.000000 -0.001790 
#    y 0.000000 1.826970 0.000000 
#    z -0.001790 0.000000 1.791910 
# 
# From -- ./inp_files/294879.got.cif
#   From: 2010.06.25/outbox.cif.g09.slc.cpg/sg15_148_cif.got.tgz:294879.got - 2010.06.28 07:06:18.
