data_PCOD8140692
_publ_section_title
;
Structure prediction by ZEFSAII (Michael W. Deem and Ramdas Pophale) SiO2 
 PCOD8140692
Probable space group: C 2/C
;
_chemical_formula_sum "Si O2"
_cell_formula_units_Z 40
_cell_length_a 7.731690
_cell_length_b 16.758529
_cell_length_c 25.517104
_cell_angle_alpha 90.000000
_cell_angle_beta 34.328260
_cell_angle_gamma 90.000000
_cell_volume 1864.530781
_symmetry_space_group_name_H-M "C 2/C"
_symmetry_group_IT_number 15
_symmetry_cell_setting 'monoclinic'
loop_
_space_group_symop_operation_xyz
x,y,z
-x,y,1/2-z
-x,-y,-z
x,-y,1/2+z
1/2+x,1/2+y,z
1/2-x,1/2+y,1/2-z
1/2-x,1/2-y,-z
1/2+x,1/2-y,1/2+z
loop_
_atom_site_type_symbol
_atom_site_label
_atom_site_fract_x
_atom_site_fract_y
_atom_site_fract_z
Si Si1 0.835620 0.600418 0.643544
Si Si2 0.989971 0.242915 0.144107
Si Si3 0.366993 0.838308 0.019918
Si Si4 0.075490 0.295125 0.649016
Si Si5 0.204826 0.551380 0.059461
O O1 0.500000 0.618059 0.750000
O O2 0.059925 0.661745 0.619927
O O3 0.850063 0.614710 0.578286
O O4 0.921120 0.508949 0.629562
O O5 0.771210 0.223521 0.247663
O O6 0.822171 0.223072 0.131764
O O7 0.288603 0.190222 0.078159
O O8 0.149333 0.759431 0.079045
O O9 0.248510 0.900019 0.006052
O O10 0.116437 0.387930 0.627295
O O11 0.500000 0.500000 0.000000
#
# Coordination Sequence:
#
# PCOD8140692 Si02
#       5
#     8   8   8   8   8
#     4  11  22  43  67  96 131 167 219 277 337 388
#     4  10  20  42  70  93 125 175 221 266 326 400
#     4  11  22  42  70  91 129 181 218 260 332 398
#     4  10  21  41  64  97 131 169 222 270 323 396
#     4  12  26  41  61  98 137 170 219 278 328 379
#
# _framework density 21.453119000000001
#
# number of rings (size 3 to 8) (size 9 to 14) (size 15 to 20)
#    0.000    1.200    4.000    6.000    2.800    0.000 
#    3.600    0.000    0.000    0.000    0.000    0.000 
#    0.000    0.000    0.000    0.000    0.000    0.000 
#
# Total GULP energy -247990.948229 kJ/mol
# GULP energy per Si atom -12399.547411 kJ/mol
# Density = 2.140429 g / cm^3
# Si number density = 21.453119 Si / 1000 Ang^3
#
#
#
# Elastic Constant Matrix: (Units=GPa)
#
#
# Indices 1 2 3 4 5 6 
#
# 1 65.0809 46.4621 53.1778 0.0121 -0.4433 0.0028
# 2 46.4621 174.6359 60.0710 0.0041 6.9110 0.0476
# 3 53.1778 60.0710 135.4768 -0.0323 6.7680 0.0435
# 4 0.0121 0.0041 -0.0323 31.3427 0.0370 0.1566
# 5 -0.4433 6.9110 6.7680 0.0370 20.0976 0.0073
# 6 0.0028 0.0476 0.0435 0.1566 0.0073 41.7483
#
#
#
# Elastic Compliance Matrix: (Units=1/GPa)
#
#
# Indices 1 2 3 4 5 6 
#
# 1 0.025018 -0.003993 -0.008285 -0.000023 0.004715 0.000011
# 2 -0.003993 0.007429 -0.001622 0.000001 -0.002097 -0.000006
# 3 -0.008285 -0.001622 0.011528 0.000020 -0.003507 -0.000009
# 4 -0.000023 0.000001 0.000020 0.031906 -0.000066 -0.000120
# 5 0.004715 -0.002097 -0.003507 -0.000066 0.051763 -0.000003
# 6 0.000011 -0.000006 -0.000009 -0.000120 -0.000003 0.023954
#
#
# Mechanical properties :
#
#
# Convention : Reuss Voigt Hill
#
# Bulk Modulus (GPa) = 61.82414 77.17950 69.50182
# Shear Modulus (GPa) = 27.05762 33.00322 30.03042
#
# Velocity S-wave (km/s) = 3.55525 3.92648 3.74547
# Velocity P-wave (km/s) = 6.76269 7.52399 7.15347
#
# Compressibility (1/GPa) = 0.01617491
#
# Stress axis : x y z
#
# Youngs Moduli (GPa) = 39.97115 134.59923 86.74471
#
# Poissons Ratio (x) = 0.53741 0.71871
# Poissons Ratio (y) = 0.15959 0.14073
# Poissons Ratio (z) = 0.33118 0.21836
#
# Static dielectric constant tensor:
#      x y z
#    x 3.705810 -0.000260 0.163250 
#    y -0.000260 4.421100 0.000450 
#    z 0.163250 0.000450 4.025360 
# 
# 
# High freq. dielectric constant tensor:
#      x y z
#    x 1.829180 0.000000 0.009780 
#    y 0.000000 1.860570 0.000000 
#    z 0.009780 0.000000 1.851300 
# 
# From -- ./inp_files/232435.got.cif
#   From: 2010.06.25/outbox.cif.g09.slc.cpg/sg15_117_cif.got.tgz:232435.got - 2010.06.28 07:06:18.
