data_PCOD8140556
_publ_section_title
;
Structure prediction by ZEFSAII (Michael W. Deem and Ramdas Pophale) SiO2 
 PCOD8140556
Probable space group: C 2/C
;
_chemical_formula_sum "Si O2"
_cell_formula_units_Z 52
_cell_length_a 17.704101
_cell_length_b 13.093375
_cell_length_c 17.709503
_cell_angle_alpha 90.000000
_cell_angle_beta 38.065975
_cell_angle_gamma 90.000000
_cell_volume 2531.122437
_symmetry_space_group_name_H-M "C 2/C"
_symmetry_group_IT_number 15
_symmetry_cell_setting 'monoclinic'
loop_
_space_group_symop_operation_xyz
x,y,z
-x,y,1/2-z
-x,-y,-z
x,-y,1/2+z
1/2+x,1/2+y,z
1/2-x,1/2+y,1/2-z
1/2-x,1/2-y,-z
1/2+x,1/2-y,1/2+z
loop_
_atom_site_type_symbol
_atom_site_label
_atom_site_fract_x
_atom_site_fract_y
_atom_site_fract_z
Si Si1 0.000000 0.530740 0.750000
Si Si2 0.955559 0.093118 0.479857
Si Si3 0.324601 0.590433 0.301619
Si Si4 0.830748 0.585565 0.634602
Si Si5 0.244521 0.130771 0.983867
Si Si6 0.822511 0.746148 0.168522
Si Si7 0.042184 0.426420 0.865074
O O1 0.956315 0.450944 0.722816
O O2 0.113163 0.599138 0.632743
O O3 0.822642 0.090652 0.540824
O O4 0.940331 0.189069 0.548176
O O5 0.047651 0.117134 0.339189
O O6 0.000000 0.000000 0.500000
O O7 0.284190 0.484747 0.295473
O O8 0.328479 0.576563 0.389049
O O9 0.231028 0.683770 0.360463
O O10 0.783642 0.687866 0.710181
O O11 0.920858 0.530452 0.621938
O O12 0.908369 0.610276 0.498529
O O13 0.250000 0.250000 0.000000
O O14 0.862260 0.664921 0.199851
#
# Coordination Sequence:
#
# PCOD8140556 Si02
#       7
#     4   8   8   8   8   8   8
#     4  12  26  46  66  98 140 176 232 284 338 414
#     4  12  25  43  68 102 140 177 224 285 346 411
#     4  11  23  41  66  99 137 169 220 280 345 403
#     4  10  20  42  64  96 131 175 221 278 330 405
#     4  12  27  42  69 103 136 178 221 290 349 404
#     4  11  22  40  69  97 128 182 226 272 341 415
#     4  10  23  40  66  93 132 177 225 274 334 402
#
# _framework density 20.544243999999999
#
# number of rings (size 3 to 8) (size 9 to 14) (size 15 to 20)
#    0.000    0.923    4.615    2.308    4.308    0.000 
#    0.000    2.308    0.000    0.000    0.000    0.000 
#    0.000    0.000    0.000    0.000    0.000    0.000 
#
# Total GULP energy -322234.158433 kJ/mol
# GULP energy per Si atom -12393.621478 kJ/mol
# Density = 2.049748 g / cm^3
# Si number density = 20.544244 Si / 1000 Ang^3
#
#
#
# Elastic Constant Matrix: (Units=GPa)
#
#
# Indices 1 2 3 4 5 6 
#
# 1 101.4193 46.6609 27.5310 0.0000 9.5380 0.0000
# 2 46.6609 97.7362 33.7701 0.0000 1.5504 0.0000
# 3 27.5310 33.7701 127.5764 0.0000 8.2960 0.0000
# 4 0.0000 0.0000 0.0000 32.8654 0.0000 -5.1068
# 5 9.5380 1.5504 8.2960 0.0000 34.0615 0.0000
# 6 0.0000 0.0000 0.0000 -5.1068 0.0000 15.8328
#
#
#
# Elastic Compliance Matrix: (Units=1/GPa)
#
#
# Indices 1 2 3 4 5 6 
#
# 1 0.013142 -0.005850 -0.001083 0.000000 -0.003150 0.000000
# 2 -0.005850 0.013867 -0.002514 0.000000 0.001619 0.000000
# 3 -0.001083 -0.002514 0.008850 0.000000 -0.001738 0.000000
# 4 0.000000 0.000000 0.000000 0.032033 0.000000 0.010332
# 5 -0.003150 0.001619 -0.001738 0.000000 0.030590 0.000000
# 6 0.000000 0.000000 0.000000 0.010332 0.000000 0.066493
#
#
# Mechanical properties :
#
#
# Convention : Reuss Voigt Hill
#
# Bulk Modulus (GPa) = 58.93795 60.29509 59.61652
# Shear Modulus (GPa) = 26.38199 31.13659 28.75929
#
# Velocity S-wave (km/s) = 3.58740 3.89728 3.74554
# Velocity P-wave (km/s) = 6.77568 7.04729 6.91282
#
# Compressibility (1/GPa) = 0.01696700
#
# Stress axis : x y z
#
# Youngs Moduli (GPa) = 76.09393 72.11182 112.98855
#
# Poissons Ratio (x) = 0.42186 0.12232
# Poissons Ratio (y) = 0.44515 0.28401
# Poissons Ratio (z) = 0.08238 0.18126
#
# Static dielectric constant tensor:
#      x y z
#    x 3.769800 0.000000 0.049750 
#    y 0.000000 3.605650 0.000000 
#    z 0.049750 0.000000 3.838610 
# 
# 
# High freq. dielectric constant tensor:
#      x y z
#    x 1.794400 0.000000 0.004480 
#    y 0.000000 1.793440 0.000000 
#    z 0.004480 0.000000 1.821350 
# 
# From -- ./inp_files/252730.got.cif
#   From: 2010.06.25/outbox.cif.g09.slc.cpg/sg15_127_cif.got.tgz:252730.got - 2010.06.28 07:06:18.
