data_PCOD8140810
_publ_section_title
;
Structure prediction by ZEFSAII (Michael W. Deem and Ramdas Pophale) SiO2 
 PCOD8140810
Probable space group: C 2/C
;
_chemical_formula_sum "Si O2"
_cell_formula_units_Z 44
_cell_length_a 11.544349
_cell_length_b 13.530430
_cell_length_c 13.764645
_cell_angle_alpha 90.000000
_cell_angle_beta 79.875846
_cell_angle_gamma 90.000000
_cell_volume 2116.559748
_symmetry_space_group_name_H-M "C 2/C"
_symmetry_group_IT_number 15
_symmetry_cell_setting 'monoclinic'
loop_
_space_group_symop_operation_xyz
x,y,z
-x,y,1/2-z
-x,-y,-z
x,-y,1/2+z
1/2+x,1/2+y,z
1/2-x,1/2+y,1/2-z
1/2-x,1/2-y,-z
1/2+x,1/2-y,1/2+z
loop_
_atom_site_type_symbol
_atom_site_label
_atom_site_fract_x
_atom_site_fract_y
_atom_site_fract_z
Si Si1 0.299019 0.425601 0.401561
Si Si2 0.000000 0.350921 0.750000
Si Si3 0.602866 0.632162 0.162793
Si Si4 0.568376 0.914059 0.540603
Si Si5 0.431652 0.696070 0.029607
Si Si6 0.251163 0.247541 0.285173
O O1 0.319123 0.535078 0.360078
O O2 0.205235 0.431968 0.501900
O O3 0.410698 0.371459 0.436606
O O4 0.253272 0.363512 0.314271
O O5 0.031734 0.423542 0.657688
O O6 0.114801 0.284178 0.751280
O O7 0.500000 0.602223 0.250000
O O8 0.548724 0.660069 0.066972
O O9 0.678878 0.723276 0.196922
O O10 0.534380 0.805465 0.508515
O O11 0.500000 0.000000 0.500000
O O12 0.314694 0.693022 0.114927
#
# Coordination Sequence:
#
# PCOD8140810 Si02
#       6
#     8   4   8   8   8   8
#     4  11  20  42  66  89 129 171 205 260 324 369
#     4  12  20  40  66  88 124 168 222 244 310 386
#     4  10  23  39  63  97 126 161 214 259 312 379
#     4  11  23  40  64  94 128 167 213 258 313 376
#     4  10  20  44  63  88 129 163 206 262 321 367
#     4  10  21  39  62  91 122 165 209 258 306 383
#
# _framework density 20.788450000000001
#
# number of rings (size 3 to 8) (size 9 to 14) (size 15 to 20)
#    0.000    1.455    3.636    2.727    1.273    0.000 
#   11.455    3.636    0.000    0.000    0.000    0.000 
#    0.000    0.000    0.000    0.000    0.000    0.000 
#
# Total GULP energy -272680.899037 kJ/mol
# GULP energy per Si atom -12394.586320 kJ/mol
# Density = 2.074113 g / cm^3
# Si number density = 20.788450 Si / 1000 Ang^3
#
#
#
# Elastic Constant Matrix: (Units=GPa)
#
#
# Indices 1 2 3 4 5 6 
#
# 1 104.5868 52.5760 55.3827 0.0000 5.7723 0.0000
# 2 52.5760 111.4475 60.8608 0.0000 14.3698 0.0000
# 3 55.3827 60.8608 110.0437 0.0000 4.8695 0.0000
# 4 0.0000 0.0000 0.0000 21.0670 0.0000 1.0046
# 5 5.7723 14.3698 4.8695 0.0000 36.1143 0.0000
# 6 0.0000 0.0000 0.0000 1.0046 0.0000 36.2421
#
#
#
# Elastic Compliance Matrix: (Units=1/GPa)
#
#
# Indices 1 2 3 4 5 6 
#
# 1 0.014180 -0.003999 -0.004924 0.000000 -0.000011 0.000000
# 2 -0.003999 0.014643 -0.005892 0.000000 -0.004393 0.000000
# 3 -0.004924 -0.005892 0.014774 0.000000 0.001139 0.000000
# 4 0.000000 0.000000 0.000000 0.047530 0.000000 -0.001318
# 5 -0.000011 -0.004393 0.001139 0.000000 0.029286 0.000000
# 6 0.000000 0.000000 0.000000 -0.001318 0.000000 0.027629
#
#
# Mechanical properties :
#
#
# Convention : Reuss Voigt Hill
#
# Bulk Modulus (GPa) = 71.59708 73.74634 72.67171
# Shear Modulus (GPa) = 27.42325 29.16858 28.29591
#
# Velocity S-wave (km/s) = 3.63596 3.74988 3.69336
# Velocity P-wave (km/s) = 7.22098 7.36889 7.29531
#
# Compressibility (1/GPa) = 0.01396705
#
# Stress axis : x y z
#
# Youngs Moduli (GPa) = 70.52225 68.29157 67.68825
#
# Poissons Ratio (x) = 0.27309 0.33332
# Poissons Ratio (y) = 0.28201 0.39879
# Poissons Ratio (z) = 0.34728 0.40235
#
# Static dielectric constant tensor:
#      x y z
#    x 3.943760 0.000000 0.130880 
#    y 0.000000 2.821710 0.000000 
#    z 0.130880 0.000000 3.554560 
# 
# 
# High freq. dielectric constant tensor:
#      x y z
#    x 1.816150 0.000000 -0.002050 
#    y 0.000000 1.800190 0.000000 
#    z -0.002050 0.000000 1.812930 
# 
# From -- ./inp_files/86154.got.cif
#   From: 2010.06.25/outbox.cif.g09.slc.cpg/sg15_44_cif.got.tgz:86154.got - 2010.06.28 07:06:18.
