data_PCOD8140033
_publ_section_title
;
Structure prediction by ZEFSAII (Michael W. Deem and Ramdas Pophale) SiO2 
 PCOD8140033
Probable space group: C 2/C
;
_chemical_formula_sum "Si O2"
_cell_formula_units_Z 64
_cell_length_a 13.457982
_cell_length_b 28.168092
_cell_length_c 11.298461
_cell_angle_alpha 90.000000
_cell_angle_beta 135.704426
_cell_angle_gamma 90.000000
_cell_volume 2991.135031
_symmetry_space_group_name_H-M "C 2/C"
_symmetry_group_IT_number 15
_symmetry_cell_setting 'monoclinic'
loop_
_space_group_symop_operation_xyz
x,y,z
-x,y,1/2-z
-x,-y,-z
x,-y,1/2+z
1/2+x,1/2+y,z
1/2-x,1/2+y,1/2-z
1/2-x,1/2-y,-z
1/2+x,1/2-y,1/2+z
loop_
_atom_site_type_symbol
_atom_site_label
_atom_site_fract_x
_atom_site_fract_y
_atom_site_fract_z
Si Si1 0.783970 0.222774 0.408433
Si Si2 0.150900 0.624082 0.346674
Si Si3 0.718235 0.607327 0.357949
Si Si4 0.079087 0.767961 0.051782
Si Si5 0.809617 0.615726 0.855230
Si Si6 0.021443 0.327195 0.402483
Si Si7 0.563934 0.947976 0.567629
Si Si8 0.418663 0.371670 0.515076
O O1 0.750000 0.250000 0.500000
O O2 0.738495 0.167165 0.364001
O O3 0.714486 0.251777 0.242209
O O4 0.952877 0.222840 0.536903
O O5 0.222135 0.610011 0.532657
O O6 0.121377 0.576393 0.241054
O O7 0.000000 0.647490 0.250000
O O8 0.836207 0.647162 0.426705
O O9 0.799800 0.557258 0.403545
O O10 0.662682 0.606325 0.443053
O O11 0.584833 0.614539 0.155521
O O12 0.045327 0.728932 0.923833
O O13 0.107075 0.815352 0.000478
O O14 0.655395 0.607312 0.665142
O O15 0.884006 0.664553 0.871785
O O16 0.925393 0.579293 0.903951
O O17 0.000000 0.344872 0.250000
O O18 0.500000 0.000000 0.500000
#
# Coordination Sequence:
#
# PCOD8140033 Si02
#       8
#     8   8   8   8   8   8   8   8
#     4  12  23  38  59  90 133 184 227 271 320 388
#     4  10  20  40  65  91 134 166 218 284 337 384
#     4  10  23  40  62  87 132 172 209 270 341 395
#     4  12  24  34  55  89 127 174 233 265 314 392
#     4  10  21  41  63  95 122 169 214 275 336 402
#     4  11  21  37  58  87 126 178 234 279 312 379
#     4  10  22  44  71 100 120 160 219 276 339 410
#     4  11  22  39  58  93 134 178 209 262 345 402
#
# _framework density 21.396559
#
# number of rings (size 3 to 8) (size 9 to 14) (size 15 to 20)
#    0.000    1.250    1.250    7.125    1.750    0.500 
#    6.750    2.500    0.000    0.000    0.000    0.000 
#    0.000    0.000    0.000    0.000    0.000    0.000 
#
# Total GULP energy -396425.510545 kJ/mol
# GULP energy per Si atom -12388.297205 kJ/mol
# Density = 2.134786 g / cm^3
# Si number density = 21.396559 Si / 1000 Ang^3
#
#
#
# Elastic Constant Matrix: (Units=GPa)
#
#
# Indices 1 2 3 4 5 6 
#
# 1 86.6248 36.5584 39.0075 0.0000 0.2082 0.0000
# 2 36.5584 114.1857 56.9291 0.0000 0.3617 0.0000
# 3 39.0075 56.9291 157.1417 0.0000 0.9121 0.0000
# 4 0.0000 0.0000 0.0000 24.5980 0.0000 2.3032
# 5 0.2082 0.3617 0.9121 0.0000 34.4251 0.0000
# 6 0.0000 0.0000 0.0000 2.3032 0.0000 26.4762
#
#
#
# Elastic Compliance Matrix: (Units=1/GPa)
#
#
# Indices 1 2 3 4 5 6 
#
# 1 0.013973 -0.003349 -0.002255 0.000000 0.000010 0.000000
# 2 -0.003349 0.011491 -0.003331 0.000000 -0.000012 0.000000
# 3 -0.002255 -0.003331 0.008131 0.000000 -0.000167 0.000000
# 4 0.000000 0.000000 0.000000 0.040988 0.000000 -0.003566
# 5 0.000010 -0.000012 -0.000167 0.000000 0.029053 0.000000
# 6 0.000000 0.000000 0.000000 -0.003566 0.000000 0.038080
#
#
# Mechanical properties :
#
#
# Convention : Reuss Voigt Hill
#
# Bulk Modulus (GPa) = 63.59948 69.21579 66.40764
# Shear Modulus (GPa) = 30.33440 32.13032 31.23236
#
# Velocity S-wave (km/s) = 3.76935 3.87933 3.82473
# Velocity P-wave (km/s) = 6.98088 7.24464 7.11398
#
# Compressibility (1/GPa) = 0.01572340
#
# Stress axis : x y z
#
# Youngs Moduli (GPa) = 71.56614 87.02456 122.98031
#
# Poissons Ratio (x) = 0.29148 0.27735
# Poissons Ratio (y) = 0.23970 0.40970
# Poissons Ratio (z) = 0.16140 0.28992
#
# Static dielectric constant tensor:
#      x y z
#    x 3.890700 0.000000 0.123310 
#    y 0.000000 3.790650 0.000000 
#    z 0.123310 0.000000 4.190550 
# 
# 
# High freq. dielectric constant tensor:
#      x y z
#    x 1.842460 0.000000 0.004160 
#    y 0.000000 1.802910 0.000000 
#    z 0.004160 0.000000 1.852940 
# 
# From -- ./inp_files/101659.got.cif
#   From: 2010.06.25/outbox.cif.g09.slc.cpg/sg15_51_cif.got.tgz:101659.got - 2010.06.28 07:06:18.
