data_PCOD8140199
_publ_section_title
;
Structure prediction by ZEFSAII (Michael W. Deem and Ramdas Pophale) SiO2 
 PCOD8140199
Probable space group: C 2/C
;
_chemical_formula_sum "Si O2"
_cell_formula_units_Z 32
_cell_length_a 19.334818
_cell_length_b 14.586413
_cell_length_c 5.414180
_cell_angle_alpha 90.000000
_cell_angle_beta 58.426775
_cell_angle_gamma 90.000000
_cell_volume 1300.907618
_symmetry_space_group_name_H-M "C 2/C"
_symmetry_group_IT_number 15
_symmetry_cell_setting 'monoclinic'
loop_
_space_group_symop_operation_xyz
x,y,z
-x,y,1/2-z
-x,-y,-z
x,-y,1/2+z
1/2+x,1/2+y,z
1/2-x,1/2+y,1/2-z
1/2-x,1/2-y,-z
1/2+x,1/2-y,1/2+z
loop_
_atom_site_type_symbol
_atom_site_label
_atom_site_fract_x
_atom_site_fract_y
_atom_site_fract_z
Si Si1 0.691423 0.195741 0.787338
Si Si2 0.179082 0.941394 0.311605
Si Si3 0.970100 0.373782 0.064458
Si Si4 0.936782 0.190916 0.681726
O O1 0.750000 0.250000 0.500000
O O2 0.742429 0.124265 0.856311
O O3 0.626692 0.136865 0.748674
O O4 0.644750 0.270317 0.037491
O O5 0.095735 0.880989 0.460972
O O6 0.180274 0.993167 0.570585
O O7 0.000000 0.432200 0.250000
O O8 0.000000 0.418540 0.750000
O O9 0.014225 0.275805 0.020157
O O10 0.000000 0.140047 0.750000
#
# Coordination Sequence:
#
# PCOD8140199 Si02
#       4
#     8   8   8   8
#     4  10  20  40  69  92 122 169 224 263 298 372
#     4  12  26  40  60  96 138 168 196 257 334 384
#     4   9  19  35  62  91 114 149 213 269 298 343
#     4   9  21  41  66  91 120 168 223 261 301 369
#
# _framework density 24.598209000000001
#
# number of rings (size 3 to 8) (size 9 to 14) (size 15 to 20)
#    0.000    2.500    0.000    3.750    0.000   11.000 
#    0.000    0.000    0.000   31.500    0.000    0.000 
#    0.000    0.000    0.000    0.000    0.000    0.000 
#
# Total GULP energy -198214.525595 kJ/mol
# GULP energy per Si atom -12388.407850 kJ/mol
# Density = 2.454222 g / cm^3
# Si number density = 24.598209 Si / 1000 Ang^3
#
#
#
# Elastic Constant Matrix: (Units=GPa)
#
#
# Indices 1 2 3 4 5 6 
#
# 1 184.9055 70.2117 44.2973 0.0000 3.2062 0.0000
# 2 70.2117 97.6181 25.8170 0.0000 -5.3227 0.0000
# 3 44.2973 25.8170 90.6602 0.0000 19.2782 0.0000
# 4 0.0000 0.0000 0.0000 -74.6838 0.0000 -78.6335
# 5 3.2062 -5.3227 19.2782 0.0000 56.9516 0.0000
# 6 0.0000 0.0000 0.0000 -78.6335 0.0000 -70.7437
#
#
#
# Elastic Compliance Matrix: (Units=1/GPa)
#
#
# Indices 1 2 3 4 5 6 
#
# 1 0.007905 -0.005057 -0.002400 0.000000 -0.000105 0.000000
# 2 -0.005057 0.014591 -0.002193 0.000000 0.002391 0.000000
# 3 -0.002400 -0.002193 0.013838 0.000000 -0.004754 0.000000
# 4 0.000000 0.000000 0.000000 0.078620 0.000000 -0.087388
# 5 -0.000105 0.002391 -0.004754 0.000000 0.019397 0.000000
# 6 0.000000 0.000000 0.000000 -0.087388 0.000000 0.082999
#
#
# Mechanical properties :
#
#
# Convention : Reuss Voigt Hill
#
# Bulk Modulus (GPa) = 58.70091 72.64842 65.67466
# Shear Modulus (GPa) = 20.63318 -2.17132 9.23093
#
# Velocity S-wave (km/s) = 2.89936 -0.94055 1.93929
# Velocity P-wave (km/s) = 5.92656 5.33091 5.63661
#
# Compressibility (1/GPa) = 0.01703551
#
# Stress axis : x y z
#
# Youngs Moduli (GPa) = 126.50052 68.53406 72.26343
#
# Poissons Ratio (x) = 0.34656 0.17344
# Poissons Ratio (y) = 0.63968 0.15845
# Poissons Ratio (z) = 0.30362 0.15028
#
# Static dielectric constant tensor:
#      x y z
#    x 5.195020 0.000000 0.046400 
#    y 0.000000 4.327120 0.000000 
#    z 0.046400 0.000000 4.272330 
# 
# 
# High freq. dielectric constant tensor:
#      x y z
#    x 2.011100 0.000000 0.004470 
#    y 0.000000 1.962160 0.000000 
#    z 0.004470 0.000000 1.970640 
# 
# From -- ./inp_files/9680.got.cif
#   From: 2010.06.25/outbox.cif.g09.slc.cpg/sg15_5_cif.got.tgz:9680.got - 2010.06.28 07:06:18.
