data_PCOD8140078
_publ_section_title
;
Structure prediction by ZEFSAII (Michael W. Deem and Ramdas Pophale) SiO2 
 PCOD8140078
Probable space group: C 2/C
;
_chemical_formula_sum "Si O2"
_cell_formula_units_Z 36
_cell_length_a 10.601365
_cell_length_b 11.632213
_cell_length_c 16.087632
_cell_angle_alpha 90.000000
_cell_angle_beta 119.092769
_cell_angle_gamma 90.000000
_cell_volume 1733.584413
_symmetry_space_group_name_H-M "C 2/C"
_symmetry_group_IT_number 15
_symmetry_cell_setting 'monoclinic'
loop_
_space_group_symop_operation_xyz
x,y,z
-x,y,1/2-z
-x,-y,-z
x,-y,1/2+z
1/2+x,1/2+y,z
1/2-x,1/2+y,1/2-z
1/2-x,1/2-y,-z
1/2+x,1/2-y,1/2+z
loop_
_atom_site_type_symbol
_atom_site_label
_atom_site_fract_x
_atom_site_fract_y
_atom_site_fract_z
Si Si1 0.104767 0.839899 0.061747
Si Si2 0.848568 0.018669 0.554986
Si Si3 0.000000 0.092642 0.250000
Si Si4 0.922378 0.381363 0.463254
Si Si5 0.871661 0.688217 0.763841
O O1 0.218443 0.829865 0.171890
O O2 0.182781 0.900620 0.007160
O O3 0.974928 0.917355 0.049493
O O4 0.039436 0.715883 0.020176
O O5 0.892533 0.985342 0.662466
O O6 0.714398 0.107939 0.517830
O O7 0.094898 0.174439 0.218826
O O8 0.863340 0.367163 0.351342
O O9 0.000000 0.500000 0.500000
O O10 0.000000 0.629641 0.750000
#
# Coordination Sequence:
#
# PCOD8140078 Si02
#       5
#     8   8   4   8   8
#     4  11  23  43  63  98 134 174 219 284 330 407
#     4  11  23  40  68  92 138 173 221 277 344 392
#     4  10  20  40  66  90 126 176 216 274 332 394
#     4  12  24  41  68  99 130 176 226 272 338 406
#     4  10  22  39  67  92 129 166 225 272 335 399
#
# _framework density 20.766221000000002
#
# number of rings (size 3 to 8) (size 9 to 14) (size 15 to 20)
#    0.667    0.444    2.222    4.667    0.000    2.667 
#    0.000    0.000    2.444    0.000    0.000    0.000 
#    0.000    0.000    0.000    0.000    0.000    0.000 
#
# Total GULP energy -223118.007008 kJ/mol
# GULP energy per Si atom -12395.444834 kJ/mol
# Density = 2.071896 g / cm^3
# Si number density = 20.766221 Si / 1000 Ang^3
#
#
#
# Elastic Constant Matrix: (Units=GPa)
#
#
# Indices 1 2 3 4 5 6 
#
# 1 101.8739 28.8365 34.5265 0.0000 -3.2672 0.0000
# 2 28.8365 108.3570 49.7052 0.0000 -6.4321 0.0000
# 3 34.5265 49.7052 143.8046 0.0000 7.2277 0.0000
# 4 0.0000 0.0000 0.0000 -342.0806 0.0000 51.4447
# 5 -3.2672 -6.4321 7.2277 0.0000 26.1797 0.0000
# 6 0.0000 0.0000 0.0000 51.4447 0.0000 24.5148
#
#
#
# Elastic Compliance Matrix: (Units=1/GPa)
#
#
# Indices 1 2 3 4 5 6 
#
# 1 0.011111 -0.001914 -0.002081 0.000000 0.001491 0.000000
# 2 -0.001914 0.011682 -0.003763 0.000000 0.003670 0.000000
# 3 -0.002081 -0.003763 0.008938 0.000000 -0.003652 0.000000
# 4 0.000000 0.000000 0.000000 -0.002222 0.000000 0.004663
# 5 0.001491 0.003670 -0.003652 0.000000 0.040294 0.000000
# 6 0.000000 0.000000 0.000000 0.004663 0.000000 0.031006
#
#
# Mechanical properties :
#
#
# Convention : Reuss Voigt Hill
#
# Bulk Modulus (GPa) = 61.67038 64.46354 63.06696
# Shear Modulus (GPa) = 41.07491 -42.21275 -0.56892
#
# Velocity S-wave (km/s) = 4.45226 -4.51351 -0.52398
# Velocity P-wave (km/s) = 7.49614 1.98685 5.48360
#
# Compressibility (1/GPa) = 0.01621524
#
# Stress axis : x y z
#
# Youngs Moduli (GPa) = 90.00167 85.60203 111.88606
#
# Poissons Ratio (x) = 0.16382 0.23285
# Poissons Ratio (y) = 0.17224 0.42100
# Poissons Ratio (z) = 0.18730 0.32210
#
# Static dielectric constant tensor:
#      x y z
#    x 4.582390 0.000000 0.146710 
#    y 0.000000 4.958370 0.000000 
#    z 0.146710 0.000000 3.661830 
# 
# 
# High freq. dielectric constant tensor:
#      x y z
#    x 1.815950 0.000000 0.008500 
#    y 0.000000 1.811840 0.000000 
#    z 0.008500 0.000000 1.816840 
# 
# From -- ./inp_files/142017.got.cif
#   From: 2010.06.25/outbox.cif.g09.slc.cpg/sg15_72_cif.got.tgz:142017.got - 2010.06.28 07:06:18.
