data_PCOD8140397
_publ_section_title
;
Structure prediction by ZEFSAII (Michael W. Deem and Ramdas Pophale) SiO2 
 PCOD8140397
Probable space group: C 2/C
;
_chemical_formula_sum "Si O2"
_cell_formula_units_Z 40
_cell_length_a 22.959331
_cell_length_b 8.930439
_cell_length_c 9.749243
_cell_angle_alpha 90.000000
_cell_angle_beta 123.945293
_cell_angle_gamma 90.000000
_cell_volume 1658.275018
_symmetry_space_group_name_H-M "C 2/C"
_symmetry_group_IT_number 15
_symmetry_cell_setting 'monoclinic'
loop_
_space_group_symop_operation_xyz
x,y,z
-x,y,1/2-z
-x,-y,-z
x,-y,1/2+z
1/2+x,1/2+y,z
1/2-x,1/2+y,1/2-z
1/2-x,1/2-y,-z
1/2+x,1/2-y,1/2+z
loop_
_atom_site_type_symbol
_atom_site_label
_atom_site_fract_x
_atom_site_fract_y
_atom_site_fract_z
Si Si1 0.592040 0.952523 0.990339
Si Si2 0.203665 0.946783 0.862236
Si Si3 0.558501 0.843085 0.668951
Si Si4 0.549796 0.491038 0.193207
Si Si5 0.760799 0.643340 0.715649
O O1 0.590913 0.961823 0.822768
O O2 0.525646 0.853418 0.949823
O O3 0.659271 0.870893 0.136159
O O4 0.587984 0.117267 0.056209
O O5 0.247114 0.817174 0.838239
O O6 0.120585 0.909930 0.772190
O O7 0.213214 0.098522 0.785006
O O8 0.238640 0.962615 0.058400
O O9 0.578469 0.678401 0.747544
O O10 0.500000 0.546980 0.250000
O O11 0.500000 0.500000 0.000000
#
# Coordination Sequence:
#
# PCOD8140397 Si02
#       5
#     8   8   8   8   8
#     4  10  20  41  66  99 138 172 228 285 349 419
#     4  11  27  44  72 103 141 187 235 285 360 418
#     4  10  22  40  70 100 131 182 231 288 355 407
#     4  12  25  48  71 101 139 186 241 299 348 416
#     4  11  25  46  68 106 140 185 231 289 352 432
#
# _framework density 24.121449999999999
#
# number of rings (size 3 to 8) (size 9 to 14) (size 15 to 20)
#    0.000    1.200    2.000    3.600    5.600    0.800 
#   10.800    0.000    0.000    0.000    0.000    0.000 
#    0.000    0.000    0.000    0.000    0.000    0.000 
#
# Total GULP energy -247913.499991 kJ/mol
# GULP energy per Si atom -12395.675000 kJ/mol
# Density = 2.406655 g / cm^3
# Si number density = 24.121450 Si / 1000 Ang^3
#
#
#
# Elastic Constant Matrix: (Units=GPa)
#
#
# Indices 1 2 3 4 5 6 
#
# 1 116.4367 19.6584 62.3952 0.0000 -4.0865 0.0000
# 2 19.6584 38.3375 7.5729 0.0000 -16.1574 0.0000
# 3 62.3952 7.5729 181.9635 0.0000 2.9540 0.0000
# 4 0.0000 0.0000 0.0000 31.4135 0.0000 -4.4276
# 5 -4.0865 -16.1574 2.9540 0.0000 44.1212 0.0000
# 6 0.0000 0.0000 0.0000 -4.4276 0.0000 28.6621
#
#
#
# Elastic Compliance Matrix: (Units=1/GPa)
#
#
# Indices 1 2 3 4 5 6 
#
# 1 0.011461 -0.005435 -0.003693 0.000000 -0.000681 0.000000
# 2 -0.005435 0.033819 0.000263 0.000000 0.011864 0.000000
# 3 -0.003693 0.000263 0.006762 0.000000 -0.000698 0.000000
# 4 0.000000 0.000000 0.000000 0.032542 0.000000 0.005027
# 5 -0.000681 0.011864 -0.000698 0.000000 0.026993 0.000000
# 6 0.000000 0.000000 0.000000 0.005027 0.000000 0.035666
#
#
# Mechanical properties :
#
#
# Convention : Reuss Voigt Hill
#
# Bulk Modulus (GPa) = 29.14251 57.33230 43.23740
# Shear Modulus (GPa) = 28.34340 37.31343 32.82841
#
# Velocity S-wave (km/s) = 3.43159 3.93733 3.69313
# Velocity P-wave (km/s) = 5.27341 6.67007 6.01243
#
# Compressibility (1/GPa) = 0.03431414
#
# Stress axis : x y z
#
# Youngs Moduli (GPa) = 87.25420 29.56947 147.88112
#
# Poissons Ratio (x) = 0.16070 0.54607
# Poissons Ratio (y) = 0.47419 -0.03896
# Poissons Ratio (z) = 0.32220 -0.00779
#
# Static dielectric constant tensor:
#      x y z
#    x 4.300590 0.000000 -0.098780 
#    y 0.000000 4.275420 0.000000 
#    z -0.098780 0.000000 4.514210 
# 
# 
# High freq. dielectric constant tensor:
#      x y z
#    x 1.961160 0.000000 0.004310 
#    y 0.000000 1.923640 0.000000 
#    z 0.004310 0.000000 1.976900 
# 
# From -- ./inp_files/54240.got.cif
#   From: 2010.06.25/outbox.cif.g09.slc.cpg/sg15_28_cif.got.tgz:54240.got - 2010.06.28 07:06:18.
