data_PCOD8140335
_publ_section_title
;
Structure prediction by ZEFSAII (Michael W. Deem and Ramdas Pophale) SiO2 
 PCOD8140335
Probable space group: C 2/C
;
_chemical_formula_sum "Si O2"
_cell_formula_units_Z 40
_cell_length_a 5.599928
_cell_length_b 32.132098
_cell_length_c 13.005458
_cell_angle_alpha 90.000000
_cell_angle_beta 46.298087
_cell_angle_gamma 90.000000
_cell_volume 1691.811145
_symmetry_space_group_name_H-M "C 2/C"
_symmetry_group_IT_number 15
_symmetry_cell_setting 'monoclinic'
loop_
_space_group_symop_operation_xyz
x,y,z
-x,y,1/2-z
-x,-y,-z
x,-y,1/2+z
1/2+x,1/2+y,z
1/2-x,1/2+y,1/2-z
1/2-x,1/2-y,-z
1/2+x,1/2-y,1/2+z
loop_
_atom_site_type_symbol
_atom_site_label
_atom_site_fract_x
_atom_site_fract_y
_atom_site_fract_z
Si Si1 0.387937 0.975223 0.669149
Si Si2 0.133895 0.279390 0.403383
Si Si3 0.658870 0.860700 0.099331
Si Si4 0.735187 0.691830 0.412395
Si Si5 0.145411 0.436579 0.398182
O O1 0.500000 0.961121 0.750000
O O2 0.635122 0.950005 0.520655
O O3 0.000000 0.968149 0.750000
O O4 0.475385 0.024145 0.633416
O O5 0.500000 0.274807 0.250000
O O6 0.098488 0.293264 0.532064
O O7 0.004621 0.230726 0.436780
O O8 0.976366 0.314600 0.380590
O O9 0.500000 0.878635 0.250000
O O10 0.594363 0.896515 0.035493
O O11 0.047026 0.851529 0.991659
O O12 0.000000 0.678527 0.250000
O O13 0.500000 0.421966 0.250000
#
# Coordination Sequence:
#
# PCOD8140335 Si02
#       5
#     8   8   8   8   8
#     4  10  23  48  75 107 145 190 234 290 359 428
#     4  10  20  41  64  92 126 176 223 272 344 419
#     4  12  23  39  65  97 129 174 227 284 343 410
#     4  10  23  41  64  90 131 174 223 281 340 412
#     4  10  24  43  72 102 136 180 234 286 348 428
#
# _framework density 23.6433
#
# number of rings (size 3 to 8) (size 9 to 14) (size 15 to 20)
#    0.000    1.600    2.000    1.800    0.000    9.600 
#    3.600    0.000    0.000    0.000    0.000    0.000 
#    0.000    0.000    0.000    0.000    0.000    0.000 
#
# Total GULP energy -247783.662741 kJ/mol
# GULP energy per Si atom -12389.183137 kJ/mol
# Density = 2.358949 g / cm^3
# Si number density = 23.643300 Si / 1000 Ang^3
#
#
#
# Elastic Constant Matrix: (Units=GPa)
#
#
# Indices 1 2 3 4 5 6 
#
# 1 78.6770 33.5272 30.9938 0.0000 18.0718 0.0000
# 2 33.5272 105.7907 42.9293 0.0000 -10.8726 0.0000
# 3 30.9938 42.9293 146.9388 0.0000 21.5529 0.0000
# 4 0.0000 0.0000 0.0000 69.5384 0.0000 -5.8587
# 5 18.0718 -10.8726 21.5529 0.0000 31.9927 0.0000
# 6 0.0000 0.0000 0.0000 -5.8587 0.0000 21.2565
#
#
#
# Elastic Compliance Matrix: (Units=1/GPa)
#
#
# Indices 1 2 3 4 5 6 
#
# 1 0.018850 -0.007385 0.000124 0.000000 -0.013241 0.000000
# 2 -0.007385 0.014938 -0.004620 0.000000 0.012360 0.000000
# 3 0.000124 -0.004620 0.009287 0.000000 -0.007897 0.000000
# 4 0.000000 0.000000 0.000000 0.014722 0.000000 0.004058
# 5 -0.013241 0.012360 -0.007897 0.000000 0.048257 0.000000
# 6 0.000000 0.000000 0.000000 0.004058 0.000000 0.048163
#
#
# Mechanical properties :
#
#
# Convention : Reuss Voigt Hill
#
# Bulk Modulus (GPa) = 51.77676 60.70078 56.23877
# Shear Modulus (GPa) = 27.11256 39.48794 33.30025
#
# Velocity S-wave (km/s) = 3.39002 4.09118 3.75699
# Velocity P-wave (km/s) = 6.10489 6.93155 6.53131
#
# Compressibility (1/GPa) = 0.01931368
#
# Stress axis : x y z
#
# Youngs Moduli (GPa) = 53.05091 66.94360 107.67339
#
# Poissons Ratio (x) = 0.49437 -0.01332
# Poissons Ratio (y) = 0.39178 0.49740
# Poissons Ratio (z) = -0.00656 0.30925
#
# Static dielectric constant tensor:
#      x y z
#    x 2.066580 0.000000 -1.513450 
#    y 0.000000 4.298400 0.000000 
#    z -1.513450 0.000000 3.759480 
# 
# 
# High freq. dielectric constant tensor:
#      x y z
#    x 1.908730 0.000000 0.003590 
#    y 0.000000 1.945290 0.000000 
#    z 0.003590 0.000000 1.950790 
# 
# From -- ./inp_files/130257.got.cif
#   From: 2010.06.25/outbox.cif.g09.slc.cpg/sg15_66_cif.got.tgz:130257.got - 2010.06.28 07:06:18.
