data_PCOD8140277
_publ_section_title
;
Structure prediction by ZEFSAII (Michael W. Deem and Ramdas Pophale) SiO2 
 PCOD8140277
Probable space group: C 2/C
;
_chemical_formula_sum "Si O2"
_cell_formula_units_Z 40
_cell_length_a 11.798105
_cell_length_b 10.956787
_cell_length_c 25.218878
_cell_angle_alpha 90.000000
_cell_angle_beta 149.154525
_cell_angle_gamma 90.000000
_cell_volume 1671.495704
_symmetry_space_group_name_H-M "C 2/C"
_symmetry_group_IT_number 15
_symmetry_cell_setting 'monoclinic'
loop_
_space_group_symop_operation_xyz
x,y,z
-x,y,1/2-z
-x,-y,-z
x,-y,1/2+z
1/2+x,1/2+y,z
1/2-x,1/2+y,1/2-z
1/2-x,1/2-y,-z
1/2+x,1/2-y,1/2+z
loop_
_atom_site_type_symbol
_atom_site_label
_atom_site_fract_x
_atom_site_fract_y
_atom_site_fract_z
Si Si1 0.431882 0.331353 0.626995
Si Si2 0.030164 0.754471 0.446244
Si Si3 0.880847 0.594746 0.751766
Si Si4 0.726338 0.982625 0.685771
Si Si5 0.059399 0.716842 0.575646
O O1 0.459698 0.208854 0.672040
O O2 0.522470 0.442347 0.699450
O O3 0.568940 0.318954 0.626236
O O4 0.175416 0.353406 0.513165
O O5 0.250000 0.750000 0.500000
O O6 0.097738 0.780846 0.534526
O O7 0.871187 0.860953 0.360360
O O8 0.904450 0.624737 0.396381
O O9 0.892785 0.503030 0.805528
O O10 0.000000 0.528369 0.750000
O O11 0.736734 0.108509 0.656796
#
# Coordination Sequence:
#
# PCOD8140277 Si02
#       5
#     8   8   8   8   8
#     4   9  20  39  64  91 121 163 207 250 303 369
#     4  11  24  41  60  95 128 159 203 260 307 358
#     4  10  20  41  62  87 126 167 202 248 304 372
#     4  10  23  38  63  97 119 157 213 250 308 361
#     4  10  20  41  65  88 124 166 205 250 307 367
#
# _framework density 23.930662000000002
#
# number of rings (size 3 to 8) (size 9 to 14) (size 15 to 20)
#    0.000    2.000    2.000    0.600    2.800    1.600 
#    3.600    9.000    0.000    0.000    0.000    0.000 
#    0.000    0.000    0.000    0.000    0.000    0.000 
#
# Total GULP energy -247992.674890 kJ/mol
# GULP energy per Si atom -12399.633744 kJ/mol
# Density = 2.387620 g / cm^3
# Si number density = 23.930662 Si / 1000 Ang^3
#
#
#
# Elastic Constant Matrix: (Units=GPa)
#
#
# Indices 1 2 3 4 5 6 
#
# 1 73.6712 -25.4115 -0.7067 -0.0001 -17.8799 0.0000
# 2 -25.4115 27.1197 9.9273 0.0000 -6.7151 0.0000
# 3 -0.7067 9.9273 89.0336 0.0006 -5.7903 0.0001
# 4 -0.0001 0.0000 0.0006 20.8795 0.0000 -3.8445
# 5 -17.8799 -6.7151 -5.7903 0.0000 44.6563 0.0000
# 6 0.0000 0.0000 0.0001 -3.8445 0.0000 22.4485
#
#
#
# Elastic Compliance Matrix: (Units=1/GPa)
#
#
# Indices 1 2 3 4 5 6 
#
# 1 0.027980 0.030879 -0.002209 0.000000 0.015560 0.000000
# 2 0.030879 0.073792 -0.006512 0.000000 0.022616 0.000000
# 3 -0.002209 -0.006512 0.011920 0.000000 -0.000318 0.000000
# 4 0.000000 0.000000 0.000000 0.049453 0.000000 0.008469
# 5 0.015560 0.022616 -0.000318 0.000000 0.031983 0.000000
# 6 0.000000 0.000000 0.000000 0.008469 0.000000 0.045997
#
#
# Mechanical properties :
#
#
# Convention : Reuss Voigt Hill
#
# Bulk Modulus (GPa) = 6.32879 17.49364 11.91121
# Shear Modulus (GPa) = 20.04193 31.33121 25.68657
#
# Velocity S-wave (km/s) = 2.89710 3.62228 3.27979
# Velocity P-wave (km/s) = 3.72039 4.98202 4.39669
#
# Compressibility (1/GPa) = 0.15800805
#
# Stress axis : x y z
#
# Youngs Moduli (GPa) = 35.73951 13.55169 83.89563
#
# Poissons Ratio (x) = -0.41847 0.18533
# Poissons Ratio (y) = -1.10361 0.54632
# Poissons Ratio (z) = 0.07895 0.08825
#
# Static dielectric constant tensor:
#      x y z
#    x 4.342430 0.000000 -0.372990 
#    y 0.000000 3.897850 0.000000 
#    z -0.372990 0.000000 4.423080 
# 
# 
# High freq. dielectric constant tensor:
#      x y z
#    x 1.959170 0.000000 -0.022860 
#    y 0.000000 1.913870 0.000000 
#    z -0.022860 0.000000 1.951880 
# 
# From -- ./inp_files/141734.got.cif
#   From: 2010.06.25/outbox.cif.g09.slc.cpg/sg15_71_cif.got.tgz:141734.got - 2010.06.28 07:06:18.
