data_PCOD8140309
_publ_section_title
;
Structure prediction by ZEFSAII (Michael W. Deem and Ramdas Pophale) SiO2 
 PCOD8140309
Probable space group: C 2/C
;
_chemical_formula_sum "Si O2"
_cell_formula_units_Z 40
_cell_length_a 30.127653
_cell_length_b 9.862843
_cell_length_c 14.598589
_cell_angle_alpha 90.000000
_cell_angle_beta 153.812409
_cell_angle_gamma 90.000000
_cell_volume 1914.359788
_symmetry_space_group_name_H-M "C 2/C"
_symmetry_group_IT_number 15
_symmetry_cell_setting 'monoclinic'
loop_
_space_group_symop_operation_xyz
x,y,z
-x,y,1/2-z
-x,-y,-z
x,-y,1/2+z
1/2+x,1/2+y,z
1/2-x,1/2+y,1/2-z
1/2-x,1/2-y,-z
1/2+x,1/2-y,1/2+z
loop_
_atom_site_type_symbol
_atom_site_label
_atom_site_fract_x
_atom_site_fract_y
_atom_site_fract_z
Si Si1 0.085528 0.667403 0.476286
Si Si2 0.460009 0.859799 0.078478
Si Si3 0.752241 0.736264 0.861248
Si Si4 0.440045 0.304854 0.883574
Si Si5 0.346947 0.573908 0.673679
O O1 0.052365 0.520344 0.449281
O O2 0.190865 0.666096 0.617814
O O3 0.100866 0.758088 0.594166
O O4 0.000000 0.726947 0.250000
O O5 0.500000 0.810457 0.250000
O O6 0.543195 0.818406 0.156389
O O7 0.354542 0.787418 0.869440
O O8 0.740153 0.620245 0.916528
O O9 0.817213 0.863664 0.020115
O O10 0.357706 0.410513 0.689624
O O11 0.547663 0.371932 0.095867
#
# Coordination Sequence:
#
# PCOD8140309 Si02
#       5
#     8   8   8   8   8
#     4  11  22  39  65  91 128 167 206 251 325 374
#     4  10  24  42  60  89 130 164 213 263 309 370
#     4  10  21  40  63  93 122 170 205 258 313 376
#     4  10  20  41  63  95 121 166 205 263 310 370
#     4   9  20  39  64  90 127 156 212 258 312 374
#
# _framework density 20.894714
#
# number of rings (size 3 to 8) (size 9 to 14) (size 15 to 20)
#    0.000    2.000    2.000    0.600    2.800    1.600 
#    7.200    2.000    0.000    0.000    0.000    0.000 
#    0.000    0.000    0.000    0.000    0.000    0.000 
#
# Total GULP energy -247990.929436 kJ/mol
# GULP energy per Si atom -12399.546472 kJ/mol
# Density = 2.084716 g / cm^3
# Si number density = 20.894714 Si / 1000 Ang^3
#
#
#
# Elastic Constant Matrix: (Units=GPa)
#
#
# Indices 1 2 3 4 5 6 
#
# 1 143.9518 62.9276 18.2474 0.0000 3.5878 0.0000
# 2 62.9276 119.2882 37.2468 0.0000 -4.1368 0.0000
# 3 18.2474 37.2468 67.9627 0.0000 -6.4506 0.0000
# 4 0.0000 0.0000 0.0000 59.8939 0.0000 2.6830
# 5 3.5878 -4.1368 -6.4506 0.0000 29.2720 0.0000
# 6 0.0000 0.0000 0.0000 2.6830 0.0000 32.6316
#
#
#
# Elastic Compliance Matrix: (Units=1/GPa)
#
#
# Indices 1 2 3 4 5 6 
#
# 1 0.009123 -0.004895 0.000062 0.000000 -0.001796 0.000000
# 2 -0.004895 0.012741 -0.005557 0.000000 0.001176 0.000000
# 3 0.000062 -0.005557 0.018045 0.000000 0.003184 0.000000
# 4 0.000000 0.000000 0.000000 0.016758 0.000000 -0.001378
# 5 -0.001796 0.001176 0.003184 0.000000 0.035250 0.000000
# 6 0.000000 0.000000 0.000000 -0.001378 0.000000 0.030758
#
#
# Mechanical properties :
#
#
# Convention : Reuss Voigt Hill
#
# Bulk Modulus (GPa) = 52.27118 63.11626 57.69372
# Shear Modulus (GPa) = 33.37106 38.54490 35.95798
#
# Velocity S-wave (km/s) = 4.00072 4.29968 4.15289
# Velocity P-wave (km/s) = 6.81262 7.41094 7.11807
#
# Compressibility (1/GPa) = 0.01913100
#
# Stress axis : x y z
#
# Youngs Moduli (GPa) = 109.61024 78.48730 55.41775
#
# Poissons Ratio (x) = 0.38416 -0.00346
# Poissons Ratio (y) = 0.53649 0.30795
# Poissons Ratio (z) = -0.00684 0.43614
#
# Static dielectric constant tensor:
#      x y z
#    x 3.913490 0.000000 -0.032610 
#    y 0.000000 3.845950 0.000000 
#    z -0.032610 0.000000 3.755700 
# 
# 
# High freq. dielectric constant tensor:
#      x y z
#    x 1.824740 0.000000 -0.000760 
#    y 0.000000 1.807880 0.000000 
#    z -0.000760 0.000000 1.813840 
# 
# From -- ./inp_files/150787.got.cif
#   From: 2010.06.25/outbox.cif.g09.slc.cpg/sg15_76_cif.got.tgz:150787.got - 2010.06.28 07:06:18.
