data_PCOD8140167
_publ_section_title
;
Structure prediction by ZEFSAII (Michael W. Deem and Ramdas Pophale) SiO2 
 PCOD8140167
Probable space group: C 2/C
;
_chemical_formula_sum "Si O2"
_cell_formula_units_Z 44
_cell_length_a 16.984653
_cell_length_b 8.758027
_cell_length_c 17.402418
_cell_angle_alpha 90.000000
_cell_angle_beta 51.235241
_cell_angle_gamma 90.000000
_cell_volume 2018.426893
_symmetry_space_group_name_H-M "C 2/C"
_symmetry_group_IT_number 15
_symmetry_cell_setting 'monoclinic'
loop_
_space_group_symop_operation_xyz
x,y,z
-x,y,1/2-z
-x,-y,-z
x,-y,1/2+z
1/2+x,1/2+y,z
1/2-x,1/2+y,1/2-z
1/2-x,1/2-y,-z
1/2+x,1/2-y,1/2+z
loop_
_atom_site_type_symbol
_atom_site_label
_atom_site_fract_x
_atom_site_fract_y
_atom_site_fract_z
Si Si1 0.450143 0.912936 0.914048
Si Si2 0.336866 0.376075 0.795200
Si Si3 0.500000 0.856258 0.250000
Si Si4 0.003521 0.913782 0.576535
Si Si5 0.403906 0.626033 0.858223
Si Si6 0.390250 0.852265 0.565536
O O1 0.376169 0.786215 0.918372
O O2 0.553052 0.839249 0.886680
O O3 0.483828 0.040589 0.833845
O O4 0.393251 0.980361 0.023851
O O5 0.402630 0.253011 0.802100
O O6 0.390661 0.399107 0.679825
O O7 0.326760 0.539158 0.847591
O O8 0.226001 0.307776 0.848548
O O9 0.056142 0.752291 0.530801
O O10 0.000000 0.000000 0.500000
O O11 0.074761 0.001413 0.590977
O O12 0.500000 0.673569 0.750000
#
# Coordination Sequence:
#
# PCOD8140167 Si02
#       6
#     8   8   4   8   8   8
#     4  11  23  42  65  99 134 167 216 285 328 387
#     4  11  24  45  68  95 129 181 221 265 333 402
#     4  12  22  42  68  94 134 172 218 270 326 394
#     4  11  21  42  67  94 131 173 218 269 322 395
#     4  10  20  40  68  91 130 172 216 265 328 392
#     4  11  25  43  68  96 134 172 220 275 335 390
#
# _framework density 21.799153
#
# number of rings (size 3 to 8) (size 9 to 14) (size 15 to 20)
#    0.000    1.091    7.273    0.000    0.000    5.091 
#    0.000    0.000    0.000    0.000    0.000    0.000 
#    0.000    0.000    0.000    0.000    0.000    0.000 
#
# Total GULP energy -272594.201226 kJ/mol
# GULP energy per Si atom -12390.645510 kJ/mol
# Density = 2.174954 g / cm^3
# Si number density = 21.799153 Si / 1000 Ang^3
#
#
#
# Elastic Constant Matrix: (Units=GPa)
#
#
# Indices 1 2 3 4 5 6 
#
# 1 85.7279 37.7743 53.1145 0.0000 -8.4583 0.0000
# 2 37.7743 109.9386 40.5274 0.0000 6.6353 0.0000
# 3 53.1145 40.5274 104.3542 0.0000 12.2975 0.0000
# 4 0.0000 0.0000 0.0000 43.8123 0.0000 22.7800
# 5 -8.4583 6.6353 12.2975 0.0000 38.6346 0.0000
# 6 0.0000 0.0000 0.0000 22.7800 0.0000 27.1175
#
#
#
# Elastic Compliance Matrix: (Units=1/GPa)
#
#
# Indices 1 2 3 4 5 6 
#
# 1 0.020214 -0.003841 -0.009762 0.000000 0.008193 0.000000
# 2 -0.003841 0.011356 -0.002209 0.000000 -0.002088 0.000000
# 3 -0.009762 -0.002209 0.016225 0.000000 -0.006922 0.000000
# 4 0.000000 0.000000 0.000000 0.040525 0.000000 -0.034043
# 5 0.008193 -0.002088 -0.006922 0.000000 0.030239 0.000000
# 6 0.000000 0.000000 0.000000 -0.034043 0.000000 0.065475
#
#
# Mechanical properties :
#
#
# Convention : Reuss Voigt Hill
#
# Bulk Modulus (GPa) = 61.84168 62.53925 62.19046
# Shear Modulus (GPa) = 22.61929 33.15316 27.88622
#
# Velocity S-wave (km/s) = 3.22471 3.90403 3.58052
# Velocity P-wave (km/s) = 6.50349 7.00522 6.75901
#
# Compressibility (1/GPa) = 0.01617032
#
# Stress axis : x y z
#
# Youngs Moduli (GPa) = 49.47039 88.05757 61.63203
#
# Poissons Ratio (x) = 0.33824 0.60167
# Poissons Ratio (y) = 0.19002 0.13616
# Poissons Ratio (z) = 0.48295 0.19453
#
# Static dielectric constant tensor:
#      x y z
#    x 2.605900 0.000000 -0.969870 
#    y 0.000000 4.357650 0.000000 
#    z -0.969870 0.000000 2.610040 
# 
# 
# High freq. dielectric constant tensor:
#      x y z
#    x 1.836570 0.000000 0.030380 
#    y 0.000000 1.869710 0.000000 
#    z 0.030380 0.000000 1.854770 
# 
# From -- ./inp_files/159229.got.cif
#   From: 2010.06.25/outbox.cif.g09.slc.cpg/sg15_80_cif.got.tgz:159229.got - 2010.06.28 07:06:18.
