data_PCOD8140280
_publ_section_title
;
Structure prediction by ZEFSAII (Michael W. Deem and Ramdas Pophale) SiO2 
 PCOD8140280
Probable space group: C 2/C
;
_chemical_formula_sum "Si O2"
_cell_formula_units_Z 60
_cell_length_a 17.509294
_cell_length_b 11.696016
_cell_length_c 30.168713
_cell_angle_alpha 90.000000
_cell_angle_beta 152.060304
_cell_angle_gamma 90.000000
_cell_volume 2894.755563
_symmetry_space_group_name_H-M "C 2/C"
_symmetry_group_IT_number 15
_symmetry_cell_setting 'monoclinic'
loop_
_space_group_symop_operation_xyz
x,y,z
-x,y,1/2-z
-x,-y,-z
x,-y,1/2+z
1/2+x,1/2+y,z
1/2-x,1/2+y,1/2-z
1/2-x,1/2-y,-z
1/2+x,1/2-y,1/2+z
loop_
_atom_site_type_symbol
_atom_site_label
_atom_site_fract_x
_atom_site_fract_y
_atom_site_fract_z
Si Si1 0.916360 0.966504 0.294842
Si Si2 0.370911 0.306246 0.147951
Si Si3 0.000000 0.622142 0.750000
Si Si4 0.914369 0.253723 0.033946
Si Si5 0.623804 0.907999 0.081006
Si Si6 0.545964 0.280920 0.848735
Si Si7 0.056448 0.980690 0.594125
Si Si8 0.742155 0.434006 0.606105
O O1 0.982679 0.090296 0.315884
O O2 0.871994 0.962410 0.324418
O O3 0.753155 0.953653 0.182799
O O4 0.052479 0.864124 0.357203
O O5 0.500000 0.346888 0.250000
O O6 0.200428 0.361768 0.074554
O O7 0.348542 0.168801 0.138893
O O8 0.943704 0.704384 0.761505
O O9 0.150368 0.547446 0.845559
O O10 0.964856 0.287010 0.110102
O O11 0.929361 0.117750 0.041304
O O12 0.032961 0.304952 0.058279
O O13 0.732874 0.291504 0.928960
O O14 0.500000 0.000000 0.000000
O O15 0.205900 0.931350 0.640773
O O16 0.937918 0.069655 0.508086
#
# Coordination Sequence:
#
# PCOD8140280 Si02
#       8
#     8   8   4   8   8   8   8   8
#     4  10  24  42  63  91 125 164 206 268 312 367
#     4  10  21  40  63  90 125 166 203 254 323 372
#     4  12  24  36  66  94 116 160 210 246 308 384
#     4  10  20  41  62  88 122 164 199 259 313 364
#     4  11  23  38  63  92 121 161 213 255 312 374
#     4  10  23  39  64  90 125 158 207 260 314 367
#     4  10  22  42  61  89 126 161 206 254 312 367
#     4  11  22  40  64  90 125 167 203 249 310 383
#
# _framework density 20.727139999999999
#
# number of rings (size 3 to 8) (size 9 to 14) (size 15 to 20)
#    0.000    1.600    3.333    0.800    6.533    0.533 
#    0.000    0.000    0.000    0.000    0.000    0.000 
#    0.000    0.000    0.000    0.000    0.000    0.000 
#
# Total GULP energy -371733.109269 kJ/mol
# GULP energy per Si atom -12391.103642 kJ/mol
# Density = 2.067996 g / cm^3
# Si number density = 20.727140 Si / 1000 Ang^3
#
#
#
# Elastic Constant Matrix: (Units=GPa)
#
#
# Indices 1 2 3 4 5 6 
#
# 1 101.9772 39.3644 29.1850 0.0000 -8.0360 -0.0001
# 2 39.3644 99.3153 26.3568 -0.0001 -6.3928 0.0000
# 3 29.1850 26.3568 77.2412 0.0001 -5.2271 0.0001
# 4 0.0000 -0.0001 0.0001 27.4421 -0.0002 3.6318
# 5 -8.0360 -6.3928 -5.2271 -0.0002 30.8709 -0.0001
# 6 -0.0001 0.0000 0.0001 3.6318 -0.0001 32.2229
#
#
#
# Elastic Compliance Matrix: (Units=1/GPa)
#
#
# Indices 1 2 3 4 5 6 
#
# 1 0.012393 -0.003940 -0.003212 0.000000 0.001866 0.000000
# 2 -0.003940 0.012410 -0.002672 0.000000 0.001092 0.000000
# 3 -0.003212 -0.002672 0.015152 0.000000 0.001176 0.000000
# 4 0.000000 0.000000 0.000000 0.036992 0.000000 -0.004169
# 5 0.001866 0.001092 0.001176 0.000000 0.033304 0.000000
# 6 0.000000 0.000000 0.000000 -0.004169 0.000000 0.031504
#
#
# Mechanical properties :
#
#
# Convention : Reuss Voigt Hill
#
# Bulk Modulus (GPa) = 49.24421 52.03844 50.64132
# Shear Modulus (GPa) = 29.73162 30.34900 30.04031
#
# Velocity S-wave (km/s) = 3.79150 3.83066 3.81113
# Velocity P-wave (km/s) = 6.55570 6.68776 6.62206
#
# Compressibility (1/GPa) = 0.02030696
#
# Stress axis : x y z
#
# Youngs Moduli (GPa) = 80.68961 80.58117 66.00004
#
# Poissons Ratio (x) = 0.31745 0.21200
# Poissons Ratio (y) = 0.31788 0.17636
# Poissons Ratio (z) = 0.25918 0.21533
#
# Static dielectric constant tensor:
#      x y z
#    x 4.070990 0.000000 -0.110940 
#    y 0.000000 3.646080 0.000000 
#    z -0.110940 0.000000 3.769090 
# 
# 
# High freq. dielectric constant tensor:
#      x y z
#    x 1.813530 0.000000 0.003240 
#    y 0.000000 1.808370 0.000000 
#    z 0.003240 0.000000 1.802990 
# 
# From -- ./inp_files/316068.got.cif
#   From: 2010.06.25/outbox.cif.g09.slc.cpg/sg15_159_cif.got.tgz:316068.got - 2010.06.28 07:06:18.
