data_PCOD8140135
_publ_section_title
;
Structure prediction by ZEFSAII (Michael W. Deem and Ramdas Pophale) SiO2 
 PCOD8140135
Probable space group: C 2/C
;
_chemical_formula_sum "Si O2"
_cell_formula_units_Z 44
_cell_length_a 16.609805
_cell_length_b 12.280677
_cell_length_c 26.946345
_cell_angle_alpha 90.000000
_cell_angle_beta 156.922217
_cell_angle_gamma 90.000000
_cell_volume 2154.522727
_symmetry_space_group_name_H-M "C 2/C"
_symmetry_group_IT_number 15
_symmetry_cell_setting 'monoclinic'
loop_
_space_group_symop_operation_xyz
x,y,z
-x,y,1/2-z
-x,-y,-z
x,-y,1/2+z
1/2+x,1/2+y,z
1/2-x,1/2+y,1/2-z
1/2-x,1/2-y,-z
1/2+x,1/2-y,1/2+z
loop_
_atom_site_type_symbol
_atom_site_label
_atom_site_fract_x
_atom_site_fract_y
_atom_site_fract_z
Si Si1 0.523688 0.265692 0.614747
Si Si2 0.000000 0.706298 0.250000
Si Si3 0.873716 0.873873 0.628412
Si Si4 0.087614 0.118554 0.052454
Si Si5 0.468757 0.720393 0.888456
Si Si6 0.798875 0.878249 0.063173
O O1 0.349763 0.179614 0.501512
O O2 0.498281 0.329366 0.652071
O O3 0.532532 0.353236 0.577017
O O4 0.739536 0.203156 0.738694
O O5 0.830163 0.627277 0.178153
O O6 0.914723 0.784594 0.159289
O O7 0.000000 0.843718 0.750000
O O8 0.838234 0.003118 0.607263
O O9 0.968608 0.197771 0.947066
O O10 0.000000 0.000000 0.000000
O O11 0.613973 0.630533 0.943455
O O12 0.557424 0.843351 0.928425
#
# Coordination Sequence:
#
# PCOD8140135 Si02
#       6
#     8   4   8   8   8   8
#     4  11  24  44  61  96 136 164 221 266 320 396
#     4  10  20  42  66  94 128 160 220 270 306 398
#     4  11  24  42  67  96 129 177 213 271 330 381
#     4  11  23  42  65  96 128 175 213 264 330 381
#     4  10  22  41  63  94 130 168 215 267 312 393
#     4  10  20  40  67  93 128 165 216 265 323 377
#
# _framework density 20.422156000000001
#
# number of rings (size 3 to 8) (size 9 to 14) (size 15 to 20)
#    0.000    1.455    2.727    2.182    0.000    2.909 
#    8.182    3.636    0.000    0.000    0.000    0.000 
#    0.000    0.000    0.000    0.000    0.000    0.000 
#
# Total GULP energy -272709.092992 kJ/mol
# GULP energy per Si atom -12395.867863 kJ/mol
# Density = 2.037567 g / cm^3
# Si number density = 20.422156 Si / 1000 Ang^3
#
#
#
# Elastic Constant Matrix: (Units=GPa)
#
#
# Indices 1 2 3 4 5 6 
#
# 1 140.2222 56.4844 60.8069 0.0035 -9.0382 0.0003
# 2 56.4844 115.6422 59.5850 0.0065 11.1313 -0.0005
# 3 60.8069 59.5850 140.6296 0.0263 2.5696 -0.0001
# 4 0.0035 0.0065 0.0263 29.0688 -0.0002 -5.9193
# 5 -9.0382 11.1313 2.5696 -0.0002 35.3699 -0.0014
# 6 0.0003 -0.0005 -0.0001 -5.9193 -0.0014 23.4365
#
#
#
# Elastic Compliance Matrix: (Units=1/GPa)
#
#
# Indices 1 2 3 4 5 6 
#
# 1 0.010192 -0.003913 -0.002823 0.000002 0.004041 0.000001
# 2 -0.003913 0.012925 -0.003697 0.000001 -0.004799 0.000000
# 3 -0.002823 -0.003697 0.009903 -0.000008 -0.000277 -0.000002
# 4 0.000002 0.000001 -0.000008 0.036266 0.000001 0.009160
# 5 0.004041 -0.004799 -0.000277 0.000001 0.030836 0.000002
# 6 0.000001 0.000000 -0.000002 0.009160 0.000002 0.044982
#
#
# Mechanical properties :
#
#
# Convention : Reuss Voigt Hill
#
# Bulk Modulus (GPa) = 82.26972 83.36074 82.81523
# Shear Modulus (GPa) = 29.40799 32.21623 30.81211
#
# Velocity S-wave (km/s) = 3.79886 3.97610 3.88849
# Velocity P-wave (km/s) = 7.72099 7.87315 7.79744
#
# Compressibility (1/GPa) = 0.01215514
#
# Stress axis : x y z
#
# Youngs Moduli (GPa) = 98.11271 77.36765 100.97925
#
# Poissons Ratio (x) = 0.30272 0.28507
# Poissons Ratio (y) = 0.38389 0.37332
# Poissons Ratio (z) = 0.27698 0.28602
#
# Static dielectric constant tensor:
#      x y z
#    x 4.413530 -0.000050 -0.204070 
#    y -0.000050 3.415460 0.000010 
#    z -0.204070 0.000010 4.040530 
# 
# 
# High freq. dielectric constant tensor:
#      x y z
#    x 1.818340 0.000000 -0.008710 
#    y 0.000000 1.776300 0.000000 
#    z -0.008710 0.000000 1.811240 
# 
# From -- ./inp_files/316123.got.cif
#   From: 2010.06.25/outbox.cif.g09.slc.cpg/sg15_159_cif.got.tgz:316123.got - 2010.06.28 07:06:18.
