data_PCOD8140152
_publ_section_title
;
Structure prediction by ZEFSAII (Michael W. Deem and Ramdas Pophale) SiO2 
 PCOD8140152
Probable space group: C 2/C
;
_chemical_formula_sum "Si O2"
_cell_formula_units_Z 56
_cell_length_a 16.823026
_cell_length_b 8.923396
_cell_length_c 15.505022
_cell_angle_alpha 90.000000
_cell_angle_beta 81.618510
_cell_angle_gamma 90.000000
_cell_volume 2302.731107
_symmetry_space_group_name_H-M "C 2/C"
_symmetry_group_IT_number 15
_symmetry_cell_setting 'monoclinic'
loop_
_space_group_symop_operation_xyz
x,y,z
-x,y,1/2-z
-x,-y,-z
x,-y,1/2+z
1/2+x,1/2+y,z
1/2-x,1/2+y,1/2-z
1/2-x,1/2-y,-z
1/2+x,1/2-y,1/2+z
loop_
_atom_site_type_symbol
_atom_site_label
_atom_site_fract_x
_atom_site_fract_y
_atom_site_fract_z
Si Si1 0.139876 0.869207 0.122328
Si Si2 0.418014 0.042067 0.150326
Si Si3 0.598978 0.601317 0.438209
Si Si4 0.345806 0.298863 0.848850
Si Si5 0.500000 0.818678 0.250000
Si Si6 0.428878 0.274276 0.003108
Si Si7 0.208794 0.297086 0.309380
Si Si8 0.500000 0.265102 0.250000
O O1 0.205584 0.765965 0.159064
O O2 0.047437 0.860484 0.170506
O O3 0.176694 0.030505 0.135424
O O4 0.136434 0.835825 0.021533
O O5 0.438145 0.122376 0.056471
O O6 0.426226 0.170265 0.221564
O O7 0.486019 0.920444 0.165800
O O8 0.331175 0.960139 0.163107
O O9 0.598602 0.419401 0.436058
O O10 0.510134 0.673216 0.441865
O O11 0.652611 0.661192 0.351728
O O12 0.424827 0.285918 0.777473
O O13 0.279419 0.217925 0.797657
O O14 0.361271 0.230945 0.941736
#
# Coordination Sequence:
#
# PCOD8140152 Si02
#       8
#     8   8   8   8   4   8   8   4
#     4  11  24  43  68  96 129 179 231 279 333 405
#     4  10  22  40  64  99 131 170 216 288 326 406
#     4  10  22  41  68 100 130 180 224 279 327 412
#     4  10  22  39  64  95 131 176 216 278 330 407
#     4   9  19  38  62  95 130 167 226 267 350 387
#     4  10  20  40  68 101 133 172 235 263 338 404
#     4  11  25  43  65  98 143 172 222 280 357 389
#     4  11  23  42  70  93 130 173 238 271 328 405
#
# _framework density 24.318949
#
# number of rings (size 3 to 8) (size 9 to 14) (size 15 to 20)
#    0.000    1.714    1.429    2.571    4.000    2.286 
#    2.571    4.286    0.000    0.000    0.000    0.000 
#    0.000    0.000    0.000    0.000    0.000    0.000 
#
# Total GULP energy -346884.015291 kJ/mol
# GULP energy per Si atom -12388.714832 kJ/mol
# Density = 2.426360 g / cm^3
# Si number density = 24.318949 Si / 1000 Ang^3
#
#
#
# Elastic Constant Matrix: (Units=GPa)
#
#
# Indices 1 2 3 4 5 6 
#
# 1 74.6620 17.2327 23.3962 0.0000 21.6013 0.0000
# 2 17.2327 61.5404 35.6271 0.0000 6.5871 0.0000
# 3 23.3962 35.6271 102.8174 0.0000 26.2605 0.0000
# 4 0.0000 0.0000 0.0000 35.4617 0.0000 5.1902
# 5 21.6013 6.5871 26.2605 0.0000 35.0074 0.0000
# 6 0.0000 0.0000 0.0000 5.1902 0.0000 20.1975
#
#
#
# Elastic Compliance Matrix: (Units=1/GPa)
#
#
# Indices 1 2 3 4 5 6 
#
# 1 0.017108 -0.003672 -0.000124 0.000000 -0.009772 0.000000
# 2 -0.003672 0.021208 -0.007512 0.000000 0.003910 0.000000
# 3 -0.000124 -0.007512 0.014815 0.000000 -0.009623 0.000000
# 4 0.000000 0.000000 0.000000 0.029301 0.000000 -0.007530
# 5 -0.009772 0.003910 -0.009623 0.000000 0.041078 0.000000
# 6 0.000000 0.000000 0.000000 -0.007530 0.000000 0.051446
#
#
# Mechanical properties :
#
#
# Convention : Reuss Voigt Hill
#
# Bulk Modulus (GPa) = 32.77288 43.50352 38.13820
# Shear Modulus (GPa) = 24.06797 28.98424 26.52610
#
# Velocity S-wave (km/s) = 3.14933 3.45605 3.30625
# Velocity P-wave (km/s) = 5.17010 5.81835 5.50378
#
# Compressibility (1/GPa) = 0.03051303
#
# Stress axis : x y z
#
# Youngs Moduli (GPa) = 58.45376 47.15180 67.49883
#
# Poissons Ratio (x) = 0.17316 0.00840
# Poissons Ratio (y) = 0.21467 0.50704
# Poissons Ratio (z) = 0.00728 0.35420
#
# Static dielectric constant tensor:
#      x y z
#    x 4.191410 0.000000 0.563980 
#    y 0.000000 4.238530 0.000000 
#    z 0.563980 0.000000 4.488350 
# 
# 
# High freq. dielectric constant tensor:
#      x y z
#    x 1.948390 0.000000 0.036290 
#    y 0.000000 1.954520 0.000000 
#    z 0.036290 0.000000 1.971900 
# 
# From -- ./inp_files/166707.got.cif
#   From: 2010.06.25/outbox.cif.g09.slc.cpg/sg15_84_cif.got.tgz:166707.got - 2010.06.28 07:06:18.
