data_PCOD8140068
_publ_section_title
;
Structure prediction by ZEFSAII (Michael W. Deem and Ramdas Pophale) SiO2 
 PCOD8140068
Probable space group: C 2/C
;
_chemical_formula_sum "Si O2"
_cell_formula_units_Z 44
_cell_length_a 10.118701
_cell_length_b 22.818671
_cell_length_c 9.057887
_cell_angle_alpha 90.000000
_cell_angle_beta 79.463739
_cell_angle_gamma 90.000000
_cell_volume 2056.160916
_symmetry_space_group_name_H-M "C 2/C"
_symmetry_group_IT_number 15
_symmetry_cell_setting 'monoclinic'
loop_
_space_group_symop_operation_xyz
x,y,z
-x,y,1/2-z
-x,-y,-z
x,-y,1/2+z
1/2+x,1/2+y,z
1/2-x,1/2+y,1/2-z
1/2-x,1/2-y,-z
1/2+x,1/2-y,1/2+z
loop_
_atom_site_type_symbol
_atom_site_label
_atom_site_fract_x
_atom_site_fract_y
_atom_site_fract_z
Si Si1 0.712974 0.299941 0.808270
Si Si2 0.000000 0.114004 0.250000
Si Si3 0.341067 0.570033 0.776273
Si Si4 0.285134 0.540393 0.461486
Si Si5 0.666562 0.176166 0.902595
Si Si6 0.075678 0.371441 0.887895
O O1 0.589362 0.344896 0.836374
O O2 0.660448 0.233333 0.797383
O O3 0.817615 0.318422 0.658085
O O4 0.788199 0.303993 0.946334
O O5 0.916451 0.072819 0.374356
O O6 0.500000 0.579269 0.750000
O O7 0.291059 0.540863 0.635795
O O8 0.289507 0.527767 0.916897
O O9 0.271451 0.632655 0.806273
O O10 0.150580 0.569861 0.425345
O O11 0.520418 0.147068 0.956496
O O12 0.000000 0.386287 0.750000
#
# Coordination Sequence:
#
# PCOD8140068 Si02
#       6
#     8   4   8   8   8   8
#     4   9  20  38  65  92 122 170 207 260 316 381
#     4  10  20  40  66  88 126 162 214 266 314 370
#     4  12  26  41  65  94 128 166 217 267 313 379
#     4  11  25  41  65  95 125 169 216 261 321 372
#     4  10  22  40  62  92 131 163 211 258 320 377
#     4   9  21  41  64  90 127 167 210 257 317 383
#
# _framework density 21.399103
#
# number of rings (size 3 to 8) (size 9 to 14) (size 15 to 20)
#    0.000    1.818    0.909    1.636    7.636    8.000 
#    0.000    3.636    0.000    0.000    0.000    0.000 
#    0.000    0.000    0.000    0.000    0.000    0.000 
#
# Total GULP energy -272863.251934 kJ/mol
# GULP energy per Si atom -12402.875088 kJ/mol
# Density = 2.135040 g / cm^3
# Si number density = 21.399103 Si / 1000 Ang^3
#
#
#
# Elastic Constant Matrix: (Units=GPa)
#
#
# Indices 1 2 3 4 5 6 
#
# 1 80.0834 3.1732 2.4849 0.0000 -13.3345 0.0000
# 2 3.1732 84.2997 5.4782 0.0000 -7.2438 0.0000
# 3 2.4849 5.4782 57.8841 0.0000 -5.2284 0.0000
# 4 0.0000 0.0000 0.0000 8.8021 0.0000 1.5300
# 5 -13.3345 -7.2438 -5.2284 0.0000 22.6608 0.0000
# 6 0.0000 0.0000 0.0000 1.5300 0.0000 20.4348
#
#
#
# Elastic Compliance Matrix: (Units=1/GPa)
#
#
# Indices 1 2 3 4 5 6 
#
# 1 0.013847 0.000178 0.000133 0.000000 0.008236 0.000000
# 2 0.000178 0.012238 -0.000820 0.000000 0.003827 0.000000
# 3 0.000133 -0.000820 0.017700 0.000000 0.003900 0.000000
# 4 0.000000 0.000000 0.000000 0.115107 0.000000 -0.008618
# 5 0.008236 0.003827 0.003900 0.000000 0.051098 0.000000
# 6 0.000000 0.000000 0.000000 -0.008618 0.000000 0.049581
#
#
# Mechanical properties :
#
#
# Convention : Reuss Voigt Hill
#
# Bulk Modulus (GPa) = 23.38324 27.17111 25.27718
# Shear Modulus (GPa) = 18.19197 24.45494 21.32346
#
# Velocity S-wave (km/s) = 2.91886 3.38420 3.16011
# Velocity P-wave (km/s) = 4.72341 5.29106 5.01527
#
# Compressibility (1/GPa) = 0.04276567
#
# Stress axis : x y z
#
# Youngs Moduli (GPa) = 72.21722 81.71321 56.49697
#
# Poissons Ratio (x) = -0.01453 -0.00749
# Poissons Ratio (y) = -0.01284 0.04634
# Poissons Ratio (z) = -0.00958 0.06702
#
# Static dielectric constant tensor:
#      x y z
#    x 4.008590 0.000000 -0.137180 
#    y 0.000000 3.981890 0.000000 
#    z -0.137180 0.000000 3.811980 
# 
# 
# High freq. dielectric constant tensor:
#      x y z
#    x 1.847490 0.000000 -0.004500 
#    y 0.000000 1.844480 0.000000 
#    z -0.004500 0.000000 1.829160 
# 
# From -- ./inp_files/30696.got.cif
#   From: 2010.06.25/outbox.cif.g09.slc.cpg/sg15_16_cif.got.tgz:30696.got - 2010.06.28 07:06:18.
