data_PCOD8140116
_publ_section_title
;
Structure prediction by ZEFSAII (Michael W. Deem and Ramdas Pophale) SiO2 
 PCOD8140116
Probable space group: C 2/C
;
_chemical_formula_sum "Si O2"
_cell_formula_units_Z 40
_cell_length_a 15.756859
_cell_length_b 8.432338
_cell_length_c 16.505306
_cell_angle_alpha 90.000000
_cell_angle_beta 61.170269
_cell_angle_gamma 90.000000
_cell_volume 1921.203595
_symmetry_space_group_name_H-M "C 2/C"
_symmetry_group_IT_number 15
_symmetry_cell_setting 'monoclinic'
loop_
_space_group_symop_operation_xyz
x,y,z
-x,y,1/2-z
-x,-y,-z
x,-y,1/2+z
1/2+x,1/2+y,z
1/2-x,1/2+y,1/2-z
1/2-x,1/2-y,-z
1/2+x,1/2-y,1/2+z
loop_
_atom_site_type_symbol
_atom_site_label
_atom_site_fract_x
_atom_site_fract_y
_atom_site_fract_z
Si Si1 0.620808 0.936110 0.265999
Si Si2 0.582723 0.956123 0.614237
Si Si3 0.107925 0.880654 0.187284
Si Si4 0.767283 0.380862 0.559107
Si Si5 0.224693 0.721126 0.269028
O O1 0.660831 0.772291 0.286151
O O2 0.530346 0.012807 0.356035
O O3 0.601990 0.919545 0.178831
O O4 0.714514 0.051117 0.231558
O O5 0.600737 0.776726 0.634705
O O6 0.648983 0.996555 0.507339
O O7 0.155504 0.842715 0.252467
O O8 0.000000 0.948203 0.250000
O O9 0.169803 0.016763 0.115399
O O10 0.750000 0.250000 0.500000
O O11 0.804609 0.293397 0.622819
#
# Coordination Sequence:
#
# PCOD8140116 Si02
#       5
#     8   8   8   8   8
#     4  10  20  40  67  87 131 171 213 252 330 384
#     4  10  21  42  65  92 127 173 210 262 320 379
#     4  11  23  45  67  88 128 179 213 254 327 387
#     4  12  25  39  65 100 132 158 222 275 311 372
#     4  11  21  41  63  93 123 172 213 259 317 384
#
# _framework density 20.82028
#
# number of rings (size 3 to 8) (size 9 to 14) (size 15 to 20)
#    0.000    1.200    8.000    0.600    0.000    2.400 
#    0.000    1.000    0.000    0.000    0.000    0.000 
#    0.000    0.000    0.000    0.000    0.000    0.000 
#
# Total GULP energy -247836.757487 kJ/mol
# GULP energy per Si atom -12391.837874 kJ/mol
# Density = 2.077289 g / cm^3
# Si number density = 20.820280 Si / 1000 Ang^3
#
#
#
# Elastic Constant Matrix: (Units=GPa)
#
#
# Indices 1 2 3 4 5 6 
#
# 1 117.0091 58.5993 56.7619 0.0000 -12.4555 0.0000
# 2 58.5993 87.7626 58.8130 0.0000 -15.9494 0.0001
# 3 56.7619 58.8130 122.8587 0.0000 -15.0401 0.0000
# 4 0.0000 0.0000 0.0000 40.5476 0.0000 1.8381
# 5 -12.4555 -15.9494 -15.0401 0.0000 35.0154 0.0000
# 6 0.0000 0.0001 0.0000 1.8381 0.0000 34.4510
#
#
#
# Elastic Compliance Matrix: (Units=1/GPa)
#
#
# Indices 1 2 3 4 5 6 
#
# 1 0.013479 -0.007051 -0.002806 0.000000 0.000378 0.000000
# 2 -0.007051 0.021140 -0.006323 0.000000 0.004405 0.000000
# 3 -0.002806 -0.006323 0.012653 0.000000 0.001557 0.000000
# 4 0.000000 0.000000 0.000000 0.024722 0.000000 -0.001319
# 5 0.000378 0.004405 0.001557 0.000000 0.031368 0.000000
# 6 0.000000 0.000000 0.000000 -0.001319 0.000000 0.029097
#
#
# Mechanical properties :
#
#
# Convention : Reuss Voigt Hill
#
# Bulk Modulus (GPa) = 67.05700 75.10877 71.08288
# Shear Modulus (GPa) = 29.44808 32.23321 30.84065
#
# Velocity S-wave (km/s) = 3.76492 3.93894 3.85291
# Velocity P-wave (km/s) = 7.15381 7.53924 7.34905
#
# Compressibility (1/GPa) = 0.01491269
#
# Stress axis : x y z
#
# Youngs Moduli (GPa) = 74.19028 47.30328 79.03165
#
# Poissons Ratio (x) = 0.33353 0.22175
# Poissons Ratio (y) = 0.52311 0.49972
# Poissons Ratio (z) = 0.20816 0.29910
#
# Static dielectric constant tensor:
#      x y z
#    x 4.169640 0.000000 -0.050100 
#    y 0.000000 3.860610 0.000000 
#    z -0.050100 0.000000 3.665580 
# 
# 
# High freq. dielectric constant tensor:
#      x y z
#    x 1.829850 0.000000 0.002220 
#    y 0.000000 1.814490 0.000000 
#    z 0.002220 0.000000 1.788210 
# 
# From -- ./inp_files/202478.got.cif
#   From: 2010.06.25/outbox.cif.g09.slc.cpg/sg15_102_cif.got.tgz:202478.got - 2010.06.28 07:06:18.
