data_PCOD8140888
_publ_section_title
;
Structure prediction by ZEFSAII (Michael W. Deem and Ramdas Pophale) SiO2 
 PCOD8140888
Probable space group: C 2/C
;
_chemical_formula_sum "Si O2"
_cell_formula_units_Z 56
_cell_length_a 8.608977
_cell_length_b 12.975580
_cell_length_c 24.177867
_cell_angle_alpha 90.000000
_cell_angle_beta 108.418657
_cell_angle_gamma 90.000000
_cell_volume 2562.469530
_symmetry_space_group_name_H-M "C 2/C"
_symmetry_group_IT_number 15
_symmetry_cell_setting 'monoclinic'
loop_
_space_group_symop_operation_xyz
x,y,z
-x,y,1/2-z
-x,-y,-z
x,-y,1/2+z
1/2+x,1/2+y,z
1/2-x,1/2+y,1/2-z
1/2-x,1/2-y,-z
1/2+x,1/2-y,1/2+z
loop_
_atom_site_type_symbol
_atom_site_label
_atom_site_fract_x
_atom_site_fract_y
_atom_site_fract_z
Si Si1 0.500000 0.026376 0.750000
Si Si2 0.683186 0.919148 0.673067
Si Si3 0.972668 0.475553 0.060218
Si Si4 0.492827 0.252950 0.397649
Si Si5 0.442346 0.759135 0.018110
Si Si6 0.000000 0.995505 0.750000
Si Si7 0.824035 0.059370 0.833093
Si Si8 0.713040 0.385041 0.588970
O O1 0.597994 0.952119 0.720074
O O2 0.632736 0.093074 0.800915
O O3 0.645562 0.801317 0.654844
O O4 0.877465 0.925227 0.700752
O O5 0.621949 0.987681 0.614805
O O6 0.978498 0.351617 0.064906
O O7 0.801041 0.527504 0.060710
O O8 0.000000 0.500000 0.000000
O O9 0.494372 0.214640 0.461117
O O10 0.437586 0.372034 0.386925
O O11 0.669188 0.216533 0.392822
O O12 0.539115 0.654969 0.046128
O O13 0.250000 0.750000 0.000000
O O14 0.094365 0.067754 0.717765
O O15 0.820302 0.941984 0.856399
#
# Coordination Sequence:
#
# PCOD8140888 Si02
#       8
#     4   8   8   8   8   4   8   8
#     4  10  20  46  68  94 144 186 232 298 350 404
#     4  10  22  43  68 100 142 185 236 294 355 419
#     4  11  22  43  73 100 145 187 227 302 357 418
#     4  11  24  44  71 103 138 189 237 285 366 430
#     4  12  27  42  70 110 140 188 240 284 369 438
#     4  10  26  42  68 104 138 188 240 300 346 428
#     4  11  24  45  71 102 140 183 239 295 354 414
#     4  11  25  48  70 101 149 185 229 300 351 434
#
# _framework density 21.853918
#
# number of rings (size 3 to 8) (size 9 to 14) (size 15 to 20)
#    0.000    1.143    5.714    1.286    4.000    3.429 
#    0.000    0.000    0.000    0.000    0.000    0.000 
#    0.000    0.000    0.000    0.000    0.000    0.000 
#
# Total GULP energy -346918.498247 kJ/mol
# GULP energy per Si atom -12389.946366 kJ/mol
# Density = 2.180418 g / cm^3
# Si number density = 21.853918 Si / 1000 Ang^3
#
#
#
# Elastic Constant Matrix: (Units=GPa)
#
#
# Indices 1 2 3 4 5 6 
#
# 1 119.5278 47.4699 51.3642 0.0000 21.2616 0.0000
# 2 47.4699 83.0169 35.6520 0.0000 11.6846 0.0000
# 3 51.3642 35.6520 112.6714 0.0000 14.6317 0.0000
# 4 0.0000 0.0000 0.0000 32.3042 0.0000 5.8347
# 5 21.2616 11.6846 14.6317 0.0000 44.1295 0.0000
# 6 0.0000 0.0000 0.0000 5.8347 0.0000 35.2969
#
#
#
# Elastic Compliance Matrix: (Units=1/GPa)
#
#
# Indices 1 2 3 4 5 6 
#
# 1 0.012605 -0.005142 -0.003665 0.000000 -0.003496 0.000000
# 2 -0.005142 0.016270 -0.002682 0.000000 -0.000942 0.000000
# 3 -0.003665 -0.002682 0.011572 0.000000 -0.001361 0.000000
# 4 0.000000 0.000000 0.000000 0.031908 0.000000 -0.005275
# 5 -0.003496 -0.000942 -0.001361 0.000000 0.025046 0.000000
# 6 0.000000 0.000000 0.000000 -0.005275 0.000000 0.029203
#
#
# Mechanical properties :
#
#
# Convention : Reuss Voigt Hill
#
# Bulk Modulus (GPa) = 57.24458 64.90982 61.07720
# Shear Modulus (GPa) = 32.17392 34.39478 33.28435
#
# Velocity S-wave (km/s) = 3.84112 3.97148 3.90685
# Velocity P-wave (km/s) = 6.77668 7.12716 6.95413
#
# Compressibility (1/GPa) = 0.01746890
#
# Stress axis : x y z
#
# Youngs Moduli (GPa) = 79.33169 61.46252 86.41742
#
# Poissons Ratio (x) = 0.31601 0.31676
# Poissons Ratio (y) = 0.40789 0.23178
# Poissons Ratio (z) = 0.29079 0.16485
#
# Static dielectric constant tensor:
#      x y z
#    x 4.459660 0.000000 0.183990 
#    y 0.000000 4.100570 0.000000 
#    z 0.183990 0.000000 4.222380 
# 
# 
# High freq. dielectric constant tensor:
#      x y z
#    x 1.865820 0.000000 0.002430 
#    y 0.000000 1.836980 0.000000 
#    z 0.002430 0.000000 1.868110 
# 
# From -- ./inp_files/288100.got.cif
#   From: 2010.06.25/outbox.cif.g09.slc.cpg/sg15_145_cif.got.tgz:288100.got - 2010.06.28 07:06:18.
