data_PCOD8140032
_publ_section_title
;
Structure prediction by ZEFSAII (Michael W. Deem and Ramdas Pophale) SiO2 
 PCOD8140032
Probable space group: C 2/C
;
_chemical_formula_sum "Si O2"
_cell_formula_units_Z 48
_cell_length_a 8.902461
_cell_length_b 27.960256
_cell_length_c 14.864189
_cell_angle_alpha 90.000000
_cell_angle_beta 36.683525
_cell_angle_gamma 90.000000
_cell_volume 2210.312695
_symmetry_space_group_name_H-M "C 2/C"
_symmetry_group_IT_number 15
_symmetry_cell_setting 'monoclinic'
loop_
_space_group_symop_operation_xyz
x,y,z
-x,y,1/2-z
-x,-y,-z
x,-y,1/2+z
1/2+x,1/2+y,z
1/2-x,1/2+y,1/2-z
1/2-x,1/2-y,-z
1/2+x,1/2-y,1/2+z
loop_
_atom_site_type_symbol
_atom_site_label
_atom_site_fract_x
_atom_site_fract_y
_atom_site_fract_z
Si Si1 0.087280 0.880825 0.944794
Si Si2 0.746594 0.096782 0.819495
Si Si3 0.238102 0.686197 0.695052
Si Si4 0.220460 0.965025 0.359637
Si Si5 0.496102 0.226455 0.148231
Si Si6 0.493091 0.878133 0.610223
O O1 0.226895 0.890419 0.783933
O O2 0.274522 0.893102 0.937197
O O3 0.977133 0.827255 0.014708
O O4 0.842911 0.915146 0.060925
O O5 0.686356 0.141548 0.784927
O O6 0.773693 0.046910 0.750710
O O7 0.000000 0.109202 0.750000
O O8 0.524238 0.093406 0.001190
O O9 0.281036 0.734686 0.731026
O O10 0.000000 0.697627 0.750000
O O11 0.500000 0.984165 0.250000
O O12 0.000000 0.000000 0.500000
O O13 0.500000 0.209509 0.250000
O O14 0.476782 0.178533 0.098418
O O15 0.750000 0.250000 0.000000
#
# Coordination Sequence:
#
# PCOD8140032 Si02
#       6
#     8   8   8   8   8   8
#     4  10  20  40  65  91 133 173 222 269 346 387
#     4  11  20  41  70  98 128 181 232 270 336 407
#     4  11  22  38  59  91 141 187 227 287 339 383
#     4  11  26  47  73 102 135 170 208 276 349 421
#     4  12  20  36  59  94 128 180 246 282 321 385
#     4  11  20  36  67  96 125 181 228 280 321 398
#
# _framework density 21.716384999999999
#
# number of rings (size 3 to 8) (size 9 to 14) (size 15 to 20)
#    0.000    1.000    6.667    3.500    2.333    0.000 
#    0.000   15.833    0.000    0.000    0.000    0.000 
#    0.000    0.000    0.000    0.000    0.000    0.000 
#
# Total GULP energy -297391.439656 kJ/mol
# GULP energy per Si atom -12391.309986 kJ/mol
# Density = 2.166696 g / cm^3
# Si number density = 21.716385 Si / 1000 Ang^3
#
#
#
# Elastic Constant Matrix: (Units=GPa)
#
#
# Indices 1 2 3 4 5 6 
#
# 1 87.1798 26.2693 46.0288 0.0000 1.7559 0.0000
# 2 26.2693 78.3595 36.7994 0.0000 10.0286 0.0000
# 3 46.0288 36.7994 173.5793 0.0000 21.2023 0.0000
# 4 0.0000 0.0000 0.0000 33.4598 0.0000 4.3064
# 5 1.7559 10.0286 21.2023 0.0000 40.4625 0.0000
# 6 0.0000 0.0000 0.0000 4.3064 0.0000 22.8841
#
#
#
# Elastic Compliance Matrix: (Units=1/GPa)
#
#
# Indices 1 2 3 4 5 6 
#
# 1 0.014205 -0.003478 -0.003269 0.000000 0.001958 0.000000
# 2 -0.003478 0.015188 -0.001983 0.000000 -0.002574 0.000000
# 3 -0.003269 -0.001983 0.007448 0.000000 -0.003269 0.000000
# 4 0.000000 0.000000 0.000000 0.030628 0.000000 -0.005764
# 5 0.001958 -0.002574 -0.003269 0.000000 0.026980 0.000000
# 6 0.000000 0.000000 0.000000 -0.005764 0.000000 0.044783
#
#
# Mechanical properties :
#
#
# Convention : Reuss Voigt Hill
#
# Bulk Modulus (GPa) = 51.59566 61.92376 56.75971
# Shear Modulus (GPa) = 30.64618 34.69602 32.67110
#
# Velocity S-wave (km/s) = 3.76067 4.00145 3.88292
# Velocity P-wave (km/s) = 6.53202 7.06579 6.80414
#
# Compressibility (1/GPa) = 0.01938147
#
# Stress axis : x y z
#
# Youngs Moduli (GPa) = 70.39890 65.83962 134.27088
#
# Poissons Ratio (x) = 0.22896 0.43889
# Poissons Ratio (y) = 0.24482 0.26631
# Poissons Ratio (z) = 0.23011 0.13059
#
# Static dielectric constant tensor:
#      x y z
#    x 9.313500 0.000000 2.941320 
#    y 0.000000 3.843900 0.000000 
#    z 2.941320 0.000000 5.826310 
# 
# 
# High freq. dielectric constant tensor:
#      x y z
#    x 1.820250 0.000000 0.000840 
#    y 0.000000 1.836950 0.000000 
#    z 0.000840 0.000000 1.875380 
# 
# From -- ./inp_files/139360.got.cif
#   From: 2010.06.25/outbox.cif.g09.slc.cpg/sg15_70_cif.got.tgz:139360.got - 2010.06.28 07:06:18.
