data_PCOD8140741
_publ_section_title
;
Structure prediction by ZEFSAII (Michael W. Deem and Ramdas Pophale) SiO2 
 PCOD8140741
Probable space group: C 2/C
;
_chemical_formula_sum "Si O2"
_cell_formula_units_Z 56
_cell_length_a 9.206127
_cell_length_b 22.784756
_cell_length_c 18.034390
_cell_angle_alpha 90.000000
_cell_angle_beta 130.572544
_cell_angle_gamma 90.000000
_cell_volume 2873.413165
_symmetry_space_group_name_H-M "C 2/C"
_symmetry_group_IT_number 15
_symmetry_cell_setting 'monoclinic'
loop_
_space_group_symop_operation_xyz
x,y,z
-x,y,1/2-z
-x,-y,-z
x,-y,1/2+z
1/2+x,1/2+y,z
1/2-x,1/2+y,1/2-z
1/2-x,1/2-y,-z
1/2+x,1/2-y,1/2+z
loop_
_atom_site_type_symbol
_atom_site_label
_atom_site_fract_x
_atom_site_fract_y
_atom_site_fract_z
Si Si1 0.589434 0.115776 0.949337
Si Si2 0.638974 0.011485 0.478939
Si Si3 0.754335 0.217383 0.924002
Si Si4 0.850607 0.810818 0.016111
Si Si5 0.207537 0.834050 0.837486
Si Si6 0.979931 0.614647 0.157595
Si Si7 0.338948 0.399505 0.136640
O O1 0.621879 0.159413 0.890100
O O2 0.363972 0.112369 0.891016
O O3 0.681971 0.052484 0.957906
O O4 0.700733 0.137844 0.058990
O O5 0.527471 0.050985 0.382638
O O6 0.823557 0.045439 0.574092
O O7 0.500000 0.000000 0.500000
O O8 0.683418 0.263368 0.838256
O O9 0.966081 0.197386 0.973893
O O10 0.750000 0.250000 0.000000
O O11 0.900368 0.841886 0.110913
O O12 0.750000 0.750000 0.000000
O O13 0.713445 0.850967 0.922040
O O14 0.342587 0.847234 0.812775
O O15 0.000000 0.861170 0.750000
O O16 0.000000 0.603390 0.250000
O O17 0.500000 0.414360 0.250000
#
# Coordination Sequence:
#
# PCOD8140741 Si02
#       7
#     8   8   8   8   8   8   8
#     4  10  20  43  63  87 127 164 207 262 310 379
#     4   9  18  42  66  85 128 169 206 265 316 373
#     4  10  22  38  60  86 120 161 203 251 320 376
#     4  11  20  41  62  85 126 167 203 264 318 375
#     4  11  22  39  61  93 124 164 207 255 322 380
#     4  11  23  39  62  99 125 159 224 264 309 376
#     4  10  21  38  63  91 117 167 217 255 314 378
#
# _framework density 19.489017
#
# number of rings (size 3 to 8) (size 9 to 14) (size 15 to 20)
#    0.000    1.714    5.714    0.857    4.000    2.286 
#    0.000    6.429    0.000    0.000    0.000    0.000 
#    0.000    0.000    0.000    0.000    0.000    0.000 
#
# Total GULP energy -347069.676557 kJ/mol
# GULP energy per Si atom -12395.345591 kJ/mol
# Density = 1.944466 g / cm^3
# Si number density = 19.489017 Si / 1000 Ang^3
#
#
#
# Elastic Constant Matrix: (Units=GPa)
#
#
# Indices 1 2 3 4 5 6 
#
# 1 122.7729 51.9190 44.2426 0.0000 4.8972 0.0000
# 2 51.9190 153.1433 40.0344 0.0000 -11.6161 0.0000
# 3 44.2426 40.0344 119.1830 0.0000 1.8122 0.0000
# 4 0.0000 0.0000 0.0000 15.8862 0.0000 -6.3498
# 5 4.8972 -11.6161 1.8122 0.0000 36.0751 0.0000
# 6 0.0000 0.0000 0.0000 -6.3498 0.0000 34.7624
#
#
#
# Elastic Compliance Matrix: (Units=1/GPa)
#
#
# Indices 1 2 3 4 5 6 
#
# 1 0.010535 -0.002991 -0.002872 0.000000 -0.002249 0.000000
# 2 -0.002991 0.008227 -0.001701 0.000000 0.003141 0.000000
# 3 -0.002872 -0.001701 0.010038 0.000000 -0.000662 0.000000
# 4 0.000000 0.000000 0.000000 0.067906 0.000000 0.012404
# 5 -0.002249 0.003141 -0.000662 0.000000 0.029070 0.000000
# 6 0.000000 0.000000 0.000000 0.012404 0.000000 0.031032
#
#
# Mechanical properties :
#
#
# Convention : Reuss Voigt Hill
#
# Bulk Modulus (GPa) = 73.14330 74.16567 73.65449
# Shear Modulus (GPa) = 28.32991 34.60495 31.46743
#
# Velocity S-wave (km/s) = 3.81679 4.21837 4.02260
# Velocity P-wave (km/s) = 7.55221 7.86536 7.71038
#
# Compressibility (1/GPa) = 0.01367179
#
# Stress axis : x y z
#
# Youngs Moduli (GPa) = 94.92472 121.55397 99.62345
#
# Poissons Ratio (x) = 0.36362 0.28608
# Poissons Ratio (y) = 0.28396 0.16943
# Poissons Ratio (z) = 0.27259 0.20673
#
# Static dielectric constant tensor:
#      x y z
#    x 3.717230 0.000000 -0.180870 
#    y 0.000000 3.111660 0.000000 
#    z -0.180870 0.000000 3.659900 
# 
# 
# High freq. dielectric constant tensor:
#      x y z
#    x 1.751760 0.000000 0.001080 
#    y 0.000000 1.776010 0.000000 
#    z 0.001080 0.000000 1.742260 
# 
# From -- ./inp_files/193318.got.cif
#   From: 2010.06.25/outbox.cif.g09.slc.cpg/sg15_97_cif.got.tgz:193318.got - 2010.06.28 07:06:18.
