data_PCOD8140591
_publ_section_title
;
Structure prediction by ZEFSAII (Michael W. Deem and Ramdas Pophale) SiO2 
 PCOD8140591
Probable space group: C 2/C
;
_chemical_formula_sum "Si O2"
_cell_formula_units_Z 48
_cell_length_a 8.115222
_cell_length_b 16.965963
_cell_length_c 20.578013
_cell_angle_alpha 90.000000
_cell_angle_beta 53.411185
_cell_angle_gamma 90.000000
_cell_volume 2274.899032
_symmetry_space_group_name_H-M "C 2/C"
_symmetry_group_IT_number 15
_symmetry_cell_setting 'monoclinic'
loop_
_space_group_symop_operation_xyz
x,y,z
-x,y,1/2-z
-x,-y,-z
x,-y,1/2+z
1/2+x,1/2+y,z
1/2-x,1/2+y,1/2-z
1/2-x,1/2-y,-z
1/2+x,1/2-y,1/2+z
loop_
_atom_site_type_symbol
_atom_site_label
_atom_site_fract_x
_atom_site_fract_y
_atom_site_fract_z
Si Si1 0.058350 0.060392 0.358409
Si Si2 0.673891 0.254516 0.271566
Si Si3 0.392127 0.653521 0.515864
Si Si4 0.948414 0.306404 0.087858
Si Si5 0.000000 0.169734 0.250000
Si Si6 0.500000 0.885704 0.750000
Si Si7 0.080612 0.886665 0.110754
O O1 0.305546 0.057432 0.307654
O O2 0.958492 0.087956 0.448537
O O3 0.999262 0.119221 0.314910
O O4 0.967170 0.976359 0.360368
O O5 0.809827 0.263864 0.174571
O O6 0.812229 0.231404 0.300451
O O7 0.530409 0.176270 0.301932
O O8 0.550828 0.333823 0.309211
O O9 0.466260 0.740413 0.480546
O O10 0.507124 0.631116 0.555276
O O11 0.142177 0.650003 0.577025
O O12 0.818225 0.367085 0.072541
#
# Coordination Sequence:
#
# PCOD8140591 Si02
#       7
#     8   8   8   8   4   4   8
#     4  11  25  44  62 101 135 172 220 276 337 397
#     4  11  20  42  66  97 122 174 229 271 313 396
#     4  11  24  45  64 100 138 176 218 271 337 398
#     4  11  23  42  70  98 132 175 231 269 318 407
#     4  10  22  40  68  88 128 178 212 268 332 388
#     4  10  20  42  66  88 134 166 218 272 316 392
#     4  12  25  41  71  99 133 173 219 281 333 381
#
# _framework density 21.099837000000001
#
# number of rings (size 3 to 8) (size 9 to 14) (size 15 to 20)
#    0.000    1.000    5.000    2.000    4.667    2.667 
#    6.000    0.000    0.000    0.000    0.000    0.000 
#    0.000    0.000    0.000    0.000    0.000    0.000 
#
# Total GULP energy -297391.457839 kJ/mol
# GULP energy per Si atom -12391.310743 kJ/mol
# Density = 2.105181 g / cm^3
# Si number density = 21.099837 Si / 1000 Ang^3
#
#
#
# Elastic Constant Matrix: (Units=GPa)
#
#
# Indices 1 2 3 4 5 6 
#
# 1 174.3361 50.0948 41.9655 0.0001 -10.3334 -0.0001
# 2 50.0948 105.8887 14.8895 0.0000 -21.3764 -0.0001
# 3 41.9655 14.8895 71.4887 0.0000 -4.7553 0.0000
# 4 0.0001 0.0000 0.0000 16.6037 0.0000 -4.4687
# 5 -10.3334 -21.3764 -4.7553 0.0000 30.9070 0.0000
# 6 -0.0001 -0.0001 0.0000 -4.4687 0.0000 16.2480
#
#
#
# Elastic Compliance Matrix: (Units=1/GPa)
#
#
# Indices 1 2 3 4 5 6 
#
# 1 0.007516 -0.003061 -0.003787 0.000000 -0.000187 0.000000
# 2 -0.003061 0.012457 -0.000296 0.000000 0.007547 0.000000
# 3 -0.003787 -0.000296 0.016342 0.000000 0.001044 0.000000
# 4 0.000000 0.000000 0.000000 0.065042 0.000000 0.017888
# 5 -0.000187 0.007547 0.001044 0.000000 0.037673 0.000000
# 6 0.000000 0.000000 0.000000 0.017888 0.000000 0.066466
#
#
# Mechanical properties :
#
#
# Convention : Reuss Voigt Hill
#
# Bulk Modulus (GPa) = 45.39639 62.84589 54.12114
# Shear Modulus (GPa) = 22.01417 29.06932 25.54174
#
# Velocity S-wave (km/s) = 3.23357 3.71577 3.48303
# Velocity P-wave (km/s) = 5.95845 6.94686 6.47155
#
# Compressibility (1/GPa) = 0.02202818
#
# Stress axis : x y z
#
# Youngs Moduli (GPa) = 133.04693 80.27535 61.19081
#
# Poissons Ratio (x) = 0.24572 0.23173
# Poissons Ratio (y) = 0.40726 0.01809
# Poissons Ratio (z) = 0.50385 0.02373
#
# Static dielectric constant tensor:
#      x y z
#    x 4.583860 0.000000 -0.151420 
#    y 0.000000 3.802130 0.000000 
#    z -0.151420 0.000000 3.760320 
# 
# 
# High freq. dielectric constant tensor:
#      x y z
#    x 1.858560 0.000000 -0.002550 
#    y 0.000000 1.820220 0.000000 
#    z -0.002550 0.000000 1.810490 
# 
# From -- ./inp_files/189825.got.cif
#   From: 2010.06.25/outbox.cif.g09.slc.cpg/sg15_95_cif.got.tgz:189825.got - 2010.06.28 07:06:18.
