data_PCOD8140298
_publ_section_title
;
Structure prediction by ZEFSAII (Michael W. Deem and Ramdas Pophale) SiO2 
 PCOD8140298
Probable space group: C 2/C
;
_chemical_formula_sum "Si O2"
_cell_formula_units_Z 64
_cell_length_a 10.644401
_cell_length_b 9.981064
_cell_length_c 27.861382
_cell_angle_alpha 90.000000
_cell_angle_beta 76.401073
_cell_angle_gamma 90.000000
_cell_volume 2877.077292
_symmetry_space_group_name_H-M "C 2/C"
_symmetry_group_IT_number 15
_symmetry_cell_setting 'monoclinic'
loop_
_space_group_symop_operation_xyz
x,y,z
-x,y,1/2-z
-x,-y,-z
x,-y,1/2+z
1/2+x,1/2+y,z
1/2-x,1/2+y,1/2-z
1/2-x,1/2-y,-z
1/2+x,1/2-y,1/2+z
loop_
_atom_site_type_symbol
_atom_site_label
_atom_site_fract_x
_atom_site_fract_y
_atom_site_fract_z
Si Si1 0.708452 0.464575 0.465915
Si Si2 0.070899 0.369189 0.513088
Si Si3 0.000177 0.146613 0.449745
Si Si4 0.799815 0.439337 0.762430
Si Si5 0.521613 0.022269 0.678452
Si Si6 0.652155 0.760587 0.115059
Si Si7 0.107345 0.171566 0.781606
Si Si8 0.424838 0.815812 0.619540
O O1 0.786119 0.587725 0.483098
O O2 0.595342 0.519765 0.441248
O O3 0.638765 0.378587 0.513101
O O4 0.803438 0.372989 0.426898
O O5 0.000000 0.500000 0.500000
O O6 0.076919 0.268095 0.467957
O O7 0.997769 0.288275 0.562778
O O8 0.962203 0.173553 0.398145
O O9 0.866881 0.426720 0.808649
O O10 0.788690 0.291000 0.739969
O O11 0.666358 0.522030 0.776781
O O12 0.896037 0.533165 0.722859
O O13 0.584557 0.167898 0.666229
O O14 0.478370 0.959471 0.631585
O O15 0.771575 0.672494 0.122782
O O16 0.051064 0.205286 0.840176
O O17 0.000000 0.176091 0.750000
#
# Coordination Sequence:
#
# PCOD8140298 Si02
#       8
#     8   8   8   8   8   8   8   8
#     4  11  23  39  62  85 128 166 206 261 314 367
#     4  12  21  38  66  90 125 171 212 256 319 371
#     4  11  24  40  58  93 122 169 209 259 309 372
#     4  10  21  42  69  91 127 166 206 263 323 388
#     4  10  20  41  63  89 123 164 203 257 319 374
#     4  12  21  40  63  88 126 163 214 255 315 371
#     4  11  22  44  67  95 130 168 210 267 328 388
#     4  11  21  36  68  91 121 170 211 257 318 383
#
# _framework density 22.244796999999998
#
# number of rings (size 3 to 8) (size 9 to 14) (size 15 to 20)
#    0.000    1.000    7.500    1.500    0.000    0.000 
#    6.750    2.500    2.750    0.000    0.000    0.000 
#    0.000    0.000    0.000    0.000    0.000    0.000 
#
# Total GULP energy -396639.346200 kJ/mol
# GULP energy per Si atom -12394.979569 kJ/mol
# Density = 2.219417 g / cm^3
# Si number density = 22.244797 Si / 1000 Ang^3
#
#
#
# Elastic Constant Matrix: (Units=GPa)
#
#
# Indices 1 2 3 4 5 6 
#
# 1 83.9371 18.4323 11.4899 0.0000 21.5367 0.0000
# 2 18.4323 57.0823 -2.0919 0.0000 4.8217 0.0000
# 3 11.4899 -2.0919 52.1437 0.0000 26.3731 0.0000
# 4 0.0000 0.0000 0.0000 18.7007 0.0000 7.5357
# 5 21.5367 4.8217 26.3731 0.0000 32.2232 0.0000
# 6 0.0000 0.0000 0.0000 7.5357 0.0000 42.4399
#
#
#
# Elastic Compliance Matrix: (Units=1/GPa)
#
#
# Indices 1 2 3 4 5 6 
#
# 1 0.015442 -0.003918 0.002327 0.000000 -0.011639 0.000000
# 2 -0.003918 0.019121 0.002991 0.000000 -0.002691 0.000000
# 3 0.002327 0.002991 0.033782 0.000000 -0.029652 0.000000
# 4 0.000000 0.000000 0.000000 0.057595 0.000000 -0.010227
# 5 -0.011639 -0.002691 -0.029652 0.000000 0.063484 0.000000
# 6 0.000000 0.000000 0.000000 -0.010227 0.000000 0.025379
#
#
# Mechanical properties :
#
#
# Convention : Reuss Voigt Hill
#
# Bulk Modulus (GPa) = 14.05571 27.64708 20.85140
# Shear Modulus (GPa) = 21.21192 29.69495 25.45343
#
# Velocity S-wave (km/s) = 3.09134 3.65761 3.38633
# Velocity P-wave (km/s) = 4.36740 5.50391 4.96826
#
# Compressibility (1/GPa) = 0.07114547
#
# Stress axis : x y z
#
# Youngs Moduli (GPa) = 64.75903 52.29963 29.60127
#
# Poissons Ratio (x) = 0.20490 -0.06888
# Poissons Ratio (y) = 0.25372 -0.08855
# Poissons Ratio (z) = -0.15069 -0.15644
#
# Static dielectric constant tensor:
#      x y z
#    x 3.977860 0.000000 0.222690 
#    y 0.000000 3.877310 0.000000 
#    z 0.222690 0.000000 4.078830 
# 
# 
# High freq. dielectric constant tensor:
#      x y z
#    x 1.872370 0.000000 0.021510 
#    y 0.000000 1.859500 0.000000 
#    z 0.021510 0.000000 1.873700 
# 
# From -- ./inp_files/307479.got.cif
#   From: 2010.06.25/outbox.cif.g09.slc.cpg/sg15_154_cif.got.tgz:307479.got - 2010.06.28 07:06:18.
