data_PCOD8140863
_publ_section_title
;
Structure prediction by ZEFSAII (Michael W. Deem and Ramdas Pophale) SiO2 
 PCOD8140863
Probable space group: C 2/C
;
_chemical_formula_sum "Si O2"
_cell_formula_units_Z 32
_cell_length_a 8.595320
_cell_length_b 11.575460
_cell_length_c 18.872105
_cell_angle_alpha 90.000000
_cell_angle_beta 42.885653
_cell_angle_gamma 90.000000
_cell_volume 1277.828768
_symmetry_space_group_name_H-M "C 2/C"
_symmetry_group_IT_number 15
_symmetry_cell_setting 'monoclinic'
loop_
_space_group_symop_operation_xyz
x,y,z
-x,y,1/2-z
-x,-y,-z
x,-y,1/2+z
1/2+x,1/2+y,z
1/2-x,1/2+y,1/2-z
1/2-x,1/2-y,-z
1/2+x,1/2-y,1/2+z
loop_
_atom_site_type_symbol
_atom_site_label
_atom_site_fract_x
_atom_site_fract_y
_atom_site_fract_z
Si Si1 0.090948 0.452566 0.542755
Si Si2 0.680191 0.850995 0.750001
Si Si3 0.583217 0.562844 0.901621
Si Si4 0.388811 0.189488 0.891683
O O1 0.345006 0.400961 0.443210
O O2 0.072886 0.556804 0.603702
O O3 0.000000 0.500000 0.500000
O O4 0.936768 0.356563 0.633221
O O5 0.500000 0.809666 0.750000
O O6 0.873985 0.755027 0.696719
O O7 0.783787 0.974508 0.693379
O O8 0.737173 0.676560 0.869637
O O9 0.500000 0.500000 0.000000
O O10 0.250000 0.250000 0.000000
#
# Coordination Sequence:
#
# PCOD8140863 Si02
#       4
#     8   8   8   8
#     4  11  25  48  72 111 158 190 258 331 371 461
#     4  12  22  46  78 112 150 205 259 313 388 468
#     4  10  20  44  74 100 152 192 246 318 377 452
#     4  11  21  45  77 104 145 203 253 304 397 455
#
# _framework density 25.042479
#
# number of rings (size 3 to 8) (size 9 to 14) (size 15 to 20)
#    0.000    1.000   10.000    0.000    0.000    1.000 
#   13.500    2.500    0.000    0.000    0.000    0.000 
#    0.000    0.000    0.000    0.000    0.000    0.000 
#
# Total GULP energy -198249.981245 kJ/mol
# GULP energy per Si atom -12390.623828 kJ/mol
# Density = 2.498548 g / cm^3
# Si number density = 25.042479 Si / 1000 Ang^3
#
#
#
# Elastic Constant Matrix: (Units=GPa)
#
#
# Indices 1 2 3 4 5 6 
#
# 1 202.3372 56.0121 95.3494 0.0003 -42.1268 -0.0002
# 2 56.0121 87.2975 42.8157 0.0008 -28.5312 -0.0004
# 3 95.3494 42.8157 117.6669 0.0007 -40.8044 -0.0005
# 4 0.0003 0.0008 0.0007 49.4720 -0.0005 -14.3059
# 5 -42.1268 -28.5312 -40.8044 -0.0005 53.4764 0.0003
# 6 -0.0002 -0.0004 -0.0005 -14.3059 0.0003 52.4904
#
#
#
# Elastic Compliance Matrix: (Units=1/GPa)
#
#
# Indices 1 2 3 4 5 6 
#
# 1 0.008470 -0.002298 -0.005628 0.000000 0.001152 0.000000
# 2 -0.002298 0.015558 -0.002106 0.000000 0.004884 0.000000
# 3 -0.005628 -0.002106 0.016180 0.000000 0.006788 0.000000
# 4 0.000000 0.000000 0.000000 0.021943 0.000000 0.005980
# 5 0.001152 0.004884 0.006788 0.000000 0.027393 0.000000
# 6 0.000000 0.000000 0.000000 0.005980 0.000000 0.020681
#
#
# Mechanical properties :
#
#
# Convention : Reuss Voigt Hill
#
# Bulk Modulus (GPa) = 49.63963 88.40625 69.02294
# Shear Modulus (GPa) = 36.49536 45.29603 40.89570
#
# Velocity S-wave (km/s) = 3.82165 4.25758 4.04549
# Velocity P-wave (km/s) = 6.27205 7.71676 7.03161
#
# Compressibility (1/GPa) = 0.02014519
#
# Stress axis : x y z
#
# Youngs Moduli (GPa) = 118.05679 64.27404 61.80648
#
# Poissons Ratio (x) = 0.14769 0.34786
# Poissons Ratio (y) = 0.27128 0.13013
# Poissons Ratio (z) = 0.66445 0.13533
#
# Static dielectric constant tensor:
#      x y z
#    x 3.803570 0.000000 -0.184790 
#    y 0.000000 4.556740 0.000000 
#    z -0.184790 0.000000 4.836170 
# 
# 
# High freq. dielectric constant tensor:
#      x y z
#    x 2.006400 0.000000 -0.012880 
#    y 0.000000 1.986150 0.000000 
#    z -0.012880 0.000000 2.017720 
# 
# From -- ./inp_files/230922.got.cif
#   From: 2010.06.25/outbox.cif.g09.slc.cpg/sg15_116_cif.got.tgz:230922.got - 2010.06.28 07:06:18.
