data_PCOD8140711
_publ_section_title
;
Structure prediction by ZEFSAII (Michael W. Deem and Ramdas Pophale) SiO2 
 PCOD8140711
Probable space group: C 2/C
;
_chemical_formula_sum "Si O2"
_cell_formula_units_Z 60
_cell_length_a 25.057023
_cell_length_b 8.699437
_cell_length_c 24.419700
_cell_angle_alpha 90.000000
_cell_angle_beta 147.034504
_cell_angle_gamma 90.000000
_cell_volume 2896.454512
_symmetry_space_group_name_H-M "C 2/C"
_symmetry_group_IT_number 15
_symmetry_cell_setting 'monoclinic'
loop_
_space_group_symop_operation_xyz
x,y,z
-x,y,1/2-z
-x,-y,-z
x,-y,1/2+z
1/2+x,1/2+y,z
1/2-x,1/2+y,1/2-z
1/2-x,1/2-y,-z
1/2+x,1/2-y,1/2+z
loop_
_atom_site_type_symbol
_atom_site_label
_atom_site_fract_x
_atom_site_fract_y
_atom_site_fract_z
Si Si1 0.782969 0.079878 0.545999
Si Si2 0.740668 0.922506 0.793208
Si Si3 0.494448 0.339766 0.365940
Si Si4 0.518065 0.044724 0.078105
Si Si5 0.665598 0.912214 0.537960
Si Si6 0.500000 0.656362 0.750000
Si Si7 0.790581 0.926213 0.232049
Si Si8 0.322956 0.554894 0.971652
O O1 0.750000 0.250000 0.500000
O O2 0.897099 0.062800 0.662971
O O3 0.711410 0.021234 0.531399
O O4 0.765850 0.972303 0.478936
O O5 0.630883 0.981060 0.688102
O O6 0.756247 0.741308 0.801137
O O7 0.812072 0.005205 0.810954
O O8 0.763534 0.969363 0.873982
O O9 0.511959 0.220042 0.430677
O O10 0.501431 0.256912 0.310990
O O11 0.388584 0.417463 0.280862
O O12 0.569004 0.481505 0.433309
O O13 0.500000 0.000000 0.000000
O O14 0.451253 0.936780 0.058819
O O15 0.680117 0.734709 0.540208
O O16 0.713446 0.960012 0.636920
#
# Coordination Sequence:
#
# PCOD8140711 Si02
#       8
#     8   8   8   8   8   4   8   8
#     4  11  23  44  73  96 134 172 226 277 329 406
#     4  11  24  41  64  96 133 169 230 269 337 394
#     4  10  23  43  69  99 132 175 231 270 341 403
#     4  11  24  43  66  95 132 176 225 279 328 393
#     4  12  23  44  66  96 134 172 217 274 340 393
#     4  10  20  42  72 100 126 176 220 274 328 394
#     4  11  22  41  69  93 130 179 217 283 328 400
#     4  11  26  41  65 103 131 173 216 275 340 408
#
# _framework density 20.714981000000002
#
# number of rings (size 3 to 8) (size 9 to 14) (size 15 to 20)
#    0.000    1.067    2.667    4.400    3.733    2.667 
#    0.000    0.000    0.000    0.000    0.000    0.000 
#    0.000    0.000    0.000    0.000    0.000    0.000 
#
# Total GULP energy -371822.528544 kJ/mol
# GULP energy per Si atom -12394.084285 kJ/mol
# Density = 2.066783 g / cm^3
# Si number density = 20.714981 Si / 1000 Ang^3
#
#
#
# Elastic Constant Matrix: (Units=GPa)
#
#
# Indices 1 2 3 4 5 6 
#
# 1 130.1615 31.3534 40.3820 0.0000 -8.6635 0.0000
# 2 31.3534 114.4007 42.7532 0.0000 -4.3166 0.0001
# 3 40.3820 42.7532 85.5404 0.0000 -16.1445 0.0000
# 4 0.0000 0.0000 0.0000 25.2453 0.0000 -10.1077
# 5 -8.6635 -4.3166 -16.1445 0.0000 34.8293 0.0000
# 6 0.0000 0.0001 0.0000 -10.1077 0.0000 37.6234
#
#
#
# Elastic Compliance Matrix: (Units=1/GPa)
#
#
# Indices 1 2 3 4 5 6 
#
# 1 0.009117 -0.001112 -0.003667 0.000000 0.000430 0.000000
# 2 -0.001112 0.010936 -0.005191 0.000000 -0.001328 0.000000
# 3 -0.003667 -0.005191 0.017230 0.000000 0.006431 0.000000
# 4 0.000000 0.000000 0.000000 0.044386 0.000000 0.011924
# 5 0.000430 -0.001328 0.006431 0.000000 0.031635 0.000000
# 6 0.000000 0.000000 0.000000 0.011924 0.000000 0.029783
#
#
# Mechanical properties :
#
#
# Convention : Reuss Voigt Hill
#
# Bulk Modulus (GPa) = 57.66324 62.11995 59.89159
# Shear Modulus (GPa) = 29.61951 33.91386 31.76669
#
# Velocity S-wave (km/s) = 3.78545 4.05058 3.92026
# Velocity P-wave (km/s) = 6.85588 7.20620 7.03322
#
# Compressibility (1/GPa) = 0.01734207
#
# Stress axis : x y z
#
# Youngs Moduli (GPa) = 109.68630 91.44121 58.03851
#
# Poissons Ratio (x) = 0.10168 0.21282
# Poissons Ratio (y) = 0.12197 0.30130
# Poissons Ratio (z) = 0.40221 0.47471
#
# Static dielectric constant tensor:
#      x y z
#    x 3.923350 0.000000 -0.371270 
#    y 0.000000 -6.128020 0.000000 
#    z -0.371270 0.000000 3.756180 
# 
# 
# High freq. dielectric constant tensor:
#      x y z
#    x 1.839530 0.000000 -0.003340 
#    y 0.000000 1.790490 0.000000 
#    z -0.003340 0.000000 1.814740 
# 
# From -- ./inp_files/281698.got.cif
#   From: 2010.06.25/outbox.cif.g09.slc.cpg/sg15_141_cif.got.tgz:281698.got - 2010.06.28 07:06:18.
