data_PCOD8140529
_publ_section_title
;
Structure prediction by ZEFSAII (Michael W. Deem and Ramdas Pophale) SiO2 
 PCOD8140529
Probable space group: C 2/C
;
_chemical_formula_sum "Si O2"
_cell_formula_units_Z 56
_cell_length_a 9.947764
_cell_length_b 20.237710
_cell_length_c 13.592971
_cell_angle_alpha 90.000000
_cell_angle_beta 111.915024
_cell_angle_gamma 90.000000
_cell_volume 2538.789967
_symmetry_space_group_name_H-M "C 2/C"
_symmetry_group_IT_number 15
_symmetry_cell_setting 'monoclinic'
loop_
_space_group_symop_operation_xyz
x,y,z
-x,y,1/2-z
-x,-y,-z
x,-y,1/2+z
1/2+x,1/2+y,z
1/2-x,1/2+y,1/2-z
1/2-x,1/2-y,-z
1/2+x,1/2-y,1/2+z
loop_
_atom_site_type_symbol
_atom_site_label
_atom_site_fract_x
_atom_site_fract_y
_atom_site_fract_z
Si Si1 0.631207 0.954403 0.446483
Si Si2 0.188851 0.676985 0.477918
Si Si3 0.806776 0.439344 0.384065
Si Si4 0.433483 0.602550 0.446432
Si Si5 0.636820 0.537550 0.649117
Si Si6 0.608415 0.180276 0.040911
Si Si7 0.420117 0.281841 0.628113
O O1 0.459840 0.961942 0.376772
O O2 0.716054 0.944524 0.368519
O O3 0.652532 0.893701 0.525976
O O4 0.707189 0.017277 0.520048
O O5 0.250000 0.750000 0.500000
O O6 0.197042 0.637513 0.584550
O O7 0.278512 0.637708 0.419836
O O8 0.015537 0.680592 0.407352
O O9 0.671866 0.450425 0.273535
O O10 0.507583 0.584334 0.572236
O O11 0.410879 0.538178 0.374156
O O12 0.539292 0.650435 0.415529
O O13 0.751524 0.218255 0.114291
O O14 0.542589 0.219261 0.929308
O O15 0.500000 0.270877 0.750000
#
# Coordination Sequence:
#
# PCOD8140529 Si02
#       7
#     8   8   8   8   8   8   8
#     4  10  20  42  63  96 132 170 229 282 322 399
#     4  11  22  45  68  95 137 174 217 280 340 398
#     4  10  23  39  69  96 131 181 222 275 348 398
#     4  11  24  43  65  98 139 173 221 287 329 397
#     4  11  23  41  67  97 134 177 229 278 334 400
#     4  10  23  43  68  92 133 177 215 282 329 397
#     4  11  24  44  67  98 131 177 227 268 342 405
#
# _framework density 22.057753000000002
#
# number of rings (size 3 to 8) (size 9 to 14) (size 15 to 20)
#    0.000    1.429    4.286    0.429    2.000    2.857 
#    0.000    2.143    0.000    0.000    0.000    0.000 
#    0.000    0.000    0.000    0.000    0.000    0.000 
#
# Total GULP energy -347141.910244 kJ/mol
# GULP energy per Si atom -12397.925366 kJ/mol
# Density = 2.200755 g / cm^3
# Si number density = 22.057753 Si / 1000 Ang^3
#
#
#
# Elastic Constant Matrix: (Units=GPa)
#
#
# Indices 1 2 3 4 5 6 
#
# 1 116.3005 32.9786 21.4448 0.0000 3.9551 0.0000
# 2 32.9786 111.6302 24.2481 0.0000 3.9380 0.0000
# 3 21.4448 24.2481 94.7552 0.0000 23.4301 0.0000
# 4 0.0000 0.0000 0.0000 18.8675 0.0000 -4.6877
# 5 3.9551 3.9380 23.4301 0.0000 23.8490 0.0000
# 6 0.0000 0.0000 0.0000 -4.6877 0.0000 36.5641
#
#
#
# Elastic Compliance Matrix: (Units=1/GPa)
#
#
# Indices 1 2 3 4 5 6 
#
# 1 0.009593 -0.002493 -0.001640 0.000000 0.000432 0.000000
# 2 -0.002493 0.010154 -0.002274 0.000000 0.000971 0.000000
# 3 -0.001640 -0.002274 0.014987 0.000000 -0.014077 0.000000
# 4 0.000000 0.000000 0.000000 0.054745 0.000000 0.007019
# 5 0.000432 0.000971 -0.014077 0.000000 0.055528 0.000000
# 6 0.000000 0.000000 0.000000 0.007019 0.000000 0.028249
#
#
# Mechanical properties :
#
#
# Convention : Reuss Voigt Hill
#
# Bulk Modulus (GPa) = 45.62023 53.33652 49.47838
# Shear Modulus (GPa) = 25.85602 32.12374 28.98988
#
# Velocity S-wave (km/s) = 3.42745 3.82035 3.62922
# Velocity P-wave (km/s) = 6.03244 6.61007 6.32785
#
# Compressibility (1/GPa) = 0.02192010
#
# Stress axis : x y z
#
# Youngs Moduli (GPa) = 104.24210 98.47881 66.72253
#
# Poissons Ratio (x) = 0.24551 0.10942
# Poissons Ratio (y) = 0.25988 0.15176
# Poissons Ratio (z) = 0.17094 0.22399
#
# Static dielectric constant tensor:
#      x y z
#    x 4.402150 0.000000 0.055930 
#    y 0.000000 4.071560 0.000000 
#    z 0.055930 0.000000 3.447700 
# 
# 
# High freq. dielectric constant tensor:
#      x y z
#    x 1.895870 0.000000 0.003030 
#    y 0.000000 1.878830 0.000000 
#    z 0.003030 0.000000 1.819620 
# 
# From -- ./inp_files/89659.got.cif
#   From: 2010.06.25/outbox.cif.g09.slc.cpg/sg15_45_cif.got.tgz:89659.got - 2010.06.28 07:06:18.
