data_PCOD8140386
_publ_section_title
;
Structure prediction by ZEFSAII (Michael W. Deem and Ramdas Pophale) SiO2 
 PCOD8140386
Probable space group: C 2/C
;
_chemical_formula_sum "Si O2"
_cell_formula_units_Z 52
_cell_length_a 8.671451
_cell_length_b 19.582731
_cell_length_c 18.082776
_cell_angle_alpha 90.000000
_cell_angle_beta 55.051000
_cell_angle_gamma 90.000000
_cell_volume 2516.894894
_symmetry_space_group_name_H-M "C 2/C"
_symmetry_group_IT_number 15
_symmetry_cell_setting 'monoclinic'
loop_
_space_group_symop_operation_xyz
x,y,z
-x,y,1/2-z
-x,-y,-z
x,-y,1/2+z
1/2+x,1/2+y,z
1/2-x,1/2+y,1/2-z
1/2-x,1/2-y,-z
1/2+x,1/2-y,1/2+z
loop_
_atom_site_type_symbol
_atom_site_label
_atom_site_fract_x
_atom_site_fract_y
_atom_site_fract_z
Si Si1 0.000000 0.524295 0.250000
Si Si2 0.000000 0.737950 0.250000
Si Si3 0.914976 0.043368 0.916546
Si Si4 0.000000 0.958510 0.750000
Si Si5 0.601198 0.302773 0.071954
Si Si6 0.781273 0.548436 0.915186
Si Si7 0.149262 0.815733 0.494643
Si Si8 0.694429 0.370426 0.810686
O O1 0.984757 0.474493 0.325884
O O2 0.815390 0.569997 0.316011
O O3 0.057435 0.785624 0.167742
O O4 0.173418 0.694706 0.234682
O O5 0.826849 0.119338 0.942658
O O6 0.124263 0.045544 0.893083
O O7 0.915675 0.008419 0.835577
O O8 0.771856 0.999532 0.003082
O O9 0.853888 0.904198 0.754870
O O10 0.750000 0.250000 0.000000
O O11 0.425529 0.295178 0.065302
O O12 0.803990 0.625208 0.940313
O O13 0.250000 0.750000 0.500000
O O14 0.984954 0.849017 0.590793
#
# Coordination Sequence:
#
# PCOD8140386 Si02
#       8
#     4   4   8   4   8   8   8   8
#     4  11  20  42  68  98 125 170 230 274 333 414
#     4  11  25  42  64 102 134 186 232 278 344 412
#     4  10  21  39  69  92 130 176 220 274 343 399
#     4  12  21  42  68 100 131 170 224 296 343 400
#     4  11  23  43  67  97 139 184 229 282 338 418
#     4  10  20  41  66  93 129 174 217 270 341 407
#     4  11  24  47  67  97 137 185 227 282 349 408
#     4  11  24  41  69  95 136 174 226 279 350 405
#
# _framework density 20.660377
#
# number of rings (size 3 to 8) (size 9 to 14) (size 15 to 20)
#    0.000    1.231    4.615    2.308    4.308    0.000 
#    8.308    0.769    0.000    0.000    0.000    0.000 
#    0.000    0.000    0.000    0.000    0.000    0.000 
#
# Total GULP energy -322119.513094 kJ/mol
# GULP energy per Si atom -12389.212042 kJ/mol
# Density = 2.061335 g / cm^3
# Si number density = 20.660377 Si / 1000 Ang^3
#
#
#
# Elastic Constant Matrix: (Units=GPa)
#
#
# Indices 1 2 3 4 5 6 
#
# 1 59.4725 56.4232 38.2675 0.0000 16.3119 0.0000
# 2 56.4232 193.8607 85.3518 0.0000 7.5423 0.0000
# 3 38.2675 85.3518 152.8819 0.0000 13.2700 0.0000
# 4 0.0000 0.0000 0.0000 34.1614 0.0000 14.9486
# 5 16.3119 7.5423 13.2700 0.0000 36.0759 0.0000
# 6 0.0000 0.0000 0.0000 14.9486 0.0000 27.3340
#
#
#
# Elastic Compliance Matrix: (Units=1/GPa)
#
#
# Indices 1 2 3 4 5 6 
#
# 1 0.027263 -0.006528 -0.002302 0.000000 -0.010116 0.000000
# 2 -0.006528 0.008403 -0.003265 0.000000 0.002396 0.000000
# 3 -0.002302 -0.003265 0.009080 0.000000 -0.001617 0.000000
# 4 0.000000 0.000000 0.000000 0.038482 0.000000 -0.021045
# 5 -0.010116 0.002396 -0.001617 0.000000 0.032387 0.000000
# 6 0.000000 0.000000 0.000000 -0.021045 0.000000 0.048094
#
#
# Mechanical properties :
#
#
# Convention : Reuss Voigt Hill
#
# Bulk Modulus (GPa) = 48.64570 85.14446 66.89508
# Shear Modulus (GPa) = 25.67380 34.59244 30.13312
#
# Velocity S-wave (km/s) = 3.52896 4.09631 3.82317
# Velocity P-wave (km/s) = 6.34045 7.97959 7.20677
#
# Compressibility (1/GPa) = 0.02055680
#
# Stress axis : x y z
#
# Youngs Moduli (GPa) = 36.67914 119.01030 110.12915
#
# Poissons Ratio (x) = 0.77691 0.25348
# Poissons Ratio (y) = 0.23945 0.35957
# Poissons Ratio (z) = 0.08442 0.38857
#
# Static dielectric constant tensor:
#      x y z
#    x 3.684470 0.000000 0.122850 
#    y 0.000000 3.928360 0.000000 
#    z 0.122850 0.000000 3.776660 
# 
# 
# High freq. dielectric constant tensor:
#      x y z
#    x 1.774640 0.000000 0.011810 
#    y 0.000000 1.836070 0.000000 
#    z 0.011810 0.000000 1.815750 
# 
# From -- ./inp_files/136093.got.cif
#   From: 2010.06.25/outbox.cif.g09.slc.cpg/sg15_69_cif.got.tgz:136093.got - 2010.06.28 07:06:18.
