data_PCOD8140539
_publ_section_title
;
Structure prediction by ZEFSAII (Michael W. Deem and Ramdas Pophale) SiO2 
 PCOD8140539
Probable space group: C 2/C
;
_chemical_formula_sum "Si O2"
_cell_formula_units_Z 44
_cell_length_a 12.549016
_cell_length_b 17.304436
_cell_length_c 10.200766
_cell_angle_alpha 90.000000
_cell_angle_beta 103.499931
_cell_angle_gamma 90.000000
_cell_volume 2153.929818
_symmetry_space_group_name_H-M "C 2/C"
_symmetry_group_IT_number 15
_symmetry_cell_setting 'monoclinic'
loop_
_space_group_symop_operation_xyz
x,y,z
-x,y,1/2-z
-x,-y,-z
x,-y,1/2+z
1/2+x,1/2+y,z
1/2-x,1/2+y,1/2-z
1/2-x,1/2-y,-z
1/2+x,1/2-y,1/2+z
loop_
_atom_site_type_symbol
_atom_site_label
_atom_site_fract_x
_atom_site_fract_y
_atom_site_fract_z
Si Si1 0.118235 0.262986 0.839443
Si Si2 0.379763 0.028899 0.936304
Si Si3 0.843169 0.701320 0.860284
Si Si4 0.032326 0.056259 0.124945
Si Si5 0.000000 0.200001 0.250000
Si Si6 0.286608 0.929664 0.678086
O O1 0.210768 0.204444 0.810371
O O2 0.149399 0.349055 0.804458
O O3 0.000000 0.238787 0.750000
O O4 0.116757 0.255818 0.996048
O O5 0.383004 0.113534 0.873521
O O6 0.324114 0.973440 0.817112
O O7 0.312169 0.024486 0.051875
O O8 0.500000 0.000000 0.000000
O O9 0.896906 0.745195 0.752314
O O10 0.157842 0.081354 0.150121
O O11 0.000000 0.010282 0.250000
O O12 0.970806 0.140762 0.119231
O O13 0.000000 0.000000 0.000000
#
# Coordination Sequence:
#
# PCOD8140539 Si02
#       6
#     8   8   8   8   4   8
#     4  10  20  42  64  89 125 174 216 261 328 389
#     4  11  24  40  65  93 125 168 217 271 326 387
#     4  10  22  41  64  92 130 169 211 273 326 384
#     4  10  21  40  65  94 129 174 213 265 324 385
#     4  10  22  42  66  90 138 164 218 274 324 374
#     4  11  21  40  62  93 126 168 221 267 322 389
#
# _framework density 20.427778
#
# number of rings (size 3 to 8) (size 9 to 14) (size 15 to 20)
#    0.545    1.091    1.818    3.818    2.545    0.000 
#    3.273    0.909    0.000    0.000    0.000    0.000 
#    0.000    0.000    0.000    0.000    0.000    0.000 
#
# Total GULP energy -272628.794029 kJ/mol
# GULP energy per Si atom -12392.217910 kJ/mol
# Density = 2.038128 g / cm^3
# Si number density = 20.427778 Si / 1000 Ang^3
#
#
#
# Elastic Constant Matrix: (Units=GPa)
#
#
# Indices 1 2 3 4 5 6 
#
# 1 151.4064 55.4477 57.6207 0.0000 4.1675 0.0000
# 2 55.4477 96.1230 32.8330 0.0000 7.1345 0.0000
# 3 57.6207 32.8330 84.1695 0.0000 5.5601 0.0000
# 4 0.0000 0.0000 0.0000 37.0941 0.0000 -7.1454
# 5 4.1675 7.1345 5.5601 0.0000 35.8561 0.0000
# 6 0.0000 0.0000 0.0000 -7.1454 0.0000 36.2130
#
#
#
# Elastic Compliance Matrix: (Units=1/GPa)
#
#
# Indices 1 2 3 4 5 6 
#
# 1 0.010117 -0.004031 -0.005384 0.000000 0.000461 0.000000
# 2 -0.004031 0.013710 -0.002464 0.000000 -0.001877 0.000000
# 3 -0.005384 -0.002464 0.016624 0.000000 -0.001462 0.000000
# 4 0.000000 0.000000 0.000000 0.028024 0.000000 0.005529
# 5 0.000461 -0.001877 -0.001462 0.000000 0.028436 0.000000
# 6 0.000000 0.000000 0.000000 0.005529 0.000000 0.028705
#
#
# Mechanical properties :
#
#
# Convention : Reuss Voigt Hill
#
# Bulk Modulus (GPa) = 59.90729 69.27797 64.59263
# Shear Modulus (GPa) = 32.27060 34.21915 33.24488
#
# Velocity S-wave (km/s) = 3.97891 4.09727 4.03852
# Velocity P-wave (km/s) = 7.10626 7.50805 7.30992
#
# Compressibility (1/GPa) = 0.01669246
#
# Stress axis : x y z
#
# Youngs Moduli (GPa) = 98.83971 72.94058 60.15253
#
# Poissons Ratio (x) = 0.29405 0.32387
# Poissons Ratio (y) = 0.39845 0.14823
# Poissons Ratio (z) = 0.53216 0.17974
#
# Static dielectric constant tensor:
#      x y z
#    x 3.996540 0.000000 -0.312240 
#    y 0.000000 3.720180 0.000000 
#    z -0.312240 0.000000 3.445050 
# 
# 
# High freq. dielectric constant tensor:
#      x y z
#    x 1.815240 0.000000 -0.019410 
#    y 0.000000 1.799610 0.000000 
#    z -0.019410 0.000000 1.776900 
# 
# From -- ./inp_files/87533.got.cif
#   From: 2010.06.25/outbox.cif.g09.slc.cpg/sg15_44_cif.got.tgz:87533.got - 2010.06.28 07:06:18.
