data_PCOD8140949
_publ_section_title
;
Structure prediction by ZEFSAII (Michael W. Deem and Ramdas Pophale) SiO2 
 PCOD8140949
Probable space group: C 2/C
;
_chemical_formula_sum "Si O2"
_cell_formula_units_Z 40
_cell_length_a 20.616771
_cell_length_b 20.900485
_cell_length_c 5.261476
_cell_angle_alpha 90.000000
_cell_angle_beta 59.780977
_cell_angle_gamma 90.000000
_cell_volume 1959.081495
_symmetry_space_group_name_H-M "C 2/C"
_symmetry_group_IT_number 15
_symmetry_cell_setting 'monoclinic'
loop_
_space_group_symop_operation_xyz
x,y,z
-x,y,1/2-z
-x,-y,-z
x,-y,1/2+z
1/2+x,1/2+y,z
1/2-x,1/2+y,1/2-z
1/2-x,1/2-y,-z
1/2+x,1/2-y,1/2+z
loop_
_atom_site_type_symbol
_atom_site_label
_atom_site_fract_x
_atom_site_fract_y
_atom_site_fract_z
Si Si1 0.500000 0.351453 0.250000
Si Si2 0.500000 0.731085 0.250000
Si Si3 0.231751 0.332192 0.290648
Si Si4 0.594325 0.468402 0.167477
Si Si5 0.741701 0.022020 0.701157
Si Si6 0.340693 0.783356 0.566886
O O1 0.482981 0.309876 0.531902
O O2 0.573898 0.394093 0.163609
O O3 0.429094 0.776749 0.435181
O O4 0.261567 0.403950 0.196757
O O5 0.304167 0.287031 0.144388
O O6 0.190095 0.326639 0.642590
O O7 0.175247 0.315963 0.172632
O O8 0.558346 0.492591 0.502720
O O9 0.683699 0.478978 0.999260
O O10 0.695869 0.008086 0.530212
#
# Coordination Sequence:
#
# PCOD8140949 Si02
#       6
#     4   4   8   8   8   8
#     4  12  24  35  56  82 134 165 196 234 280 370
#     4  12  26  39  62  92 116 167 212 244 300 358
#     4  10  21  41  61  85 120 160 202 259 295 353
#     4  10  21  35  49  78 118 167 200 222 286 339
#     4  10  21  33  58  88 117 153 197 243 301 356
#     4  10  23  40  62  84 116 161 213 251 300 343
#
# _framework density 20.417732000000001
#
# number of rings (size 3 to 8) (size 9 to 14) (size 15 to 20)
#    0.000    1.600    0.000    4.200   11.200    0.000 
#    0.000    0.000    0.000    0.000    0.000   14.000 
#    0.000    0.000    0.000    0.000    0.000    0.000 
#
# Total GULP energy -247947.987680 kJ/mol
# GULP energy per Si atom -12397.399384 kJ/mol
# Density = 2.037126 g / cm^3
# Si number density = 20.417732 Si / 1000 Ang^3
#
#
#
# Elastic Constant Matrix: (Units=GPa)
#
#
# Indices 1 2 3 4 5 6 
#
# 1 69.9228 13.8182 47.1522 0.0000 8.6012 0.0000
# 2 13.8182 79.8282 27.7781 0.0000 3.2727 0.0000
# 3 47.1522 27.7781 107.6814 0.0000 36.7554 0.0000
# 4 0.0000 0.0000 0.0000 27.6374 0.0000 6.2936
# 5 8.6012 3.2727 36.7554 0.0000 54.2839 0.0000
# 6 0.0000 0.0000 0.0000 6.2936 0.0000 23.2844
#
#
#
# Elastic Compliance Matrix: (Units=1/GPa)
#
#
# Indices 1 2 3 4 5 6 
#
# 1 0.020865 -0.000157 -0.010367 0.000000 0.003723 0.000000
# 2 -0.000157 0.013941 -0.004226 0.000000 0.002046 0.000000
# 3 -0.010367 -0.004226 0.018558 0.000000 -0.010668 0.000000
# 4 0.000000 0.000000 0.000000 0.038556 0.000000 -0.010421
# 5 0.003723 0.002046 -0.010668 0.000000 0.024932 0.000000
# 6 0.000000 0.000000 0.000000 -0.010421 0.000000 0.045764
#
#
# Mechanical properties :
#
#
# Convention : Reuss Voigt Hill
#
# Bulk Modulus (GPa) = 41.90327 48.32548 45.11437
# Shear Modulus (GPa) = 24.99133 32.28674 28.63903
#
# Velocity S-wave (km/s) = 3.50237 3.98088 3.74927
# Velocity P-wave (km/s) = 6.07643 6.69699 6.39424
#
# Compressibility (1/GPa) = 0.02386449
#
# Stress axis : x y z
#
# Youngs Moduli (GPa) = 47.92610 71.73271 53.88638
#
# Poissons Ratio (x) = 0.01126 0.55863
# Poissons Ratio (y) = 0.00752 0.22771
# Poissons Ratio (z) = 0.49685 0.30312
#
# Static dielectric constant tensor:
#      x y z
#    x 3.960280 0.000000 0.793900 
#    y 0.000000 3.464530 0.000000 
#    z 0.793900 0.000000 4.199070 
# 
# 
# High freq. dielectric constant tensor:
#      x y z
#    x 1.788090 0.000000 0.046740 
#    y 0.000000 1.779750 0.000000 
#    z 0.046740 0.000000 1.806530 
# 
# From -- ./inp_files/9829.got.cif
#   From: 2010.06.25/outbox.cif.g09.slc.cpg/sg15_5_cif.got.tgz:9829.got - 2010.06.28 07:06:18.
