data_PCOD8140965
_publ_section_title
;
Structure prediction by ZEFSAII (Michael W. Deem and Ramdas Pophale) SiO2 
 PCOD8140965
Probable space group: C 2/C
;
_chemical_formula_sum "Si O2"
_cell_formula_units_Z 48
_cell_length_a 15.684032
_cell_length_b 16.283055
_cell_length_c 9.588806
_cell_angle_alpha 90.000000
_cell_angle_beta 89.999419
_cell_angle_gamma 90.000000
_cell_volume 2448.827206
_symmetry_space_group_name_H-M "C 2/C"
_symmetry_group_IT_number 15
_symmetry_cell_setting 'monoclinic'
loop_
_space_group_symop_operation_xyz
x,y,z
-x,y,1/2-z
-x,-y,-z
x,-y,1/2+z
1/2+x,1/2+y,z
1/2-x,1/2+y,1/2-z
1/2-x,1/2-y,-z
1/2+x,1/2-y,1/2+z
loop_
_atom_site_type_symbol
_atom_site_label
_atom_site_fract_x
_atom_site_fract_y
_atom_site_fract_z
Si Si1 0.153328 0.101923 0.109049
Si Si2 0.651828 0.466092 0.316248
Si Si3 0.846663 0.398076 0.609048
Si Si4 0.500000 0.649852 0.750000
Si Si5 0.151834 0.466096 0.183750
Si Si6 0.000000 0.649843 0.750000
Si Si7 0.453738 0.750002 0.499998
O O1 0.249995 0.131496 0.115654
O O2 0.101567 0.184816 0.087288
O O3 0.127685 0.055534 0.252891
O O4 0.139803 0.035763 0.983398
O O5 0.587307 0.400833 0.250741
O O6 0.749998 0.443906 0.275340
O O7 0.860187 0.464239 0.483400
O O8 0.872305 0.444462 0.752892
O O9 0.898425 0.315184 0.587281
O O10 0.511826 0.704181 0.611871
O O11 0.087307 0.400841 0.249258
O O12 0.988174 0.704172 0.611870
#
# Coordination Sequence:
#
# PCOD8140965 Si02
#       7
#     8   8   8   4   8   4   8
#     4   9  18  34  55  77 102 134 172 213 256 303
#     4   9  19  35  54  76 102 134 173 212 252 304
#     4   9  18  34  55  77 102 134 172 213 256 303
#     4  10  22  36  52  76 106 138 172 212 256 304
#     4   9  19  35  54  76 102 134 173 212 252 304
#     4  10  22  36  52  76 106 138 172 212 256 304
#     4  10  21  34  51  76 106 136 170 212 260 302
#
# _framework density 19.601220999999999
#
# number of rings (size 3 to 8) (size 9 to 14) (size 15 to 20)
#    0.000    2.667    0.000    0.500    0.000   10.667 
#    0.000    0.833    0.000    0.000    0.000    0.000 
#    0.000    0.000    0.000    0.000    0.000    0.000 
#
# Total GULP energy -297453.808124 kJ/mol
# GULP energy per Si atom -12393.908672 kJ/mol
# Density = 1.955661 g / cm^3
# Si number density = 19.601221 Si / 1000 Ang^3
#
#
#
# Elastic Constant Matrix: (Units=GPa)
#
#
# Indices 1 2 3 4 5 6 
#
# 1 53.9196 17.7564 7.5495 0.0000 0.0016 0.0000
# 2 17.7564 70.3109 8.2849 0.0000 0.0042 0.0000
# 3 7.5495 8.2849 20.2638 0.0000 0.0024 0.0000
# 4 0.0000 0.0000 0.0000 43.6710 0.0000 -0.0016
# 5 0.0016 0.0042 0.0024 0.0000 13.9177 0.0000
# 6 0.0000 0.0000 0.0000 -0.0016 0.0000 6.5201
#
#
#
# Elastic Compliance Matrix: (Units=1/GPa)
#
#
# Indices 1 2 3 4 5 6 
#
# 1 0.020881 -0.004577 -0.005908 0.000000 0.000000 0.000000
# 2 -0.004577 0.015946 -0.004814 0.000000 -0.000003 0.000000
# 3 -0.005908 -0.004814 0.053518 0.000000 -0.000007 0.000000
# 4 0.000000 0.000000 0.000000 0.022898 0.000000 0.000006
# 5 0.000000 -0.000003 -0.000007 0.000000 0.071851 0.000000
# 6 0.000000 0.000000 0.000000 0.000006 0.000000 0.153371
#
#
# Mechanical properties :
#
#
# Convention : Reuss Voigt Hill
#
# Bulk Modulus (GPa) = 16.73745 23.51956 20.12850
# Shear Modulus (GPa) = 12.85417 20.21534 16.53476
#
# Velocity S-wave (km/s) = 2.56361 3.21492 2.90756
# Velocity P-wave (km/s) = 4.16177 5.07996 4.64361
#
# Compressibility (1/GPa) = 0.05974627
#
# Stress axis : x y z
#
# Youngs Moduli (GPa) = 47.89134 62.71277 18.68518
#
# Poissons Ratio (x) = 0.28704 0.11039
# Poissons Ratio (y) = 0.21920 0.08995
# Poissons Ratio (z) = 0.28294 0.30191
#
# Static dielectric constant tensor:
#      x y z
#    x 3.503430 0.000000 0.000020 
#    y 0.000000 3.507380 0.000000 
#    z 0.000020 0.000000 3.780250 
# 
# 
# High freq. dielectric constant tensor:
#      x y z
#    x 1.760960 0.000000 0.000000 
#    y 0.000000 1.754010 0.000000 
#    z 0.000000 0.000000 1.765530 
# 
# From -- ./inp_files/39682.got.cif
#   From: 2010.06.25/outbox.cif.g09.slc.cpg/sg15_20_cif.got.tgz:39682.got - 2010.06.28 07:06:18.
