data_PCOD8140662
_publ_section_title
;
Structure prediction by ZEFSAII (Michael W. Deem and Ramdas Pophale) SiO2 
 PCOD8140662
Probable space group: C 2/C
;
_chemical_formula_sum "Si O2"
_cell_formula_units_Z 60
_cell_length_a 12.529482
_cell_length_b 24.867837
_cell_length_c 9.483657
_cell_angle_alpha 90.000000
_cell_angle_beta 80.004015
_cell_angle_gamma 90.000000
_cell_volume 2910.072379
_symmetry_space_group_name_H-M "C 2/C"
_symmetry_group_IT_number 15
_symmetry_cell_setting 'monoclinic'
loop_
_space_group_symop_operation_xyz
x,y,z
-x,y,1/2-z
-x,-y,-z
x,-y,1/2+z
1/2+x,1/2+y,z
1/2-x,1/2+y,1/2-z
1/2-x,1/2-y,-z
1/2+x,1/2-y,1/2+z
loop_
_atom_site_type_symbol
_atom_site_label
_atom_site_fract_x
_atom_site_fract_y
_atom_site_fract_z
Si Si1 0.790622 0.881141 0.552107
Si Si2 0.411149 0.032479 0.938730
Si Si3 0.103434 0.823306 0.327292
Si Si4 0.786677 0.528178 0.240482
Si Si5 0.000000 0.373526 0.250000
Si Si6 0.959624 0.203671 0.101637
Si Si7 0.678597 0.193601 0.866718
Si Si8 0.621783 0.560895 0.734901
O O1 0.732898 0.913018 0.690618
O O2 0.895221 0.851461 0.591799
O O3 0.704448 0.840218 0.501888
O O4 0.829329 0.923962 0.427825
O O5 0.454994 0.091295 0.889832
O O6 0.384143 0.001215 0.800504
O O7 0.310373 0.037065 0.069657
O O8 0.500000 0.000000 0.000000
O O9 0.208731 0.793108 0.240801
O O10 0.131567 0.886842 0.334263
O O11 0.000000 0.816716 0.250000
O O12 0.069837 0.797241 0.483683
O O13 0.684249 0.489344 0.285807
O O14 0.900944 0.337947 0.218928
O O15 0.879406 0.251533 0.073416
O O16 0.000000 0.210822 0.250000
O O17 0.500000 0.540784 0.750000
#
# Coordination Sequence:
#
# PCOD8140662 Si02
#       8
#     8   8   8   8   4   8   8   8
#     4  11  23  43  68  98 136 183 224 282 342 410
#     4  12  23  41  66  96 136 177 221 277 337 402
#     4  10  21  43  75  95 131 192 224 272 355 417
#     4  12  24  41  67 103 136 178 226 277 336 415
#     4  12  24  44  70  98 140 186 226 288 342 412
#     4  12  25  45  70 106 135 171 240 302 339 400
#     4  11  24  47  72  96 138 187 230 281 359 411
#     4  10  20  42  68  95 132 183 221 260 342 413
#
# _framework density 20.618043
#
# number of rings (size 3 to 8) (size 9 to 14) (size 15 to 20)
#    0.000    0.800    7.333    2.800    0.000    3.733 
#    2.400    0.000    0.000    0.000    0.000    0.000 
#    0.000    0.000    0.000    0.000    0.000    0.000 
#
# Total GULP energy -372059.338001 kJ/mol
# GULP energy per Si atom -12401.977933 kJ/mol
# Density = 2.057112 g / cm^3
# Si number density = 20.618043 Si / 1000 Ang^3
#
#
#
# Elastic Constant Matrix: (Units=GPa)
#
#
# Indices 1 2 3 4 5 6 
#
# 1 97.8011 37.8703 26.2826 0.0000 -7.4511 0.0000
# 2 37.8703 84.2630 39.6678 0.0000 -12.3134 0.0000
# 3 26.2826 39.6678 102.8493 0.0000 -16.5015 0.0000
# 4 0.0000 0.0000 0.0000 22.0631 0.0000 7.1246
# 5 -7.4511 -12.3134 -16.5015 0.0000 37.0011 0.0000
# 6 0.0000 0.0000 0.0000 7.1246 0.0000 24.0941
#
#
#
# Elastic Compliance Matrix: (Units=1/GPa)
#
#
# Indices 1 2 3 4 5 6 
#
# 1 0.012514 -0.005006 -0.001217 0.000000 0.000311 0.000000
# 2 -0.005006 0.016723 -0.004782 0.000000 0.002425 0.000000
# 3 -0.001217 -0.004782 0.012476 0.000000 0.003728 0.000000
# 4 0.000000 0.000000 0.000000 0.050109 0.000000 -0.014817
# 5 0.000311 0.002425 0.003728 0.000000 0.029558 0.000000
# 6 0.000000 0.000000 0.000000 -0.014817 0.000000 0.045885
#
#
# Mechanical properties :
#
#
# Convention : Reuss Voigt Hill
#
# Bulk Modulus (GPa) = 50.75133 54.72831 52.73982
# Shear Modulus (GPa) = 25.53070 28.70450 27.11760
#
# Velocity S-wave (km/s) = 3.52272 3.73527 3.63055
# Velocity P-wave (km/s) = 6.41986 6.72343 6.57340
#
# Compressibility (1/GPa) = 0.01970392
#
# Stress axis : x y z
#
# Youngs Moduli (GPa) = 79.91092 59.79962 80.15191
#
# Poissons Ratio (x) = 0.29933 0.09757
# Poissons Ratio (y) = 0.40000 0.38325
# Poissons Ratio (z) = 0.09728 0.28593
#
# Static dielectric constant tensor:
#      x y z
#    x 3.915820 0.000000 -0.154780 
#    y 0.000000 3.786450 0.000000 
#    z -0.154780 0.000000 4.036140 
# 
# 
# High freq. dielectric constant tensor:
#      x y z
#    x 1.817870 0.000000 -0.001070 
#    y 0.000000 1.799170 0.000000 
#    z -0.001070 0.000000 1.802100 
# 
# From -- ./inp_files/34267.got.cif
#   From: 2010.06.25/outbox.cif.g09.slc.cpg/sg15_18_cif.got.tgz:34267.got - 2010.06.28 07:06:18.
