data_PCOD8140856
_publ_section_title
;
Structure prediction by ZEFSAII (Michael W. Deem and Ramdas Pophale) SiO2 
 PCOD8140856
Probable space group: C 2/C
;
_chemical_formula_sum "Si O2"
_cell_formula_units_Z 52
_cell_length_a 27.410273
_cell_length_b 11.698240
_cell_length_c 11.549563
_cell_angle_alpha 90.000000
_cell_angle_beta 38.983444
_cell_angle_gamma 90.000000
_cell_volume 2329.787057
_symmetry_space_group_name_H-M "C 2/C"
_symmetry_group_IT_number 15
_symmetry_cell_setting 'monoclinic'
loop_
_space_group_symop_operation_xyz
x,y,z
-x,y,1/2-z
-x,-y,-z
x,-y,1/2+z
1/2+x,1/2+y,z
1/2-x,1/2+y,1/2-z
1/2-x,1/2-y,-z
1/2+x,1/2-y,1/2+z
loop_
_atom_site_type_symbol
_atom_site_label
_atom_site_fract_x
_atom_site_fract_y
_atom_site_fract_z
Si Si1 0.841990 0.556356 0.955044
Si Si2 0.380184 0.285129 0.767226
Si Si3 0.817208 0.692619 0.448560
Si Si4 0.500000 0.905112 0.250000
Si Si5 0.450076 0.265408 0.043419
Si Si6 0.694898 0.356286 0.824041
Si Si7 0.409708 0.432692 0.933646
O O1 0.857848 0.652737 0.829098
O O2 0.803052 0.443251 0.973779
O O3 0.925584 0.518615 0.854016
O O4 0.784602 0.603158 0.161564
O O5 0.467110 0.303213 0.555934
O O6 0.321566 0.333840 0.780736
O O7 0.373878 0.352522 0.899944
O O8 0.750000 0.750000 0.500000
O O9 0.900517 0.715331 0.238647
O O10 0.815472 0.741699 0.582007
O O11 0.471700 0.825627 0.405843
O O12 0.402229 0.368814 0.071390
O O13 0.638602 0.451645 0.979805
O O14 0.500000 0.461041 0.750000
#
# Coordination Sequence:
#
# PCOD8140856 Si02
#       7
#     8   8   8   4   8   8   8
#     4  11  25  47  72  98 140 189 230 299 347 424
#     4  10  24  45  72 102 136 188 236 284 357 430
#     4  12  29  44  67 103 140 182 239 300 355 420
#     4  10  20  46  74  98 132 192 234 278 358 422
#     4  10  20  44  72 100 139 181 232 285 355 419
#     4  12  28  41  71 103 143 180 235 293 353 431
#     4  10  22  43  72 101 139 185 225 286 351 420
#
# _framework density 22.319635999999999
#
# number of rings (size 3 to 8) (size 9 to 14) (size 15 to 20)
#    0.000    1.231    3.846    2.308    8.615    7.385 
#    0.000    0.000    0.000    0.000    0.000    0.000 
#    0.000    0.000    0.000    0.000    0.000    0.000 
#
# Total GULP energy -322416.491530 kJ/mol
# GULP energy per Si atom -12400.634290 kJ/mol
# Density = 2.226884 g / cm^3
# Si number density = 22.319636 Si / 1000 Ang^3
#
#
#
# Elastic Constant Matrix: (Units=GPa)
#
#
# Indices 1 2 3 4 5 6 
#
# 1 100.2790 42.6407 34.9538 0.0000 -8.2202 0.0000
# 2 42.6407 131.4445 39.2025 0.0000 -5.9295 0.0000
# 3 34.9538 39.2025 118.2324 0.0000 -2.0379 0.0000
# 4 0.0000 0.0000 0.0000 66.3782 0.0000 13.0833
# 5 -8.2202 -5.9295 -2.0379 0.0000 24.0968 0.0000
# 6 0.0000 0.0000 0.0000 13.0833 0.0000 32.5427
#
#
#
# Elastic Compliance Matrix: (Units=1/GPa)
#
#
# Indices 1 2 3 4 5 6 
#
# 1 0.012473 -0.003125 -0.002595 0.000000 0.003267 0.000000
# 2 -0.003125 0.009308 -0.002144 0.000000 0.001043 0.000000
# 3 -0.002595 -0.002144 0.009926 0.000000 -0.000573 0.000000
# 4 0.000000 0.000000 0.000000 0.016362 0.000000 -0.006578
# 5 0.003267 0.001043 -0.000573 0.000000 0.042822 0.000000
# 6 0.000000 0.000000 0.000000 -0.006578 0.000000 0.033373
#
#
# Mechanical properties :
#
#
# Convention : Reuss Voigt Hill
#
# Bulk Modulus (GPa) = 62.58372 64.83886 63.71129
# Shear Modulus (GPa) = 34.40680 40.14748 37.27714
#
# Velocity S-wave (km/s) = 3.93052 4.24577 4.09118
# Velocity P-wave (km/s) = 6.97848 7.29031 7.13610
#
# Compressibility (1/GPa) = 0.01597860
#
# Stress axis : x y z
#
# Youngs Moduli (GPa) = 80.17094 107.43257 100.74262
#
# Poissons Ratio (x) = 0.33573 0.26144
# Poissons Ratio (y) = 0.25054 0.21604
# Poissons Ratio (z) = 0.20805 0.23039
#
# Static dielectric constant tensor:
#      x y z
#    x 4.136820 0.000000 -0.348470 
#    y 0.000000 3.910040 0.000000 
#    z -0.348470 0.000000 4.352790 
# 
# 
# High freq. dielectric constant tensor:
#      x y z
#    x 1.876810 0.000000 -0.018490 
#    y 0.000000 1.871090 0.000000 
#    z -0.018490 0.000000 1.888000 
# 
# From -- ./inp_files/126392.got.cif
#   From: 2010.06.25/outbox.cif.g09.slc.cpg/sg15_64_cif.got.tgz:126392.got - 2010.06.28 07:06:18.
