data_PCOD8140564
_publ_section_title
;
Structure prediction by ZEFSAII (Michael W. Deem and Ramdas Pophale) SiO2 
 PCOD8140564
Probable space group: C 2/C
;
_chemical_formula_sum "Si O2"
_cell_formula_units_Z 44
_cell_length_a 7.950505
_cell_length_b 21.375127
_cell_length_c 14.258420
_cell_angle_alpha 90.000000
_cell_angle_beta 119.173847
_cell_angle_gamma 90.000000
_cell_volume 2115.733832
_symmetry_space_group_name_H-M "C 2/C"
_symmetry_group_IT_number 15
_symmetry_cell_setting 'monoclinic'
loop_
_space_group_symop_operation_xyz
x,y,z
-x,y,1/2-z
-x,-y,-z
x,-y,1/2+z
1/2+x,1/2+y,z
1/2-x,1/2+y,1/2-z
1/2-x,1/2-y,-z
1/2+x,1/2-y,1/2+z
loop_
_atom_site_type_symbol
_atom_site_label
_atom_site_fract_x
_atom_site_fract_y
_atom_site_fract_z
Si Si1 0.500000 0.397618 0.250000
Si Si2 0.189812 0.613139 0.042813
Si Si3 0.971726 0.802183 0.852875
Si Si4 0.974803 0.994087 0.603309
Si Si5 0.807431 0.596210 0.246637
Si Si6 0.903483 0.338711 0.325535
O O1 0.554854 0.438997 0.355587
O O2 0.677107 0.353881 0.265113
O O3 0.336251 0.668306 0.048140
O O4 0.281528 0.544911 0.062451
O O5 0.129683 0.620707 0.134180
O O6 0.005601 0.614406 0.925523
O O7 0.789307 0.844805 0.833771
O O8 0.935015 0.731371 0.873547
O O9 0.000000 0.809247 0.750000
O O10 0.155064 0.960868 0.704752
O O11 0.000000 0.000000 0.500000
O O12 0.000000 0.572448 0.250000
O O13 0.000000 0.347172 0.250000
#
# Coordination Sequence:
#
# PCOD8140564 Si02
#       6
#     4   8   8   8   8   8
#     4  12  26  42  60  98 134 160 216 266 316 382
#     4  10  20  42  65  88 120 171 211 258 314 373
#     4   8  18  39  65  90 126 159 208 261 313 380
#     4  11  23  42  62  86 127 164 213 265 309 379
#     4  10  21  38  65  94 120 163 214 260 314 374
#     4  11  24  41  64  94 131 171 206 260 330 372
#
# _framework density 20.796565999999999
#
# number of rings (size 3 to 8) (size 9 to 14) (size 15 to 20)
#    0.000    1.818    1.818    2.727    3.818    2.909 
#    0.000    0.909    0.000    0.000    0.000    0.000 
#    0.000    0.000    0.000    0.000    0.000    0.000 
#
# Total GULP energy -272770.342375 kJ/mol
# GULP energy per Si atom -12398.651926 kJ/mol
# Density = 2.074923 g / cm^3
# Si number density = 20.796566 Si / 1000 Ang^3
#
#
#
# Elastic Constant Matrix: (Units=GPa)
#
#
# Indices 1 2 3 4 5 6 
#
# 1 105.8039 27.2216 20.2605 0.0000 13.8200 0.0000
# 2 27.2216 78.8707 8.8737 0.0000 6.6643 0.0000
# 3 20.2605 8.8737 84.1539 0.0000 0.0256 0.0000
# 4 0.0000 0.0000 0.0000 20.9449 0.0000 -7.7478
# 5 13.8200 6.6643 0.0256 0.0000 34.4168 0.0000
# 6 0.0000 0.0000 0.0000 -7.7478 0.0000 17.2058
#
#
#
# Elastic Compliance Matrix: (Units=1/GPa)
#
#
# Indices 1 2 3 4 5 6 
#
# 1 0.011258 -0.003292 -0.002362 0.000000 -0.003881 0.000000
# 2 -0.003292 0.014010 -0.000684 0.000000 -0.001390 0.000000
# 3 -0.002362 -0.000684 0.012523 0.000000 0.001072 0.000000
# 4 0.000000 0.000000 0.000000 0.057287 0.000000 0.025796
# 5 -0.003881 -0.001390 0.001072 0.000000 0.030883 0.000000
# 6 0.000000 0.000000 0.000000 0.025796 0.000000 0.069736
#
#
# Mechanical properties :
#
#
# Convention : Reuss Voigt Hill
#
# Bulk Modulus (GPa) = 39.81771 42.39333 41.10552
# Shear Modulus (GPa) = 23.06870 28.67835 25.87352
#
# Velocity S-wave (km/s) = 3.33416 3.71751 3.53104
# Velocity P-wave (km/s) = 5.83181 6.23342 6.03596
#
# Compressibility (1/GPa) = 0.02511445
#
# Stress axis : x y z
#
# Youngs Moduli (GPa) = 88.82852 71.37965 79.84989
#
# Poissons Ratio (x) = 0.23497 0.18861
# Poissons Ratio (y) = 0.29240 0.05464
# Poissons Ratio (z) = 0.20982 0.04885
#
# Static dielectric constant tensor:
#      x y z
#    x 3.550310 0.000000 0.296790 
#    y 0.000000 3.815450 0.000000 
#    z 0.296790 0.000000 2.638920 
# 
# 
# High freq. dielectric constant tensor:
#      x y z
#    x 1.804260 0.000000 0.005100 
#    y 0.000000 1.812030 0.000000 
#    z 0.005100 0.000000 1.810510 
# 
# From -- ./inp_files/137585.got.cif
#   From: 2010.06.25/outbox.cif.g09.slc.cpg/sg15_69_cif.got.tgz:137585.got - 2010.06.28 07:06:18.
