data_PCOD8140537
_publ_section_title
;
Structure prediction by ZEFSAII (Michael W. Deem and Ramdas Pophale) SiO2 
 PCOD8140537
Probable space group: C 2/C
;
_chemical_formula_sum "Si O2"
_cell_formula_units_Z 56
_cell_length_a 30.004412
_cell_length_b 10.494990
_cell_length_c 9.292327
_cell_angle_alpha 90.000000
_cell_angle_beta 122.308577
_cell_angle_gamma 90.000000
_cell_volume 2473.100624
_symmetry_space_group_name_H-M "C 2/C"
_symmetry_group_IT_number 15
_symmetry_cell_setting 'monoclinic'
loop_
_space_group_symop_operation_xyz
x,y,z
-x,y,1/2-z
-x,-y,-z
x,-y,1/2+z
1/2+x,1/2+y,z
1/2-x,1/2+y,1/2-z
1/2-x,1/2-y,-z
1/2+x,1/2-y,1/2+z
loop_
_atom_site_type_symbol
_atom_site_label
_atom_site_fract_x
_atom_site_fract_y
_atom_site_fract_z
Si Si1 0.765680 0.659962 0.831162
Si Si2 0.072006 0.430256 0.488046
Si Si3 0.967456 0.083805 0.334017
Si Si4 0.165280 0.713674 0.295004
Si Si5 0.959299 0.643356 0.880024
Si Si6 0.140766 0.963893 0.377928
Si Si7 0.705842 0.404502 0.759459
O O1 0.719307 0.747452 0.813125
O O2 0.749506 0.511390 0.781381
O O3 0.778151 0.752652 0.713797
O O4 0.816929 0.650229 0.023421
O O5 0.128715 0.378365 0.637048
O O6 0.067116 0.578164 0.526174
O O7 0.066762 0.417508 0.308117
O O8 0.023064 0.364714 0.487102
O O9 0.946244 0.209193 0.376747
O O10 0.000000 0.125010 0.250000
O O11 0.916212 0.016093 0.187024
O O12 0.000000 0.000000 0.500000
O O13 0.132499 0.843076 0.260040
O O14 0.160035 0.918842 0.564971
O O15 0.182664 0.062578 0.377285
#
# Coordination Sequence:
#
# PCOD8140537 Si02
#       7
#     8   8   8   8   8   8   8
#     4   9  20  37  61  90 123 164 212 259 326 381
#     4  10  20  42  64  88 128 168 208 259 326 380
#     4  12  24  43  65  98 127 168 220 268 320 389
#     4   9  19  39  63  85 124 172 205 257 326 386
#     4  10  23  41  64  93 129 166 211 266 321 386
#     4  10  22  38  63  87 124 165 203 264 330 373
#     4  10  21  41  59  88 125 162 208 266 318 386
#
# _framework density 22.643640999999999
#
# number of rings (size 3 to 8) (size 9 to 14) (size 15 to 20)
#    0.000    2.000    1.429    2.571    4.000    1.714 
#   15.429    0.000    0.000    0.000    0.000    0.000 
#    0.000    0.000    0.000    0.000    0.000    0.000 
#
# Total GULP energy -346893.829707 kJ/mol
# GULP energy per Si atom -12389.065347 kJ/mol
# Density = 2.259210 g / cm^3
# Si number density = 22.643641 Si / 1000 Ang^3
#
#
#
# Elastic Constant Matrix: (Units=GPa)
#
#
# Indices 1 2 3 4 5 6 
#
# 1 45.8877 9.3665 13.2812 0.0000 16.7190 0.0000
# 2 9.3665 89.7840 27.3385 0.0000 6.3916 0.0000
# 3 13.2812 27.3385 79.2301 0.0000 17.6722 0.0000
# 4 0.0000 0.0000 0.0000 30.5919 0.0000 -3.0658
# 5 16.7190 6.3916 17.6722 0.0000 32.8534 0.0000
# 6 0.0000 0.0000 0.0000 -3.0658 0.0000 26.2902
#
#
#
# Elastic Compliance Matrix: (Units=1/GPa)
#
#
# Indices 1 2 3 4 5 6 
#
# 1 0.027139 -0.001569 -0.001131 0.000000 -0.012897 0.000000
# 2 -0.001569 0.012537 -0.004201 0.000000 0.000619 0.000000
# 3 -0.001131 -0.004201 0.015852 0.000000 -0.007134 0.000000
# 4 0.000000 0.000000 0.000000 0.033075 0.000000 0.003857
# 5 -0.012897 0.000619 -0.007134 0.000000 0.040719 0.000000
# 6 0.000000 0.000000 0.000000 0.003857 0.000000 0.038487
#
#
# Mechanical properties :
#
#
# Convention : Reuss Voigt Hill
#
# Bulk Modulus (GPa) = 23.96599 34.98602 29.47601
# Shear Modulus (GPa) = 25.57312 28.94148 27.25730
#
# Velocity S-wave (km/s) = 3.36426 3.57897 3.47328
# Velocity P-wave (km/s) = 5.06932 5.70640 5.39726
#
# Compressibility (1/GPa) = 0.04172580
#
# Stress axis : x y z
#
# Youngs Moduli (GPa) = 36.84738 79.76674 63.08418
#
# Poissons Ratio (x) = 0.12512 0.07137
# Poissons Ratio (y) = 0.05780 0.26501
# Poissons Ratio (z) = 0.04169 0.33509
#
# Static dielectric constant tensor:
#      x y z
#    x 3.928250 0.000000 0.062010 
#    y 0.000000 4.548720 0.000000 
#    z 0.062010 0.000000 4.012060 
# 
# 
# High freq. dielectric constant tensor:
#      x y z
#    x 1.875790 0.000000 0.012660 
#    y 0.000000 1.895870 0.000000 
#    z 0.012660 0.000000 1.890410 
# 
# From -- ./inp_files/69437.got.cif
#   From: 2010.06.25/outbox.cif.g09.slc.cpg/sg15_35_cif.got.tgz:69437.got - 2010.06.28 07:06:18.
