data_PCOD8140658
_publ_section_title
;
Structure prediction by ZEFSAII (Michael W. Deem and Ramdas Pophale) SiO2 
 PCOD8140658
Probable space group: C 2/C
;
_chemical_formula_sum "Si O2"
_cell_formula_units_Z 52
_cell_length_a 19.234812
_cell_length_b 9.350558
_cell_length_c 21.674780
_cell_angle_alpha 90.000000
_cell_angle_beta 37.722249
_cell_angle_gamma 90.000000
_cell_volume 2385.140410
_symmetry_space_group_name_H-M "C 2/C"
_symmetry_group_IT_number 15
_symmetry_cell_setting 'monoclinic'
loop_
_space_group_symop_operation_xyz
x,y,z
-x,y,1/2-z
-x,-y,-z
x,-y,1/2+z
1/2+x,1/2+y,z
1/2-x,1/2+y,1/2-z
1/2-x,1/2-y,-z
1/2+x,1/2-y,1/2+z
loop_
_atom_site_type_symbol
_atom_site_label
_atom_site_fract_x
_atom_site_fract_y
_atom_site_fract_z
Si Si1 0.846848 0.424483 0.061755
Si Si2 0.341964 0.618299 0.560813
Si Si3 0.901381 0.653423 0.116784
Si Si4 0.019833 0.043754 0.150982
Si Si5 0.500000 0.720521 0.750000
Si Si6 0.314641 0.365051 0.868364
Si Si7 0.702150 0.158760 0.180847
O O1 0.831052 0.527618 0.132588
O O2 0.771722 0.500928 0.061634
O O3 0.805600 0.265414 0.099949
O O4 0.977157 0.413476 0.951570
O O5 0.404747 0.704013 0.571762
O O6 0.442332 0.553614 0.446971
O O7 0.257067 0.721552 0.584043
O O8 0.256998 0.497006 0.644216
O O9 0.847633 0.698459 0.218265
O O10 0.105997 0.145574 0.127851
O O11 0.892515 0.104236 0.252126
O O12 0.030016 0.881429 0.170282
O O13 0.393697 0.821229 0.805335
#
# Coordination Sequence:
#
# PCOD8140658 Si02
#       7
#     8   8   8   8   4   8   8
#     4  10  21  42  64  85 128 174 201 258 326 371
#     4  11  25  38  67 102 122 172 216 264 310 383
#     4  10  25  42  61  93 127 169 217 257 317 380
#     4  10  20  42  68  93 128 167 217 255 325 388
#     4  10  24  42  64  94 128 172 198 276 328 370
#     4   9  20  41  66  93 130 170 204 267 320 373
#     4  12  24  42  64  94 129 165 216 265 317 375
#
# _framework density 21.801652000000001
#
# number of rings (size 3 to 8) (size 9 to 14) (size 15 to 20)
#    0.000    1.846    3.077    1.385    2.154    9.846 
#    0.000    0.000    0.000    0.000    0.000    0.000 
#    0.000    0.000    0.000    0.000    0.000    0.000 
#
# Total GULP energy -322266.078236 kJ/mol
# GULP energy per Si atom -12394.849163 kJ/mol
# Density = 2.175203 g / cm^3
# Si number density = 21.801652 Si / 1000 Ang^3
#
#
#
# Elastic Constant Matrix: (Units=GPa)
#
#
# Indices 1 2 3 4 5 6 
#
# 1 50.6452 19.3902 28.5991 0.0000 -13.9692 0.0000
# 2 19.3902 104.4437 20.4858 -0.0002 -6.6550 0.0000
# 3 28.5991 20.4858 80.8983 -0.0001 3.3711 0.0000
# 4 0.0000 -0.0002 -0.0001 27.9278 0.0001 -13.8676
# 5 -13.9692 -6.6550 3.3711 0.0001 36.0237 0.0000
# 6 0.0000 0.0000 0.0000 -13.8676 0.0000 21.4452
#
#
#
# Elastic Compliance Matrix: (Units=1/GPa)
#
#
# Indices 1 2 3 4 5 6 
#
# 1 0.030026 -0.002759 -0.010421 0.000000 0.012109 0.000000
# 2 -0.002759 0.010490 -0.001724 0.000000 0.001030 0.000000
# 3 -0.010421 -0.001724 0.016729 0.000000 -0.005925 0.000000
# 4 0.000000 0.000000 0.000000 0.052742 0.000000 0.034106
# 5 0.012109 0.001030 -0.005925 0.000000 0.033200 0.000000
# 6 0.000000 0.000000 0.000000 0.034106 0.000000 0.068685
#
#
# Mechanical properties :
#
#
# Convention : Reuss Voigt Hill
#
# Bulk Modulus (GPa) = 36.44618 41.43748 38.94183
# Shear Modulus (GPa) = 19.93422 28.24681 24.09052
#
# Velocity S-wave (km/s) = 3.02709 3.60339 3.32774
# Velocity P-wave (km/s) = 5.38249 6.02996 5.71540
#
# Compressibility (1/GPa) = 0.02743771
#
# Stress axis : x y z
#
# Youngs Moduli (GPa) = 33.30460 95.32447 59.77797
#
# Poissons Ratio (x) = 0.26299 0.62293
# Poissons Ratio (y) = 0.09188 0.10306
# Poissons Ratio (z) = 0.34706 0.16435
#
# Static dielectric constant tensor:
#      x y z
#    x 4.030970 0.000000 -0.234230 
#    y 0.000000 3.872320 0.000000 
#    z -0.234230 0.000000 3.865500 
# 
# 
# High freq. dielectric constant tensor:
#      x y z
#    x 1.858120 0.000000 -0.022240 
#    y 0.000000 1.857170 0.000000 
#    z -0.022240 0.000000 1.847760 
# 
# From -- ./inp_files/279537.got.cif
#   From: 2010.06.25/outbox.cif.g09.slc.cpg/sg15_140_cif.got.tgz:279537.got - 2010.06.28 07:06:18.
