data_PCOD8140424
_publ_section_title
;
Structure prediction by ZEFSAII (Michael W. Deem and Ramdas Pophale) SiO2 
 PCOD8140424
Probable space group: C 2/C
;
_chemical_formula_sum "Si O2"
_cell_formula_units_Z 60
_cell_length_a 24.175549
_cell_length_b 8.685032
_cell_length_c 17.539972
_cell_angle_alpha 90.000000
_cell_angle_beta 49.241940
_cell_angle_gamma 90.000000
_cell_volume 2789.612674
_symmetry_space_group_name_H-M "C 2/C"
_symmetry_group_IT_number 15
_symmetry_cell_setting 'monoclinic'
loop_
_space_group_symop_operation_xyz
x,y,z
-x,y,1/2-z
-x,-y,-z
x,-y,1/2+z
1/2+x,1/2+y,z
1/2-x,1/2+y,1/2-z
1/2-x,1/2-y,-z
1/2+x,1/2-y,1/2+z
loop_
_atom_site_type_symbol
_atom_site_label
_atom_site_fract_x
_atom_site_fract_y
_atom_site_fract_z
Si Si1 0.895154 0.383614 0.476948
Si Si2 0.085095 0.420381 0.688103
Si Si3 0.733590 0.049126 0.837151
Si Si4 0.939199 0.325713 0.182243
Si Si5 0.885437 0.032528 0.466441
Si Si6 0.000000 0.111638 0.250000
Si Si7 0.189480 0.855186 0.086920
Si Si8 0.840342 0.151404 0.147583
O O1 0.881824 0.486413 0.413559
O O2 0.843766 0.458698 0.587719
O O3 0.980785 0.371453 0.423426
O O4 0.867115 0.209968 0.495650
O O5 0.099414 0.517620 0.753398
O O6 0.119524 0.251730 0.668763
O O7 0.000000 0.396731 0.750000
O O8 0.783741 0.043151 0.866842
O O9 0.714244 0.224796 0.838415
O O10 0.785908 0.979078 0.726369
O O11 0.944716 0.221949 0.253735
O O12 0.892526 0.234021 0.161999
O O13 0.821035 0.973230 0.472071
O O14 0.891469 0.930929 0.538111
O O15 0.959632 0.009157 0.350024
O O16 0.250000 0.750000 0.000000
#
# Coordination Sequence:
#
# PCOD8140424 Si02
#       8
#     8   8   8   8   8   4   8   8
#     4  10  21  43  73  96 133 173 233 281 338 401
#     4  10  20  41  68 101 128 176 229 289 333 398
#     4  12  27  46  66 103 140 187 227 276 348 411
#     4  10  21  43  71  99 133 178 230 282 343 410
#     4  11  23  43  67 102 136 176 224 291 338 404
#     4  10  20  42  72 100 128 170 240 286 336 406
#     4  12  24  42  68  98 138 174 236 283 327 410
#     4  12  27  44  66  98 147 182 226 281 351 412
#
# _framework density 21.508362000000002
#
# number of rings (size 3 to 8) (size 9 to 14) (size 15 to 20)
#    0.000    1.067    6.000    1.600    2.800    4.267 
#    0.000    1.333    0.000    0.000    0.000    0.000 
#    0.000    0.000    0.000    0.000    0.000    0.000 
#
# Total GULP energy -371822.423184 kJ/mol
# GULP energy per Si atom -12394.080773 kJ/mol
# Density = 2.145941 g / cm^3
# Si number density = 21.508362 Si / 1000 Ang^3
#
#
#
# Elastic Constant Matrix: (Units=GPa)
#
#
# Indices 1 2 3 4 5 6 
#
# 1 61.7420 12.5203 18.0487 0.0010 6.0143 -0.0006
# 2 12.5203 79.9298 33.4034 0.0028 -5.9297 -0.0013
# 3 18.0487 33.4034 128.0979 0.0010 -6.0155 -0.0010
# 4 0.0010 0.0028 0.0010 41.7158 0.0003 -0.7447
# 5 6.0143 -5.9297 -6.0155 0.0003 27.8067 -0.0004
# 6 -0.0006 -0.0013 -0.0010 -0.7447 -0.0004 38.7992
#
#
#
# Elastic Compliance Matrix: (Units=1/GPa)
#
#
# Indices 1 2 3 4 5 6 
#
# 1 0.017742 -0.002239 -0.002140 0.000000 -0.004778 0.000000
# 2 -0.002239 0.014461 -0.003322 -0.000001 0.002850 0.000000
# 3 -0.002140 -0.003322 0.009055 0.000000 0.001713 0.000000
# 4 0.000000 -0.000001 0.000000 0.023980 0.000000 0.000460
# 5 -0.004778 0.002850 0.001713 0.000000 0.037974 0.000000
# 6 0.000000 0.000000 0.000000 0.000460 0.000000 0.025783
#
#
# Mechanical properties :
#
#
# Convention : Reuss Voigt Hill
#
# Bulk Modulus (GPa) = 38.67647 44.19049 41.43348
# Shear Modulus (GPa) = 32.67659 35.38416 34.03037
#
# Velocity S-wave (km/s) = 3.90198 4.06043 3.98199
# Velocity P-wave (km/s) = 6.19046 6.52481 6.35983
#
# Compressibility (1/GPa) = 0.02585552
#
# Stress axis : x y z
#
# Youngs Moduli (GPa) = 56.36499 69.15018 110.43956
#
# Poissons Ratio (x) = 0.15483 0.23637
# Poissons Ratio (y) = 0.12621 0.36685
# Poissons Ratio (z) = 0.12063 0.22970
#
# Static dielectric constant tensor:
#      x y z
#    x 3.602890 0.000000 0.073940 
#    y 0.000000 2.868200 0.000000 
#    z 0.073940 0.000000 4.024320 
# 
# 
# High freq. dielectric constant tensor:
#      x y z
#    x 1.830000 0.000000 -0.004010 
#    y 0.000000 1.856720 0.000000 
#    z -0.004010 0.000000 1.849930 
# 
# From -- ./inp_files/221880.got.cif
#   From: 2010.06.25/outbox.cif.g09.slc.cpg/sg15_111_cif.got.tgz:221880.got - 2010.06.28 07:06:18.
