data_PCOD8140815
_publ_section_title
;
Structure prediction by ZEFSAII (Michael W. Deem and Ramdas Pophale) SiO2 
 PCOD8140815
Probable space group: C 2/C
;
_chemical_formula_sum "Si O2"
_cell_formula_units_Z 44
_cell_length_a 14.350844
_cell_length_b 11.864793
_cell_length_c 26.784362
_cell_angle_alpha 90.000000
_cell_angle_beta 27.981153
_cell_angle_gamma 90.000000
_cell_volume 2139.732204
_symmetry_space_group_name_H-M "C 2/C"
_symmetry_group_IT_number 15
_symmetry_cell_setting 'monoclinic'
loop_
_space_group_symop_operation_xyz
x,y,z
-x,y,1/2-z
-x,-y,-z
x,-y,1/2+z
1/2+x,1/2+y,z
1/2-x,1/2+y,1/2-z
1/2-x,1/2-y,-z
1/2+x,1/2-y,1/2+z
loop_
_atom_site_type_symbol
_atom_site_label
_atom_site_fract_x
_atom_site_fract_y
_atom_site_fract_z
Si Si1 0.011254 0.017460 0.075274
Si Si2 0.358832 0.104372 0.077839
Si Si3 0.769828 0.053374 0.782929
Si Si4 0.395943 0.675498 0.045479
Si Si5 0.680035 0.866714 0.010405
Si Si6 0.000000 0.209380 0.750000
O O1 0.943649 0.133074 0.079364
O O2 0.219045 0.034923 0.005327
O O3 0.843050 0.975061 0.192946
O O4 0.049664 0.922359 0.017399
O O5 0.235920 0.066721 0.184740
O O6 0.477816 0.217820 0.031981
O O7 0.230220 0.124617 0.088418
O O8 0.500000 0.000000 0.000000
O O9 0.557705 0.116744 0.878447
O O10 0.917486 0.134491 0.743493
O O11 0.166956 0.708584 0.149036
O O12 0.750000 0.750000 0.000000
#
# Coordination Sequence:
#
# PCOD8140815 Si02
#       6
#     8   8   8   8   8   4
#     4  11  26  45  65 104 136 176 226 281 339 407
#     4  10  20  44  64  93 132 172 220 272 328 399
#     4  11  25  41  70 101 130 178 232 269 338 400
#     4  11  25  44  69  95 142 175 221 282 344 395
#     4  11  21  43  69  95 135 175 220 281 330 400
#     4  12  22  44  70  98 134 184 220 282 330 408
#
# _framework density 20.563320999999998
#
# number of rings (size 3 to 8) (size 9 to 14) (size 15 to 20)
#    0.000    1.091    5.455    1.091    5.091    3.636 
#    0.000    0.000    0.000    0.000    0.000    0.000 
#    0.000    0.000    0.000    0.000    0.000    0.000 
#
# Total GULP energy -272706.502442 kJ/mol
# GULP energy per Si atom -12395.750111 kJ/mol
# Density = 2.051652 g / cm^3
# Si number density = 20.563321 Si / 1000 Ang^3
#
#
#
# Elastic Constant Matrix: (Units=GPa)
#
#
# Indices 1 2 3 4 5 6 
#
# 1 132.1625 48.8897 59.7807 -0.0003 -8.7651 0.0001
# 2 48.8897 114.6587 46.3843 0.0003 -4.8945 0.0003
# 3 59.7807 46.3843 106.8955 0.0043 6.3086 0.0026
# 4 -0.0003 0.0003 0.0043 35.2321 0.0008 -4.3124
# 5 -8.7651 -4.8945 6.3086 0.0008 34.5862 -0.0006
# 6 0.0001 0.0003 0.0026 -4.3124 -0.0006 28.7946
#
#
#
# Elastic Compliance Matrix: (Units=1/GPa)
#
#
# Indices 1 2 3 4 5 6 
#
# 1 0.011122 -0.002421 -0.005373 0.000001 0.003456 0.000001
# 2 -0.002421 0.011299 -0.003647 0.000000 0.001651 0.000000
# 3 -0.005373 -0.003647 0.014206 -0.000002 -0.004469 -0.000002
# 4 0.000001 0.000000 -0.000002 0.028913 0.000000 0.004330
# 5 0.003456 0.001651 -0.004469 0.000000 0.030838 0.000001
# 6 0.000001 0.000000 -0.000002 0.004330 0.000001 0.035377
#
#
# Mechanical properties :
#
#
# Convention : Reuss Voigt Hill
#
# Bulk Modulus (GPa) = 72.75067 73.75845 73.25456
# Shear Modulus (GPa) = 31.40333 32.96671 32.18502
#
# Velocity S-wave (km/s) = 3.91212 4.00832 3.96051
# Velocity P-wave (km/s) = 7.47408 7.57423 7.52432
#
# Compressibility (1/GPa) = 0.01374558
#
# Stress axis : x y z
#
# Youngs Moduli (GPa) = 89.91472 88.49952 70.39315
#
# Poissons Ratio (x) = 0.21426 0.37823
# Poissons Ratio (y) = 0.21768 0.25670
# Poissons Ratio (z) = 0.48313 0.32272
#
# Static dielectric constant tensor:
#      x y z
#    x 4.824100 0.000000 1.028300 
#    y 0.000000 3.834570 0.000020 
#    z 1.028300 0.000020 5.162980 
# 
# 
# High freq. dielectric constant tensor:
#      x y z
#    x 1.821670 0.000000 0.002630 
#    y 0.000000 1.816820 0.000000 
#    z 0.002630 0.000000 1.790780 
# 
# From -- ./inp_files/151742.got.cif
#   From: 2010.06.25/outbox.cif.g09.slc.cpg/sg15_76_cif.got.tgz:151742.got - 2010.06.28 07:06:18.
