data_PCOD8140449
_publ_section_title
;
Structure prediction by ZEFSAII (Michael W. Deem and Ramdas Pophale) SiO2 
 PCOD8140449
Probable space group: C 2/C
;
_chemical_formula_sum "Si O2"
_cell_formula_units_Z 48
_cell_length_a 21.515687
_cell_length_b 7.255094
_cell_length_c 21.205256
_cell_angle_alpha 90.000000
_cell_angle_beta 144.107398
_cell_angle_gamma 90.000000
_cell_volume 1940.607892
_symmetry_space_group_name_H-M "C 2/C"
_symmetry_group_IT_number 15
_symmetry_cell_setting 'monoclinic'
loop_
_space_group_symop_operation_xyz
x,y,z
-x,y,1/2-z
-x,-y,-z
x,-y,1/2+z
1/2+x,1/2+y,z
1/2-x,1/2+y,1/2-z
1/2-x,1/2-y,-z
1/2+x,1/2-y,1/2+z
loop_
_atom_site_type_symbol
_atom_site_label
_atom_site_fract_x
_atom_site_fract_y
_atom_site_fract_z
Si Si1 0.892464 0.028424 0.989520
Si Si2 0.452060 0.778666 0.623002
Si Si3 0.219706 0.478844 0.571513
Si Si4 0.320492 0.167187 0.213746
Si Si5 0.412871 0.838234 0.926257
Si Si6 0.600520 0.591811 0.367138
O O1 0.954055 0.134354 0.982599
O O2 0.768953 0.983948 0.873429
O O3 0.891513 0.156100 0.053278
O O4 0.955183 0.835053 0.057127
O O5 0.367152 0.940139 0.548149
O O6 0.567301 0.869772 0.730115
O O7 0.414193 0.633581 0.644795
O O8 0.283477 0.633452 0.661963
O O9 0.170909 0.354664 0.585513
O O10 0.297314 0.360100 0.590705
O O11 0.344865 0.161593 0.307804
O O12 0.500000 0.000000 0.000000
O O13 0.500000 0.684475 0.250000
#
# Coordination Sequence:
#
# PCOD8140449 Si02
#       6
#     8   8   8   8   8   8
#     4   9  24  42  65 101 135 174 228 283 345 404
#     4   9  20  38  65  98 128 171 229 278 341 406
#     4  11  21  40  68  91 136 176 226 286 343 408
#     4  11  21  43  64 101 131 182 223 285 339 412
#     4  12  25  44  64  95 141 184 235 279 340 409
#     4  10  20  41  69 100 131 174 229 286 349 408
#
# _framework density 24.734517
#
# number of rings (size 3 to 8) (size 9 to 14) (size 15 to 20)
#    1.000    0.667    3.333    1.500    0.000    1.333 
#   12.000    0.000    0.000    0.000    0.000    0.000 
#    0.000    0.000    0.000    0.000    0.000    0.000 
#
# Total GULP energy -297359.420918 kJ/mol
# GULP energy per Si atom -12389.975872 kJ/mol
# Density = 2.467822 g / cm^3
# Si number density = 24.734517 Si / 1000 Ang^3
#
#
#
# Elastic Constant Matrix: (Units=GPa)
#
#
# Indices 1 2 3 4 5 6 
#
# 1 43.3164 0.5068 13.1894 0.0000 -5.5256 0.0001
# 2 0.5068 40.5830 15.6538 0.0000 8.7212 0.0000
# 3 13.1894 15.6538 151.4584 0.0000 -5.6434 0.0000
# 4 0.0000 0.0000 0.0000 9.4369 0.0000 -5.7710
# 5 -5.5256 8.7212 -5.6434 0.0000 45.7888 0.0000
# 6 0.0001 0.0000 0.0000 -5.7710 0.0000 43.3731
#
#
#
# Elastic Compliance Matrix: (Units=1/GPa)
#
#
# Indices 1 2 3 4 5 6 
#
# 1 0.024032 -0.000111 -0.001982 0.000000 0.002677 0.000000
# 2 -0.000111 0.026980 -0.002984 0.000000 -0.005520 0.000000
# 3 -0.001982 -0.002984 0.007128 0.000000 0.001208 0.000000
# 4 0.000000 0.000000 0.000000 0.115353 0.000000 0.015348
# 5 0.002677 -0.005520 0.001208 0.000000 0.023363 0.000000
# 6 0.000000 0.000000 0.000000 0.015348 0.000000 0.025098
#
#
# Mechanical properties :
#
#
# Convention : Reuss Voigt Hill
#
# Bulk Modulus (GPa) = 20.83939 32.67310 26.75625
# Shear Modulus (GPa) = 20.15292 33.45361 26.80326
#
# Velocity S-wave (km/s) = 2.85751 3.68163 3.29544
# Velocity P-wave (km/s) = 4.39667 5.59560 5.03197
#
# Compressibility (1/GPa) = 0.04798605
#
# Stress axis : x y z
#
# Youngs Moduli (GPa) = 41.61107 37.06497 140.28210
#
# Poissons Ratio (x) = 0.00412 0.27798
# Poissons Ratio (y) = 0.00462 0.41867
# Poissons Ratio (z) = 0.08245 0.11062
#
# Static dielectric constant tensor:
#      x y z
#    x 4.419470 0.000000 -0.089810 
#    y 0.000000 4.138790 0.000000 
#    z -0.089810 0.000000 4.574190 
# 
# 
# High freq. dielectric constant tensor:
#      x y z
#    x 1.988190 0.000000 -0.006970 
#    y 0.000000 1.968690 0.000000 
#    z -0.006970 0.000000 1.996160 
# 
# From -- ./inp_files/252009.got.cif
#   From: 2010.06.25/outbox.cif.g09.slc.cpg/sg15_127_cif.got.tgz:252009.got - 2010.06.28 07:06:18.
