data_PCOD8140818
_publ_section_title
;
Structure prediction by ZEFSAII (Michael W. Deem and Ramdas Pophale) SiO2 
 PCOD8140818
Probable space group: C 2/C
;
_chemical_formula_sum "Si O2"
_cell_formula_units_Z 52
_cell_length_a 14.820017
_cell_length_b 9.635037
_cell_length_c 23.666072
_cell_angle_alpha 90.000000
_cell_angle_beta 129.324822
_cell_angle_gamma 90.000000
_cell_volume 2614.119866
_symmetry_space_group_name_H-M "C 2/C"
_symmetry_group_IT_number 15
_symmetry_cell_setting 'monoclinic'
loop_
_space_group_symop_operation_xyz
x,y,z
-x,y,1/2-z
-x,-y,-z
x,-y,1/2+z
1/2+x,1/2+y,z
1/2-x,1/2+y,1/2-z
1/2-x,1/2-y,-z
1/2+x,1/2-y,1/2+z
loop_
_atom_site_type_symbol
_atom_site_label
_atom_site_fract_x
_atom_site_fract_y
_atom_site_fract_z
Si Si1 0.738018 0.473509 0.996980
Si Si2 0.000000 0.883999 0.750000
Si Si3 0.841746 0.297639 0.327536
Si Si4 0.094653 0.614265 0.526205
Si Si5 0.475995 0.397995 0.042180
Si Si6 0.146016 0.002475 0.706163
Si Si7 0.098653 0.271744 0.384933
O O1 0.809412 0.548065 0.976403
O O2 0.659351 0.589136 0.994598
O O3 0.649832 0.354055 0.941699
O O4 0.821289 0.407435 0.078011
O O5 0.908594 0.781908 0.682235
O O6 0.929292 0.977609 0.766617
O O7 0.836080 0.332559 0.391412
O O8 0.755614 0.399914 0.260653
O O9 0.972870 0.316537 0.357820
O O10 0.803112 0.139914 0.299594
O O11 0.014403 0.737507 0.470137
O O12 0.000000 0.500000 0.500000
O O13 0.562600 0.424701 0.127993
O O14 0.500000 0.500000 0.000000
#
# Coordination Sequence:
#
# PCOD8140818 Si02
#       7
#     8   4   8   8   8   8   8
#     4  11  22  42  69  99 138 172 230 284 338 402
#     4  10  20  44  64  98 134 178 228 280 352 410
#     4  11  23  44  64 103 132 179 230 274 348 408
#     4  12  25  43  71 102 136 182 232 285 343 411
#     4  12  25  46  68 103 139 179 230 291 345 403
#     4  11  25  43  70  95 138 178 228 283 345 414
#     4  10  21  39  68  99 131 177 223 280 340 411
#
# _framework density 19.891971999999999
#
# number of rings (size 3 to 8) (size 9 to 14) (size 15 to 20)
#    0.000    0.923    6.154    1.385    4.308    2.462 
#    0.000    0.000    0.000    0.000    0.000    0.000 
#    0.000    0.000    0.000    0.000    0.000    0.000 
#
# Total GULP energy -322384.254790 kJ/mol
# GULP energy per Si atom -12399.394415 kJ/mol
# Density = 1.984670 g / cm^3
# Si number density = 19.891972 Si / 1000 Ang^3
#
#
#
# Elastic Constant Matrix: (Units=GPa)
#
#
# Indices 1 2 3 4 5 6 
#
# 1 124.7458 61.7832 56.4046 0.0000 2.0357 0.0000
# 2 61.7832 150.7852 76.2037 0.0000 10.4488 0.0000
# 3 56.4046 76.2037 157.5002 0.0000 1.9391 0.0000
# 4 0.0000 0.0000 0.0000 49.3151 0.0000 1.6169
# 5 2.0357 10.4488 1.9391 0.0000 30.0593 0.0000
# 6 0.0000 0.0000 0.0000 1.6169 0.0000 33.7848
#
#
#
# Elastic Compliance Matrix: (Units=1/GPa)
#
#
# Indices 1 2 3 4 5 6 
#
# 1 0.010636 -0.003267 -0.002235 0.000000 0.000560 0.000000
# 2 -0.003267 0.010020 -0.003641 0.000000 -0.003027 0.000000
# 3 -0.002235 -0.003641 0.008901 0.000000 0.000843 0.000000
# 4 0.000000 0.000000 0.000000 0.020310 0.000000 -0.000972
# 5 0.000560 -0.003027 0.000843 0.000000 0.034227 0.000000
# 6 0.000000 0.000000 0.000000 -0.000972 0.000000 0.029646
#
#
# Mechanical properties :
#
#
# Convention : Reuss Voigt Hill
#
# Bulk Modulus (GPa) = 88.72440 91.31269 90.01854
# Shear Modulus (GPa) = 36.82336 38.54115 37.68226
#
# Velocity S-wave (km/s) = 4.30719 4.40651 4.35713
# Velocity P-wave (km/s) = 8.33281 8.47901 8.40623
#
# Compressibility (1/GPa) = 0.01127086
#
# Stress axis : x y z
#
# Youngs Moduli (GPa) = 94.02081 99.79583 112.34894
#
# Poissons Ratio (x) = 0.32605 0.25111
# Poissons Ratio (y) = 0.30719 0.40905
# Poissons Ratio (z) = 0.21015 0.36334
#
# Static dielectric constant tensor:
#      x y z
#    x 3.509860 0.000000 -0.017490 
#    y 0.000000 3.786450 0.000000 
#    z -0.017490 0.000000 3.932990 
# 
# 
# High freq. dielectric constant tensor:
#      x y z
#    x 1.776400 0.000000 0.000770 
#    y 0.000000 1.782200 0.000000 
#    z 0.000770 0.000000 1.788950 
# 
# From -- ./inp_files/295276.got.cif
#   From: 2010.06.25/outbox.cif.g09.slc.cpg/sg15_148_cif.got.tgz:295276.got - 2010.06.28 07:06:18.
