data_PCOD8140312
_publ_section_title
;
Structure prediction by ZEFSAII (Michael W. Deem and Ramdas Pophale) SiO2 
 PCOD8140312
Probable space group: C 2/C
;
_chemical_formula_sum "Si O2"
_cell_formula_units_Z 60
_cell_length_a 21.270013
_cell_length_b 8.837898
_cell_length_c 19.248981
_cell_angle_alpha 90.000000
_cell_angle_beta 49.881691
_cell_angle_gamma 90.000000
_cell_volume 2767.097070
_symmetry_space_group_name_H-M "C 2/C"
_symmetry_group_IT_number 15
_symmetry_cell_setting 'monoclinic'
loop_
_space_group_symop_operation_xyz
x,y,z
-x,y,1/2-z
-x,-y,-z
x,-y,1/2+z
1/2+x,1/2+y,z
1/2-x,1/2+y,1/2-z
1/2-x,1/2-y,-z
1/2+x,1/2-y,1/2+z
loop_
_atom_site_type_symbol
_atom_site_label
_atom_site_fract_x
_atom_site_fract_y
_atom_site_fract_z
Si Si1 0.375092 0.982729 0.259293
Si Si2 0.939142 0.057628 0.881978
Si Si3 0.690843 0.496837 0.412864
Si Si4 0.064440 0.076080 0.903675
Si Si5 0.867369 0.785132 0.860822
Si Si6 0.190322 0.343532 0.963450
Si Si7 0.415332 0.071151 0.082206
Si Si8 0.000000 0.688201 0.250000
O O1 0.378661 0.978680 0.173323
O O2 0.447337 0.087826 0.235268
O O3 0.285453 0.050469 0.344913
O O4 0.391152 0.811287 0.275510
O O5 0.030972 0.043139 0.850305
O O6 0.936304 0.207747 0.837736
O O7 0.934068 0.907312 0.837962
O O8 0.865931 0.083344 0.990263
O O9 0.651537 0.503758 0.362467
O O10 0.686799 0.324523 0.437560
O O11 0.070659 0.255136 0.909162
O O12 0.000000 0.000000 0.000000
O O13 0.785554 0.886701 0.906344
O O14 0.854707 0.655862 0.929538
O O15 0.146537 0.452782 0.939103
O O16 0.500000 0.000000 0.000000
#
# Coordination Sequence:
#
# PCOD8140312 Si02
#       8
#     8   8   8   8   8   8   8   4
#     4  11  24  43  64  94 133 171 222 273 324 390
#     4  10  20  41  63  97 128 165 213 267 331 390
#     4   8  18  40  70  89 121 173 214 264 322 388
#     4   9  18  41  68  89 128 169 211 261 322 393
#     4   9  19  40  69  94 120 171 220 264 318 395
#     4   8  17  38  67  93 124 163 218 267 315 383
#     4  11  23  41  63  96 136 172 213 274 334 387
#     4  12  26  40  60  92 140 164 206 284 328 392
#
# _framework density 21.683374000000001
#
# number of rings (size 3 to 8) (size 9 to 14) (size 15 to 20)
#    0.000    2.400    1.333    1.600    1.867    1.067 
#    9.600    9.333    0.000    0.000    0.000    0.000 
#    0.000    0.000    0.000    0.000    0.000    0.000 
#
# Total GULP energy -371759.381560 kJ/mol
# GULP energy per Si atom -12391.979385 kJ/mol
# Density = 2.163402 g / cm^3
# Si number density = 21.683374 Si / 1000 Ang^3
#
#
#
# Elastic Constant Matrix: (Units=GPa)
#
#
# Indices 1 2 3 4 5 6 
#
# 1 143.2283 37.8271 43.2723 -0.0002 15.8249 0.0003
# 2 37.8271 62.3498 23.1440 -0.0008 -1.1049 0.0009
# 3 43.2723 23.1440 99.1471 0.0001 1.9476 -0.0002
# 4 -0.0002 -0.0008 0.0001 25.4968 0.0001 6.3512
# 5 15.8249 -1.1049 1.9476 0.0001 31.8135 -0.0002
# 6 0.0003 0.0009 -0.0002 6.3512 -0.0002 33.1414
#
#
#
# Elastic Compliance Matrix: (Units=1/GPa)
#
#
# Indices 1 2 3 4 5 6 
#
# 1 0.009705 -0.004857 -0.003007 0.000000 -0.004812 0.000000
# 2 -0.004857 0.020014 -0.002617 0.000001 0.003271 -0.000001
# 3 -0.003007 -0.002617 0.011996 0.000000 0.000671 0.000000
# 4 0.000000 0.000001 0.000000 0.041187 0.000000 -0.007893
# 5 -0.004812 0.003271 0.000671 0.000000 0.033899 0.000000
# 6 0.000000 -0.000001 0.000000 -0.007893 0.000000 0.031686
#
#
# Mechanical properties :
#
#
# Convention : Reuss Voigt Hill
#
# Bulk Modulus (GPa) = 48.18350 57.02358 52.60354
# Shear Modulus (GPa) = 28.34999 31.45580 29.90289
#
# Velocity S-wave (km/s) = 3.61979 3.81292 3.71761
# Velocity P-wave (km/s) = 6.30398 6.76313 6.53759
#
# Compressibility (1/GPa) = 0.02075399
#
# Stress axis : x y z
#
# Youngs Moduli (GPa) = 103.04169 49.96424 83.35989
#
# Poissons Ratio (x) = 0.24267 0.25069
# Poissons Ratio (y) = 0.50045 0.21811
# Poissons Ratio (z) = 0.30989 0.13073
#
# Static dielectric constant tensor:
#      x y z
#    x 5.001120 0.000000 0.286200 
#    y 0.000000 3.579910 0.000000 
#    z 0.286200 0.000000 4.020810 
# 
# 
# High freq. dielectric constant tensor:
#      x y z
#    x 1.877330 0.000000 0.012670 
#    y 0.000000 1.816790 0.000000 
#    z 0.012670 0.000000 1.838200 
# 
# From -- ./inp_files/214271.got.cif
#   From: 2010.06.25/outbox.cif.g09.slc.cpg/sg15_108_cif.got.tgz:214271.got - 2010.06.28 07:06:18.
