data_PCOD8140992
_publ_section_title
;
Structure prediction by ZEFSAII (Michael W. Deem and Ramdas Pophale) SiO2 
 PCOD8140992
Probable space group: C 2/C
;
_chemical_formula_sum "Si O2"
_cell_formula_units_Z 56
_cell_length_a 5.151591
_cell_length_b 19.966743
_cell_length_c 27.630160
_cell_angle_alpha 90.000000
_cell_angle_beta 72.074458
_cell_angle_gamma 90.000000
_cell_volume 2704.091000
_symmetry_space_group_name_H-M "C 2/C"
_symmetry_group_IT_number 15
_symmetry_cell_setting 'monoclinic'
loop_
_space_group_symop_operation_xyz
x,y,z
-x,y,1/2-z
-x,-y,-z
x,-y,1/2+z
1/2+x,1/2+y,z
1/2-x,1/2+y,1/2-z
1/2-x,1/2-y,-z
1/2+x,1/2-y,1/2+z
loop_
_atom_site_type_symbol
_atom_site_label
_atom_site_fract_x
_atom_site_fract_y
_atom_site_fract_z
Si Si1 0.808154 0.922803 0.556980
Si Si2 0.711650 0.163371 0.146847
Si Si3 0.102637 0.483287 0.372334
Si Si4 0.363326 0.404272 0.809277
Si Si5 0.754617 0.034230 0.960860
Si Si6 0.616313 0.696658 0.692000
Si Si7 0.614575 0.889352 0.192125
O O1 0.818914 0.853019 0.586032
O O2 0.523485 0.955721 0.589535
O O3 0.844399 0.910699 0.496552
O O4 0.028014 0.976452 0.561499
O O5 0.445694 0.121908 0.177705
O O6 0.641953 0.241802 0.153739
O O7 0.959733 0.144858 0.167804
O O8 0.353199 0.518358 0.329077
O O9 0.199295 0.432910 0.410640
O O10 0.891766 0.448346 0.347412
O O11 0.500000 0.406569 0.750000
O O12 0.500000 0.000000 0.000000
O O13 0.500000 0.722627 0.750000
O O14 0.420846 0.639087 0.680591
O O15 0.916768 0.668251 0.683466
O O16 0.500000 0.916445 0.250000
#
# Coordination Sequence:
#
# PCOD8140992 Si02
#       7
#     8   8   8   8   8   8   8
#     4   9  19  33  58  87 111 141 187 234 301 347
#     4  11  21  37  58  83 115 149 193 242 287 342
#     4  10  21  34  56  82 119 147 187 231 289 347
#     4  11  22  33  53  86 118 148 181 234 301 347
#     4   9  17  35  55  84 112 145 180 231 295 361
#     4  10  21  38  56  77 109 157 204 234 271 327
#     4  10  23  38  56  80 113 160 201 231 270 335
#
# _framework density 20.709361999999999
#
# number of rings (size 3 to 8) (size 9 to 14) (size 15 to 20)
#    0.000    2.000    1.429    2.143    2.000    5.143 
#    0.000    0.000    0.000    1.714    0.000    0.000 
#    0.000    0.000    0.000    0.000    0.000    0.000 
#
# Total GULP energy -346882.877757 kJ/mol
# GULP energy per Si atom -12388.674206 kJ/mol
# Density = 2.066223 g / cm^3
# Si number density = 20.709362 Si / 1000 Ang^3
#
#
#
# Elastic Constant Matrix: (Units=GPa)
#
#
# Indices 1 2 3 4 5 6 
#
# 1 63.3450 -7.7375 14.1993 0.0000 14.1448 0.0000
# 2 -7.7375 45.1825 26.4804 0.0000 15.9248 0.0000
# 3 14.1993 26.4804 76.5987 0.0000 35.1000 0.0000
# 4 0.0000 0.0000 0.0000 24.0967 0.0000 5.2560
# 5 14.1448 15.9248 35.1000 0.0000 37.9050 0.0000
# 6 0.0000 0.0000 0.0000 5.2560 0.0000 25.4367
#
#
#
# Elastic Compliance Matrix: (Units=1/GPa)
#
#
# Indices 1 2 3 4 5 6 
#
# 1 0.019041 0.007522 -0.002477 0.000000 -0.007972 0.000000
# 2 0.007522 0.031245 -0.008502 0.000000 -0.008061 0.000000
# 3 -0.002477 -0.008502 0.025002 0.000000 -0.018655 0.000000
# 4 0.000000 0.000000 0.000000 0.043458 0.000000 -0.008980
# 5 -0.007972 -0.008061 -0.018655 0.000000 0.050018 0.000000
# 6 0.000000 0.000000 0.000000 -0.008980 0.000000 0.041169
#
#
# Mechanical properties :
#
#
# Convention : Reuss Voigt Hill
#
# Bulk Modulus (GPa) = 14.62562 27.89008 21.25785
# Shear Modulus (GPa) = 20.86486 27.63328 24.24907
#
# Velocity S-wave (km/s) = 3.17757 3.65682 3.42559
# Velocity P-wave (km/s) = 4.53214 5.59700 5.09248
#
# Compressibility (1/GPa) = 0.06837315
#
# Stress axis : x y z
#
# Youngs Moduli (GPa) = 52.51898 32.00557 39.99677
#
# Poissons Ratio (x) = -0.24075 0.09908
# Poissons Ratio (y) = -0.39506 0.34006
# Poissons Ratio (z) = 0.13010 0.27211
#
# Static dielectric constant tensor:
#      x y z
#    x 3.941860 0.000000 0.481290 
#    y 0.000000 3.322810 0.000000 
#    z 0.481290 0.000000 4.376000 
# 
# 
# High freq. dielectric constant tensor:
#      x y z
#    x 1.827860 0.000000 0.008380 
#    y 0.000000 1.756840 0.000000 
#    z 0.008380 0.000000 1.821640 
# 
# From -- ./inp_files/261181.got.cif
#   From: 2010.06.25/outbox.cif.g09.slc.cpg/sg15_131_cif.got.tgz:261181.got - 2010.06.28 07:06:18.
