data_PCOD8140844
_publ_section_title
;
Structure prediction by ZEFSAII (Michael W. Deem and Ramdas Pophale) SiO2 
 PCOD8140844
Probable space group: C 2/C
;
_chemical_formula_sum "Si O2"
_cell_formula_units_Z 56
_cell_length_a 13.750538
_cell_length_b 20.508782
_cell_length_c 16.664264
_cell_angle_alpha 90.000000
_cell_angle_beta 146.203979
_cell_angle_gamma 90.000000
_cell_volume 2614.004177
_symmetry_space_group_name_H-M "C 2/C"
_symmetry_group_IT_number 15
_symmetry_cell_setting 'monoclinic'
loop_
_space_group_symop_operation_xyz
x,y,z
-x,y,1/2-z
-x,-y,-z
x,-y,1/2+z
1/2+x,1/2+y,z
1/2-x,1/2+y,1/2-z
1/2-x,1/2-y,-z
1/2+x,1/2-y,1/2+z
loop_
_atom_site_type_symbol
_atom_site_label
_atom_site_fract_x
_atom_site_fract_y
_atom_site_fract_z
Si Si1 0.801038 0.288770 0.955612
Si Si2 0.824477 0.432113 0.178024
Si Si3 0.528971 0.708090 0.863118
Si Si4 0.802800 0.302601 0.256360
Si Si5 0.381461 0.150485 0.091529
Si Si6 0.827667 0.070080 0.086778
Si Si7 0.980271 0.479312 0.578386
O O1 0.006057 0.291216 0.076304
O O2 0.750000 0.250000 0.000000
O O3 0.714732 0.254370 0.820700
O O4 0.724374 0.360803 0.911583
O O5 0.784646 0.373841 0.209154
O O6 0.000000 0.413910 0.250000
O O7 0.853683 0.497657 0.252116
O O8 0.660530 0.432666 0.002880
O O9 0.500000 0.709215 0.750000
O O10 0.343930 0.695859 0.776744
O O11 0.590269 0.780113 0.932775
O O12 0.677662 0.652554 0.982534
O O13 0.500000 0.137456 0.250000
O O14 0.435196 0.096725 0.061448
O O15 0.000000 0.046093 0.250000
O O16 0.685572 0.016353 0.004300
O O17 0.000000 0.500000 0.500000
#
# Coordination Sequence:
#
# PCOD8140844 Si02
#       7
#     8   8   8   8   8   8   8
#     4  12  23  40  67 104 143 178 225 287 359 428
#     4  10  20  44  68  93 137 179 221 283 355 423
#     4  10  26  43  71 103 139 177 239 298 350 420
#     4  12  24  39  69 103 138 185 229 289 360 429
#     4  10  23  48  69  94 138 182 230 292 353 406
#     4  11  23  43  65  98 137 176 224 283 350 433
#     4  11  25  44  73  95 130 186 239 289 357 430
#
# _framework density 21.423072999999999
#
# number of rings (size 3 to 8) (size 9 to 14) (size 15 to 20)
#    0.000    1.143    4.286    2.571   10.000    0.571 
#    2.571    0.714    0.000    0.000    0.000    0.000 
#    0.000    0.000    0.000    0.000    0.000    0.000 
#
# Total GULP energy -346976.259277 kJ/mol
# GULP energy per Si atom -12392.009260 kJ/mol
# Density = 2.137431 g / cm^3
# Si number density = 21.423073 Si / 1000 Ang^3
#
#
#
# Elastic Constant Matrix: (Units=GPa)
#
#
# Indices 1 2 3 4 5 6 
#
# 1 102.5255 28.6059 5.7513 0.0000 -0.1085 0.0007
# 2 28.6059 112.7779 25.6016 0.0005 -11.9252 0.0007
# 3 5.7513 25.6016 86.0386 -0.0028 -5.1692 0.0024
# 4 0.0000 0.0005 -0.0028 25.6472 0.0035 -5.1981
# 5 -0.1085 -11.9252 -5.1692 0.0035 25.7538 0.0029
# 6 0.0007 0.0007 0.0024 -5.1981 0.0029 24.2163
#
#
#
# Elastic Compliance Matrix: (Units=1/GPa)
#
#
# Indices 1 2 3 4 5 6 
#
# 1 0.010535 -0.002818 0.000059 0.000000 -0.001248 0.000000
# 2 -0.002818 0.010662 -0.002721 -0.000001 0.004379 -0.000001
# 3 0.000059 -0.002721 0.012504 0.000001 0.001250 -0.000001
# 4 0.000000 -0.000001 0.000001 0.040764 -0.000007 0.008750
# 5 -0.001248 0.004379 0.001250 -0.000007 0.041103 -0.000007
# 6 0.000000 -0.000001 -0.000001 0.008750 -0.000007 0.043173
#
#
# Mechanical properties :
#
#
# Convention : Reuss Voigt Hill
#
# Bulk Modulus (GPa) = 43.97206 46.80663 45.38935
# Shear Modulus (GPa) = 28.20387 31.21568 29.70978
#
# Velocity S-wave (km/s) = 3.63232 3.82135 3.72803
# Velocity P-wave (km/s) = 6.17752 6.43167 6.30588
#
# Compressibility (1/GPa) = 0.02274171
#
# Stress axis : x y z
#
# Youngs Moduli (GPa) = 94.91991 93.78673 79.97720
#
# Poissons Ratio (x) = 0.26426 -0.00473
# Poissons Ratio (y) = 0.26745 0.21764
# Poissons Ratio (z) = -0.00562 0.25522
#
# Static dielectric constant tensor:
#      x y z
#    x 4.185080 -0.000010 0.136370 
#    y -0.000010 4.175990 -0.000010 
#    z 0.136370 -0.000010 4.678310 
# 
# 
# High freq. dielectric constant tensor:
#      x y z
#    x 1.831140 0.000000 -0.009970 
#    y 0.000000 1.841740 0.000000 
#    z -0.009970 0.000000 1.851210 
# 
# From -- ./inp_files/206984.got.cif
#   From: 2010.06.25/outbox.cif.g09.slc.cpg/sg15_104_cif.got.tgz:206984.got - 2010.06.28 07:06:18.
