data_PCOD8140376
_publ_section_title
;
Structure prediction by ZEFSAII (Michael W. Deem and Ramdas Pophale) SiO2 
 PCOD8140376
Probable space group: C 2/C
;
_chemical_formula_sum "Si O2"
_cell_formula_units_Z 48
_cell_length_a 14.973547
_cell_length_b 12.379201
_cell_length_c 12.950269
_cell_angle_alpha 90.000000
_cell_angle_beta 111.075489
_cell_angle_gamma 90.000000
_cell_volume 2239.895481
_symmetry_space_group_name_H-M "C 2/C"
_symmetry_group_IT_number 15
_symmetry_cell_setting 'monoclinic'
loop_
_space_group_symop_operation_xyz
x,y,z
-x,y,1/2-z
-x,-y,-z
x,-y,1/2+z
1/2+x,1/2+y,z
1/2-x,1/2+y,1/2-z
1/2-x,1/2-y,-z
1/2+x,1/2-y,1/2+z
loop_
_atom_site_type_symbol
_atom_site_label
_atom_site_fract_x
_atom_site_fract_y
_atom_site_fract_z
Si Si1 0.204593 0.099411 0.191798
Si Si2 0.546746 0.120767 0.871443
Si Si3 0.441063 0.753558 0.490981
Si Si4 0.825684 0.817649 0.595264
Si Si5 0.913013 0.923117 0.447897
Si Si6 0.899074 0.597967 0.151091
O O1 0.133436 0.178072 0.100394
O O2 0.212403 0.132591 0.314584
O O3 0.311954 0.105112 0.195138
O O4 0.161995 0.976484 0.164570
O O5 0.500000 0.071133 0.750000
O O6 0.473994 0.145476 0.933725
O O7 0.591906 0.231641 0.848766
O O8 0.612038 0.014531 0.921681
O O9 0.539989 0.691412 0.566472
O O10 0.387960 0.802000 0.567622
O O11 0.750000 0.750000 0.500000
O O12 0.861631 0.914369 0.537761
O O13 0.000000 0.000000 0.500000
O O14 0.000000 0.615317 0.250000
#
# Coordination Sequence:
#
# PCOD8140376 Si02
#       6
#     8   8   8   8   8   8
#     4  11  23  45  65  97 133 172 222 275 329 394
#     4  10  20  41  66  91 125 170 216 262 327 397
#     4  10  21  43  69  92 131 175 223 273 330 391
#     4  11  23  41  68  96 128 173 220 264 325 402
#     4   9  22  42  67  97 127 167 223 271 329 389
#     4  11  25  41  60 100 134 173 219 275 335 384
#
# _framework density 21.429570999999999
#
# number of rings (size 3 to 8) (size 9 to 14) (size 15 to 20)
#    0.000    1.667    1.667    2.000    4.667    0.000 
#   12.000    0.000    0.000    0.000    0.000    0.000 
#    0.000    0.000    0.000    0.000    0.000    0.000 
#
# Total GULP energy -297324.632137 kJ/mol
# GULP energy per Si atom -12388.526339 kJ/mol
# Density = 2.138080 g / cm^3
# Si number density = 21.429571 Si / 1000 Ang^3
#
#
#
# Elastic Constant Matrix: (Units=GPa)
#
#
# Indices 1 2 3 4 5 6 
#
# 1 152.1269 46.0303 56.3448 0.0000 -13.4896 0.0000
# 2 46.0303 98.3808 54.3697 0.0000 -15.1078 0.0000
# 3 56.3448 54.3697 103.8721 0.0000 -8.3873 0.0000
# 4 0.0000 0.0000 0.0000 36.4942 0.0000 -7.3355
# 5 -13.4896 -15.1078 -8.3873 0.0000 28.7219 0.0000
# 6 0.0000 0.0000 0.0000 -7.3355 0.0000 28.9623
#
#
#
# Elastic Compliance Matrix: (Units=1/GPa)
#
#
# Indices 1 2 3 4 5 6 
#
# 1 0.008613 -0.001717 -0.003605 0.000000 0.002090 0.000000
# 2 -0.001717 0.015534 -0.006764 0.000000 0.005389 0.000000
# 3 -0.003605 -0.006764 0.015054 0.000000 -0.000855 0.000000
# 4 0.000000 0.000000 0.000000 0.028871 0.000000 0.007313
# 5 0.002090 0.005389 -0.000855 0.000000 0.038383 0.000000
# 6 0.000000 0.000000 0.000000 0.007313 0.000000 0.036380
#
#
# Mechanical properties :
#
#
# Convention : Reuss Voigt Hill
#
# Bulk Modulus (GPa) = 66.53725 74.20769 70.37247
# Shear Modulus (GPa) = 29.06678 32.01136 30.53907
#
# Velocity S-wave (km/s) = 3.68691 3.86916 3.77913
# Velocity P-wave (km/s) = 7.01720 7.39353 7.20782
#
# Compressibility (1/GPa) = 0.01502918
#
# Stress axis : x y z
#
# Youngs Moduli (GPa) = 116.09771 64.37592 66.42623
#
# Poissons Ratio (x) = 0.11053 0.23946
# Poissons Ratio (y) = 0.19933 0.44933
# Poissons Ratio (z) = 0.41852 0.43546
#
# Static dielectric constant tensor:
#      x y z
#    x 4.022930 0.000000 0.104680 
#    y 0.000000 5.414530 0.000000 
#    z 0.104680 0.000000 3.696470 
# 
# 
# High freq. dielectric constant tensor:
#      x y z
#    x 1.847730 0.000000 -0.002120 
#    y 0.000000 1.856620 0.000000 
#    z -0.002120 0.000000 1.821550 
# 
# From -- ./inp_files/96531.got.cif
#   From: 2010.06.25/outbox.cif.g09.slc.cpg/sg15_49_cif.got.tgz:96531.got - 2010.06.28 07:06:18.
