data_PCOD8140058
_publ_section_title
;
Structure prediction by ZEFSAII (Michael W. Deem and Ramdas Pophale) SiO2 
 PCOD8140058
Probable space group: C 2/C
;
_chemical_formula_sum "Si O2"
_cell_formula_units_Z 56
_cell_length_a 9.444528
_cell_length_b 11.604278
_cell_length_c 19.289775
_cell_angle_alpha 90.000000
_cell_angle_beta 100.291341
_cell_angle_gamma 90.000000
_cell_volume 2080.088552
_symmetry_space_group_name_H-M "C 2/C"
_symmetry_group_IT_number 15
_symmetry_cell_setting 'monoclinic'
loop_
_space_group_symop_operation_xyz
x,y,z
-x,y,1/2-z
-x,-y,-z
x,-y,1/2+z
1/2+x,1/2+y,z
1/2-x,1/2+y,1/2-z
1/2-x,1/2-y,-z
1/2+x,1/2-y,1/2+z
loop_
_atom_site_type_symbol
_atom_site_label
_atom_site_fract_x
_atom_site_fract_y
_atom_site_fract_z
Si Si1 0.936295 0.701642 0.610793
Si Si2 0.129414 0.176262 0.648496
Si Si3 0.340566 0.121324 0.246746
Si Si4 0.723634 0.384437 0.489766
Si Si5 0.532014 0.850138 0.539165
Si Si6 0.804005 0.530662 0.862235
Si Si7 0.105362 0.922379 0.623703
O O1 0.794617 0.664902 0.638419
O O2 0.900326 0.687706 0.527160
O O3 0.073339 0.624209 0.643724
O O4 0.975446 0.835563 0.630489
O O5 0.136903 0.250129 0.719861
O O6 0.016650 0.230174 0.582092
O O7 0.073593 0.046111 0.655085
O O8 0.500000 0.069274 0.250000
O O9 0.251133 0.026588 0.285433
O O10 0.254176 0.132012 0.167204
O O11 0.750000 0.250000 0.500000
O O12 0.683374 0.419709 0.406290
O O13 0.620679 0.433134 0.540747
O O14 0.888877 0.429188 0.516480
O O15 0.643317 0.916078 0.595444
#
# Coordination Sequence:
#
# PCOD8140058 Si02
#       7
#     8   8   8   8   8   8   8
#     4  11  22  41  69 104 139 180 235 289 361 429
#     4  11  25  44  65  97 144 185 230 297 358 441
#     4  11  26  49  69  95 134 189 242 298 358 429
#     4  11  20  40  68 104 138 175 231 292 345 421
#     4  10  20  40  65  99 137 180 225 283 351 417
#     4  10  21  42  73  99 133 184 236 289 346 421
#     4  12  25  43  72 106 140 187 239 294 364 435
#
# _framework density 26.921931000000001
#
# number of rings (size 3 to 8) (size 9 to 14) (size 15 to 20)
#    0.000    1.143    2.857    6.429    2.000    2.286 
#    7.714    0.000    0.000    0.000    0.000    0.000 
#    0.000    0.000    0.000    0.000    0.000    0.000 
#
# Total GULP energy -346988.957791 kJ/mol
# GULP energy per Si atom -12392.462778 kJ/mol
# Density = 2.686066 g / cm^3
# Si number density = 26.921931 Si / 1000 Ang^3
#
#
#
# Elastic Constant Matrix: (Units=GPa)
#
#
# Indices 1 2 3 4 5 6 
#
# 1 40.6421 -6.7719 13.6247 0.0000 2.6058 0.0000
# 2 -6.7719 145.2150 25.4467 0.0000 -14.3674 0.0000
# 3 13.6247 25.4467 77.5040 0.0000 -17.7492 0.0000
# 4 0.0000 0.0000 0.0000 33.7475 0.0000 -15.1231
# 5 2.6058 -14.3674 -17.7492 0.0000 17.4194 0.0000
# 6 0.0000 0.0000 0.0000 -15.1231 0.0000 13.2486
#
#
#
# Elastic Compliance Matrix: (Units=1/GPa)
#
#
# Indices 1 2 3 4 5 6 
#
# 1 0.028285 0.001632 -0.008047 0.000000 -0.011084 0.000000
# 2 0.001632 0.007705 -0.001849 0.000000 0.004227 0.000000
# 3 -0.008047 -0.001849 0.019371 0.000000 0.019416 0.000000
# 4 0.000000 0.000000 0.000000 0.060663 0.000000 0.069246
# 5 -0.011084 0.004227 0.019416 0.000000 0.082335 0.000000
# 6 0.000000 0.000000 0.000000 0.069246 0.000000 0.154523
#
#
# Mechanical properties :
#
#
# Convention : Reuss Voigt Hill
#
# Bulk Modulus (GPa) = 25.75006 36.44003 31.09504
# Shear Modulus (GPa) = 13.07697 28.28722 20.68210
#
# Velocity S-wave (km/s) = 2.20633 3.24499 2.77469
# Velocity P-wave (km/s) = 4.00949 5.25402 4.67337
#
# Compressibility (1/GPa) = 0.03883487
#
# Stress axis : x y z
#
# Youngs Moduli (GPa) = 35.35417 129.79237 51.62465
#
# Poissons Ratio (x) = -0.21188 0.41540
# Poissons Ratio (y) = -0.05771 0.09543
# Poissons Ratio (z) = 0.28448 0.23994
#
# Static dielectric constant tensor:
#      x y z
#    x 3.170290 0.000000 0.177760 
#    y 0.000000 5.107700 0.000000 
#    z 0.177760 0.000000 5.294180 
# 
# 
# High freq. dielectric constant tensor:
#      x y z
#    x 2.063720 0.000000 0.003380 
#    y 0.000000 2.101680 0.000000 
#    z 0.003380 0.000000 2.077000 
# 
# From -- ./inp_files/237110.got.cif
#   From: 2010.06.25/outbox.cif.g09.slc.cpg/sg15_119_cif.got.tgz:237110.got - 2010.06.28 07:06:18.
