data_PCOD8140333
_publ_section_title
;
Structure prediction by ZEFSAII (Michael W. Deem and Ramdas Pophale) SiO2 
 PCOD8140333
Probable space group: C 2/C
;
_chemical_formula_sum "Si O2"
_cell_formula_units_Z 48
_cell_length_a 32.726167
_cell_length_b 15.778758
_cell_length_c 16.851940
_cell_angle_alpha 90.000000
_cell_angle_beta 16.352823
_cell_angle_gamma 90.000000
_cell_volume 2450.054007
_symmetry_space_group_name_H-M "C 2/C"
_symmetry_group_IT_number 15
_symmetry_cell_setting 'monoclinic'
loop_
_space_group_symop_operation_xyz
x,y,z
-x,y,1/2-z
-x,-y,-z
x,-y,1/2+z
1/2+x,1/2+y,z
1/2-x,1/2+y,1/2-z
1/2-x,1/2-y,-z
1/2+x,1/2-y,1/2+z
loop_
_atom_site_type_symbol
_atom_site_label
_atom_site_fract_x
_atom_site_fract_y
_atom_site_fract_z
Si Si1 0.832879 0.389844 0.543229
Si Si2 0.337046 0.275960 0.760409
Si Si3 0.428204 0.415588 0.168315
Si Si4 0.643850 0.530931 0.526292
Si Si5 0.643836 0.088802 0.792333
Si Si6 0.159257 0.509924 0.109879
O O1 0.762939 0.315054 0.621872
O O2 0.744193 0.404259 0.789336
O O3 0.816763 0.476607 0.523448
O O4 0.000000 0.367045 0.250000
O O5 0.473097 0.334003 0.533462
O O6 0.392560 0.186301 0.622841
O O7 0.250000 0.250000 0.000000
O O8 0.405767 0.417493 0.304107
O O9 0.269339 0.411800 0.422448
O O10 0.500000 0.500000 0.000000
O O11 0.726755 0.444292 0.392963
O O12 0.500000 0.501560 0.750000
O O13 0.687997 0.067873 0.618444
O O14 0.504721 0.036313 0.076292
#
# Coordination Sequence:
#
# PCOD8140333 Si02
#       6
#     8   8   8   8   8   8
#     4  12  23  41  67  95 132 177 218 273 341 393
#     4  12  23  40  65  98 132 167 226 286 326 391
#     4  11  21  39  67  95 127 178 221 263 329 407
#     4  11  21  39  66  93 128 179 220 266 335 397
#     4  10  22  38  65  95 129 168 224 273 319 397
#     4  10  20  41  64  90 127 180 220 258 333 409
#
# _framework density 19.591405000000002
#
# number of rings (size 3 to 8) (size 9 to 14) (size 15 to 20)
#    0.000    1.000    6.667    1.000    0.000    1.333 
#    0.000    3.333    0.000    0.000    0.000    0.000 
#    0.000    0.000    0.000    0.000    0.000    0.000 
#
# Total GULP energy -297569.168259 kJ/mol
# GULP energy per Si atom -12398.715344 kJ/mol
# Density = 1.954681 g / cm^3
# Si number density = 19.591405 Si / 1000 Ang^3
#
#
#
# Elastic Constant Matrix: (Units=GPa)
#
#
# Indices 1 2 3 4 5 6 
#
# 1 95.7968 34.6914 45.3313 -0.0002 0.0640 0.0002
# 2 34.6914 116.8242 38.8959 0.0002 -3.5300 -0.0002
# 3 45.3313 38.8959 109.7015 -0.0001 -0.9813 -0.0001
# 4 -0.0002 0.0002 -0.0001 30.5439 0.0000 -3.0381
# 5 0.0640 -3.5300 -0.9813 0.0000 52.4819 0.0001
# 6 0.0002 -0.0002 -0.0001 -3.0381 0.0001 26.4641
#
#
#
# Elastic Compliance Matrix: (Units=1/GPa)
#
#
# Indices 1 2 3 4 5 6 
#
# 1 0.013572 -0.002461 -0.004738 0.000000 -0.000271 0.000000
# 2 -0.002461 0.010170 -0.002583 0.000000 0.000639 0.000000
# 3 -0.004738 -0.002583 0.011990 0.000000 0.000056 0.000000
# 4 0.000000 0.000000 0.000000 0.033118 0.000000 0.003802
# 5 -0.000271 0.000639 0.000056 0.000000 0.019099 0.000000
# 6 0.000000 0.000000 0.000000 0.003802 0.000000 0.038223
#
#
# Mechanical properties :
#
#
# Convention : Reuss Voigt Hill
#
# Bulk Modulus (GPa) = 61.85278 62.23996 62.04637
# Shear Modulus (GPa) = 33.08487 35.45824 34.27156
#
# Velocity S-wave (km/s) = 4.11389 4.25889 4.18702
# Velocity P-wave (km/s) = 7.36243 7.48480 7.42387
#
# Compressibility (1/GPa) = 0.01616742
#
# Stress axis : x y z
#
# Youngs Moduli (GPa) = 73.67946 98.32800 83.40250
#
# Poissons Ratio (x) = 0.24198 0.39518
# Poissons Ratio (y) = 0.18132 0.21545
# Poissons Ratio (z) = 0.34911 0.25401
#
# Static dielectric constant tensor:
#      x y z
#    x 3.740220 0.000000 -0.068200 
#    y 0.000000 3.604800 0.000000 
#    z -0.068200 0.000000 3.872260 
# 
# 
# High freq. dielectric constant tensor:
#      x y z
#    x 1.768490 0.000000 -0.003740 
#    y 0.000000 1.734540 0.000000 
#    z -0.003740 0.000000 1.786070 
# 
# From -- ./inp_files/182436.got.cif
#   From: 2010.06.25/outbox.cif.g09.slc.cpg/sg15_92_cif.got.tgz:182436.got - 2010.06.28 07:06:18.
