data_PCOD8140750
_publ_section_title
;
Structure prediction by ZEFSAII (Michael W. Deem and Ramdas Pophale) SiO2 
 PCOD8140750
Probable space group: C 2/C
;
_chemical_formula_sum "Si O2"
_cell_formula_units_Z 56
_cell_length_a 6.527399
_cell_length_b 14.480856
_cell_length_c 26.922216
_cell_angle_alpha 90.000000
_cell_angle_beta 90.124432
_cell_angle_gamma 90.000000
_cell_volume 2544.744449
_symmetry_space_group_name_H-M "C 2/C"
_symmetry_group_IT_number 15
_symmetry_cell_setting 'monoclinic'
loop_
_space_group_symop_operation_xyz
x,y,z
-x,y,1/2-z
-x,-y,-z
x,-y,1/2+z
1/2+x,1/2+y,z
1/2-x,1/2+y,1/2-z
1/2-x,1/2-y,-z
1/2+x,1/2-y,1/2+z
loop_
_atom_site_type_symbol
_atom_site_label
_atom_site_fract_x
_atom_site_fract_y
_atom_site_fract_z
Si Si1 0.754887 0.554347 0.635525
Si Si2 0.109447 0.330196 0.559384
Si Si3 0.587923 0.422420 0.869748
Si Si4 0.017627 0.795665 0.192504
Si Si5 0.225352 0.232450 0.117449
Si Si6 0.582500 0.832714 0.448000
Si Si7 0.449279 0.923029 0.805292
O O1 0.541672 0.512245 0.616628
O O2 0.704435 0.645204 0.669052
O O3 0.884436 0.579361 0.587084
O O4 0.876600 0.474772 0.663876
O O5 0.265770 0.402899 0.583464
O O6 0.214121 0.229882 0.556221
O O7 0.048249 0.364990 0.504488
O O8 0.911765 0.326327 0.594400
O O9 0.441214 0.335168 0.857240
O O10 0.720297 0.451930 0.821316
O O11 0.057304 0.686893 0.187236
O O12 0.000000 0.825994 0.250000
O O13 0.806789 0.805361 0.159743
O O14 0.123352 0.283692 0.070865
O O15 0.500000 0.952448 0.750000
#
# Coordination Sequence:
#
# PCOD8140750 Si02
#       7
#     8   8   8   8   8   8   8
#     4  12  25  43  68 101 135 177 224 284 339 412
#     4  10  20  43  65 100 136 179 231 276 343 409
#     4  11  23  42  69  95 138 175 219 288 337 407
#     4  11  24  45  69 101 135 178 230 276 345 413
#     4  11  20  45  69  96 136 178 228 283 337 405
#     4  10  23  37  70 100 135 183 225 282 342 404
#     4  11  26  48  68  99 138 181 228 286 347 406
#
# _framework density 22.006138
#
# number of rings (size 3 to 8) (size 9 to 14) (size 15 to 20)
#    0.000    1.143    4.286    1.286    4.000    0.571 
#    0.000    4.286    0.000    0.000    0.000    0.000 
#    0.000    0.000    0.000    0.000    0.000    0.000 
#
# Total GULP energy -347112.636249 kJ/mol
# GULP energy per Si atom -12396.879866 kJ/mol
# Density = 2.195605 g / cm^3
# Si number density = 22.006138 Si / 1000 Ang^3
#
#
#
# Elastic Constant Matrix: (Units=GPa)
#
#
# Indices 1 2 3 4 5 6 
#
# 1 109.7101 25.7310 56.9798 0.0000 5.8784 0.0000
# 2 25.7310 69.0463 33.8770 0.0000 5.7536 0.0000
# 3 56.9798 33.8770 168.5586 0.0000 -1.3872 0.0000
# 4 0.0000 0.0000 0.0000 7.7536 0.0000 -2.6692
# 5 5.8784 5.7536 -1.3872 0.0000 26.0239 0.0000
# 6 0.0000 0.0000 0.0000 -2.6692 0.0000 27.4907
#
#
#
# Elastic Compliance Matrix: (Units=1/GPa)
#
#
# Indices 1 2 3 4 5 6 
#
# 1 0.011600 -0.002442 -0.003449 0.000000 -0.002264 0.000000
# 2 -0.002442 0.016951 -0.002609 0.000000 -0.003335 0.000000
# 3 -0.003449 -0.002609 0.007637 0.000000 0.001763 0.000000
# 4 0.000000 0.000000 0.000000 0.133432 0.000000 0.012956
# 5 -0.002264 -0.003335 0.001763 0.000000 0.039769 0.000000
# 6 0.000000 0.000000 0.000000 0.012956 0.000000 0.037634
#
#
# Mechanical properties :
#
#
# Convention : Reuss Voigt Hill
#
# Bulk Modulus (GPa) = 52.11375 64.49893 58.30634
# Shear Modulus (GPa) = 18.48976 27.63547 23.06262
#
# Velocity S-wave (km/s) = 2.90178 3.54758 3.24081
# Velocity P-wave (km/s) = 5.91270 6.79364 6.36842
#
# Compressibility (1/GPa) = 0.01918879
#
# Stress axis : x y z
#
# Youngs Moduli (GPa) = 86.20369 58.99372 130.93350
#
# Poissons Ratio (x) = 0.14406 0.45162
# Poissons Ratio (y) = 0.21051 0.34157
# Poissons Ratio (z) = 0.29734 0.15390
#
# Static dielectric constant tensor:
#      x y z
#    x 4.119760 0.000000 0.094480 
#    y 0.000000 3.821460 0.000000 
#    z 0.094480 0.000000 4.392050 
# 
# 
# High freq. dielectric constant tensor:
#      x y z
#    x 1.871670 0.000000 0.002200 
#    y 0.000000 1.855790 0.000000 
#    z 0.002200 0.000000 1.867530 
# 
# From -- ./inp_files/305399.got.cif
#   From: 2010.06.25/outbox.cif.g09.slc.cpg/sg15_153_cif.got.tgz:305399.got - 2010.06.28 07:06:18.
