data_PCOD8140088
_publ_section_title
;
Structure prediction by ZEFSAII (Michael W. Deem and Ramdas Pophale) SiO2 
 PCOD8140088
Probable space group: C 2/C
;
_chemical_formula_sum "Si O2"
_cell_formula_units_Z 60
_cell_length_a 27.334750
_cell_length_b 6.463186
_cell_length_c 19.800989
_cell_angle_alpha 90.000000
_cell_angle_beta 53.532970
_cell_angle_gamma 90.000000
_cell_volume 2813.274936
_symmetry_space_group_name_H-M "C 2/C"
_symmetry_group_IT_number 15
_symmetry_cell_setting 'monoclinic'
loop_
_space_group_symop_operation_xyz
x,y,z
-x,y,1/2-z
-x,-y,-z
x,-y,1/2+z
1/2+x,1/2+y,z
1/2-x,1/2+y,1/2-z
1/2-x,1/2-y,-z
1/2+x,1/2-y,1/2+z
loop_
_atom_site_type_symbol
_atom_site_label
_atom_site_fract_x
_atom_site_fract_y
_atom_site_fract_z
Si Si1 0.000000 0.870826 0.750000
Si Si2 0.997057 0.548343 0.638030
Si Si3 0.710235 0.621220 0.193193
Si Si4 0.307791 0.299727 0.409238
Si Si5 0.950276 0.881815 0.996994
Si Si6 0.139400 0.517198 0.248120
Si Si7 0.923408 0.840655 0.392012
Si Si8 0.321813 0.701887 0.669767
O O1 0.017996 0.730010 0.797691
O O2 0.054756 0.026337 0.689910
O O3 0.932240 0.437022 0.679610
O O4 0.023786 0.658868 0.549018
O O5 0.045319 0.385288 0.628401
O O6 0.709242 0.490236 0.125358
O O7 0.653226 0.774814 0.233424
O O8 0.701307 0.493958 0.269123
O O9 0.774645 0.743556 0.147925
O O10 0.250000 0.250000 0.500000
O O11 0.352572 0.332980 0.435464
O O12 0.336711 0.116849 0.340905
O O13 0.888586 0.843478 0.087454
O O14 0.935224 0.037047 0.949927
O O15 0.000000 0.000000 0.000000
O O16 0.175851 0.604733 0.281810
#
# Coordination Sequence:
#
# PCOD8140088 Si02
#       8
#     4   8   8   8   8   8   8   8
#     4  10  20  40  66  92 128 166 218 262 336 390
#     4  11  23  41  69  98 128 178 219 275 344 404
#     4  11  24  44  69  96 135 180 226 279 332 406
#     4  11  27  43  63 100 134 180 226 276 333 398
#     4  11  26  43  66 102 136 172 221 290 347 402
#     4  11  23  43  70  94 133 173 228 277 335 409
#     4  11  24  42  65  95 137 171 220 279 332 405
#     4  11  24  43  68  99 133 179 229 276 341 401
#
# _framework density 21.327458
#
# number of rings (size 3 to 8) (size 9 to 14) (size 15 to 20)
#    0.000    1.067    1.333    4.400    3.733    9.067 
#    0.000    0.000    0.000    0.000    0.000    0.000 
#    0.000    0.000    0.000    0.000    0.000    0.000 
#
# Total GULP energy -371928.011931 kJ/mol
# GULP energy per Si atom -12397.600398 kJ/mol
# Density = 2.127892 g / cm^3
# Si number density = 21.327458 Si / 1000 Ang^3
#
#
#
# Elastic Constant Matrix: (Units=GPa)
#
#
# Indices 1 2 3 4 5 6 
#
# 1 156.2388 44.2839 56.1511 -0.0362 -11.9683 -0.0493
# 2 44.2839 109.7038 43.6922 -0.1020 -1.1236 -0.1677
# 3 56.1511 43.6922 119.1698 -0.1641 -18.1321 -0.0504
# 4 -0.0362 -0.1020 -0.1641 24.7816 -0.0375 -7.7612
# 5 -11.9683 -1.1236 -18.1321 -0.0375 36.0371 0.0628
# 6 -0.0493 -0.1677 -0.0504 -7.7612 0.0628 31.5311
#
#
#
# Elastic Compliance Matrix: (Units=1/GPa)
#
#
# Indices 1 2 3 4 5 6 
#
# 1 0.008125 -0.002125 -0.002868 -0.000017 0.001189 -0.000010
# 2 -0.002125 0.011336 -0.003474 0.000038 -0.002101 0.000065
# 3 -0.002868 -0.003474 0.011755 0.000068 0.004854 0.000003
# 4 -0.000017 0.000038 0.000068 0.043724 0.000056 0.010763
# 5 0.001189 -0.002101 0.004854 0.000056 0.030521 -0.000048
# 6 -0.000010 0.000065 0.000003 0.010763 -0.000048 0.034364
#
#
# Mechanical properties :
#
#
# Convention : Reuss Voigt Hill
#
# Bulk Modulus (GPa) = 70.02638 74.81854 72.42246
# Shear Modulus (GPa) = 30.95590 34.53565 32.74577
#
# Velocity S-wave (km/s) = 3.81393 4.02842 3.92264
# Velocity P-wave (km/s) = 7.23187 7.53622 7.38561
#
# Compressibility (1/GPa) = 0.01428033
#
# Stress axis : x y z
#
# Youngs Moduli (GPa) = 123.08157 88.21727 85.06839
#
# Poissons Ratio (x) = 0.18748 0.24399
# Poissons Ratio (y) = 0.26157 0.29555
# Poissons Ratio (z) = 0.35302 0.30649
#
# Static dielectric constant tensor:
#      x y z
#    x 4.216680 0.001060 -0.203020 
#    y 0.001060 3.947120 0.000630 
#    z -0.203020 0.000630 4.043710 
# 
# 
# High freq. dielectric constant tensor:
#      x y z
#    x 1.851950 -0.000010 -0.001830 
#    y -0.000010 1.845790 0.000000 
#    z -0.001830 0.000000 1.838660 
# 
# From -- ./inp_files/256768.got.cif
#   From: 2010.06.25/outbox.cif.g09.slc.cpg/sg15_129_cif.got.tgz:256768.got - 2010.06.28 07:06:18.
