data_PCOD8140162
_publ_section_title
;
Structure prediction by ZEFSAII (Michael W. Deem and Ramdas Pophale) SiO2 
 PCOD8140162
Probable space group: C 2/C
;
_chemical_formula_sum "Si O2"
_cell_formula_units_Z 56
_cell_length_a 18.842761
_cell_length_b 8.861997
_cell_length_c 18.867483
_cell_angle_alpha 90.000000
_cell_angle_beta 61.473517
_cell_angle_gamma 90.000000
_cell_volume 2768.085873
_symmetry_space_group_name_H-M "C 2/C"
_symmetry_group_IT_number 15
_symmetry_cell_setting 'monoclinic'
loop_
_space_group_symop_operation_xyz
x,y,z
-x,y,1/2-z
-x,-y,-z
x,-y,1/2+z
1/2+x,1/2+y,z
1/2-x,1/2+y,1/2-z
1/2-x,1/2-y,-z
1/2+x,1/2-y,1/2+z
loop_
_atom_site_type_symbol
_atom_site_label
_atom_site_fract_x
_atom_site_fract_y
_atom_site_fract_z
Si Si1 0.101910 0.140456 0.900596
Si Si2 0.624391 0.686646 0.726021
Si Si3 0.000000 0.064093 0.250000
Si Si4 0.774573 0.665426 0.559840
Si Si5 0.685327 0.171553 0.481761
Si Si6 0.516410 0.178618 0.631740
Si Si7 0.000000 0.571231 0.250000
Si Si8 0.929315 0.193239 0.045943
O O1 0.125182 0.193043 0.810771
O O2 0.162954 0.228086 0.923675
O O3 0.111577 0.961642 0.907648
O O4 0.007496 0.172924 0.959047
O O5 0.580318 0.533881 0.722682
O O6 0.714777 0.701301 0.653471
O O7 0.579154 0.826361 0.710842
O O8 0.017549 0.165260 0.173640
O O9 0.750000 0.750000 0.500000
O O10 0.773986 0.485828 0.556743
O O11 0.864661 0.718805 0.531250
O O12 0.750000 0.250000 0.500000
O O13 0.605461 0.142302 0.564073
O O14 0.452667 0.198739 0.599513
O O15 0.488192 0.033578 0.687723
#
# Coordination Sequence:
#
# PCOD8140162 Si02
#       8
#     8   8   4   8   8   8   4   8
#     4  10  23  42  69  93 127 171 219 266 320 388
#     4  11  24  41  65  96 129 168 218 270 322 378
#     4  10  20  40  68  90 124 168 222 258 318 388
#     4  12  27  42  64  95 134 173 213 270 330 384
#     4  11  24  42  66  95 129 170 213 263 325 390
#     4  10  21  42  65  94 125 170 213 264 318 384
#     4  10  24  38  66  94 126 168 216 270 314 378
#     4  10  23  43  66  93 129 170 217 263 327 387
#
# _framework density 20.230585000000001
#
# number of rings (size 3 to 8) (size 9 to 14) (size 15 to 20)
#    0.000    1.429    1.429    2.571    8.000    2.286 
#    5.143    0.000    0.000    0.000    0.000    0.000 
#    0.000    0.000    0.000    0.000    0.000    0.000 
#
# Total GULP energy -347239.978919 kJ/mol
# GULP energy per Si atom -12401.427819 kJ/mol
# Density = 2.018454 g / cm^3
# Si number density = 20.230585 Si / 1000 Ang^3
#
#
#
# Elastic Constant Matrix: (Units=GPa)
#
#
# Indices 1 2 3 4 5 6 
#
# 1 136.3864 53.5485 45.1048 0.0001 16.5603 0.0001
# 2 53.5485 129.5694 37.6366 0.0002 5.1610 0.0003
# 3 45.1048 37.6366 114.5923 0.0000 4.6719 0.0000
# 4 0.0001 0.0002 0.0000 17.0066 0.0000 0.8958
# 5 16.5603 5.1610 4.6719 0.0000 23.5413 0.0000
# 6 0.0001 0.0003 0.0000 0.8958 0.0000 25.4893
#
#
#
# Elastic Compliance Matrix: (Units=1/GPa)
#
#
# Indices 1 2 3 4 5 6 
#
# 1 0.010208 -0.003190 -0.002728 0.000000 -0.005940 0.000000
# 2 -0.003190 0.009570 -0.001909 0.000000 0.000525 0.000000
# 3 -0.002728 -0.001909 0.010416 0.000000 0.000270 0.000000
# 4 0.000000 0.000000 0.000000 0.058910 0.000000 -0.002070
# 5 -0.005940 0.000525 0.000270 0.000000 0.046488 0.000000
# 6 0.000000 0.000000 0.000000 -0.002070 0.000000 0.039305
#
#
# Mechanical properties :
#
#
# Convention : Reuss Voigt Hill
#
# Bulk Modulus (GPa) = 68.77379 72.56976 70.67178
# Shear Modulus (GPa) = 25.58884 29.49132 27.54008
#
# Velocity S-wave (km/s) = 3.56034 3.82220 3.69359
# Velocity P-wave (km/s) = 7.13934 7.44501 7.29378
#
# Compressibility (1/GPa) = 0.01454042
#
# Stress axis : x y z
#
# Youngs Moduli (GPa) = 97.96277 104.49636 96.00266
#
# Poissons Ratio (x) = 0.33331 0.26191
# Poissons Ratio (y) = 0.31247 0.18327
# Poissons Ratio (z) = 0.26726 0.19948
#
# Static dielectric constant tensor:
#      x y z
#    x 3.640040 0.000000 0.059930 
#    y 0.000000 3.599060 0.000000 
#    z 0.059930 0.000000 3.677300 
# 
# 
# High freq. dielectric constant tensor:
#      x y z
#    x 1.794700 0.000000 0.006920 
#    y 0.000000 1.807030 0.000000 
#    z 0.006920 0.000000 1.793870 
# 
# From -- ./inp_files/209549.got.cif
#   From: 2010.06.25/outbox.cif.g09.slc.cpg/sg15_105_cif.got.tgz:209549.got - 2010.06.28 07:06:18.
