data_PCOD8140161
_publ_section_title
;
Structure prediction by ZEFSAII (Michael W. Deem and Ramdas Pophale) SiO2 
 PCOD8140161
Probable space group: C 2/C
;
_chemical_formula_sum "Si O2"
_cell_formula_units_Z 52
_cell_length_a 20.867282
_cell_length_b 9.425624
_cell_length_c 19.162675
_cell_angle_alpha 90.000000
_cell_angle_beta 41.976087
_cell_angle_gamma 90.000000
_cell_volume 2520.818830
_symmetry_space_group_name_H-M "C 2/C"
_symmetry_group_IT_number 15
_symmetry_cell_setting 'monoclinic'
loop_
_space_group_symop_operation_xyz
x,y,z
-x,y,1/2-z
-x,-y,-z
x,-y,1/2+z
1/2+x,1/2+y,z
1/2-x,1/2+y,1/2-z
1/2-x,1/2-y,-z
1/2+x,1/2-y,1/2+z
loop_
_atom_site_type_symbol
_atom_site_label
_atom_site_fract_x
_atom_site_fract_y
_atom_site_fract_z
Si Si1 0.335785 0.648745 0.114714
Si Si2 0.139113 0.235499 0.106201
Si Si3 0.000443 0.662481 0.017946
Si Si4 0.184389 0.258103 0.219946
Si Si5 0.500000 0.975514 0.250000
Si Si6 0.891331 0.140101 0.512082
Si Si7 0.871563 0.575838 0.237728
O O1 0.322172 0.650622 0.209932
O O2 0.397763 0.512191 0.043017
O O3 0.232546 0.641990 0.160327
O O4 0.394236 0.787188 0.040921
O O5 0.128581 0.192739 0.196973
O O6 0.078764 0.380851 0.144818
O O7 0.250000 0.250000 0.000000
O O8 0.098317 0.125763 0.081037
O O9 0.978450 0.763608 0.969666
O O10 0.919125 0.679406 0.142381
O O11 0.000000 0.500000 0.000000
O O12 0.294446 0.278038 0.110168
O O13 0.139942 0.411350 0.277626
O O14 0.441371 0.079967 0.247240
#
# Coordination Sequence:
#
# PCOD8140161 Si02
#       7
#     8   8   8   8   4   8   8
#     4  11  22  38  62  93 127 160 204 275 324 364
#     4   9  19  35  60  92 123 161 219 267 304 367
#     4  12  22  36  61  89 125 165 213 251 324 389
#     4   9  18  37  62  92 121 164 209 266 310 373
#     4  10  20  40  68  88 120 178 222 256 320 388
#     4  10  21  37  58  91 127 158 208 269 314 372
#     4  10  21  39  63  89 124 162 220 261 311 386
#
# _framework density 20.628219999999999
#
# number of rings (size 3 to 8) (size 9 to 14) (size 15 to 20)
#    0.000    1.846    3.077    2.308    2.154    0.000 
#    0.000    0.769    3.385    0.000    0.000    0.000 
#    0.000    0.000    0.000    0.000    0.000    0.000 
#
# Total GULP energy -322177.251392 kJ/mol
# GULP energy per Si atom -12391.432746 kJ/mol
# Density = 2.058127 g / cm^3
# Si number density = 20.628220 Si / 1000 Ang^3
#
#
#
# Elastic Constant Matrix: (Units=GPa)
#
#
# Indices 1 2 3 4 5 6 
#
# 1 133.8342 54.0539 39.2697 -0.0002 -3.6114 0.0002
# 2 54.0539 90.4814 36.4055 -0.0005 -2.8825 0.0006
# 3 39.2697 36.4055 75.3040 -0.0001 -6.1751 0.0001
# 4 -0.0002 -0.0005 -0.0001 33.5406 -0.0001 -4.7504
# 5 -3.6114 -2.8825 -6.1751 -0.0001 40.2094 0.0000
# 6 0.0002 0.0006 0.0001 -4.7504 0.0000 33.6141
#
#
#
# Elastic Compliance Matrix: (Units=1/GPa)
#
#
# Indices 1 2 3 4 5 6 
#
# 1 0.010365 -0.004988 -0.002985 0.000000 0.000115 0.000000
# 2 -0.004988 0.016121 -0.005200 0.000000 -0.000091 0.000000
# 3 -0.002985 -0.005200 0.017518 0.000000 0.002049 0.000000
# 4 0.000000 0.000000 0.000000 0.030424 0.000000 0.004299
# 5 0.000115 -0.000091 0.002049 0.000000 0.025188 0.000000
# 6 0.000000 0.000000 0.000000 0.004299 0.000000 0.030357
#
#
# Mechanical properties :
#
#
# Convention : Reuss Voigt Hill
#
# Bulk Modulus (GPa) = 56.62691 62.11975 59.37333
# Shear Modulus (GPa) = 30.82531 32.79888 31.81209
#
# Velocity S-wave (km/s) = 3.86985 3.99181 3.93130
# Velocity P-wave (km/s) = 6.89046 7.17115 7.03220
#
# Compressibility (1/GPa) = 0.01765945
#
# Stress axis : x y z
#
# Youngs Moduli (GPa) = 96.47634 62.03064 57.08430
#
# Poissons Ratio (x) = 0.30939 0.17037
# Poissons Ratio (y) = 0.48120 0.29685
# Poissons Ratio (z) = 0.28794 0.32257
#
# Static dielectric constant tensor:
#      x y z
#    x 4.193890 0.000000 -0.038270 
#    y 0.000000 3.411760 0.000000 
#    z -0.038270 0.000000 4.134380 
# 
# 
# High freq. dielectric constant tensor:
#      x y z
#    x 1.820890 0.000000 -0.016140 
#    y 0.000000 1.756960 0.000000 
#    z -0.016140 0.000000 1.815200 
# 
# From -- ./inp_files/214228.got.cif
#   From: 2010.06.25/outbox.cif.g09.slc.cpg/sg15_108_cif.got.tgz:214228.got - 2010.06.28 07:06:18.
