data_PCOD8140390
_publ_section_title
;
Structure prediction by ZEFSAII (Michael W. Deem and Ramdas Pophale) SiO2 
 PCOD8140390
Probable space group: C 2/C
;
_chemical_formula_sum "Si O2"
_cell_formula_units_Z 40
_cell_length_a 6.355159
_cell_length_b 30.239119
_cell_length_c 13.367128
_cell_angle_alpha 90.000000
_cell_angle_beta 135.267311
_cell_angle_gamma 90.000000
_cell_volume 1807.935776
_symmetry_space_group_name_H-M "C 2/C"
_symmetry_group_IT_number 15
_symmetry_cell_setting 'monoclinic'
loop_
_space_group_symop_operation_xyz
x,y,z
-x,y,1/2-z
-x,-y,-z
x,-y,1/2+z
1/2+x,1/2+y,z
1/2-x,1/2+y,1/2-z
1/2-x,1/2-y,-z
1/2+x,1/2-y,1/2+z
loop_
_atom_site_type_symbol
_atom_site_label
_atom_site_fract_x
_atom_site_fract_y
_atom_site_fract_z
Si Si1 0.338959 0.514905 0.096057
Si Si2 0.851972 0.857781 0.097924
Si Si3 0.835635 0.065570 0.896974
Si Si4 0.242544 0.686102 0.088606
Si Si5 0.669345 0.284196 0.100017
O O1 0.500000 0.533252 0.250000
O O2 0.540624 0.474424 0.127113
O O3 0.341868 0.554139 0.016289
O O4 0.000000 0.500000 0.000000
O O5 0.000000 0.874860 0.250000
O O6 0.947414 0.892304 0.044380
O O7 0.955336 0.808360 0.105889
O O8 0.495707 0.853973 0.991747
O O9 0.500000 0.077342 0.750000
O O10 0.500000 0.670476 0.250000
O O11 0.094666 0.732198 0.076067
O O12 0.378612 0.694302 0.025102
O O13 0.000000 0.293205 0.250000
#
# Coordination Sequence:
#
# PCOD8140390 Si02
#       5
#     8   8   8   8   8
#     4  11  23  46  74 102 135 176 218 268 333 405
#     4  12  24  40  69  98 131 178 226 275 336 400
#     4  11  25  42  73 104 132 172 228 273 329 407
#     4  10  23  41  65  94 136 174 224 283 330 387
#     4  10  20  41  66  95 127 181 231 267 330 404
#
# _framework density 22.124680999999999
#
# number of rings (size 3 to 8) (size 9 to 14) (size 15 to 20)
#    0.000    1.200    4.000    1.800    0.000    0.800 
#    0.000    6.000    0.000    0.000    0.000    0.000 
#    0.000    0.000    0.000    0.000    0.000    0.000 
#
# Total GULP energy -248071.333929 kJ/mol
# GULP energy per Si atom -12403.566696 kJ/mol
# Density = 2.207432 g / cm^3
# Si number density = 22.124681 Si / 1000 Ang^3
#
#
#
# Elastic Constant Matrix: (Units=GPa)
#
#
# Indices 1 2 3 4 5 6 
#
# 1 84.9861 33.6830 50.7264 0.0000 -1.7711 0.0000
# 2 33.6830 72.5058 35.2180 0.0000 1.3947 0.0000
# 3 50.7264 35.2180 172.3969 0.0000 -8.2338 0.0000
# 4 0.0000 0.0000 0.0000 23.2293 0.0000 0.5692
# 5 -1.7711 1.3947 -8.2338 0.0000 39.1997 0.0000
# 6 0.0000 0.0000 0.0000 0.5692 0.0000 48.8036
#
#
#
# Elastic Compliance Matrix: (Units=1/GPa)
#
#
# Indices 1 2 3 4 5 6 
#
# 1 0.016200 -0.005793 -0.003574 0.000000 0.000187 0.000000
# 2 -0.005793 0.017440 -0.001920 0.000000 -0.001285 0.000000
# 3 -0.003574 -0.001920 0.007313 0.000000 0.001443 0.000000
# 4 0.000000 0.000000 0.000000 0.043061 0.000000 -0.000502
# 5 0.000187 -0.001285 0.001443 0.000000 0.025868 0.000000
# 6 0.000000 0.000000 0.000000 -0.000502 0.000000 0.020496
#
#
# Mechanical properties :
#
#
# Convention : Reuss Voigt Hill
#
# Bulk Modulus (GPa) = 54.40856 63.23817 58.82337
# Shear Modulus (GPa) = 31.43078 36.26397 33.84737
#
# Velocity S-wave (km/s) = 3.77320 4.05294 3.91557
# Velocity P-wave (km/s) = 6.60514 7.10960 6.86201
#
# Compressibility (1/GPa) = 0.01837946
#
# Stress axis : x y z
#
# Youngs Moduli (GPa) = 61.72825 57.33811 136.73648
#
# Poissons Ratio (x) = 0.33218 0.48874
# Poissons Ratio (y) = 0.35761 0.26248
# Poissons Ratio (z) = 0.22064 0.11006
#
# Static dielectric constant tensor:
#      x y z
#    x 4.303680 0.000000 -0.122660 
#    y 0.000000 3.814300 0.000000 
#    z -0.122660 0.000000 4.011190 
# 
# 
# High freq. dielectric constant tensor:
#      x y z
#    x 1.879000 0.000000 -0.003860 
#    y 0.000000 1.860350 0.000000 
#    z -0.003860 0.000000 1.871900 
# 
# From -- ./inp_files/130539.got.cif
#   From: 2010.06.25/outbox.cif.g09.slc.cpg/sg15_66_cif.got.tgz:130539.got - 2010.06.28 07:06:18.
