data_PCOD8140207
_publ_section_title
;
Structure prediction by ZEFSAII (Michael W. Deem and Ramdas Pophale) SiO2 
 PCOD8140207
Probable space group: C 2/C
;
_chemical_formula_sum "Si O2"
_cell_formula_units_Z 48
_cell_length_a 11.257466
_cell_length_b 15.397218
_cell_length_c 20.350330
_cell_angle_alpha 90.000000
_cell_angle_beta 148.910167
_cell_angle_gamma 90.000000
_cell_volume 1821.482198
_symmetry_space_group_name_H-M "C 2/C"
_symmetry_group_IT_number 15
_symmetry_cell_setting 'monoclinic'
loop_
_space_group_symop_operation_xyz
x,y,z
-x,y,1/2-z
-x,-y,-z
x,-y,1/2+z
1/2+x,1/2+y,z
1/2-x,1/2+y,1/2-z
1/2-x,1/2-y,-z
1/2+x,1/2-y,1/2+z
loop_
_atom_site_type_symbol
_atom_site_label
_atom_site_fract_x
_atom_site_fract_y
_atom_site_fract_z
Si Si1 0.294343 0.391305 0.192482
Si Si2 0.968504 0.193078 0.320763
Si Si3 0.287268 0.605022 0.423760
Si Si4 0.399317 0.514000 0.347881
Si Si5 0.501143 0.772297 0.857497
Si Si6 0.434523 0.231773 0.492628
O O1 0.500000 0.439892 0.250000
O O2 0.229241 0.454926 0.222263
O O3 0.410327 0.301436 0.268463
O O4 0.071940 0.360082 0.044565
O O5 0.004430 0.092795 0.355782
O O6 0.688117 0.208053 0.173290
O O7 0.020452 0.252618 0.408265
O O8 0.845222 0.217488 0.148390
O O9 0.259583 0.547929 0.345000
O O10 0.386827 0.545561 0.528983
O O11 0.036796 0.641077 0.329199
O O12 0.468705 0.685388 0.501357
O O13 0.750000 0.750000 0.000000
#
# Coordination Sequence:
#
# PCOD8140207 Si02
#       6
#     8   8   8   8   8   8
#     4  11  21  38  66  93 127 177 224 270 336 406
#     4   9  21  39  61  90 134 169 208 274 338 394
#     4  10  20  40  69  99 129 173 226 280 336 396
#     4  10  22  38  64 102 134 166 222 286 343 391
#     4  11  21  40  69  93 126 178 233 268 319 419
#     4   9  19  39  64  88 127 175 213 267 336 404
#
# _framework density 26.352166
#
# number of rings (size 3 to 8) (size 9 to 14) (size 15 to 20)
#    0.000    2.000    3.333    0.000    0.000    1.333 
#    0.000   11.667    3.667    0.000    0.000    0.000 
#    0.000    0.000    0.000    0.000    0.000    0.000 
#
# Total GULP energy -297422.212538 kJ/mol
# GULP energy per Si atom -12392.592189 kJ/mol
# Density = 2.629219 g / cm^3
# Si number density = 26.352166 Si / 1000 Ang^3
#
#
#
# Elastic Constant Matrix: (Units=GPa)
#
#
# Indices 1 2 3 4 5 6 
#
# 1 173.6674 39.2489 41.9088 -0.0001 28.7864 0.0002
# 2 39.2489 107.0479 29.9502 0.0004 4.1329 0.0011
# 3 41.9088 29.9502 117.0053 0.0035 34.1902 0.0046
# 4 -0.0001 0.0004 0.0035 44.1456 0.0010 -12.9088
# 5 28.7864 4.1329 34.1902 0.0010 31.9544 0.0016
# 6 0.0002 0.0011 0.0046 -12.9088 0.0016 33.8871
#
#
#
# Elastic Compliance Matrix: (Units=1/GPa)
#
#
# Indices 1 2 3 4 5 6 
#
# 1 0.007364 -0.002395 -0.000257 0.000000 -0.006049 0.000000
# 2 -0.002395 0.010940 -0.003142 0.000000 0.004104 0.000000
# 3 -0.000257 -0.003142 0.013467 -0.000001 -0.013771 -0.000002
# 4 0.000000 0.000000 -0.000001 0.025492 0.000000 0.009711
# 5 -0.006049 0.004104 -0.013771 0.000000 0.050948 -0.000001
# 6 0.000000 0.000000 -0.000002 0.009711 -0.000001 0.033209
#
#
# Mechanical properties :
#
#
# Convention : Reuss Voigt Hill
#
# Bulk Modulus (GPa) = 49.54359 68.88181 59.21270
# Shear Modulus (GPa) = 31.30173 41.10494 36.20333
#
# Velocity S-wave (km/s) = 3.45022 3.95375 3.71054
# Velocity P-wave (km/s) = 5.89181 6.85847 6.39344
#
# Compressibility (1/GPa) = 0.02018425
#
# Stress axis : x y z
#
# Youngs Moduli (GPa) = 135.79531 91.40610 74.25497
#
# Poissons Ratio (x) = 0.21888 0.01909
# Poissons Ratio (y) = 0.32517 0.23330
# Poissons Ratio (z) = 0.03491 0.28719
#
# Static dielectric constant tensor:
#      x y z
#    x 4.469820 0.000160 -0.607510 
#    y 0.000160 5.129680 0.000060 
#    z -0.607510 0.000060 4.940320 
# 
# 
# High freq. dielectric constant tensor:
#      x y z
#    x 2.079670 0.000000 -0.011530 
#    y 0.000000 2.041990 0.000000 
#    z -0.011530 0.000000 2.075190 
# 
# From -- ./inp_files/274387.got.cif
#   From: 2010.06.25/outbox.cif.g09.slc.cpg/sg15_138_cif.got.tgz:274387.got - 2010.06.28 07:06:18.
