data_PCOD8140623
_publ_section_title
;
Structure prediction by ZEFSAII (Michael W. Deem and Ramdas Pophale) SiO2 
 PCOD8140623
Probable space group: C 2/C
;
_chemical_formula_sum "Si O2"
_cell_formula_units_Z 48
_cell_length_a 8.837297
_cell_length_b 11.951229
_cell_length_c 27.823992
_cell_angle_alpha 90.000000
_cell_angle_beta 133.058372
_cell_angle_gamma 90.000000
_cell_volume 2147.167414
_symmetry_space_group_name_H-M "C 2/C"
_symmetry_group_IT_number 15
_symmetry_cell_setting 'monoclinic'
loop_
_space_group_symop_operation_xyz
x,y,z
-x,y,1/2-z
-x,-y,-z
x,-y,1/2+z
1/2+x,1/2+y,z
1/2-x,1/2+y,1/2-z
1/2-x,1/2-y,-z
1/2+x,1/2-y,1/2+z
loop_
_atom_site_type_symbol
_atom_site_label
_atom_site_fract_x
_atom_site_fract_y
_atom_site_fract_z
Si Si1 0.779697 0.630313 0.631663
Si Si2 0.229215 0.448436 0.139640
Si Si3 0.012356 0.045869 0.119428
Si Si4 0.779829 0.375445 0.022512
Si Si5 0.247473 0.825738 0.808136
Si Si6 0.803317 0.732077 0.798497
O O1 0.717378 0.522231 0.649318
O O2 0.700497 0.614745 0.560079
O O3 0.677232 0.740680 0.633959
O O4 0.027439 0.645242 0.686637
O O5 0.405508 0.485102 0.141167
O O6 0.167248 0.551902 0.161095
O O7 0.324044 0.344254 0.191267
O O8 0.019509 0.409908 0.068012
O O9 0.073573 0.171337 0.146442
O O10 0.855265 0.044157 0.040587
O O11 0.750000 0.250000 0.000000
O O12 0.333872 0.784456 0.774514
O O13 0.000000 0.830508 0.750000
#
# Coordination Sequence:
#
# PCOD8140623 Si02
#       6
#     8   8   8   8   8   8
#     4  10  22  40  67  93 129 171 212 262 330 376
#     4  11  22  41  71  95 126 178 216 262 336 383
#     4  12  22  42  68  98 130 170 218 266 324 390
#     4  11  21  44  67  93 137 172 213 270 330 382
#     4  10  20  42  67  90 132 171 214 271 327 381
#     4  10  23  43  66  92 135 170 212 274 325 381
#
# _framework density 22.355032999999999
#
# number of rings (size 3 to 8) (size 9 to 14) (size 15 to 20)
#    0.000    1.333    6.667    1.000    2.333    0.000 
#    6.000    1.667    0.000    0.000    0.000    0.000 
#    0.000    0.000    0.000    0.000    0.000    0.000 
#
# Total GULP energy -297525.916877 kJ/mol
# GULP energy per Si atom -12396.913203 kJ/mol
# Density = 2.230415 g / cm^3
# Si number density = 22.355033 Si / 1000 Ang^3
#
#
#
# Elastic Constant Matrix: (Units=GPa)
#
#
# Indices 1 2 3 4 5 6 
#
# 1 73.4305 58.8615 37.6203 0.0000 -19.4615 0.0000
# 2 58.8615 103.8832 24.8030 0.0000 -16.5780 0.0000
# 3 37.6203 24.8030 82.9557 0.0000 -32.3367 0.0000
# 4 0.0000 0.0000 0.0000 41.7129 0.0000 -7.2865
# 5 -19.4615 -16.5780 -32.3367 0.0000 35.5613 0.0000
# 6 0.0000 0.0000 0.0000 -7.2865 0.0000 36.1925
#
#
#
# Elastic Compliance Matrix: (Units=1/GPa)
#
#
# Indices 1 2 3 4 5 6 
#
# 1 0.030503 -0.014920 -0.008638 0.000000 0.001883 0.000000
# 2 -0.014920 0.017893 0.002301 0.000000 0.002268 0.000000
# 3 -0.008638 0.002301 0.021470 0.000000 0.015868 0.000000
# 4 0.000000 0.000000 0.000000 0.024847 0.000000 0.005002
# 5 0.001883 0.002268 0.015868 0.000000 0.044637 0.000000
# 6 0.000000 0.000000 0.000000 0.005002 0.000000 0.028637
#
#
# Mechanical properties :
#
#
# Convention : Reuss Voigt Hill
#
# Bulk Modulus (GPa) = 36.56346 55.87101 46.21724
# Shear Modulus (GPa) = 22.76666 31.95898 27.36282
#
# Velocity S-wave (km/s) = 3.19472 3.78512 3.50238
# Velocity P-wave (km/s) = 5.47719 6.64452 6.08890
#
# Compressibility (1/GPa) = 0.02734971
#
# Stress axis : x y z
#
# Youngs Moduli (GPa) = 32.78370 55.88799 46.57765
#
# Poissons Ratio (x) = 0.83387 0.40234
# Poissons Ratio (y) = 0.48915 -0.10716
# Poissons Ratio (z) = 0.28319 -0.12858
#
# Static dielectric constant tensor:
#      x y z
#    x 3.983490 0.000000 -0.480280 
#    y 0.000000 4.265290 0.000000 
#    z -0.480280 0.000000 4.419290 
# 
# 
# High freq. dielectric constant tensor:
#      x y z
#    x 1.860060 0.000000 -0.027950 
#    y 0.000000 1.892890 0.000000 
#    z -0.027950 0.000000 1.880090 
# 
# From -- ./inp_files/287782.got.cif
#   From: 2010.06.25/outbox.cif.g09.slc.cpg/sg15_144_cif.got.tgz:287782.got - 2010.06.28 07:06:18.
