data_PCOD8140494
_publ_section_title
;
Structure prediction by ZEFSAII (Michael W. Deem and Ramdas Pophale) SiO2 
 PCOD8140494
Probable space group: C 2/C
;
_chemical_formula_sum "Si O2"
_cell_formula_units_Z 52
_cell_length_a 22.210342
_cell_length_b 20.210160
_cell_length_c 8.616678
_cell_angle_alpha 90.000000
_cell_angle_beta 38.497710
_cell_angle_gamma 90.000000
_cell_volume 2407.645854
_symmetry_space_group_name_H-M "C 2/C"
_symmetry_group_IT_number 15
_symmetry_cell_setting 'monoclinic'
loop_
_space_group_symop_operation_xyz
x,y,z
-x,y,1/2-z
-x,-y,-z
x,-y,1/2+z
1/2+x,1/2+y,z
1/2-x,1/2+y,1/2-z
1/2-x,1/2-y,-z
1/2+x,1/2-y,1/2+z
loop_
_atom_site_type_symbol
_atom_site_label
_atom_site_fract_x
_atom_site_fract_y
_atom_site_fract_z
Si Si1 0.329056 0.837832 0.884784
Si Si2 0.000000 0.636371 0.250000
Si Si3 0.785505 0.259848 0.687690
Si Si4 0.660771 0.079828 0.730320
Si Si5 0.733480 0.978320 0.379732
Si Si6 0.825991 0.173762 0.335826
Si Si7 0.435424 0.546024 0.026082
O O1 0.425358 0.822450 0.793782
O O2 0.342103 0.815250 0.677790
O O3 0.242003 0.797419 0.136883
O O4 0.296942 0.914280 0.957280
O O5 0.944737 0.590560 0.486091
O O6 0.853648 0.226916 0.415243
O O7 0.689213 0.291524 0.801343
O O8 0.724309 0.034689 0.717047
O O9 0.717011 0.148829 0.596941
O O10 0.659529 0.037863 0.574188
O O11 0.843060 0.001577 0.175451
O O12 0.904043 0.114941 0.171890
O O13 0.500000 0.566732 0.750000
O O14 0.500000 0.500000 0.000000
#
# Coordination Sequence:
#
# PCOD8140494 Si02
#       7
#     8   4   8   8   8   8   8
#     4  10  22  39  69  91 126 167 218 261 317 393
#     4  10  20  42  60  98 122 150 210 270 308 368
#     4  10  21  41  67  89 121 188 211 250 321 400
#     4  10  21  37  66  86 125 163 198 268 315 381
#     4  10  21  39  63  92 123 169 206 258 337 387
#     4  10  21  42  65  89 132 172 218 254 333 386
#     4  11  24  39  65 100 130 167 216 287 325 391
#
# _framework density 21.597861999999999
#
# number of rings (size 3 to 8) (size 9 to 14) (size 15 to 20)
#    0.000    1.846    3.077    1.846    6.462    2.462 
#    1.385    0.769    6.769    0.000    0.000    0.000 
#    0.000    0.000    0.000    0.000    0.000    0.000 
#
# Total GULP energy -322158.174885 kJ/mol
# GULP energy per Si atom -12390.699034 kJ/mol
# Density = 2.154870 g / cm^3
# Si number density = 21.597862 Si / 1000 Ang^3
#
#
#
# Elastic Constant Matrix: (Units=GPa)
#
#
# Indices 1 2 3 4 5 6 
#
# 1 86.7255 25.9171 19.2209 0.0000 10.9610 0.0000
# 2 25.9171 85.1114 31.0875 0.0000 6.3839 0.0000
# 3 19.2209 31.0875 96.8823 0.0000 -2.5270 0.0000
# 4 0.0000 0.0000 0.0000 38.3466 0.0000 5.5916
# 5 10.9610 6.3839 -2.5270 0.0000 31.8242 0.0000
# 6 0.0000 0.0000 0.0000 5.5916 0.0000 34.9971
#
#
#
# Elastic Compliance Matrix: (Units=1/GPa)
#
#
# Indices 1 2 3 4 5 6 
#
# 1 0.013374 -0.003121 -0.001759 0.000000 -0.004120 0.000000
# 2 -0.003121 0.014333 -0.004035 0.000000 -0.002121 0.000000
# 3 -0.001759 -0.004035 0.012027 0.000000 0.002370 0.000000
# 4 0.000000 0.000000 0.000000 0.026700 0.000000 -0.004266
# 5 -0.004120 -0.002121 0.002370 0.000000 0.033455 0.000000
# 6 0.000000 0.000000 0.000000 -0.004266 0.000000 0.029255
#
#
# Mechanical properties :
#
#
# Convention : Reuss Voigt Hill
#
# Bulk Modulus (GPa) = 45.65540 46.79670 46.22605
# Shear Modulus (GPa) = 32.40937 33.86648 33.13793
#
# Velocity S-wave (km/s) = 3.87794 3.96415 3.92128
# Velocity P-wave (km/s) = 6.42152 6.53200 6.47700
#
# Compressibility (1/GPa) = 0.02190321
#
# Stress axis : x y z
#
# Youngs Moduli (GPa) = 74.77255 69.77122 83.14284
#
# Poissons Ratio (x) = 0.21774 0.14628
# Poissons Ratio (y) = 0.23335 0.33550
# Poissons Ratio (z) = 0.13155 0.28154
#
# Static dielectric constant tensor:
#      x y z
#    x 3.961330 0.000000 0.286450 
#    y 0.000000 4.022140 0.000000 
#    z 0.286450 0.000000 3.874000 
# 
# 
# High freq. dielectric constant tensor:
#      x y z
#    x 1.829820 0.000000 0.026460 
#    y 0.000000 1.858780 0.000000 
#    z 0.026460 0.000000 1.841650 
# 
# From -- ./inp_files/63367.got.cif
#   From: 2010.06.25/outbox.cif.g09.slc.cpg/sg15_32_cif.got.tgz:63367.got - 2010.06.28 07:06:18.
