data_PCOD8140599
_publ_section_title
;
Structure prediction by ZEFSAII (Michael W. Deem and Ramdas Pophale) SiO2 
 PCOD8140599
Probable space group: C 2/C
;
_chemical_formula_sum "Si O2"
_cell_formula_units_Z 56
_cell_length_a 20.592064
_cell_length_b 8.802605
_cell_length_c 14.897025
_cell_angle_alpha 90.000000
_cell_angle_beta 99.976795
_cell_angle_gamma 90.000000
_cell_volume 2659.457636
_symmetry_space_group_name_H-M "C 2/C"
_symmetry_group_IT_number 15
_symmetry_cell_setting 'monoclinic'
loop_
_space_group_symop_operation_xyz
x,y,z
-x,y,1/2-z
-x,-y,-z
x,-y,1/2+z
1/2+x,1/2+y,z
1/2-x,1/2+y,1/2-z
1/2-x,1/2-y,-z
1/2+x,1/2-y,1/2+z
loop_
_atom_site_type_symbol
_atom_site_label
_atom_site_fract_x
_atom_site_fract_y
_atom_site_fract_z
Si Si1 0.659564 0.763739 0.693548
Si Si2 0.273261 0.543738 0.257814
Si Si3 0.420191 0.819210 0.999128
Si Si4 0.302294 0.649042 0.459075
Si Si5 0.937915 0.181041 0.680340
Si Si6 0.354244 0.583824 0.100869
Si Si7 0.434159 0.166875 0.006761
O O1 0.714623 0.630585 0.712496
O O2 0.699341 0.923750 0.702544
O O3 0.610950 0.742227 0.597465
O O4 0.618232 0.755585 0.773568
O O5 0.280055 0.637972 0.351250
O O6 0.322306 0.602502 0.191454
O O7 0.498920 0.793374 0.032289
O O8 0.381675 0.746855 0.074538
O O9 0.407396 0.997681 0.986652
O O10 0.250000 0.750000 0.500000
O O11 0.305033 0.488265 0.513761
O O12 0.375017 0.720621 0.469949
O O13 0.956778 0.313363 0.615346
O O14 0.000000 0.126468 0.750000
O O15 0.915062 0.031386 0.622674
#
# Coordination Sequence:
#
# PCOD8140599 Si02
#       7
#     8   8   8   8   8   8   8
#     4  11  24  41  67  90 133 169 219 271 327 387
#     4  11  24  42  63 101 126 174 219 271 328 385
#     4  11  23  44  62  97 132 171 215 272 335 386
#     4  11  23  44  67  94 132 174 219 268 328 394
#     4  10  20  42  66  92 123 172 214 264 326 392
#     4  10  24  40  66  96 125 171 222 272 323 386
#     4  10  24  41  67  93 132 172 212 267 333 398
#
# _framework density 21.056925
#
# number of rings (size 3 to 8) (size 9 to 14) (size 15 to 20)
#    0.000    1.429    2.857    2.571    4.000    7.429 
#    0.000    0.714    0.000    0.000    0.000    0.000 
#    0.000    0.000    0.000    0.000    0.000    0.000 
#
# Total GULP energy -347052.022334 kJ/mol
# GULP energy per Si atom -12394.715083 kJ/mol
# Density = 2.100900 g / cm^3
# Si number density = 21.056925 Si / 1000 Ang^3
#
#
#
# Elastic Constant Matrix: (Units=GPa)
#
#
# Indices 1 2 3 4 5 6 
#
# 1 83.3320 30.1713 20.4176 0.0000 5.7559 0.0000
# 2 30.1713 58.3816 25.1984 0.0000 -11.2710 0.0000
# 3 20.4176 25.1984 105.5928 0.0000 -9.1370 0.0000
# 4 0.0000 0.0000 0.0000 22.5243 0.0000 -2.8072
# 5 5.7559 -11.2710 -9.1370 0.0000 30.2550 0.0000
# 6 0.0000 0.0000 0.0000 -2.8072 0.0000 34.1673
#
#
#
# Elastic Compliance Matrix: (Units=1/GPa)
#
#
# Indices 1 2 3 4 5 6 
#
# 1 0.016110 -0.008978 -0.001568 0.000000 -0.006883 0.000000
# 2 -0.008978 0.025179 -0.003402 0.000000 0.010061 0.000000
# 3 -0.001568 -0.003402 0.010783 0.000000 0.002288 0.000000
# 4 0.000000 0.000000 0.000000 0.044856 0.000000 0.003685
# 5 -0.006883 0.010061 0.002288 0.000000 0.038801 0.000000
# 6 0.000000 0.000000 0.000000 0.003685 0.000000 0.029571
#
#
# Mechanical properties :
#
#
# Convention : Reuss Voigt Hill
#
# Bulk Modulus (GPa) = 41.36254 44.32012 42.84133
# Shear Modulus (GPa) = 24.84411 28.82391 26.83401
#
# Velocity S-wave (km/s) = 3.43863 3.70382 3.57368
# Velocity P-wave (km/s) = 5.95411 6.27571 6.11702
#
# Compressibility (1/GPa) = 0.02417647
#
# Stress axis : x y z
#
# Youngs Moduli (GPa) = 62.07192 39.71561 92.73494
#
# Poissons Ratio (x) = 0.35655 0.14544
# Poissons Ratio (y) = 0.55726 0.31550
# Poissons Ratio (z) = 0.09735 0.13512
#
# Static dielectric constant tensor:
#      x y z
#    x 3.849970 0.000000 0.043770 
#    y 0.000000 3.728520 0.000000 
#    z 0.043770 0.000000 3.998500 
# 
# 
# High freq. dielectric constant tensor:
#      x y z
#    x 1.830740 0.000000 -0.000290 
#    y 0.000000 1.811480 0.000000 
#    z -0.000290 0.000000 1.833450 
# 
# From -- ./inp_files/166676.got.cif
#   From: 2010.06.25/outbox.cif.g09.slc.cpg/sg15_84_cif.got.tgz:166676.got - 2010.06.28 07:06:18.
