data_PCOD8140641
_publ_section_title
;
Structure prediction by ZEFSAII (Michael W. Deem and Ramdas Pophale) SiO2 
 PCOD8140641
Probable space group: C 2/C
;
_chemical_formula_sum "Si O2"
_cell_formula_units_Z 60
_cell_length_a 17.246996
_cell_length_b 9.051406
_cell_length_c 17.654853
_cell_angle_alpha 90.000000
_cell_angle_beta 95.054894
_cell_angle_gamma 90.000000
_cell_volume 2745.372228
_symmetry_space_group_name_H-M "C 2/C"
_symmetry_group_IT_number 15
_symmetry_cell_setting 'monoclinic'
loop_
_space_group_symop_operation_xyz
x,y,z
-x,y,1/2-z
-x,-y,-z
x,-y,1/2+z
1/2+x,1/2+y,z
1/2-x,1/2+y,1/2-z
1/2-x,1/2-y,-z
1/2+x,1/2-y,1/2+z
loop_
_atom_site_type_symbol
_atom_site_label
_atom_site_fract_x
_atom_site_fract_y
_atom_site_fract_z
Si Si1 0.565559 0.207299 0.973117
Si Si2 0.106561 0.751363 0.512467
Si Si3 0.500000 0.748396 0.750000
Si Si4 0.829418 0.978173 0.558302
Si Si5 0.159575 0.481085 0.592948
Si Si6 0.711914 0.910587 0.763990
Si Si7 0.911875 0.552726 0.129108
Si Si8 0.344539 0.596323 0.724243
O O1 0.484562 0.286952 0.984586
O O2 0.629847 0.325189 0.956862
O O3 0.551545 0.096647 0.901223
O O4 0.590760 0.114750 0.049461
O O5 0.151793 0.905510 0.507110
O O6 0.139986 0.656522 0.585942
O O7 0.123125 0.652346 0.440239
O O8 0.522278 0.853529 0.821742
O O9 0.427281 0.643571 0.767431
O O10 0.860740 0.039709 0.641036
O O11 0.737967 0.947549 0.552755
O O12 0.169578 0.436548 0.680375
O O13 0.659682 0.992451 0.822329
O O14 0.713819 0.736484 0.782884
O O15 0.800541 0.972076 0.770591
#
# Coordination Sequence:
#
# PCOD8140641 Si02
#       8
#     8   8   4   8   8   8   8   8
#     4  11  25  40  66  97 129 169 221 267 308 389
#     4  11  22  43  64  94 128 169 216 268 318 373
#     4  10  20  42  68  88 126 172 208 258 336 380
#     4  11  22  45  63  93 132 167 211 268 325 374
#     4  10  23  40  68  95 123 171 220 258 322 391
#     4  10  22  41  66  96 130 165 217 263 327 378
#     4  10  22  39  68  89 131 167 212 260 322 382
#     4  10  23  40  69  93 128 169 213 267 319 393
#
# _framework density 21.854959000000001
#
# number of rings (size 3 to 8) (size 9 to 14) (size 15 to 20)
#    0.000    1.600    2.667    2.800   11.200    0.000 
#    0.000    3.333    0.000    0.000    0.000    0.000 
#    0.000    0.000    0.000    0.000    0.000    0.000 
#
# Total GULP energy -372020.902387 kJ/mol
# GULP energy per Si atom -12400.696746 kJ/mol
# Density = 2.180522 g / cm^3
# Si number density = 21.854959 Si / 1000 Ang^3
#
#
#
# Elastic Constant Matrix: (Units=GPa)
#
#
# Indices 1 2 3 4 5 6 
#
# 1 98.3895 12.0533 6.4743 0.0000 -14.1725 0.0000
# 2 12.0533 77.9290 13.2622 0.0000 -4.7957 0.0000
# 3 6.4743 13.2622 53.3369 0.0000 -5.2444 0.0000
# 4 0.0000 0.0000 0.0000 19.5639 0.0000 -0.7788
# 5 -14.1725 -4.7957 -5.2444 0.0000 32.5294 0.0000
# 6 0.0000 0.0000 0.0000 -0.7788 0.0000 38.7007
#
#
#
# Elastic Compliance Matrix: (Units=1/GPa)
#
#
# Indices 1 2 3 4 5 6 
#
# 1 0.011014 -0.001330 -0.000563 0.000000 0.004512 0.000000
# 2 -0.001330 0.013629 -0.003136 0.000000 0.000924 0.000000
# 3 -0.000563 -0.003136 0.019842 0.000000 0.002491 0.000000
# 4 0.000000 0.000000 0.000000 0.051155 0.000000 0.001029
# 5 0.004512 0.000924 0.002491 0.000000 0.033245 0.000000
# 6 0.000000 0.000000 0.000000 0.001029 0.000000 0.025860
#
#
# Mechanical properties :
#
#
# Convention : Reuss Voigt Hill
#
# Bulk Modulus (GPa) = 29.04794 32.58166 30.81480
# Shear Modulus (GPa) = 28.36432 31.34984 29.85708
#
# Velocity S-wave (km/s) = 3.60647 3.79152 3.70015
# Velocity P-wave (km/s) = 5.53735 5.84021 5.69079
#
# Compressibility (1/GPa) = 0.03442585
#
# Stress axis : x y z
#
# Youngs Moduli (GPa) = 90.79750 73.37536 50.39845
#
# Poissons Ratio (x) = 0.09760 0.02835
# Poissons Ratio (y) = 0.12077 0.15807
# Poissons Ratio (z) = 0.05108 0.23014
#
# Static dielectric constant tensor:
#      x y z
#    x 3.949180 0.000000 -0.101800 
#    y 0.000000 3.943930 0.000000 
#    z -0.101800 0.000000 3.937760 
# 
# 
# High freq. dielectric constant tensor:
#      x y z
#    x 1.866810 0.000000 -0.013770 
#    y 0.000000 1.852900 0.000000 
#    z -0.013770 0.000000 1.850290 
# 
# From -- ./inp_files/209592.got.cif
#   From: 2010.06.25/outbox.cif.g09.slc.cpg/sg15_105_cif.got.tgz:209592.got - 2010.06.28 07:06:18.
