data_PCOD8140554
_publ_section_title
;
Structure prediction by ZEFSAII (Michael W. Deem and Ramdas Pophale) SiO2 
 PCOD8140554
Probable space group: C 2/C
;
_chemical_formula_sum "Si O2"
_cell_formula_units_Z 60
_cell_length_a 16.114432
_cell_length_b 14.813719
_cell_length_c 21.301547
_cell_angle_alpha 90.000000
_cell_angle_beta 146.164886
_cell_angle_gamma 90.000000
_cell_volume 2831.347710
_symmetry_space_group_name_H-M "C 2/C"
_symmetry_group_IT_number 15
_symmetry_cell_setting 'monoclinic'
loop_
_space_group_symop_operation_xyz
x,y,z
-x,y,1/2-z
-x,-y,-z
x,-y,1/2+z
1/2+x,1/2+y,z
1/2-x,1/2+y,1/2-z
1/2-x,1/2-y,-z
1/2+x,1/2-y,1/2+z
loop_
_atom_site_type_symbol
_atom_site_label
_atom_site_fract_x
_atom_site_fract_y
_atom_site_fract_z
Si Si1 0.101809 0.371407 0.051313
Si Si2 0.753006 0.929880 0.482435
Si Si3 0.196681 0.435630 0.587243
Si Si4 0.814083 0.127156 0.480633
Si Si5 0.500000 0.830475 0.250000
Si Si6 0.286045 0.694807 0.331007
Si Si7 0.947705 0.168852 0.305260
Si Si8 0.554965 0.796422 0.888783
O O1 0.177066 0.468379 0.109170
O O2 0.188419 0.301920 0.150048
O O3 0.125095 0.341324 0.994660
O O4 0.927949 0.369062 0.962328
O O5 0.668490 0.946224 0.495089
O O6 0.636505 0.893582 0.357697
O O7 0.882171 0.857099 0.574949
O O8 0.828511 0.022167 0.505978
O O9 0.362906 0.397470 0.703308
O O10 0.857930 0.142254 0.435331
O O11 0.646125 0.164516 0.386843
O O12 0.925980 0.187347 0.594186
O O13 0.445933 0.768929 0.274408
O O14 0.358650 0.658947 0.313558
O O15 0.112878 0.672600 0.222655
#
# Coordination Sequence:
#
# PCOD8140554 Si02
#       8
#     8   8   8   8   4   8   8   8
#     4  10  22  39  67  98 127 179 217 268 330 392
#     4  12  26  45  70  99 135 167 232 273 330 399
#     4  11  22  44  69  97 134 171 228 273 324 393
#     4  10  24  41  66  98 130 175 214 274 327 397
#     4  12  28  44  72  92 130 184 216 280 330 384
#     4  11  24  41  67  95 138 167 219 267 336 397
#     4  12  26  45  68  96 132 179 222 277 327 393
#     4  10  20  42  64  94 137 171 214 265 334 395
#
# _framework density 21.191320999999999
#
# number of rings (size 3 to 8) (size 9 to 14) (size 15 to 20)
#    0.000    1.067    4.000    1.600    5.600    0.533 
#    2.400    0.000    0.000    0.000    0.000    0.000 
#    0.000    0.000    0.000    0.000    0.000    0.000 
#
# Total GULP energy -372105.086680 kJ/mol
# GULP energy per Si atom -12403.502889 kJ/mol
# Density = 2.114309 g / cm^3
# Si number density = 21.191321 Si / 1000 Ang^3
#
#
#
# Elastic Constant Matrix: (Units=GPa)
#
#
# Indices 1 2 3 4 5 6 
#
# 1 98.9088 12.4158 8.7342 0.0002 -11.3321 -0.0001
# 2 12.4158 86.9651 14.9243 0.0000 -11.3356 -0.0001
# 3 8.7342 14.9243 74.8828 0.0017 0.6465 0.0001
# 4 0.0002 0.0000 0.0017 26.4905 0.0004 3.9949
# 5 -11.3321 -11.3356 0.6465 0.0004 31.6361 -0.0001
# 6 -0.0001 -0.0001 0.0001 3.9949 -0.0001 30.2375
#
#
#
# Elastic Compliance Matrix: (Units=1/GPa)
#
#
# Indices 1 2 3 4 5 6 
#
# 1 0.010725 -0.000879 -0.001106 0.000000 0.003549 0.000000
# 2 -0.000879 0.012598 -0.002445 0.000000 0.004249 0.000000
# 3 -0.001106 -0.002445 0.013984 -0.000001 -0.001558 0.000000
# 4 0.000000 0.000000 -0.000001 0.038517 -0.000001 -0.005089
# 5 0.003549 0.004249 -0.001558 -0.000001 0.034435 0.000000
# 6 0.000000 0.000000 0.000000 -0.005089 0.000000 0.033744
#
#
# Mechanical properties :
#
#
# Convention : Reuss Voigt Hill
#
# Bulk Modulus (GPa) = 35.15357 36.98947 36.07152
# Shear Modulus (GPa) = 30.79863 32.65166 31.72514
#
# Velocity S-wave (km/s) = 3.81643 3.92957 3.87341
# Velocity P-wave (km/s) = 6.00374 6.17102 6.08796
#
# Compressibility (1/GPa) = 0.02844661
#
# Stress axis : x y z
#
# Youngs Moduli (GPa) = 93.24020 79.37920 71.51030
#
# Poissons Ratio (x) = 0.06975 0.07912
# Poissons Ratio (y) = 0.08192 0.17484
# Poissons Ratio (z) = 0.10317 0.19408
#
# Static dielectric constant tensor:
#      x y z
#    x 3.958240 0.000000 -0.076520 
#    y 0.000000 3.762400 0.000000 
#    z -0.076520 0.000000 3.649000 
# 
# 
# High freq. dielectric constant tensor:
#      x y z
#    x 1.842750 0.000000 -0.003800 
#    y 0.000000 1.827730 0.000000 
#    z -0.003800 0.000000 1.818800 
# 
# From -- ./inp_files/244708.got.cif
#   From: 2010.06.25/outbox.cif.g09.slc.cpg/sg15_123_cif.got.tgz:244708.got - 2010.06.28 07:06:18.
