data_PCOD8140222
_publ_section_title
;
Structure prediction by ZEFSAII (Michael W. Deem and Ramdas Pophale) SiO2 
 PCOD8140222
Probable space group: C 2/C
;
_chemical_formula_sum "Si O2"
_cell_formula_units_Z 56
_cell_length_a 21.850958
_cell_length_b 8.615717
_cell_length_c 14.558650
_cell_angle_alpha 90.000000
_cell_angle_beta 111.220757
_cell_angle_gamma 90.000000
_cell_volume 2554.987179
_symmetry_space_group_name_H-M "C 2/C"
_symmetry_group_IT_number 15
_symmetry_cell_setting 'monoclinic'
loop_
_space_group_symop_operation_xyz
x,y,z
-x,y,1/2-z
-x,-y,-z
x,-y,1/2+z
1/2+x,1/2+y,z
1/2-x,1/2+y,1/2-z
1/2-x,1/2-y,-z
1/2+x,1/2-y,1/2+z
loop_
_atom_site_type_symbol
_atom_site_label
_atom_site_fract_x
_atom_site_fract_y
_atom_site_fract_z
Si Si1 0.160122 0.498289 0.970999
Si Si2 0.000000 0.740481 0.250000
Si Si3 0.500000 0.261606 0.750000
Si Si4 0.685905 0.323159 0.515507
Si Si5 0.891707 0.012865 0.679138
Si Si6 0.018838 0.523260 0.905193
Si Si7 0.258551 0.618493 0.162106
Si Si8 0.726604 0.982214 0.322907
O O1 0.093060 0.591500 0.945949
O O2 0.170852 0.475543 0.866937
O O3 0.146534 0.334475 0.016953
O O4 0.223991 0.586959 0.044971
O O5 0.936548 0.846393 0.241963
O O6 0.985509 0.639326 0.151696
O O7 0.437028 0.363129 0.689341
O O8 0.478916 0.154476 0.826485
O O9 0.750000 0.250000 0.500000
O O10 0.639939 0.438010 0.433869
O O11 0.706787 0.423709 0.614733
O O12 0.829566 0.966146 0.709454
O O13 0.000000 0.500000 0.000000
O O14 0.263544 0.800202 0.177666
O O15 0.209548 0.546780 0.212477
#
# Coordination Sequence:
#
# PCOD8140222 Si02
#       8
#     8   4   4   8   8   8   8   8
#     4  11  23  43  69  95 137 169 222 275 336 387
#     4  10  24  46  68  92 132 182 218 272 324 392
#     4  10  26  44  66 100 136 178 220 280 326 398
#     4  10  20  40  70  93 131 175 215 266 338 387
#     4  11  22  45  69  94 137 178 221 270 336 389
#     4  11  25  45  71  96 132 175 227 270 331 396
#     4  12  25  40  68 104 132 173 221 276 332 402
#     4  11  25  39  65 103 136 172 213 271 345 393
#
# _framework density 21.917916999999999
#
# number of rings (size 3 to 8) (size 9 to 14) (size 15 to 20)
#    0.000    1.143    4.286    2.143    4.000    5.714 
#    0.000    1.429    0.000    0.000    0.000    0.000 
#    0.000    0.000    0.000    0.000    0.000    0.000 
#
# Total GULP energy -346946.670829 kJ/mol
# GULP energy per Si atom -12390.952530 kJ/mol
# Density = 2.186803 g / cm^3
# Si number density = 21.917917 Si / 1000 Ang^3
#
#
#
# Elastic Constant Matrix: (Units=GPa)
#
#
# Indices 1 2 3 4 5 6 
#
# 1 86.3774 27.0021 36.1677 0.0000 1.3578 0.0000
# 2 27.0021 143.4670 40.1487 0.0000 1.4446 0.0000
# 3 36.1677 40.1487 88.7799 0.0000 -8.6842 0.0000
# 4 0.0000 0.0000 0.0000 40.1336 0.0000 7.6907
# 5 1.3578 1.4446 -8.6842 0.0000 36.6279 0.0000
# 6 0.0000 0.0000 0.0000 7.6907 0.0000 24.9122
#
#
#
# Elastic Compliance Matrix: (Units=1/GPa)
#
#
# Indices 1 2 3 4 5 6 
#
# 1 0.014248 -0.001134 -0.005466 0.000000 -0.001779 0.000000
# 2 -0.001134 0.008122 -0.003315 0.000000 -0.001064 0.000000
# 3 -0.005466 -0.003315 0.015379 0.000000 0.003980 0.000000
# 4 0.000000 0.000000 0.000000 0.026484 0.000000 -0.008176
# 5 -0.001779 -0.001064 0.003980 0.000000 0.028353 0.000000
# 6 0.000000 0.000000 0.000000 -0.008176 0.000000 0.042665
#
#
# Mechanical properties :
#
#
# Convention : Reuss Voigt Hill
#
# Bulk Modulus (GPa) = 55.80571 58.36238 57.08405
# Shear Modulus (GPa) = 31.04553 34.68846 32.86699
#
# Velocity S-wave (km/s) = 3.76765 3.98257 3.87660
# Velocity P-wave (km/s) = 6.66659 6.91617 6.79253
#
# Compressibility (1/GPa) = 0.01791931
#
# Stress axis : x y z
#
# Youngs Moduli (GPa) = 70.18433 123.12013 65.02423
#
# Poissons Ratio (x) = 0.13964 0.35540
# Poissons Ratio (y) = 0.07960 0.21556
# Poissons Ratio (z) = 0.38360 0.40816
#
# Static dielectric constant tensor:
#      x y z
#    x 3.876380 0.000000 0.276030 
#    y 0.000000 4.390670 0.000000 
#    z 0.276030 0.000000 4.041110 
# 
# 
# High freq. dielectric constant tensor:
#      x y z
#    x 1.840710 0.000000 0.018820 
#    y 0.000000 1.881320 0.000000 
#    z 0.018820 0.000000 1.857800 
# 
# From -- ./inp_files/172010.got.cif
#   From: 2010.06.25/outbox.cif.g09.slc.cpg/sg15_87_cif.got.tgz:172010.got - 2010.06.28 07:06:18.
