data_PCOD8140988
_publ_section_title
;
Structure prediction by ZEFSAII (Michael W. Deem and Ramdas Pophale) SiO2 
 PCOD8140988
Probable space group: C 2/C
;
_chemical_formula_sum "Si O2"
_cell_formula_units_Z 56
_cell_length_a 4.976677
_cell_length_b 24.208483
_cell_length_c 22.461457
_cell_angle_alpha 90.000000
_cell_angle_beta 96.498381
_cell_angle_gamma 90.000000
_cell_volume 2688.720346
_symmetry_space_group_name_H-M "C 2/C"
_symmetry_group_IT_number 15
_symmetry_cell_setting 'monoclinic'
loop_
_space_group_symop_operation_xyz
x,y,z
-x,y,1/2-z
-x,-y,-z
x,-y,1/2+z
1/2+x,1/2+y,z
1/2-x,1/2+y,1/2-z
1/2-x,1/2-y,-z
1/2+x,1/2-y,1/2+z
loop_
_atom_site_type_symbol
_atom_site_label
_atom_site_fract_x
_atom_site_fract_y
_atom_site_fract_z
Si Si1 0.540300 0.552615 0.040377
Si Si2 0.887074 0.170689 0.488789
Si Si3 0.578976 0.066849 0.114820
Si Si4 0.565581 0.144364 0.682748
Si Si5 0.277559 0.976747 0.291007
Si Si6 0.640630 0.186769 0.091044
Si Si7 0.545302 0.302369 0.124288
O O1 0.624599 0.604577 0.002155
O O2 0.243825 0.563506 0.058079
O O3 0.772231 0.545181 0.097098
O O4 0.500000 0.500000 0.000000
O O5 0.080259 0.186629 0.438490
O O6 0.960037 0.196350 0.553521
O O7 0.591950 0.192440 0.464470
O O8 0.590886 0.132256 0.131434
O O9 0.738836 0.028066 0.164725
O O10 0.500000 0.157357 0.750000
O O11 0.643305 0.080349 0.674352
O O12 0.295236 0.156175 0.639048
O O13 0.807766 0.182456 0.664477
O O14 0.500000 0.994919 0.250000
O O15 0.000000 0.967015 0.250000
O O16 0.636177 0.238701 0.136597
#
# Coordination Sequence:
#
# PCOD8140988 Si02
#       7
#     8   8   8   8   8   8   8
#     4  10  21  34  55  88 125 153 188 242 292 353
#     4  10  21  35  58  90 124 156 200 231 287 370
#     4  10  22  38  60  83 121 154 190 245 299 340
#     4  11  25  41  59  87 116 148 201 256 297 339
#     4  11  23  42  64  84 115 154 201 251 297 357
#     4  10  21  40  57  91 124 155 191 248 285 351
#     4  12  22  38  66  84 118 165 198 235 304 353
#
# _framework density 20.827752
#
# number of rings (size 3 to 8) (size 9 to 14) (size 15 to 20)
#    0.000    1.429    0.000    6.000    4.000    0.000 
#    0.000    2.143    0.000    0.000    0.000    0.000 
#    0.000    0.000    0.000    0.000    0.000    0.000 
#
# Total GULP energy -347171.950163 kJ/mol
# GULP energy per Si atom -12398.998220 kJ/mol
# Density = 2.078035 g / cm^3
# Si number density = 20.827752 Si / 1000 Ang^3
#
#
#
# Elastic Constant Matrix: (Units=GPa)
#
#
# Indices 1 2 3 4 5 6 
#
# 1 101.3989 29.6668 9.5056 0.0000 1.5651 0.0000
# 2 29.6668 139.0047 55.6162 0.0000 3.6679 0.0000
# 3 9.5056 55.6162 48.4544 0.0000 -3.3838 0.0000
# 4 0.0000 0.0000 0.0000 27.4840 0.0000 -0.9361
# 5 1.5651 3.6679 -3.3838 0.0000 31.8742 0.0000
# 6 0.0000 0.0000 0.0000 -0.9361 0.0000 30.2294
#
#
#
# Elastic Compliance Matrix: (Units=1/GPa)
#
#
# Indices 1 2 3 4 5 6 
#
# 1 0.010543 -0.002619 0.000930 0.000000 -0.000118 0.000000
# 2 -0.002619 0.014281 -0.016103 0.000000 -0.003224 0.000000
# 3 0.000930 -0.016103 0.039357 0.000000 0.005986 0.000000
# 4 0.000000 0.000000 0.000000 0.036423 0.000000 0.001128
# 5 -0.000118 -0.003224 0.005986 0.000000 0.032386 0.000000
# 6 0.000000 0.000000 0.000000 0.001128 0.000000 0.033115
#
#
# Mechanical properties :
#
#
# Convention : Reuss Voigt Hill
#
# Bulk Modulus (GPa) = 34.97031 53.15947 44.06489
# Shear Modulus (GPa) = 23.67179 30.85547 27.26363
#
# Velocity S-wave (km/s) = 3.37493 3.85315 3.62194
# Velocity P-wave (km/s) = 5.65806 6.73606 6.22045
#
# Compressibility (1/GPa) = 0.02859569
#
# Stress axis : x y z
#
# Youngs Moduli (GPa) = 94.85018 70.02343 25.40852
#
# Poissons Ratio (x) = 0.18338 -0.02362
# Poissons Ratio (y) = 0.24840 0.40916
# Poissons Ratio (z) = -0.08816 1.12760
#
# Static dielectric constant tensor:
#      x y z
#    x 4.023760 0.000000 0.000330 
#    y 0.000000 4.239500 0.000000 
#    z 0.000330 0.000000 3.396180 
# 
# 
# High freq. dielectric constant tensor:
#      x y z
#    x 1.837650 0.000000 0.001360 
#    y 0.000000 1.834260 0.000000 
#    z 0.001360 0.000000 1.778380 
# 
# From -- ./inp_files/227937.got.cif
#   From: 2010.06.25/outbox.cif.g09.slc.cpg/sg15_114_cif.got.tgz:227937.got - 2010.06.28 07:06:18.
