data_PCOD8140946
_publ_section_title
;
Structure prediction by ZEFSAII (Michael W. Deem and Ramdas Pophale) SiO2 
 PCOD8140946
Probable space group: C 2/C
;
_chemical_formula_sum "Si O2"
_cell_formula_units_Z 52
_cell_length_a 30.823687
_cell_length_b 15.313010
_cell_length_c 15.391085
_cell_angle_alpha 90.000000
_cell_angle_beta 18.834453
_cell_angle_gamma 90.000000
_cell_volume 2345.280714
_symmetry_space_group_name_H-M "C 2/C"
_symmetry_group_IT_number 15
_symmetry_cell_setting 'monoclinic'
loop_
_space_group_symop_operation_xyz
x,y,z
-x,y,1/2-z
-x,-y,-z
x,-y,1/2+z
1/2+x,1/2+y,z
1/2-x,1/2+y,1/2-z
1/2-x,1/2-y,-z
1/2+x,1/2-y,1/2+z
loop_
_atom_site_type_symbol
_atom_site_label
_atom_site_fract_x
_atom_site_fract_y
_atom_site_fract_z
Si Si1 0.908624 0.176533 0.749918
Si Si2 0.131656 0.940568 0.889649
Si Si3 0.383542 0.815059 0.658810
Si Si4 0.315313 0.722696 0.098475
Si Si5 0.779625 0.814172 0.068218
Si Si6 0.339229 0.874925 0.375694
Si Si7 0.500000 0.414072 0.750000
O O1 0.950613 0.238483 0.590735
O O2 0.007086 0.093608 0.565855
O O3 0.751491 0.146281 0.037958
O O4 0.923293 0.231602 0.814172
O O5 0.164045 0.873939 0.904515
O O6 0.261227 0.948847 0.579766
O O7 0.098094 0.030353 0.001225
O O8 0.336454 0.775443 0.655523
O O9 0.498700 0.888984 0.428714
O O10 0.322463 0.798877 0.156791
O O11 0.808311 0.718925 0.975877
O O12 0.916161 0.856458 0.842268
O O13 0.710415 0.877730 0.129786
#
# Coordination Sequence:
#
# PCOD8140946 Si02
#       7
#     8   8   8   8   8   8   4
#     4   9  17  31  54  89 113 159 198 250 287 364
#     4  11  21  36  60  84 124 155 201 239 318 351
#     4   9  17  30  56  87 116 145 208 244 289 341
#     4   9  17  33  56  88 111 162 197 253 285 363
#     4  10  21  33  58  84 125 144 203 251 301 332
#     4  10  21  38  55  91 118 164 189 252 298 369
#     4  12  22  38  58  96 118 156 198 266 286 366
#
# _framework density 22.172187999999998
#
# number of rings (size 3 to 8) (size 9 to 14) (size 15 to 20)
#    0.923    1.231    1.538    3.692    0.000    2.462 
#    0.000    0.000    0.000    3.692   40.000    0.000 
#    0.000    0.000    0.000    0.000    0.000    0.000 
#
# Total GULP energy -322118.230459 kJ/mol
# GULP energy per Si atom -12389.162710 kJ/mol
# Density = 2.212172 g / cm^3
# Si number density = 22.172188 Si / 1000 Ang^3
#
#
#
# Elastic Constant Matrix: (Units=GPa)
#
#
# Indices 1 2 3 4 5 6 
#
# 1 99.6382 15.8920 12.4746 -0.0001 5.2064 0.0001
# 2 15.8920 26.4120 2.7323 0.0000 7.3525 0.0001
# 3 12.4746 2.7323 114.2373 0.0000 6.1940 0.0001
# 4 -0.0001 0.0000 0.0000 24.3821 0.0001 -1.0881
# 5 5.2064 7.3525 6.1940 0.0001 15.2492 -0.0001
# 6 0.0001 0.0001 0.0001 -1.0881 -0.0001 8.6850
#
#
#
# Elastic Compliance Matrix: (Units=1/GPa)
#
#
# Indices 1 2 3 4 5 6 
#
# 1 0.011231 -0.006584 -0.001056 0.000000 -0.000231 0.000000
# 2 -0.006584 0.047592 0.000719 0.000000 -0.020991 -0.000001
# 3 -0.001056 0.000719 0.009050 0.000000 -0.003662 0.000000
# 4 0.000000 0.000000 0.000000 0.041244 0.000000 0.005167
# 5 -0.000231 -0.020991 -0.003662 0.000000 0.077264 0.000001
# 6 0.000000 -0.000001 0.000000 0.005167 0.000001 0.115788
#
#
# Mechanical properties :
#
#
# Convention : Reuss Voigt Hill
#
# Bulk Modulus (GPa) = 18.50814 33.60947 26.05881
# Shear Modulus (GPa) = 14.96902 23.60917 19.28909
#
# Velocity S-wave (km/s) = 2.60114 3.26668 2.95272
# Velocity P-wave (km/s) = 4.16975 5.42398 4.83768
#
# Compressibility (1/GPa) = 0.05403027
#
# Stress axis : x y z
#
# Youngs Moduli (GPa) = 89.04112 21.01183 110.49190
#
# Poissons Ratio (x) = 0.13834 0.11672
# Poissons Ratio (y) = 0.58625 -0.07942
# Poissons Ratio (z) = 0.09406 -0.01510
#
# Static dielectric constant tensor:
#      x y z
#    x 4.325030 0.000000 0.038430 
#    y 0.000000 3.272610 0.000000 
#    z 0.038430 0.000000 4.261980 
# 
# 
# High freq. dielectric constant tensor:
#      x y z
#    x 1.894890 0.000000 -0.000190 
#    y 0.000000 1.796300 0.000000 
#    z -0.000190 0.000000 1.881880 
# 
# From -- ./inp_files/182825.got.cif
#   From: 2010.06.25/outbox.cif.g09.slc.cpg/sg15_92_cif.got.tgz:182825.got - 2010.06.28 07:06:18.
