data_PCOD8140592
_publ_section_title
;
Structure prediction by ZEFSAII (Michael W. Deem and Ramdas Pophale) SiO2 
 PCOD8140592
Probable space group: C 2/C
;
_chemical_formula_sum "Si O2"
_cell_formula_units_Z 48
_cell_length_a 6.808224
_cell_length_b 20.139242
_cell_length_c 15.678822
_cell_angle_alpha 90.000000
_cell_angle_beta 105.322502
_cell_angle_gamma 90.000000
_cell_volume 2073.345963
_symmetry_space_group_name_H-M "C 2/C"
_symmetry_group_IT_number 15
_symmetry_cell_setting 'monoclinic'
loop_
_space_group_symop_operation_xyz
x,y,z
-x,y,1/2-z
-x,-y,-z
x,-y,1/2+z
1/2+x,1/2+y,z
1/2-x,1/2+y,1/2-z
1/2-x,1/2-y,-z
1/2+x,1/2-y,1/2+z
loop_
_atom_site_type_symbol
_atom_site_label
_atom_site_fract_x
_atom_site_fract_y
_atom_site_fract_z
Si Si1 0.000000 0.964981 0.250000
Si Si2 0.500000 0.140967 0.250000
Si Si3 0.676515 0.756592 0.640762
Si Si4 0.334965 0.578525 0.986707
Si Si5 0.405127 0.643389 0.620357
Si Si6 0.528120 0.197621 0.946963
Si Si7 0.685533 0.543513 0.133188
O O1 0.139433 0.918295 0.324269
O O2 0.171853 0.006555 0.221572
O O3 0.348197 0.183371 0.294542
O O4 0.359086 0.099211 0.167728
O O5 0.587320 0.690799 0.676264
O O6 0.550102 0.763319 0.537896
O O7 0.903498 0.740975 0.629415
O O8 0.525099 0.611673 0.960159
O O9 0.144762 0.627527 0.970608
O O10 0.257197 0.509178 0.935454
O O11 0.450761 0.568351 0.090466
O O12 0.207954 0.687893 0.591134
#
# Coordination Sequence:
#
# PCOD8140592 Si02
#       7
#     4   4   8   8   8   8   8
#     4  10  23  40  60  92 125 164 214 270 316 374
#     4  12  25  40  62  94 143 172 204 280 346 370
#     4  10  23  41  60 101 126 162 217 270 322 386
#     4   9  21  43  64  92 125 168 224 266 307 392
#     4  10  20  42  66  89 126 163 211 273 318 374
#     4  10  21  40  74  89 118 175 223 253 323 403
#     4  10  23  41  59  90 135 168 211 269 319 385
#
# _framework density 23.150983
#
# number of rings (size 3 to 8) (size 9 to 14) (size 15 to 20)
#    0.000    2.000    0.000    2.000    4.667    2.667 
#    0.000   10.000    0.000    0.000    0.000    0.000 
#    0.000    0.000    0.000    0.000    0.000    0.000 
#
# Total GULP energy -297327.005383 kJ/mol
# GULP energy per Si atom -12388.625224 kJ/mol
# Density = 2.309829 g / cm^3
# Si number density = 23.150983 Si / 1000 Ang^3
#
#
#
# Elastic Constant Matrix: (Units=GPa)
#
#
# Indices 1 2 3 4 5 6 
#
# 1 74.1790 23.0884 14.2881 0.0000 -7.2990 0.0000
# 2 23.0884 102.4965 22.3600 0.0000 -8.3110 0.0000
# 3 14.2881 22.3600 58.9974 0.0000 -13.2225 0.0000
# 4 0.0000 0.0000 0.0000 33.7252 0.0000 5.8918
# 5 -7.2990 -8.3110 -13.2225 0.0000 26.2826 0.0000
# 6 0.0000 0.0000 0.0000 5.8918 0.0000 29.7295
#
#
#
# Elastic Compliance Matrix: (Units=1/GPa)
#
#
# Indices 1 2 3 4 5 6 
#
# 1 0.014953 -0.002732 -0.002084 0.000000 0.002240 0.000000
# 2 -0.002732 0.011188 -0.003331 0.000000 0.001103 0.000000
# 3 -0.002084 -0.003331 0.020683 0.000000 0.008773 0.000000
# 4 0.000000 0.000000 0.000000 0.030715 0.000000 -0.006087
# 5 0.002240 0.001103 0.008773 0.000000 0.043433 0.000000
# 6 0.000000 0.000000 0.000000 -0.006087 0.000000 0.034843
#
#
# Mechanical properties :
#
#
# Convention : Reuss Voigt Hill
#
# Bulk Modulus (GPa) = 32.75456 39.46067 36.10761
# Shear Modulus (GPa) = 27.42936 29.67656 28.55296
#
# Velocity S-wave (km/s) = 3.44583 3.58421 3.51570
# Velocity P-wave (km/s) = 5.47820 5.84899 5.66662
#
# Compressibility (1/GPa) = 0.03053010
#
# Stress axis : x y z
#
# Youngs Moduli (GPa) = 66.87583 89.38094 48.34780
#
# Poissons Ratio (x) = 0.24420 0.10075
# Poissons Ratio (y) = 0.18271 0.16106
# Poissons Ratio (z) = 0.13935 0.29776
#
# Static dielectric constant tensor:
#      x y z
#    x 3.898260 0.000000 -0.408220 
#    y 0.000000 4.507600 0.000000 
#    z -0.408220 0.000000 4.288280 
# 
# 
# High freq. dielectric constant tensor:
#      x y z
#    x 1.892360 0.000000 -0.014610 
#    y 0.000000 1.933680 0.000000 
#    z -0.014610 0.000000 1.911500 
# 
# From -- ./inp_files/185358.got.cif
#   From: 2010.06.25/outbox.cif.g09.slc.cpg/sg15_93_cif.got.tgz:185358.got - 2010.06.28 07:06:18.
