data_PCOD8140155
_publ_section_title
;
Structure prediction by ZEFSAII (Michael W. Deem and Ramdas Pophale) SiO2 
 PCOD8140155
Probable space group: C 2/C
;
_chemical_formula_sum "Si O2"
_cell_formula_units_Z 44
_cell_length_a 10.256462
_cell_length_b 18.664638
_cell_length_c 13.788293
_cell_angle_alpha 90.000000
_cell_angle_beta 135.703391
_cell_angle_gamma 90.000000
_cell_volume 1843.380738
_symmetry_space_group_name_H-M "C 2/C"
_symmetry_group_IT_number 15
_symmetry_cell_setting 'monoclinic'
loop_
_space_group_symop_operation_xyz
x,y,z
-x,y,1/2-z
-x,-y,-z
x,-y,1/2+z
1/2+x,1/2+y,z
1/2-x,1/2+y,1/2-z
1/2-x,1/2-y,-z
1/2+x,1/2-y,1/2+z
loop_
_atom_site_type_symbol
_atom_site_label
_atom_site_fract_x
_atom_site_fract_y
_atom_site_fract_z
Si Si1 0.000000 0.988830 0.750000
Si Si2 0.256439 0.548262 0.290643
Si Si3 0.276593 0.115603 0.743690
Si Si4 0.137228 0.107911 0.947114
Si Si5 0.702283 0.747760 0.364011
Si Si6 0.012409 0.354301 0.956288
O O1 0.100934 0.940269 0.723324
O O2 0.156788 0.037810 0.887910
O O3 0.229849 0.464751 0.302366
O O4 0.337394 0.588968 0.426403
O O5 0.062295 0.581793 0.151858
O O6 0.321623 0.170629 0.682841
O O7 0.073567 0.136622 0.680245
O O8 0.440237 0.120584 0.910117
O O9 0.292481 0.166268 0.994640
O O10 0.500000 0.708820 0.250000
O O11 0.750000 0.750000 0.500000
O O12 0.860015 0.709124 0.381897
#
# Coordination Sequence:
#
# PCOD8140155 Si02
#       6
#     4   8   8   8   8   8
#     4  10  20  40  68 104 150 190 244 302 370 444
#     4  11  25  42  76 113 150 196 250 313 374 445
#     4  11  24  49  75 103 150 199 245 313 377 444
#     4  11  23  44  70 110 148 196 250 304 381 440
#     4  12  29  51  74 108 148 203 259 307 381 451
#     4  12  25  46  72 108 149 192 249 313 374 450
#
# _framework density 23.869188000000001
#
# number of rings (size 3 to 8) (size 9 to 14) (size 15 to 20)
#    0.000    0.727    5.455    3.273    3.818    3.636 
#    0.000    1.818    0.000    0.000    0.000    0.000 
#    0.000    0.000    0.000    0.000    0.000    0.000 
#
# Total GULP energy -272697.693956 kJ/mol
# GULP energy per Si atom -12395.349725 kJ/mol
# Density = 2.381486 g / cm^3
# Si number density = 23.869188 Si / 1000 Ang^3
#
#
#
# Elastic Constant Matrix: (Units=GPa)
#
#
# Indices 1 2 3 4 5 6 
#
# 1 101.7369 27.8712 38.5342 0.0000 0.4995 0.0000
# 2 27.8712 65.3420 26.5546 0.0000 5.7675 0.0000
# 3 38.5342 26.5546 155.5067 0.0000 -3.6294 0.0001
# 4 0.0000 0.0000 0.0000 22.7075 0.0000 -7.9464
# 5 0.4995 5.7675 -3.6294 0.0000 50.8491 0.0001
# 6 0.0000 0.0000 0.0001 -7.9464 0.0001 41.7529
#
#
#
# Elastic Compliance Matrix: (Units=1/GPa)
#
#
# Indices 1 2 3 4 5 6 
#
# 1 0.011804 -0.004154 -0.002211 0.000000 0.000197 0.000000
# 2 -0.004154 0.018127 -0.002117 0.000000 -0.002166 0.000000
# 3 -0.002211 -0.002117 0.007358 0.000000 0.000787 0.000000
# 4 0.000000 0.000000 0.000000 0.047181 0.000000 0.008979
# 5 0.000197 -0.002166 0.000787 0.000000 0.019966 0.000000
# 6 0.000000 0.000000 0.000000 0.008979 0.000000 0.025659
#
#
# Mechanical properties :
#
#
# Convention : Reuss Voigt Hill
#
# Bulk Modulus (GPa) = 49.19714 56.50063 52.84888
# Shear Modulus (GPa) = 32.50270 38.37027 35.43649
#
# Velocity S-wave (km/s) = 3.69413 4.01374 3.85725
# Velocity P-wave (km/s) = 6.23308 6.72328 6.48282
#
# Compressibility (1/GPa) = 0.02032639
#
# Stress axis : x y z
#
# Youngs Moduli (GPa) = 84.71941 55.16561 135.90081
#
# Poissons Ratio (x) = 0.22914 0.30048
# Poissons Ratio (y) = 0.35189 0.28767
# Poissons Ratio (z) = 0.18732 0.11677
#
# Static dielectric constant tensor:
#      x y z
#    x 4.508870 0.000000 0.175430 
#    y 0.000000 4.082830 0.000000 
#    z 0.175430 0.000000 4.565270 
# 
# 
# High freq. dielectric constant tensor:
#      x y z
#    x 1.959650 0.000000 0.003340 
#    y 0.000000 1.904630 0.000000 
#    z 0.003340 0.000000 1.968680 
# 
# From -- ./inp_files/147933.got.cif
#   From: 2010.06.25/outbox.cif.g09.slc.cpg/sg15_74_cif.got.tgz:147933.got - 2010.06.28 07:06:18.
