data_PCOD8140610
_publ_section_title
;
Structure prediction by ZEFSAII (Michael W. Deem and Ramdas Pophale) SiO2 
 PCOD8140610
Probable space group: C 2/C
;
_chemical_formula_sum "Si O2"
_cell_formula_units_Z 52
_cell_length_a 10.806529
_cell_length_b 25.065036
_cell_length_c 12.963555
_cell_angle_alpha 90.000000
_cell_angle_beta 134.612877
_cell_angle_gamma 90.000000
_cell_volume 2499.644668
_symmetry_space_group_name_H-M "C 2/C"
_symmetry_group_IT_number 15
_symmetry_cell_setting 'monoclinic'
loop_
_space_group_symop_operation_xyz
x,y,z
-x,y,1/2-z
-x,-y,-z
x,-y,1/2+z
1/2+x,1/2+y,z
1/2-x,1/2+y,1/2-z
1/2-x,1/2-y,-z
1/2+x,1/2-y,1/2+z
loop_
_atom_site_type_symbol
_atom_site_label
_atom_site_fract_x
_atom_site_fract_y
_atom_site_fract_z
Si Si1 0.270984 0.689635 0.472574
Si Si2 0.367839 0.657757 0.302654
Si Si3 0.500000 0.376512 0.250000
Si Si4 0.240405 0.810997 0.971872
Si Si5 0.174105 0.564143 0.666052
Si Si6 0.835118 0.558441 0.327584
Si Si7 0.500000 0.879586 0.250000
Si Si8 0.500000 0.883162 0.750000
O O1 0.250000 0.750000 0.500000
O O2 0.291188 0.683423 0.361481
O O3 0.434063 0.662335 0.621996
O O4 0.097530 0.654591 0.392091
O O5 0.271460 0.691040 0.158169
O O6 0.573518 0.662346 0.426426
O O7 0.328627 0.596452 0.245226
O O8 0.658478 0.409903 0.292327
O O9 0.250000 0.750000 0.000000
O O10 0.405130 0.842424 0.111426
O O11 0.225082 0.502259 0.704651
O O12 0.134844 0.585611 0.759352
O O13 0.999174 0.570386 0.497201
O O14 0.874082 0.576181 0.233814
#
# Coordination Sequence:
#
# PCOD8140610 Si02
#       8
#     8   8   4   8   8   8   4   4
#     4  11  24  41  66  95 132 176 218 272 334 399
#     4  10  23  44  65  95 130 179 223 273 330 409
#     4  12  25  44  64 108 136 164 229 286 330 390
#     4  11  24  42  66  97 134 174 223 279 332 394
#     4  11  24  42  69 101 134 175 222 287 331 393
#     4  10  21  44  68  93 134 181 221 267 344 398
#     4  12  23  44  68 102 134 176 231 274 334 394
#     4  10  20  42  66  94 132 174 220 264 330 406
#
# _framework density 20.802956999999999
#
# number of rings (size 3 to 8) (size 9 to 14) (size 15 to 20)
#    0.000    1.231    3.077    2.769    0.000    7.385 
#    0.000    3.846    0.000    0.000    0.000    0.000 
#    0.000    0.000    0.000    0.000    0.000    0.000 
#
# Total GULP energy -322132.139070 kJ/mol
# GULP energy per Si atom -12389.697657 kJ/mol
# Density = 2.075561 g / cm^3
# Si number density = 20.802957 Si / 1000 Ang^3
#
#
#
# Elastic Constant Matrix: (Units=GPa)
#
#
# Indices 1 2 3 4 5 6 
#
# 1 113.7653 60.3226 30.8030 0.0000 -1.9505 0.0000
# 2 60.3226 172.8885 59.3647 0.0000 1.7565 0.0000
# 3 30.8030 59.3647 104.6907 0.0000 2.4313 0.0000
# 4 0.0000 0.0000 0.0000 30.0589 0.0000 -8.0808
# 5 -1.9505 1.7565 2.4313 0.0000 35.3517 0.0000
# 6 0.0000 0.0000 0.0000 -8.0808 0.0000 22.4840
#
#
#
# Elastic Compliance Matrix: (Units=1/GPa)
#
#
# Indices 1 2 3 4 5 6 
#
# 1 0.010954 -0.003374 -0.001330 0.000000 0.000863 0.000000
# 2 -0.003374 0.008222 -0.003662 0.000000 -0.000343 0.000000
# 3 -0.001330 -0.003662 0.012036 0.000000 -0.000719 0.000000
# 4 0.000000 0.000000 0.000000 0.036826 0.000000 0.013235
# 5 0.000863 -0.000343 -0.000719 0.000000 0.028401 0.000000
# 6 0.000000 0.000000 0.000000 0.013235 0.000000 0.049233
#
#
# Mechanical properties :
#
#
# Convention : Reuss Voigt Hill
#
# Bulk Modulus (GPa) = 69.05436 76.92500 72.98968
# Shear Modulus (GPa) = 29.89881 33.63586 31.76733
#
# Velocity S-wave (km/s) = 3.79521 4.02541 3.91200
# Velocity P-wave (km/s) = 7.24371 7.65920 7.45435
#
# Compressibility (1/GPa) = 0.01448134
#
# Stress axis : x y z
#
# Youngs Moduli (GPa) = 91.29115 121.62314 83.08273
#
# Poissons Ratio (x) = 0.41037 0.11048
# Poissons Ratio (y) = 0.30803 0.30422
# Poissons Ratio (z) = 0.12139 0.44534
#
# Static dielectric constant tensor:
#      x y z
#    x 4.894810 0.000000 -0.283840 
#    y 0.000000 3.843030 0.000000 
#    z -0.283840 0.000000 4.042700 
# 
# 
# High freq. dielectric constant tensor:
#      x y z
#    x 1.816780 0.000000 -0.005430 
#    y 0.000000 1.821570 0.000000 
#    z -0.005430 0.000000 1.824500 
# 
# From -- ./inp_files/148162.got.cif
#   From: 2010.06.25/outbox.cif.g09.slc.cpg/sg15_75_cif.got.tgz:148162.got - 2010.06.28 07:06:18.
