data_PCOD8140117
_publ_section_title
;
Structure prediction by ZEFSAII (Michael W. Deem and Ramdas Pophale) SiO2 
 PCOD8140117
Probable space group: C 2/C
;
_chemical_formula_sum "Si O2"
_cell_formula_units_Z 48
_cell_length_a 14.542086
_cell_length_b 16.246542
_cell_length_c 18.518615
_cell_angle_alpha 90.000000
_cell_angle_beta 29.558916
_cell_angle_gamma 90.000000
_cell_volume 2158.357330
_symmetry_space_group_name_H-M "C 2/C"
_symmetry_group_IT_number 15
_symmetry_cell_setting 'monoclinic'
loop_
_space_group_symop_operation_xyz
x,y,z
-x,y,1/2-z
-x,-y,-z
x,-y,1/2+z
1/2+x,1/2+y,z
1/2-x,1/2+y,1/2-z
1/2-x,1/2-y,-z
1/2+x,1/2-y,1/2+z
loop_
_atom_site_type_symbol
_atom_site_label
_atom_site_fract_x
_atom_site_fract_y
_atom_site_fract_z
Si Si1 0.073970 0.327454 0.019293
Si Si2 0.388705 0.102712 0.157301
Si Si3 0.236254 0.071305 0.759959
Si Si4 0.302617 0.585010 0.877201
Si Si5 0.503515 0.355010 0.957648
Si Si6 0.861273 0.086004 0.405603
O O1 0.095779 0.233012 0.980444
O O2 0.859018 0.346300 0.183071
O O3 0.141770 0.386259 0.907603
O O4 0.186464 0.351647 0.015068
O O5 0.229612 0.155870 0.307135
O O6 0.355471 0.008117 0.204126
O O7 0.604199 0.131451 0.028123
O O8 0.183839 0.052125 0.713591
O O9 0.057483 0.091520 0.931367
O O10 0.500000 0.636819 0.750000
O O11 0.306571 0.508471 0.929153
O O12 0.448672 0.408866 0.925365
O O13 0.000000 0.119525 0.250000
#
# Coordination Sequence:
#
# PCOD8140117 Si02
#       6
#     8   8   8   8   8   8
#     4  11  21  41  62  91 132 181 200 251 321 397
#     4  11  20  41  63  85 127 174 218 253 309 382
#     4  11  22  40  63  89 127 170 221 257 305 378
#     4  10  20  40  67  88 116 173 223 252 309 376
#     4  12  25  36  63 100 133 160 211 269 323 368
#     4  11  20  38  61  92 136 169 201 243 320 400
#
# _framework density 22.239135999999998
#
# number of rings (size 3 to 8) (size 9 to 14) (size 15 to 20)
#    0.000    1.000    5.000    4.000    0.000    0.667 
#    0.000    2.500    0.000   16.000    0.000    0.000 
#    0.000    0.000    0.000    0.000    0.000    0.000 
#
# Total GULP energy -297322.958612 kJ/mol
# GULP energy per Si atom -12388.456609 kJ/mol
# Density = 2.218852 g / cm^3
# Si number density = 22.239136 Si / 1000 Ang^3
#
#
#
# Elastic Constant Matrix: (Units=GPa)
#
#
# Indices 1 2 3 4 5 6 
#
# 1 55.3415 6.0220 36.7127 0.0056 -11.8906 0.0020
# 2 6.0220 45.8423 11.8359 0.0196 9.8583 -0.0091
# 3 36.7127 11.8359 145.6011 0.0277 -14.4738 -0.0167
# 4 0.0056 0.0196 0.0277 28.9609 -0.0267 -1.2427
# 5 -11.8906 9.8583 -14.4738 -0.0267 34.2459 0.0088
# 6 0.0020 -0.0091 -0.0167 -1.2427 0.0088 23.5209
#
#
#
# Elastic Compliance Matrix: (Units=1/GPa)
#
#
# Indices 1 2 3 4 5 6 
#
# 1 0.023151 -0.003267 -0.004885 0.000008 0.006914 -0.000009
# 2 -0.003267 0.024751 -0.002097 -0.000022 -0.009146 0.000011
# 3 -0.004885 -0.002097 0.008520 -0.000003 0.002509 0.000005
# 4 0.000008 -0.000022 -0.000003 0.034608 0.000034 0.001828
# 5 0.006914 -0.009146 0.002509 0.000034 0.035294 -0.000014
# 6 -0.000009 0.000011 0.000005 0.001828 -0.000014 0.042612
#
#
# Mechanical properties :
#
#
# Convention : Reuss Voigt Hill
#
# Bulk Modulus (GPa) = 27.83644 39.54733 33.69189
# Shear Modulus (GPa) = 24.82511 30.15983 27.49247
#
# Velocity S-wave (km/s) = 3.34470 3.68660 3.51981
# Velocity P-wave (km/s) = 5.24024 5.99523 5.63040
#
# Compressibility (1/GPa) = 0.03592413
#
# Stress axis : x y z
#
# Youngs Moduli (GPa) = 43.19457 40.40167 117.37692
#
# Poissons Ratio (x) = 0.13199 0.57333
# Poissons Ratio (y) = 0.14112 0.24619
# Poissons Ratio (z) = 0.21099 0.08474
#
# Static dielectric constant tensor:
#      x y z
#    x 3.990700 -0.000030 -0.367040 
#    y -0.000030 3.527750 0.000040 
#    z -0.367040 0.000040 4.259720 
# 
# 
# High freq. dielectric constant tensor:
#      x y z
#    x 1.856780 0.000000 -0.020660 
#    y 0.000000 1.843680 0.000000 
#    z -0.020660 0.000000 1.885690 
# 
# From -- ./inp_files/206374.got.cif
#   From: 2010.06.25/outbox.cif.g09.slc.cpg/sg15_104_cif.got.tgz:206374.got - 2010.06.28 07:06:18.
