data_PCOD8140196
_publ_section_title
;
Structure prediction by ZEFSAII (Michael W. Deem and Ramdas Pophale) SiO2 
 PCOD8140196
Probable space group: C 2/C
;
_chemical_formula_sum "Si O2"
_cell_formula_units_Z 40
_cell_length_a 11.771428
_cell_length_b 17.726907
_cell_length_c 7.949132
_cell_angle_alpha 90.000000
_cell_angle_beta 101.603622
_cell_angle_gamma 90.000000
_cell_volume 1624.852686
_symmetry_space_group_name_H-M "C 2/C"
_symmetry_group_IT_number 15
_symmetry_cell_setting 'monoclinic'
loop_
_space_group_symop_operation_xyz
x,y,z
-x,y,1/2-z
-x,-y,-z
x,-y,1/2+z
1/2+x,1/2+y,z
1/2-x,1/2+y,1/2-z
1/2-x,1/2-y,-z
1/2+x,1/2-y,1/2+z
loop_
_atom_site_type_symbol
_atom_site_label
_atom_site_fract_x
_atom_site_fract_y
_atom_site_fract_z
Si Si1 0.598909 0.198096 0.008511
Si Si2 0.282976 0.388852 0.754281
Si Si3 0.146500 0.273667 0.149178
Si Si4 0.629446 0.335161 0.226593
Si Si5 0.366702 0.479416 0.464959
O O1 0.459298 0.198778 0.999782
O O2 0.629485 0.183428 0.823761
O O3 0.655436 0.135394 0.149495
O O4 0.648601 0.281289 0.069200
O O5 0.360358 0.316287 0.825451
O O6 0.346377 0.438337 0.633260
O O7 0.284894 0.446160 0.915600
O O8 0.271634 0.303376 0.111434
O O9 0.500000 0.322480 0.250000
O O10 0.656855 0.421376 0.195196
O O11 0.500000 0.500000 0.500000
#
# Coordination Sequence:
#
# PCOD8140196 Si02
#       5
#     8   8   8   8   8
#     4  10  20  40  69  88 119 171 227 254 310 386
#     4  11  22  40  64  97 128 169 213 267 325 382
#     4  10  20  40  71  88 116 171 228 259 305 382
#     4  11  21  37  59  95 128 158 207 277 321 370
#     4  12  23  37  60  96 135 164 208 261 335 385
#
# _framework density 24.617616000000002
#
# number of rings (size 3 to 8) (size 9 to 14) (size 15 to 20)
#    0.000    1.200    4.000    4.200    2.800    0.800 
#    0.000    3.000    0.000    4.800    0.000    0.000 
#    0.000    0.000    0.000    0.000    0.000    0.000 
#
# Total GULP energy -247910.630084 kJ/mol
# GULP energy per Si atom -12395.531504 kJ/mol
# Density = 2.456159 g / cm^3
# Si number density = 24.617616 Si / 1000 Ang^3
#
#
#
# Elastic Constant Matrix: (Units=GPa)
#
#
# Indices 1 2 3 4 5 6 
#
# 1 150.2066 59.3216 17.7714 0.0000 42.9829 0.0000
# 2 59.3216 150.6318 32.4041 0.0000 22.1420 0.0000
# 3 17.7714 32.4041 46.4100 0.0000 21.8319 0.0000
# 4 0.0000 0.0000 0.0000 38.8605 0.0000 10.7477
# 5 42.9829 22.1420 21.8319 0.0000 46.3926 0.0000
# 6 0.0000 0.0000 0.0000 10.7477 0.0000 35.9525
#
#
#
# Elastic Compliance Matrix: (Units=1/GPa)
#
#
# Indices 1 2 3 4 5 6 
#
# 1 0.010267 -0.003266 0.002685 0.000000 -0.009217 0.000000
# 2 -0.003266 0.008932 -0.005656 0.000000 0.001425 0.000000
# 3 0.002685 -0.005656 0.031297 0.000000 -0.014516 0.000000
# 4 0.000000 0.000000 0.000000 0.028052 0.000000 -0.008386
# 5 -0.009217 0.001425 -0.014516 0.000000 0.036246 0.000000
# 6 0.000000 0.000000 0.000000 -0.008386 0.000000 0.030321
#
#
# Mechanical properties :
#
#
# Convention : Reuss Voigt Hill
#
# Bulk Modulus (GPa) = 26.30098 62.91586 44.60842
# Shear Modulus (GPa) = 29.36598 40.09120 34.72859
#
# Velocity S-wave (km/s) = 3.45756 4.03992 3.76003
# Velocity P-wave (km/s) = 5.16204 6.88288 6.08361
#
# Compressibility (1/GPa) = 0.03802140
#
# Stress axis : x y z
#
# Youngs Moduli (GPa) = 97.39577 111.95308 31.95232
#
# Poissons Ratio (x) = 0.36566 -0.08579
# Poissons Ratio (y) = 0.31811 0.18073
# Poissons Ratio (z) = -0.26149 0.63322
#
# Static dielectric constant tensor:
#      x y z
#    x 4.578340 0.000000 0.300170 
#    y 0.000000 4.769380 0.000000 
#    z 0.300170 0.000000 4.689300 
# 
# 
# High freq. dielectric constant tensor:
#      x y z
#    x 1.969290 0.000000 0.015980 
#    y 0.000000 1.969650 0.000000 
#    z 0.015980 0.000000 1.993230 
# 
# From -- ./inp_files/29343.got.cif
#   From: 2010.06.25/outbox.cif.g09.slc.cpg/sg15_15_cif.got.tgz:29343.got - 2010.06.28 07:06:18.
