data_PCOD8140771
_publ_section_title
;
Structure prediction by ZEFSAII (Michael W. Deem and Ramdas Pophale) SiO2 
 PCOD8140771
Probable space group: C 2/C
;
_chemical_formula_sum "Si O2"
_cell_formula_units_Z 48
_cell_length_a 20.639286
_cell_length_b 17.151127
_cell_length_c 9.295146
_cell_angle_alpha 90.000000
_cell_angle_beta 42.936467
_cell_angle_gamma 90.000000
_cell_volume 2241.351040
_symmetry_space_group_name_H-M "C 2/C"
_symmetry_group_IT_number 15
_symmetry_cell_setting 'monoclinic'
loop_
_space_group_symop_operation_xyz
x,y,z
-x,y,1/2-z
-x,-y,-z
x,-y,1/2+z
1/2+x,1/2+y,z
1/2-x,1/2+y,1/2-z
1/2-x,1/2-y,-z
1/2+x,1/2-y,1/2+z
loop_
_atom_site_type_symbol
_atom_site_label
_atom_site_fract_x
_atom_site_fract_y
_atom_site_fract_z
Si Si1 0.074761 0.736533 0.506858
Si Si2 0.319044 0.122144 0.348445
Si Si3 0.332211 0.573744 0.101800
Si Si4 0.222554 0.309724 0.271535
Si Si5 0.452784 0.295528 0.466855
Si Si6 0.251662 0.958654 0.453315
O O1 0.092072 0.660464 0.378822
O O2 0.170717 0.775129 0.413727
O O3 0.022660 0.798682 0.488853
O O4 0.000000 0.711257 0.750000
O O5 0.227160 0.138078 0.395670
O O6 0.300460 0.163434 0.529837
O O7 0.331930 0.027672 0.337199
O O8 0.434070 0.612747 0.963196
O O9 0.335120 0.493048 0.005516
O O10 0.281273 0.560004 0.334944
O O11 0.146420 0.247486 0.336453
O O12 0.208021 0.382283 0.187891
O O13 0.500000 0.255495 0.250000
#
# Coordination Sequence:
#
# PCOD8140771 Si02
#       6
#     8   8   8   8   8   8
#     4  12  26  41  67 103 133 169 222 279 325 385
#     4  10  20  43  67  91 133 174 211 266 332 379
#     4  10  21  40  65  96 128 171 213 267 329 385
#     4  12  22  46  70  93 135 174 220 276 323 391
#     4  12  25  41  70 100 126 176 227 264 331 393
#     4  10  21  39  72  93 126 184 211 262 345 382
#
# _framework density 21.415655000000001
#
# number of rings (size 3 to 8) (size 9 to 14) (size 15 to 20)
#    1.000    0.000    5.000    2.500    2.333    1.333 
#    0.000    5.833    0.000    0.000    0.000    0.000 
#    0.000    0.000    0.000    0.000    0.000    0.000 
#
# Total GULP energy -297365.340850 kJ/mol
# GULP energy per Si atom -12390.222535 kJ/mol
# Density = 2.136691 g / cm^3
# Si number density = 21.415655 Si / 1000 Ang^3
#
#
#
# Elastic Constant Matrix: (Units=GPa)
#
#
# Indices 1 2 3 4 5 6 
#
# 1 44.0460 -7.6258 9.6883 0.0000 4.6965 0.0000
# 2 -7.6258 61.9581 16.7570 0.0000 -3.0779 0.0000
# 3 9.6883 16.7570 99.9616 0.0000 12.4549 0.0000
# 4 0.0000 0.0000 0.0000 24.3497 0.0000 3.1154
# 5 4.6965 -3.0779 12.4549 0.0000 39.9555 0.0000
# 6 0.0000 0.0000 0.0000 3.1154 0.0000 23.5059
#
#
#
# Elastic Compliance Matrix: (Units=1/GPa)
#
#
# Indices 1 2 3 4 5 6 
#
# 1 0.024113 0.003622 -0.002732 0.000000 -0.001704 0.000000
# 2 0.003622 0.017651 -0.003565 0.000000 0.002045 0.000000
# 3 -0.002732 -0.003565 0.011299 0.000000 -0.003476 0.000000
# 4 0.000000 0.000000 0.000000 0.041777 0.000000 -0.005537
# 5 -0.001704 0.002045 -0.003476 0.000000 0.026469 0.000000
# 6 0.000000 0.000000 0.000000 -0.005537 0.000000 0.043276
#
#
# Mechanical properties :
#
#
# Convention : Reuss Voigt Hill
#
# Bulk Modulus (GPa) = 20.95800 27.06720 24.01260
# Shear Modulus (GPa) = 26.90482 30.03866 28.47174
#
# Velocity S-wave (km/s) = 3.54830 3.74926 3.65016
# Velocity P-wave (km/s) = 5.15701 5.60437 5.38534
#
# Compressibility (1/GPa) = 0.04771447
#
# Stress axis : x y z
#
# Youngs Moduli (GPa) = 41.47104 56.65245 88.50120
#
# Poissons Ratio (x) = -0.20520 0.24178
# Poissons Ratio (y) = -0.15021 0.31550
# Poissons Ratio (z) = 0.11330 0.20196
#
# Static dielectric constant tensor:
#      x y z
#    x 3.903820 0.000000 0.141050 
#    y 0.000000 3.924550 0.000000 
#    z 0.141050 0.000000 3.749160 
# 
# 
# High freq. dielectric constant tensor:
#      x y z
#    x 1.837030 0.000000 0.026960 
#    y 0.000000 1.837260 0.000000 
#    z 0.026960 0.000000 1.834400 
# 
# From -- ./inp_files/57704.got.cif
#   From: 2010.06.25/outbox.cif.g09.slc.cpg/sg15_29_cif.got.tgz:57704.got - 2010.06.28 07:06:18.
