data_PCOD8140157
_publ_section_title
;
Structure prediction by ZEFSAII (Michael W. Deem and Ramdas Pophale) SiO2 
 PCOD8140157
Probable space group: C 2/C
;
_chemical_formula_sum "Si O2"
_cell_formula_units_Z 44
_cell_length_a 9.211868
_cell_length_b 22.892874
_cell_length_c 19.442530
_cell_angle_alpha 90.000000
_cell_angle_beta 35.348070
_cell_angle_gamma 90.000000
_cell_volume 2372.115343
_symmetry_space_group_name_H-M "C 2/C"
_symmetry_group_IT_number 15
_symmetry_cell_setting 'monoclinic'
loop_
_space_group_symop_operation_xyz
x,y,z
-x,y,1/2-z
-x,-y,-z
x,-y,1/2+z
1/2+x,1/2+y,z
1/2-x,1/2+y,1/2-z
1/2-x,1/2-y,-z
1/2+x,1/2-y,1/2+z
loop_
_atom_site_type_symbol
_atom_site_label
_atom_site_fract_x
_atom_site_fract_y
_atom_site_fract_z
Si Si1 0.960939 0.319013 0.961749
Si Si2 0.092485 0.690752 0.560582
Si Si3 0.423804 0.897735 0.849655
Si Si4 0.335684 0.611153 0.579385
Si Si5 0.386922 0.296311 0.169812
Si Si6 0.000000 0.508231 0.750000
O O1 0.019286 0.368828 0.882887
O O2 0.097744 0.261254 0.882301
O O3 0.664551 0.310936 0.089252
O O4 0.082047 0.335735 0.987686
O O5 0.250000 0.750000 0.500000
O O6 0.216737 0.638993 0.556717
O O7 0.810389 0.709090 0.692015
O O8 0.500000 0.862143 0.750000
O O9 0.542522 0.963543 0.798561
O O10 0.127006 0.898502 0.959385
O O11 0.271366 0.653421 0.667073
O O12 0.233689 0.547842 0.639413
#
# Coordination Sequence:
#
# PCOD8140157 Si02
#       6
#     8   8   8   8   8   4
#     4  10  22  38  59  86 121 153 203 243 300 362
#     4  12  23  34  58  91 123 155 189 250 306 359
#     4   9  23  39  62  84 115 163 204 244 291 351
#     4  11  20  40  61  89 118 159 203 247 298 358
#     4  10  21  38  57  83 120 162 191 243 304 361
#     4  10  20  40  68  84 118 160 216 244 286 362
#
# _framework density 18.548846000000001
#
# number of rings (size 3 to 8) (size 9 to 14) (size 15 to 20)
#    0.545    1.091    3.636    1.091    2.545    0.000 
#    0.000    0.909    0.000    2.182    0.000    0.000 
#    0.000    0.000    0.000    0.000    0.000    0.000 
#
# Total GULP energy -272595.966588 kJ/mol
# GULP energy per Si atom -12390.725754 kJ/mol
# Density = 1.850663 g / cm^3
# Si number density = 18.548846 Si / 1000 Ang^3
#
#
#
# Elastic Constant Matrix: (Units=GPa)
#
#
# Indices 1 2 3 4 5 6 
#
# 1 106.9939 40.6149 40.7354 -0.0017 32.1824 0.0006
# 2 40.6149 104.0619 41.0798 -0.0096 16.3068 0.0054
# 3 40.7354 41.0798 96.8010 -0.0098 24.7825 0.0037
# 4 -0.0017 -0.0096 -0.0098 76.5471 0.0034 -15.3009
# 5 32.1824 16.3068 24.7825 0.0034 18.5070 -0.0012
# 6 0.0006 0.0054 0.0037 -15.3009 -0.0012 27.1046
#
#
#
# Elastic Compliance Matrix: (Units=1/GPa)
#
#
# Indices 1 2 3 4 5 6 
#
# 1 0.020434 -0.003161 0.001714 0.000002 -0.035045 -0.000001
# 2 -0.003161 0.012412 -0.003872 0.000001 -0.000256 -0.000001
# 3 0.001714 -0.003872 0.016954 0.000003 -0.022273 -0.000001
# 4 0.000002 0.000001 0.000003 0.014725 -0.000009 0.008313
# 5 -0.035045 -0.000256 -0.022273 -0.000009 0.145024 0.000005
# 6 -0.000001 -0.000001 -0.000001 0.008313 0.000005 0.041587
#
#
# Mechanical properties :
#
#
# Convention : Reuss Voigt Hill
#
# Bulk Modulus (GPa) = 25.53361 61.41300 43.47330
# Shear Modulus (GPa) = 18.19318 36.79350 27.49334
#
# Velocity S-wave (km/s) = 3.13521 4.45859 3.85413
# Velocity P-wave (km/s) = 5.18667 7.72568 6.57980
#
# Compressibility (1/GPa) = 0.03916407
#
# Stress axis : x y z
#
# Youngs Moduli (GPa) = 48.93688 80.56922 58.98196
#
# Poissons Ratio (x) = 0.25464 -0.10110
# Poissons Ratio (y) = 0.15467 0.22836
# Poissons Ratio (z) = -0.08388 0.31194
#
# Static dielectric constant tensor:
#      x y z
#    x 3.308500 0.000000 0.147310 
#    y 0.000000 3.390570 0.000010 
#    z 0.147310 0.000010 3.818320 
# 
# 
# High freq. dielectric constant tensor:
#      x y z
#    x 1.702570 0.000000 -0.001150 
#    y 0.000000 1.706990 0.000000 
#    z -0.001150 0.000000 1.744350 
# 
# From -- ./inp_files/120199.got.cif
#   From: 2010.06.25/outbox.cif.g09.slc.cpg/sg15_61_cif.got.tgz:120199.got - 2010.06.28 07:06:18.
