data_PCOD8140720
_publ_section_title
;
Structure prediction by ZEFSAII (Michael W. Deem and Ramdas Pophale) SiO2 
 PCOD8140720
Probable space group: C 2/C
;
_chemical_formula_sum "Si O2"
_cell_formula_units_Z 60
_cell_length_a 30.587593
_cell_length_b 18.396266
_cell_length_c 15.916393
_cell_angle_alpha 90.000000
_cell_angle_beta 18.577153
_cell_angle_gamma 90.000000
_cell_volume 2853.251105
_symmetry_space_group_name_H-M "C 2/C"
_symmetry_group_IT_number 15
_symmetry_cell_setting 'monoclinic'
loop_
_space_group_symop_operation_xyz
x,y,z
-x,y,1/2-z
-x,-y,-z
x,-y,1/2+z
1/2+x,1/2+y,z
1/2-x,1/2+y,1/2-z
1/2-x,1/2-y,-z
1/2+x,1/2-y,1/2+z
loop_
_atom_site_type_symbol
_atom_site_label
_atom_site_fract_x
_atom_site_fract_y
_atom_site_fract_z
Si Si1 0.500000 0.153238 0.250000
Si Si2 0.738840 0.686726 0.342787
Si Si3 0.259007 0.051235 0.678009
Si Si4 0.683071 0.030991 0.588634
Si Si5 0.541936 0.714636 0.563992
Si Si6 0.163127 0.820353 0.672576
Si Si7 0.361571 0.964121 0.652428
Si Si8 0.935876 0.179981 0.452729
O O1 0.382155 0.103736 0.427195
O O2 0.442215 0.201984 0.432503
O O3 0.664755 0.671554 0.388123
O O4 0.613247 0.690236 0.636602
O O5 0.836867 0.621502 0.190165
O O6 0.828298 0.760484 0.183106
O O7 0.229411 0.005722 0.646532
O O8 0.294202 0.002787 0.694877
O O9 0.130765 0.100737 0.936979
O O10 0.733284 0.113584 0.501121
O O11 0.705556 0.993398 0.638594
O O12 0.523980 0.025039 0.853893
O O13 0.560578 0.699999 0.433685
O O14 0.250000 0.750000 0.500000
O O15 0.065700 0.836341 0.773297
O O16 0.000000 0.210189 0.250000
#
# Coordination Sequence:
#
# PCOD8140720 Si02
#       8
#     4   8   8   8   8   8   8   8
#     4  10  20  42  72  96 130 168 224 280 328 420
#     4  10  22  44  67  97 129 174 227 275 330 407
#     4  12  23  45  70  97 137 180 222 283 348 397
#     4  11  26  44  67 102 134 180 232 274 335 417
#     4  10  22  42  70  97 129 171 228 275 337 396
#     4  12  27  44  67  98 137 178 226 285 333 398
#     4  11  24  43  70  97 136 179 228 280 337 403
#     4  12  26  44  69  99 136 181 226 283 346 403
#
# _framework density 21.028644
#
# number of rings (size 3 to 8) (size 9 to 14) (size 15 to 20)
#    0.000    1.067    4.000    3.200    3.733    3.200 
#    9.600    0.000    0.000    0.000    0.000    0.000 
#    0.000    0.000    0.000    0.000    0.000    0.000 
#
# Total GULP energy -371905.757196 kJ/mol
# GULP energy per Si atom -12396.858573 kJ/mol
# Density = 2.098078 g / cm^3
# Si number density = 21.028644 Si / 1000 Ang^3
#
#
#
# Elastic Constant Matrix: (Units=GPa)
#
#
# Indices 1 2 3 4 5 6 
#
# 1 128.6402 46.6192 33.4031 0.0009 15.9776 -0.0005
# 2 46.6192 128.6289 29.0097 0.0000 -0.2261 0.0000
# 3 33.4031 29.0097 70.9395 0.0007 -2.4451 -0.0007
# 4 0.0009 0.0000 0.0007 29.2383 -0.0008 -10.8717
# 5 15.9776 -0.2261 -2.4451 -0.0008 29.3747 0.0004
# 6 -0.0005 0.0000 -0.0007 -10.8717 0.0004 27.6933
#
#
#
# Elastic Compliance Matrix: (Units=1/GPa)
#
#
# Indices 1 2 3 4 5 6 
#
# 1 0.010656 -0.002967 -0.004016 0.000000 -0.006153 0.000000
# 2 -0.002967 0.009392 -0.002392 0.000000 0.001487 0.000000
# 3 -0.004016 -0.002392 0.017090 0.000000 0.003589 0.000000
# 4 0.000000 0.000000 0.000000 0.040048 0.000001 0.015722
# 5 -0.006153 0.001487 0.003589 0.000001 0.037700 0.000000
# 6 0.000000 0.000000 0.000000 0.015722 0.000000 0.042282
#
#
# Mechanical properties :
#
#
# Convention : Reuss Voigt Hill
#
# Bulk Modulus (GPa) = 54.38887 60.69695 57.54291
# Shear Modulus (GPa) = 27.46546 31.87303 29.66925
#
# Velocity S-wave (km/s) = 3.61792 3.89742 3.76027
# Velocity P-wave (km/s) = 6.58580 7.01283 6.80267
#
# Compressibility (1/GPa) = 0.01838611
#
# Stress axis : x y z
#
# Youngs Moduli (GPa) = 93.84338 106.47566 58.51489
#
# Poissons Ratio (x) = 0.31592 0.23502
# Poissons Ratio (y) = 0.27844 0.13998
# Poissons Ratio (z) = 0.37691 0.25472
#
# Static dielectric constant tensor:
#      x y z
#    x 3.876030 0.000000 -0.007700 
#    y 0.000000 3.855930 0.000000 
#    z -0.007700 0.000000 3.604030 
# 
# 
# High freq. dielectric constant tensor:
#      x y z
#    x 1.827430 0.000000 -0.001210 
#    y 0.000000 1.829600 0.000000 
#    z -0.001210 0.000000 1.830530 
# 
# From -- ./inp_files/179104.got.cif
#   From: 2010.06.25/outbox.cif.g09.slc.cpg/sg15_90_cif.got.tgz:179104.got - 2010.06.28 07:06:18.
