data_PCOD8140296
_publ_section_title
;
Structure prediction by ZEFSAII (Michael W. Deem and Ramdas Pophale) SiO2 
 PCOD8140296
Probable space group: C 2/C
;
_chemical_formula_sum "Si O2"
_cell_formula_units_Z 48
_cell_length_a 15.184859
_cell_length_b 29.460810
_cell_length_c 9.171678
_cell_angle_alpha 90.000000
_cell_angle_beta 143.510562
_cell_angle_gamma 90.000000
_cell_volume 2439.965184
_symmetry_space_group_name_H-M "C 2/C"
_symmetry_group_IT_number 15
_symmetry_cell_setting 'monoclinic'
loop_
_space_group_symop_operation_xyz
x,y,z
-x,y,1/2-z
-x,-y,-z
x,-y,1/2+z
1/2+x,1/2+y,z
1/2-x,1/2+y,1/2-z
1/2-x,1/2-y,-z
1/2+x,1/2-y,1/2+z
loop_
_atom_site_type_symbol
_atom_site_label
_atom_site_fract_x
_atom_site_fract_y
_atom_site_fract_z
Si Si1 0.419405 0.535049 0.995726
Si Si2 0.069688 0.704962 0.194078
Si Si3 0.932644 0.459889 0.499492
Si Si4 0.609069 0.694761 0.780778
Si Si5 0.440870 0.128298 0.833926
Si Si6 0.381159 0.635661 0.985262
O O1 0.242675 0.530828 0.743575
O O2 0.450118 0.588698 0.014109
O O3 0.500000 0.520205 0.250000
O O4 0.500000 0.500000 0.000000
O O5 0.245628 0.702562 0.430801
O O6 0.029752 0.758305 0.123604
O O7 0.000000 0.685118 0.250000
O O8 0.009212 0.675915 0.978537
O O9 0.988455 0.412932 0.502053
O O10 0.000000 0.500000 0.500000
O O11 0.000000 0.460560 0.750000
O O12 0.500000 0.669344 0.750000
O O13 0.652757 0.666351 0.698166
O O14 0.500000 0.118840 0.750000
O O15 0.263207 0.129818 0.605843
O O16 0.500000 0.659234 0.250000
#
# Coordination Sequence:
#
# PCOD8140296 Si02
#       6
#     8   8   8   8   8   8
#     4  10  22  41  61  86 123 162 197 248 311 365
#     4  10  20  41  63  88 124 159 206 261 310 372
#     4  11  23  40  65  94 123 159 209 262 310 371
#     4  10  22  38  63  92 121 160 205 256 317 376
#     4  11  24  40  63  88 122 169 209 257 313 368
#     4  10  23  41  59  88 126 159 204 258 306 374
#
# _framework density 19.672411
#
# number of rings (size 3 to 8) (size 9 to 14) (size 15 to 20)
#    0.000    1.667    1.667    2.000    4.667    4.000 
#    0.000    1.667    0.000    0.000    0.000    0.000 
#    0.000    0.000    0.000    0.000    0.000    0.000 
#
# Total GULP energy -297404.044547 kJ/mol
# GULP energy per Si atom -12391.835189 kJ/mol
# Density = 1.962764 g / cm^3
# Si number density = 19.672411 Si / 1000 Ang^3
#
#
#
# Elastic Constant Matrix: (Units=GPa)
#
#
# Indices 1 2 3 4 5 6 
#
# 1 133.1574 42.9497 47.5686 0.0000 -8.5882 0.0000
# 2 42.9497 85.2284 36.8236 0.0000 -9.1840 0.0000
# 3 47.5686 36.8236 126.9987 0.0000 -8.4042 0.0000
# 4 0.0000 0.0000 0.0000 45.2400 0.0000 -0.5398
# 5 -8.5882 -9.1840 -8.4042 0.0000 33.5917 0.0000
# 6 0.0000 0.0000 0.0000 -0.5398 0.0000 32.4577
#
#
#
# Elastic Compliance Matrix: (Units=1/GPa)
#
#
# Indices 1 2 3 4 5 6 
#
# 1 0.009644 -0.003696 -0.002485 0.000000 0.000833 0.000000
# 2 -0.003696 0.015083 -0.002825 0.000000 0.002472 0.000000
# 3 -0.002485 -0.002825 0.009691 0.000000 0.001017 0.000000
# 4 0.000000 0.000000 0.000000 0.022109 0.000000 0.000368
# 5 0.000833 0.002472 0.001017 0.000000 0.030912 0.000000
# 6 0.000000 0.000000 0.000000 0.000368 0.000000 0.030815
#
#
# Mechanical properties :
#
#
# Convention : Reuss Voigt Hill
#
# Bulk Modulus (GPa) = 60.95900 66.67424 63.81662
# Shear Modulus (GPa) = 35.27676 36.79407 36.03541
#
# Velocity S-wave (km/s) = 4.23922 4.32943 4.28457
# Velocity P-wave (km/s) = 7.41726 7.67840 7.54896
#
# Compressibility (1/GPa) = 0.01640447
#
# Stress axis : x y z
#
# Youngs Moduli (GPa) = 103.69475 66.30030 103.18355
#
# Poissons Ratio (x) = 0.24506 0.25644
# Poissons Ratio (y) = 0.38328 0.29152
# Poissons Ratio (z) = 0.25771 0.18732
#
# Static dielectric constant tensor:
#      x y z
#    x 3.563150 0.000000 0.114970 
#    y 0.000000 3.727880 0.000000 
#    z 0.114970 0.000000 3.573380 
# 
# 
# High freq. dielectric constant tensor:
#      x y z
#    x 1.766510 0.000000 0.009410 
#    y 0.000000 1.769450 0.000000 
#    z 0.009410 0.000000 1.773530 
# 
# From -- ./inp_files/43799.got.cif
#   From: 2010.06.25/outbox.cif.g09.slc.cpg/sg15_22_cif.got.tgz:43799.got - 2010.06.28 07:06:18.
