data_PCOD8140002
_publ_section_title
;
Structure prediction by ZEFSAII (Michael W. Deem and Ramdas Pophale) SiO2 
 PCOD8140002
Probable space group: C 2/C
;
_chemical_formula_sum "Si O2"
_cell_formula_units_Z 60
_cell_length_a 28.372517
_cell_length_b 11.541204
_cell_length_c 28.792787
_cell_angle_alpha 90.000000
_cell_angle_beta 160.917227
_cell_angle_gamma 90.000000
_cell_volume 3082.424638
_symmetry_space_group_name_H-M "C 2/C"
_symmetry_group_IT_number 15
_symmetry_cell_setting 'monoclinic'
loop_
_space_group_symop_operation_xyz
x,y,z
-x,y,1/2-z
-x,-y,-z
x,-y,1/2+z
1/2+x,1/2+y,z
1/2-x,1/2+y,1/2-z
1/2-x,1/2-y,-z
1/2+x,1/2-y,1/2+z
loop_
_atom_site_type_symbol
_atom_site_label
_atom_site_fract_x
_atom_site_fract_y
_atom_site_fract_z
Si Si1 0.568419 0.830820 0.515897
Si Si2 0.703628 0.486853 0.722111
Si Si3 0.471393 0.044316 0.082400
Si Si4 0.270777 0.378496 0.889390
Si Si5 0.357308 0.808447 0.399634
Si Si6 0.000000 0.760917 0.250000
Si Si7 0.787929 0.322885 0.476632
Si Si8 0.390854 0.578451 0.957872
O O1 0.673765 0.896015 0.649620
O O2 0.428955 0.791804 0.415765
O O3 0.642144 0.714158 0.563802
O O4 0.528089 0.911215 0.434319
O O5 0.720079 0.605091 0.767465
O O6 0.720419 0.525529 0.683957
O O7 0.552061 0.429182 0.589935
O O8 0.607204 0.077719 0.240283
O O9 0.328874 0.070240 0.981054
O O10 0.474761 0.130333 0.041785
O O11 0.304862 0.312508 0.872299
O O12 0.367701 0.496405 0.981383
O O13 0.305594 0.299181 0.965800
O O14 0.098017 0.680449 0.374796
O O15 0.120100 0.839772 0.335263
#
# Coordination Sequence:
#
# PCOD8140002 Si02
#       8
#     8   8   8   8   8   4   8   8
#     4  11  23  37  52  75 112 165 208 244 286 328
#     4  10  22  36  48  72 103 154 212 249 291 319
#     4  10  21  37  55  84 115 156 191 244 290 346
#     4  11  22  35  56  86 116 150 196 244 296 342
#     4  10  21  33  55  73 113 158 201 250 283 334
#     4  10  20  40  64  98 124 144 172 238 308 392
#     4  10  21  37  66  95 124 143 184 228 311 368
#     4  11  24  33  52  75 108 152 203 253 281 335
#
# _framework density 19.465197
#
# number of rings (size 3 to 8) (size 9 to 14) (size 15 to 20)
#    0.000    1.600    1.333    4.800   11.200    1.067 
#    0.000    0.000    0.000    0.000    0.000    5.600 
#    0.000    0.000    0.000    0.000    0.000    0.000 
#
# Total GULP energy -371804.203426 kJ/mol
# GULP energy per Si atom -12393.473448 kJ/mol
# Density = 1.942089 g / cm^3
# Si number density = 19.465197 Si / 1000 Ang^3
#
#
#
# Elastic Constant Matrix: (Units=GPa)
#
#
# Indices 1 2 3 4 5 6 
#
# 1 79.8437 36.0831 23.4544 0.0016 14.4138 -0.0002
# 2 36.0831 133.8719 29.1498 -0.0623 5.7999 -0.0013
# 3 23.4544 29.1498 72.2880 -0.0787 0.4540 -0.0010
# 4 0.0016 -0.0623 -0.0787 15.5090 -0.0085 0.8945
# 5 14.4138 5.7999 0.4540 -0.0085 33.5621 0.0060
# 6 -0.0002 -0.0013 -0.0010 0.8945 0.0060 16.5751
#
#
#
# Elastic Compliance Matrix: (Units=1/GPa)
#
#
# Indices 1 2 3 4 5 6 
#
# 1 0.016308 -0.003262 -0.003936 -0.000038 -0.006387 0.000004
# 2 -0.003262 0.008905 -0.002532 0.000023 -0.000104 -0.000001
# 3 -0.003936 -0.002532 0.016120 0.000073 0.001910 -0.000004
# 4 -0.000038 0.000023 0.000073 0.064680 0.000029 -0.003490
# 5 -0.006387 -0.000104 0.001910 0.000029 0.032530 -0.000013
# 6 0.000004 -0.000001 -0.000004 -0.003490 -0.000013 0.060520
#
#
# Mechanical properties :
#
#
# Convention : Reuss Voigt Hill
#
# Bulk Modulus (GPa) = 45.71797 51.48645 48.60221
# Shear Modulus (GPa) = 22.14226 26.28367 24.21297
#
# Velocity S-wave (km/s) = 3.37639 3.67862 3.53074
# Velocity P-wave (km/s) = 6.22399 6.67465 6.45325
#
# Compressibility (1/GPa) = 0.02187324
#
# Stress axis : x y z
#
# Youngs Moduli (GPa) = 61.32097 112.29912 62.03640
#
# Poissons Ratio (x) = 0.36630 0.24416
# Poissons Ratio (y) = 0.20002 0.15706
# Poissons Ratio (z) = 0.24134 0.28432
#
# Static dielectric constant tensor:
#      x y z
#    x 3.396490 0.000000 0.014130 
#    y 0.000000 3.604230 -0.000020 
#    z 0.014130 -0.000020 3.597770 
# 
# 
# High freq. dielectric constant tensor:
#      x y z
#    x 1.715010 0.000000 0.002850 
#    y 0.000000 1.748170 0.000000 
#    z 0.002850 0.000000 1.770040 
# 
# From -- ./inp_files/319575.got.cif
#   From: 2010.06.25/outbox.cif.g09.slc.cpg/sg15_160_cif.got.tgz:319575.got - 2010.06.28 07:06:18.
