data_PCOD8140137
_publ_section_title
;
Structure prediction by ZEFSAII (Michael W. Deem and Ramdas Pophale) SiO2 
 PCOD8140137
Probable space group: C 2/C
;
_chemical_formula_sum "Si O2"
_cell_formula_units_Z 64
_cell_length_a 11.800903
_cell_length_b 27.551550
_cell_length_c 13.988346
_cell_angle_alpha 90.000000
_cell_angle_beta 40.656713
_cell_angle_gamma 90.000000
_cell_volume 2963.186769
_symmetry_space_group_name_H-M "C 2/C"
_symmetry_group_IT_number 15
_symmetry_cell_setting 'monoclinic'
loop_
_space_group_symop_operation_xyz
x,y,z
-x,y,1/2-z
-x,-y,-z
x,-y,1/2+z
1/2+x,1/2+y,z
1/2-x,1/2+y,1/2-z
1/2-x,1/2-y,-z
1/2+x,1/2-y,1/2+z
loop_
_atom_site_type_symbol
_atom_site_label
_atom_site_fract_x
_atom_site_fract_y
_atom_site_fract_z
Si Si1 0.194587 0.216583 0.448699
Si Si2 0.842044 0.732531 0.156775
Si Si3 0.575603 0.624362 0.061646
Si Si4 0.837698 0.678547 0.784403
Si Si5 0.773150 0.369440 0.629036
Si Si6 0.921649 0.951074 0.093370
Si Si7 0.858942 0.882447 0.416373
Si Si8 0.634379 0.094795 0.888482
O O1 0.250000 0.250000 0.500000
O O2 0.333756 0.218517 0.273773
O O3 0.189392 0.160860 0.482984
O O4 0.009740 0.235031 0.529717
O O5 0.671068 0.765027 0.240643
O O6 0.852963 0.684994 0.081588
O O7 0.364709 0.627687 0.195391
O O8 0.657623 0.619468 0.112268
O O9 0.658858 0.670900 0.957519
O O10 0.630581 0.577502 0.967628
O O11 0.834318 0.643402 0.694365
O O12 0.000000 0.667279 0.750000
O O13 0.924886 0.410519 0.532830
O O14 0.739311 0.950919 0.272681
O O15 0.067674 0.926551 0.066811
O O16 0.000000 0.000000 0.000000
O O17 0.693890 0.899399 0.460249
O O18 0.000000 0.863458 0.250000
#
# Coordination Sequence:
#
# PCOD8140137 Si02
#       8
#     8   8   8   8   8   8   8   8
#     4  12  23  38  59  90 130 180 223 271 324 388
#     4  12  24  34  55  91 132 174 235 273 316 386
#     4  10  23  40  62  86 129 171 212 273 338 390
#     4  11  21  37  60  89 129 182 231 278 325 386
#     4  11  22  39  58  93 131 177 213 270 334 380
#     4  10  22  44  72  96 121 162 212 267 336 407
#     4  10  20  40  67  93 131 167 216 272 327 388
#     4  10  21  41  68  94 126 168 222 269 330 401
#
# _framework density 21.598368000000001
#
# number of rings (size 3 to 8) (size 9 to 14) (size 15 to 20)
#    0.000    1.250    1.250    7.125    1.750    0.500 
#    6.750    2.500    2.750    0.000    0.000    0.000 
#    0.000    0.000    0.000    0.000    0.000    0.000 
#
# Total GULP energy -396533.077764 kJ/mol
# GULP energy per Si atom -12391.658680 kJ/mol
# Density = 2.154921 g / cm^3
# Si number density = 21.598368 Si / 1000 Ang^3
#
#
#
# Elastic Constant Matrix: (Units=GPa)
#
#
# Indices 1 2 3 4 5 6 
#
# 1 116.2471 38.1382 35.1275 0.0000 -1.5025 0.0000
# 2 38.1382 88.4486 34.7896 0.0000 -0.6484 0.0000
# 3 35.1275 34.7896 121.9177 0.0000 -16.6201 0.0000
# 4 0.0000 0.0000 0.0000 28.3301 0.0000 6.4569
# 5 -1.5025 -0.6484 -16.6201 0.0000 33.4724 0.0000
# 6 0.0000 0.0000 0.0000 6.4569 0.0000 23.5501
#
#
#
# Elastic Compliance Matrix: (Units=1/GPa)
#
#
# Indices 1 2 3 4 5 6 
#
# 1 0.010422 -0.003700 -0.002031 0.000000 -0.000612 0.000000
# 2 -0.003700 0.014136 -0.003168 0.000000 -0.001465 0.000000
# 3 -0.002031 -0.003168 0.010373 0.000000 0.004998 0.000000
# 4 0.000000 0.000000 0.000000 0.037651 0.000000 -0.010323
# 5 -0.000612 -0.001465 0.004998 0.000000 0.032301 0.000000
# 6 0.000000 0.000000 0.000000 -0.010323 0.000000 0.045293
#
#
# Mechanical properties :
#
#
# Convention : Reuss Voigt Hill
#
# Bulk Modulus (GPa) = 58.35946 60.30268 59.33107
# Shear Modulus (GPa) = 28.78807 31.64105 30.21456
#
# Velocity S-wave (km/s) = 3.65483 3.83165 3.74428
# Velocity P-wave (km/s) = 6.69995 6.89609 6.79873
#
# Compressibility (1/GPa) = 0.01713518
#
# Stress axis : x y z
#
# Youngs Moduli (GPa) = 95.95270 70.73924 96.40874
#
# Poissons Ratio (x) = 0.26171 0.19576
# Poissons Ratio (y) = 0.35499 0.30539
# Poissons Ratio (z) = 0.19483 0.22408
#
# Static dielectric constant tensor:
#      x y z
#    x 4.056700 0.000000 0.009970 
#    y 0.000000 3.526470 0.000000 
#    z 0.009970 0.000000 4.303850 
# 
# 
# High freq. dielectric constant tensor:
#      x y z
#    x 1.862500 0.000000 0.006110 
#    y 0.000000 1.802640 0.000000 
#    z 0.006110 0.000000 1.862870 
# 
# From -- ./inp_files/149151.got.cif
#   From: 2010.06.25/outbox.cif.g09.slc.cpg/sg15_75_cif.got.tgz:149151.got - 2010.06.28 07:06:18.
