data_PCOD8140169
_publ_section_title
;
Structure prediction by ZEFSAII (Michael W. Deem and Ramdas Pophale) SiO2 
 PCOD8140169
Probable space group: C 2/C
;
_chemical_formula_sum "Si O2"
_cell_formula_units_Z 60
_cell_length_a 13.360091
_cell_length_b 8.539834
_cell_length_c 27.052326
_cell_angle_alpha 90.000000
_cell_angle_beta 112.193679
_cell_angle_gamma 90.000000
_cell_volume 2857.809619
_symmetry_space_group_name_H-M "C 2/C"
_symmetry_group_IT_number 15
_symmetry_cell_setting 'monoclinic'
loop_
_space_group_symop_operation_xyz
x,y,z
-x,y,1/2-z
-x,-y,-z
x,-y,1/2+z
1/2+x,1/2+y,z
1/2-x,1/2+y,1/2-z
1/2-x,1/2-y,-z
1/2+x,1/2-y,1/2+z
loop_
_atom_site_type_symbol
_atom_site_label
_atom_site_fract_x
_atom_site_fract_y
_atom_site_fract_z
Si Si1 0.267343 0.905581 0.222619
Si Si2 0.780494 0.154122 0.935471
Si Si3 0.921126 0.840109 0.648280
Si Si4 0.885074 0.931472 0.877775
Si Si5 0.749530 0.055180 0.180435
Si Si6 0.500000 0.148299 0.750000
Si Si7 0.898405 0.598593 0.920611
Si Si8 0.136061 0.438267 0.489445
O O1 0.240288 0.728593 0.201915
O O2 0.390216 0.952552 0.230238
O O3 0.188923 0.031432 0.182984
O O4 0.253864 0.921910 0.278757
O O5 0.676380 0.228361 0.888761
O O6 0.733855 0.037550 0.969163
O O7 0.862621 0.063728 0.914687
O O8 0.852598 0.282204 0.975903
O O9 0.861840 0.969374 0.671450
O O10 0.003669 0.748087 0.699629
O O11 0.989050 0.922977 0.616935
O O12 0.853016 0.764956 0.894530
O O13 0.652091 0.036196 0.123331
O O14 0.026547 0.580751 0.937603
O O15 0.867056 0.581820 0.972632
#
# Coordination Sequence:
#
# PCOD8140169 Si02
#       8
#     8   8   8   8   8   4   8   8
#     4  11  23  40  68 101 129 179 219 270 342 418
#     4  11  22  45  68  94 128 179 228 267 333 418
#     4  11  21  42  67  96 131 182 215 277 334 408
#     4  12  23  40  70  99 127 174 228 269 343 411
#     4  11  22  42  66  95 138 170 223 274 337 408
#     4  10  20  40  68  92 134 174 212 264 352 396
#     4  11  22  40  67  97 131 174 217 287 336 389
#     4  10  23  43  67  94 134 177 221 280 341 385
#
# _framework density 20.995101999999999
#
# number of rings (size 3 to 8) (size 9 to 14) (size 15 to 20)
#    0.000    1.067    5.333    3.200    0.000    1.067 
#    0.000    6.667    0.000    2.400    0.000    0.000 
#    0.000    0.000    0.000    0.000    0.000    0.000 
#
# Total GULP energy -371871.130874 kJ/mol
# GULP energy per Si atom -12395.704362 kJ/mol
# Density = 2.094732 g / cm^3
# Si number density = 20.995102 Si / 1000 Ang^3
#
#
#
# Elastic Constant Matrix: (Units=GPa)
#
#
# Indices 1 2 3 4 5 6 
#
# 1 142.0689 60.6652 47.6046 0.0000 -21.9662 0.0000
# 2 60.6652 65.0661 32.9501 0.0000 1.9082 0.0000
# 3 47.6046 32.9501 99.7387 0.0000 3.4681 0.0000
# 4 0.0000 0.0000 0.0000 35.1843 0.0000 -5.0871
# 5 -21.9662 1.9082 3.4681 0.0000 43.1698 0.0000
# 6 0.0000 0.0000 0.0000 -5.0871 0.0000 32.0375
#
#
#
# Elastic Compliance Matrix: (Units=1/GPa)
#
#
# Indices 1 2 3 4 5 6 
#
# 1 0.014618 -0.012241 -0.003220 0.000000 0.008238 0.000000
# 2 -0.012241 0.028711 -0.003392 0.000000 -0.007225 0.000000
# 3 -0.003220 -0.003392 0.012771 0.000000 -0.002514 0.000000
# 4 0.000000 0.000000 0.000000 0.029090 0.000000 0.004619
# 5 0.008238 -0.007225 -0.002514 0.000000 0.027877 0.000000
# 6 0.000000 0.000000 0.000000 0.004619 0.000000 0.031947
#
#
# Mechanical properties :
#
#
# Convention : Reuss Voigt Hill
#
# Bulk Modulus (GPa) = 54.35861 65.47927 59.91894
# Shear Modulus (GPa) = 26.47598 33.12192 29.79895
#
# Velocity S-wave (km/s) = 3.55499 3.97621 3.77149
# Velocity P-wave (km/s) = 6.54201 7.23436 6.89688
#
# Compressibility (1/GPa) = 0.01839635
#
# Stress axis : x y z
#
# Youngs Moduli (GPa) = 68.40698 34.82969 78.30322
#
# Poissons Ratio (x) = 0.42634 0.25212
# Poissons Ratio (y) = 0.83735 0.26557
# Poissons Ratio (z) = 0.22026 0.11813
#
# Static dielectric constant tensor:
#      x y z
#    x 3.957030 0.000000 -0.203490 
#    y 0.000000 3.485640 0.000000 
#    z -0.203490 0.000000 4.183110 
# 
# 
# High freq. dielectric constant tensor:
#      x y z
#    x 1.825130 0.000000 -0.007570 
#    y 0.000000 1.787030 0.000000 
#    z -0.007570 0.000000 1.850220 
# 
# From -- ./inp_files/310359.got.cif
#   From: 2010.06.25/outbox.cif.g09.slc.cpg/sg15_156_cif.got.tgz:310359.got - 2010.06.28 07:06:18.
