data_PCOD8140624
_publ_section_title
;
Structure prediction by ZEFSAII (Michael W. Deem and Ramdas Pophale) SiO2 
 PCOD8140624
Probable space group: C 2/C
;
_chemical_formula_sum "Si O2"
_cell_formula_units_Z 60
_cell_length_a 18.230914
_cell_length_b 24.463166
_cell_length_c 12.714483
_cell_angle_alpha 90.000000
_cell_angle_beta 149.837604
_cell_angle_gamma 90.000000
_cell_volume 2849.147352
_symmetry_space_group_name_H-M "C 2/C"
_symmetry_group_IT_number 15
_symmetry_cell_setting 'monoclinic'
loop_
_space_group_symop_operation_xyz
x,y,z
-x,y,1/2-z
-x,-y,-z
x,-y,1/2+z
1/2+x,1/2+y,z
1/2-x,1/2+y,1/2-z
1/2-x,1/2-y,-z
1/2+x,1/2-y,1/2+z
loop_
_atom_site_type_symbol
_atom_site_label
_atom_site_fract_x
_atom_site_fract_y
_atom_site_fract_z
Si Si1 0.640330 0.018640 0.854322
Si Si2 0.409043 0.190008 0.382968
Si Si3 0.917095 0.845394 0.753815
Si Si4 0.382495 0.456408 0.814137
Si Si5 0.268780 0.919921 0.660751
Si Si6 0.080538 0.786674 0.532003
Si Si7 0.392900 0.136579 0.707693
Si Si8 0.500000 0.633475 0.750000
O O1 0.500000 0.007418 0.750000
O O2 0.646905 0.973063 0.772513
O O3 0.644870 0.075991 0.793617
O O4 0.776751 0.013295 0.102273
O O5 0.379325 0.131153 0.295317
O O6 0.255501 0.217079 0.230416
O O7 0.494161 0.229517 0.406483
O O8 0.528402 0.180445 0.621761
O O9 0.957928 0.906355 0.844670
O O10 0.958194 0.803106 0.896454
O O11 0.747735 0.836126 0.518262
O O12 0.000000 0.830761 0.750000
O O13 0.291969 0.428953 0.797005
O O14 0.500000 0.500000 0.000000
O O15 0.139587 0.906019 0.418921
O O16 0.007319 0.829875 0.363126
O O17 0.500000 0.118098 0.750000
#
# Coordination Sequence:
#
# PCOD8140624 Si02
#       8
#     8   8   8   8   8   8   8   4
#     4  10  23  39  63 100 131 174 220 267 333 412
#     4  11  24  44  67  94 131 178 225 276 333 402
#     4  11  24  42  64 105 134 164 225 282 335 397
#     4  11  23  40  67  97 134 177 223 269 334 406
#     4  11  22  44  66  96 136 181 218 269 344 391
#     4  11  25  45  68  98 125 179 231 276 342 386
#     4  10  20  42  67  90 139 173 206 282 340 399
#     4  10  22  46  72  86 136 178 222 282 322 402
#
# _framework density 21.058933
#
# number of rings (size 3 to 8) (size 9 to 14) (size 15 to 20)
#    0.000    1.333    4.000    2.400    5.600    5.333 
#    3.600    0.000    0.000    0.000    0.000    0.000 
#    0.000    0.000    0.000    0.000    0.000    0.000 
#
# Total GULP energy -371868.753132 kJ/mol
# GULP energy per Si atom -12395.625104 kJ/mol
# Density = 2.101100 g / cm^3
# Si number density = 21.058933 Si / 1000 Ang^3
#
#
#
# Elastic Constant Matrix: (Units=GPa)
#
#
# Indices 1 2 3 4 5 6 
#
# 1 80.7969 27.2670 21.8744 0.0000 -1.7572 0.0000
# 2 27.2670 78.2471 17.1105 0.0000 7.4008 0.0000
# 3 21.8744 17.1105 80.0743 0.0000 5.2590 0.0000
# 4 0.0000 0.0000 0.0000 32.3880 0.0000 -0.9687
# 5 -1.7572 7.4008 5.2590 0.0000 21.4406 0.0000
# 6 0.0000 0.0000 0.0000 -0.9687 0.0000 35.9974
#
#
#
# Elastic Compliance Matrix: (Units=1/GPa)
#
#
# Indices 1 2 3 4 5 6 
#
# 1 0.014989 -0.004852 -0.003302 0.000000 0.003713 0.000000
# 2 -0.004852 0.015322 -0.001601 0.000000 -0.005294 0.000000
# 3 -0.003302 -0.001601 0.013938 0.000000 -0.003137 0.000000
# 4 0.000000 0.000000 0.000000 0.030900 0.000000 0.000832
# 5 0.003713 -0.005294 -0.003137 0.000000 0.049541 0.000000
# 6 0.000000 0.000000 0.000000 0.000832 0.000000 0.027802
#
#
# Mechanical properties :
#
#
# Convention : Reuss Voigt Hill
#
# Bulk Modulus (GPa) = 40.42132 41.29135 40.85633
# Shear Modulus (GPa) = 27.73938 29.48963 28.61451
#
# Velocity S-wave (km/s) = 3.63330 3.74617 3.69017
# Velocity P-wave (km/s) = 6.06937 6.19369 6.13184
#
# Compressibility (1/GPa) = 0.02473942
#
# Stress axis : x y z
#
# Youngs Moduli (GPa) = 66.71599 65.26687 71.74426
#
# Poissons Ratio (x) = 0.31671 0.23687
# Poissons Ratio (y) = 0.32374 0.11484
# Poissons Ratio (z) = 0.22027 0.10447
#
# Static dielectric constant tensor:
#      x y z
#    x 3.538820 0.000000 0.020900 
#    y 0.000000 3.850340 0.000000 
#    z 0.020900 0.000000 3.990960 
# 
# 
# High freq. dielectric constant tensor:
#      x y z
#    x 1.800240 0.000000 0.000980 
#    y 0.000000 1.834070 0.000000 
#    z 0.000980 0.000000 1.838960 
# 
# From -- ./inp_files/108452.got.cif
#   From: 2010.06.25/outbox.cif.g09.slc.cpg/sg15_55_cif.got.tgz:108452.got - 2010.06.28 07:06:18.
