data_PCOD8140652
_publ_section_title
;
Structure prediction by ZEFSAII (Michael W. Deem and Ramdas Pophale) SiO2 
 PCOD8140652
Probable space group: C 2/C
;
_chemical_formula_sum "Si O2"
_cell_formula_units_Z 52
_cell_length_a 12.129879
_cell_length_b 14.345799
_cell_length_c 14.774885
_cell_angle_alpha 90.000000
_cell_angle_beta 71.507741
_cell_angle_gamma 90.000000
_cell_volume 2438.268520
_symmetry_space_group_name_H-M "C 2/C"
_symmetry_group_IT_number 15
_symmetry_cell_setting 'monoclinic'
loop_
_space_group_symop_operation_xyz
x,y,z
-x,y,1/2-z
-x,-y,-z
x,-y,1/2+z
1/2+x,1/2+y,z
1/2-x,1/2+y,1/2-z
1/2-x,1/2-y,-z
1/2+x,1/2-y,1/2+z
loop_
_atom_site_type_symbol
_atom_site_label
_atom_site_fract_x
_atom_site_fract_y
_atom_site_fract_z
Si Si1 0.354920 0.960886 0.453199
Si Si2 0.416245 0.812397 0.570713
Si Si3 0.789089 0.613791 0.254255
Si Si4 0.000000 0.505097 0.750000
Si Si5 0.601796 0.383800 0.491046
Si Si6 0.166614 0.674810 0.065704
Si Si7 0.446211 0.494409 0.666606
O O1 0.424853 0.911445 0.515956
O O2 0.426666 0.937584 0.342836
O O3 0.230469 0.915117 0.477627
O O4 0.330119 0.070493 0.477466
O O5 0.302476 0.816017 0.665955
O O6 0.399827 0.727837 0.505640
O O7 0.534047 0.791885 0.595772
O O8 0.909331 0.556433 0.217029
O O9 0.784265 0.673445 0.346121
O O10 0.679816 0.545944 0.275951
O O11 0.519969 0.416115 0.594870
O O12 0.561494 0.419102 0.401480
O O13 0.250000 0.750000 0.000000
O O14 0.500000 0.524678 0.750000
#
# Coordination Sequence:
#
# PCOD8140652 Si02
#       7
#     8   8   8   4   8   8   8
#     4  11  23  46  69  95 144 181 222 292 342 411
#     4  12  24  42  70 104 135 184 230 279 354 412
#     4  11  21  45  66  98 141 175 232 291 328 412
#     4  10  20  42  68  92 130 182 224 276 336 396
#     4  11  25  46  67 102 145 176 235 290 341 418
#     4  11  23  42  67 102 137 180 232 283 339 405
#     4  11  24  45  71  98 138 192 226 284 359 410
#
# _framework density 21.326609999999999
#
# number of rings (size 3 to 8) (size 9 to 14) (size 15 to 20)
#    0.000    0.923    6.154    2.769    2.154    1.231 
#    9.692    0.000    0.000    0.000    0.000    0.000 
#    0.000    0.000    0.000    0.000    0.000    0.000 
#
# Total GULP energy -322247.911431 kJ/mol
# GULP energy per Si atom -12394.150440 kJ/mol
# Density = 2.127807 g / cm^3
# Si number density = 21.326610 Si / 1000 Ang^3
#
#
#
# Elastic Constant Matrix: (Units=GPa)
#
#
# Indices 1 2 3 4 5 6 
#
# 1 95.2954 12.8316 25.9033 0.0000 -13.3357 0.0000
# 2 12.8316 99.9875 39.9670 0.0000 -7.7453 0.0000
# 3 25.9033 39.9670 105.7881 0.0000 -0.6207 0.0000
# 4 0.0000 0.0000 0.0000 31.5750 0.0000 -0.2940
# 5 -13.3357 -7.7453 -0.6207 0.0000 39.5309 0.0000
# 6 0.0000 0.0000 0.0000 -0.2940 0.0000 24.1407
#
#
#
# Elastic Compliance Matrix: (Units=1/GPa)
#
#
# Indices 1 2 3 4 5 6 
#
# 1 0.011827 -0.000077 -0.002844 0.000000 0.003930 0.000000
# 2 -0.000077 0.011982 -0.004495 0.000000 0.002251 0.000000
# 3 -0.002844 -0.004495 0.011838 0.000000 -0.001654 0.000000
# 4 0.000000 0.000000 0.000000 0.031674 0.000000 0.000386
# 5 0.003930 0.002251 -0.001654 0.000000 0.027038 0.000000
# 6 0.000000 0.000000 0.000000 0.000386 0.000000 0.041429
#
#
# Mechanical properties :
#
#
# Convention : Reuss Voigt Hill
#
# Bulk Modulus (GPa) = 48.03998 50.94164 49.49081
# Shear Modulus (GPa) = 31.73455 33.87393 32.80424
#
# Velocity S-wave (km/s) = 3.86168 3.98972 3.92622
# Velocity P-wave (km/s) = 6.51599 6.72028 6.61892
#
# Compressibility (1/GPa) = 0.02081599
#
# Stress axis : x y z
#
# Youngs Moduli (GPa) = 84.55196 83.45727 84.47568
#
# Poissons Ratio (x) = 0.00639 0.24025
# Poissons Ratio (y) = 0.00647 0.37971
# Poissons Ratio (z) = 0.24046 0.37514
#
# Static dielectric constant tensor:
#      x y z
#    x 3.981730 0.000000 0.042770 
#    y 0.000000 3.904680 0.000000 
#    z 0.042770 0.000000 4.028840 
# 
# 
# High freq. dielectric constant tensor:
#      x y z
#    x 1.852530 0.000000 -0.004260 
#    y 0.000000 1.817450 0.000000 
#    z -0.004260 0.000000 1.844590 
# 
# From -- ./inp_files/144191.got.cif
#   From: 2010.06.25/outbox.cif.g09.slc.cpg/sg15_73_cif.got.tgz:144191.got - 2010.06.28 07:06:18.
