data_PCOD8140893
_publ_section_title
;
Structure prediction by ZEFSAII (Michael W. Deem and Ramdas Pophale) SiO2 
 PCOD8140893
Probable space group: C 2/C
;
_chemical_formula_sum "Si O2"
_cell_formula_units_Z 20
_cell_length_a 16.038641
_cell_length_b 5.138484
_cell_length_c 8.864500
_cell_angle_alpha 90.000000
_cell_angle_beta 90.451308
_cell_angle_gamma 90.000000
_cell_volume 730.538900
_symmetry_space_group_name_H-M "C 2/C"
_symmetry_group_IT_number 15
_symmetry_cell_setting 'monoclinic'
loop_
_space_group_symop_operation_xyz
x,y,z
-x,y,1/2-z
-x,-y,-z
x,-y,1/2+z
1/2+x,1/2+y,z
1/2-x,1/2+y,1/2-z
1/2-x,1/2-y,-z
1/2+x,1/2-y,1/2+z
loop_
_atom_site_type_symbol
_atom_site_label
_atom_site_fract_x
_atom_site_fract_y
_atom_site_fract_z
Si Si1 0.889126 0.300816 0.484697
Si Si2 0.000000 0.584006 0.250000
Si Si3 0.256241 0.523037 0.849263
O O1 0.951698 0.239906 0.625344
O O2 0.819766 0.515626 0.532280
O O3 0.842970 0.032887 0.438668
O O4 0.935559 0.401263 0.337265
O O5 0.261436 0.803268 0.775537
#
# Coordination Sequence:
#
# PCOD8140893 Si02
#       3
#     8   4   8
#     4  10  22  42  75 100 150 181 241 284 362 411
#     4  10  20  46  70 110 142 188 230 302 350 418
#     4  11  24  47  74 107 138 191 236 291 344 431
#
# _framework density 27.377047000000001
#
# number of rings (size 3 to 8) (size 9 to 14) (size 15 to 20)
#    0.000    1.600    4.000    0.000    0.000    6.400 
#    0.000    6.000    0.000    0.000    0.000    0.000 
#    0.000    0.000    0.000    0.000    0.000    0.000 
#
# Total GULP energy -124000.392651 kJ/mol
# GULP energy per Si atom -12400.039265 kJ/mol
# Density = 2.731474 g / cm^3
# Si number density = 27.377047 Si / 1000 Ang^3
#
#
#
# Elastic Constant Matrix: (Units=GPa)
#
#
# Indices 1 2 3 4 5 6 
#
# 1 162.7557 18.7171 80.3647 0.0000 5.6789 0.0000
# 2 18.7171 60.1151 58.1817 0.0000 2.0589 0.0000
# 3 80.3647 58.1817 186.3489 0.0000 -0.3217 0.0000
# 4 0.0000 0.0000 0.0000 51.1882 0.0000 1.5374
# 5 5.6789 2.0589 -0.3217 0.0000 90.1702 0.0000
# 6 0.0000 0.0000 0.0000 1.5374 0.0000 5.9888
#
#
#
# Elastic Compliance Matrix: (Units=1/GPa)
#
#
# Indices 1 2 3 4 5 6 
#
# 1 0.007892 0.001227 -0.003788 0.000000 -0.000539 0.000000
# 2 0.001227 0.024058 -0.008042 0.000000 -0.000655 0.000000
# 3 -0.003788 -0.008042 0.009511 0.000000 0.000456 0.000000
# 4 0.000000 0.000000 0.000000 0.019688 0.000000 -0.005054
# 5 -0.000539 -0.000655 0.000456 0.000000 0.011141 0.000000
# 6 0.000000 0.000000 0.000000 -0.005054 0.000000 0.168277
#
#
# Mechanical properties :
#
#
# Convention : Reuss Voigt Hill
#
# Bulk Modulus (GPa) = 49.36575 80.41629 64.89102
# Shear Modulus (GPa) = 18.62032 46.26650 32.44341
#
# Velocity S-wave (km/s) = 2.61079 4.11539 3.44620
# Velocity P-wave (km/s) = 5.21145 7.21244 6.29200
#
# Compressibility (1/GPa) = 0.02025696
#
# Stress axis : x y z
#
# Youngs Moduli (GPa) = 126.70969 41.56575 105.13866
#
# Poissons Ratio (x) = -0.05100 0.39822
# Poissons Ratio (y) = -0.15546 0.84550
# Poissons Ratio (z) = 0.47992 0.33426
#
# Static dielectric constant tensor:
#      x y z
#    x 5.582080 0.000000 0.040580 
#    y 0.000000 4.202250 0.000000 
#    z 0.040580 0.000000 5.638680 
# 
# 
# High freq. dielectric constant tensor:
#      x y z
#    x 2.123470 0.000000 0.003440 
#    y 0.000000 2.058700 0.000000 
#    z 0.003440 0.000000 2.144140 
# 
# From -- ./inp_files/19010.got.cif
#   From: 2010.06.25/outbox.cif.g09.slc.cpg/sg15_10_cif.got.tgz:19010.got - 2010.06.28 07:06:18.
