data_PCOD8140983
_publ_section_title
;
Structure prediction by ZEFSAII (Michael W. Deem and Ramdas Pophale) SiO2 
 PCOD8140983
Probable space group: C 2/C
;
_chemical_formula_sum "Si O2"
_cell_formula_units_Z 28
_cell_length_a 10.750665
_cell_length_b 15.246243
_cell_length_c 23.850820
_cell_angle_alpha 90.000000
_cell_angle_beta 155.067147
_cell_angle_gamma 90.000000
_cell_volume 1647.997651
_symmetry_space_group_name_H-M "C 2/C"
_symmetry_group_IT_number 15
_symmetry_cell_setting 'monoclinic'
loop_
_space_group_symop_operation_xyz
x,y,z
-x,y,1/2-z
-x,-y,-z
x,-y,1/2+z
1/2+x,1/2+y,z
1/2-x,1/2+y,1/2-z
1/2-x,1/2-y,-z
1/2+x,1/2-y,1/2+z
loop_
_atom_site_type_symbol
_atom_site_label
_atom_site_fract_x
_atom_site_fract_y
_atom_site_fract_z
Si Si1 0.301895 0.615117 0.897535
Si Si2 0.000000 0.216932 0.250000
Si Si3 0.764269 0.001751 0.986012
Si Si4 0.897071 0.951029 0.766971
O O1 0.349391 0.583247 0.980654
O O2 0.000000 0.571187 0.750000
O O3 0.269933 0.721189 0.881945
O O4 0.575722 0.585911 0.971038
O O5 0.112622 0.155105 0.244998
O O6 0.416781 0.986915 0.842606
O O7 0.861939 0.023772 0.088539
O O8 0.000000 0.994784 0.750000
#
# Coordination Sequence:
#
# PCOD8140983 Si02
#       4
#     8   4   8   8
#     4   9  19  37  53  81 101 138 176 230 245 310
#     4   8  20  36  48  84 114 126 178 216 276 298
#     4  11  19  36  62  72 107 141 186 206 266 307
#     4  10  21  34  55  82 106 144 170 220 257 326
#
# _framework density 16.990316
#
# number of rings (size 3 to 8) (size 9 to 14) (size 15 to 20)
#    1.714    0.571    2.857    0.857    0.000    2.286 
#    0.000    0.000    0.000    0.000    0.000    0.000 
#    0.000    0.000    0.000    0.000    0.000    0.000 
#
# Total GULP energy -173481.525096 kJ/mol
# GULP energy per Si atom -12391.537507 kJ/mol
# Density = 1.695165 g / cm^3
# Si number density = 16.990316 Si / 1000 Ang^3
#
#
#
# Elastic Constant Matrix: (Units=GPa)
#
#
# Indices 1 2 3 4 5 6 
#
# 1 85.8597 23.9738 10.8180 -0.0071 -10.7925 -0.0024
# 2 23.9738 80.5235 5.1339 -0.0056 -3.5857 0.0022
# 3 10.8180 5.1339 54.2640 -0.0154 -4.2216 -0.0103
# 4 -0.0071 -0.0056 -0.0154 13.5461 0.0116 2.4189
# 5 -10.7925 -3.5857 -4.2216 0.0116 37.5368 0.0046
# 6 -0.0024 0.0022 -0.0103 2.4189 0.0046 10.7467
#
#
#
# Elastic Compliance Matrix: (Units=1/GPa)
#
#
# Indices 1 2 3 4 5 6 
#
# 1 0.013348 -0.003698 -0.002058 0.000000 0.003253 0.000000
# 2 -0.003698 0.013561 -0.000532 0.000004 0.000172 -0.000005
# 3 -0.002058 -0.000532 0.019005 0.000017 0.001495 0.000013
# 4 0.000000 0.000004 0.000017 0.076913 -0.000019 -0.017312
# 5 0.003253 0.000172 0.001495 -0.000019 0.027760 -0.000005
# 6 0.000000 -0.000005 0.000013 -0.017312 -0.000005 0.096949
#
#
# Mechanical properties :
#
#
# Convention : Reuss Voigt Hill
#
# Bulk Modulus (GPa) = 29.99610 33.38876 31.69243
# Shear Modulus (GPa) = 18.43482 24.41402 21.42442
#
# Velocity S-wave (km/s) = 3.29754 3.79481 3.55488
# Velocity P-wave (km/s) = 5.67375 6.23659 5.96182
#
# Compressibility (1/GPa) = 0.03333767
#
# Stress axis : x y z
#
# Youngs Moduli (GPa) = 74.91969 73.73930 52.61667
#
# Poissons Ratio (x) = 0.27268 0.10829
# Poissons Ratio (y) = 0.27704 0.02801
# Poissons Ratio (z) = 0.15419 0.03926
#
# Static dielectric constant tensor:
#      x y z
#    x 3.078570 0.000000 -0.038750 
#    y 0.000000 2.906990 -0.000020 
#    z -0.038750 -0.000020 3.013170 
# 
# 
# High freq. dielectric constant tensor:
#      x y z
#    x 1.659100 0.000000 -0.002110 
#    y 0.000000 1.631520 0.000000 
#    z -0.002110 0.000000 1.651520 
# 
# From -- ./inp_files/27296.got.cif
#   From: 2010.06.25/outbox.cif.g09.slc.cpg/sg15_14_cif.got.tgz:27296.got - 2010.06.28 07:06:18.
