data_PCOD8140089
_publ_section_title
;
Structure prediction by ZEFSAII (Michael W. Deem and Ramdas Pophale) SiO2 
 PCOD8140089
Probable space group: C 2/C
;
_chemical_formula_sum "Si O2"
_cell_formula_units_Z 44
_cell_length_a 10.759685
_cell_length_b 22.886141
_cell_length_c 8.775642
_cell_angle_alpha 90.000000
_cell_angle_beta 83.494218
_cell_angle_gamma 90.000000
_cell_volume 2147.065580
_symmetry_space_group_name_H-M "C 2/C"
_symmetry_group_IT_number 15
_symmetry_cell_setting 'monoclinic'
loop_
_space_group_symop_operation_xyz
x,y,z
-x,y,1/2-z
-x,-y,-z
x,-y,1/2+z
1/2+x,1/2+y,z
1/2-x,1/2+y,1/2-z
1/2-x,1/2-y,-z
1/2+x,1/2-y,1/2+z
loop_
_atom_site_type_symbol
_atom_site_label
_atom_site_fract_x
_atom_site_fract_y
_atom_site_fract_z
Si Si1 0.307092 0.764955 0.833728
Si Si2 0.177781 0.440866 0.876548
Si Si3 0.631644 0.361469 0.168649
Si Si4 0.643413 0.936150 0.229043
Si Si5 0.000000 0.355816 0.750000
Si Si6 0.366700 0.640453 0.195969
O O1 0.357874 0.704014 0.758186
O O2 0.411376 0.813147 0.857624
O O3 0.205603 0.799608 0.743672
O O4 0.250000 0.750000 0.000000
O O5 0.138601 0.503086 0.818033
O O6 0.301101 0.417177 0.773980
O O7 0.065376 0.395664 0.866733
O O8 0.198167 0.446059 0.053311
O O9 0.500000 0.388232 0.250000
O O10 0.756652 0.394956 0.201258
O O11 0.625973 0.363763 0.987180
O O12 0.500000 0.911005 0.250000
O O13 0.500000 0.645305 0.250000
#
# Coordination Sequence:
#
# PCOD8140089 Si02
#       6
#     8   8   8   8   4   8
#     4   9  20  37  63  90 129 173 215 266 327 386
#     4  11  24  42  66  95 132 171 223 272 337 387
#     4  11  23  43  65  98 137 175 225 273 331 396
#     4  12  26  41  67 100 132 174 222 277 333 399
#     4  10  20  40  66  92 128 174 212 272 316 392
#     4  10  22  42  66  94 131 175 222 273 336 390
#
# _framework density 20.493086000000002
#
# number of rings (size 3 to 8) (size 9 to 14) (size 15 to 20)
#    0.000    1.455    1.818    2.727    7.636    1.455 
#    3.273    6.364    0.000    0.000    0.000    0.000 
#    0.000    0.000    0.000    0.000    0.000    0.000 
#
# Total GULP energy -272637.776559 kJ/mol
# GULP energy per Si atom -12392.626207 kJ/mol
# Density = 2.044644 g / cm^3
# Si number density = 20.493086 Si / 1000 Ang^3
#
#
#
# Elastic Constant Matrix: (Units=GPa)
#
#
# Indices 1 2 3 4 5 6 
#
# 1 180.7035 68.5587 42.4409 0.0000 9.0458 0.0000
# 2 68.5587 121.6702 31.2640 0.0000 9.8740 0.0000
# 3 42.4409 31.2640 116.3537 0.0000 10.9646 0.0000
# 4 0.0000 0.0000 0.0000 40.3909 0.0000 22.8446
# 5 9.0458 9.8740 10.9646 0.0000 32.3273 0.0000
# 6 0.0000 0.0000 0.0000 22.8446 0.0000 69.9838
#
#
#
# Elastic Compliance Matrix: (Units=1/GPa)
#
#
# Indices 1 2 3 4 5 6 
#
# 1 0.007336 -0.003679 -0.001653 0.000000 -0.000369 0.000000
# 2 -0.003679 0.010795 -0.001389 0.000000 -0.001796 0.000000
# 3 -0.001653 -0.001389 0.009800 0.000000 -0.002437 0.000000
# 4 0.000000 0.000000 0.000000 0.030364 0.000000 -0.009912
# 5 -0.000369 -0.001796 -0.002437 0.000000 0.032412 0.000000
# 6 0.000000 0.000000 0.000000 -0.009912 0.000000 0.017524
#
#
# Mechanical properties :
#
#
# Convention : Reuss Voigt Hill
#
# Bulk Modulus (GPa) = 69.01709 78.13939 73.57824
# Shear Modulus (GPa) = 39.52436 46.97134 43.24785
#
# Velocity S-wave (km/s) = 4.39642 4.79274 4.59885
# Velocity P-wave (km/s) = 7.71510 8.29696 8.01131
#
# Compressibility (1/GPa) = 0.01448916
#
# Stress axis : x y z
#
# Youngs Moduli (GPa) = 136.30510 92.63585 102.03812
#
# Poissons Ratio (x) = 0.34084 0.16863
# Poissons Ratio (y) = 0.50152 0.14175
# Poissons Ratio (z) = 0.22527 0.12869
#
# Static dielectric constant tensor:
#      x y z
#    x 4.006940 0.000000 -0.143400 
#    y 0.000000 4.424630 0.000000 
#    z -0.143400 0.000000 3.594240 
# 
# 
# High freq. dielectric constant tensor:
#      x y z
#    x 1.815990 0.000000 -0.011810 
#    y 0.000000 1.807380 0.000000 
#    z -0.011810 0.000000 1.791990 
# 
# From -- ./inp_files/30868.got.cif
#   From: 2010.06.25/outbox.cif.g09.slc.cpg/sg15_16_cif.got.tgz:30868.got - 2010.06.28 07:06:18.
