data_PCOD8140418
_publ_section_title
;
Structure prediction by ZEFSAII (Michael W. Deem and Ramdas Pophale) SiO2 
 PCOD8140418
Probable space group: C 2/C
;
_chemical_formula_sum "Si O2"
_cell_formula_units_Z 64
_cell_length_a 12.291972
_cell_length_b 15.095565
_cell_length_c 27.124350
_cell_angle_alpha 90.000000
_cell_angle_beta 36.020209
_cell_angle_gamma 90.000000
_cell_volume 2959.781954
_symmetry_space_group_name_H-M "C 2/C"
_symmetry_group_IT_number 15
_symmetry_cell_setting 'monoclinic'
loop_
_space_group_symop_operation_xyz
x,y,z
-x,y,1/2-z
-x,-y,-z
x,-y,1/2+z
1/2+x,1/2+y,z
1/2-x,1/2+y,1/2-z
1/2-x,1/2-y,-z
1/2+x,1/2-y,1/2+z
loop_
_atom_site_type_symbol
_atom_site_label
_atom_site_fract_x
_atom_site_fract_y
_atom_site_fract_z
Si Si1 0.647215 0.633245 0.344410
Si Si2 0.896338 0.310648 0.081814
Si Si3 0.432764 0.925946 0.659707
Si Si4 0.799224 0.303091 0.347903
Si Si5 0.289970 0.512718 0.837330
Si Si6 0.275989 0.633851 0.423792
Si Si7 0.943089 0.724560 0.452334
Si Si8 0.825617 0.501143 0.849218
O O1 0.658574 0.733164 0.360535
O O2 0.805349 0.627950 0.244852
O O3 0.448596 0.609334 0.394566
O O4 0.675818 0.562504 0.378021
O O5 0.737801 0.385370 0.137141
O O6 0.917664 0.270835 0.019888
O O7 0.093019 0.355293 0.025001
O O8 0.507163 0.870612 0.586645
O O9 0.613800 0.962293 0.620570
O O10 0.314682 0.002453 0.676705
O O11 0.812019 0.227950 0.384660
O O12 0.626942 0.284130 0.373381
O O13 0.750288 0.400192 0.387301
O O14 0.000000 0.302739 0.250000
O O15 0.500000 0.491123 0.750000
O O16 0.228888 0.444074 0.902227
O O17 0.750000 0.750000 0.500000
O O18 0.000000 0.508225 0.750000
#
# Coordination Sequence:
#
# PCOD8140418 Si02
#       8
#     8   8   8   8   8   8   8   8
#     4  11  23  44  69  99 135 179 229 284 341 408
#     4  11  26  43  65 102 141 173 226 288 352 409
#     4  11  22  44  68  92 138 178 226 286 334 412
#     4  10  20  41  67  98 130 180 236 277 334 419
#     4  12  24  44  70 102 128 182 235 283 341 413
#     4  11  22  42  68  98 135 175 225 283 344 406
#     4  11  24  43  67  99 141 181 228 284 355 409
#     4   9  22  40  64  96 133 169 225 282 334 394
#
# _framework density 21.623214000000001
#
# number of rings (size 3 to 8) (size 9 to 14) (size 15 to 20)
#    0.000    1.250    3.750    2.625    1.750    3.500 
#    4.500    3.125    0.000    0.000    0.000    0.000 
#    0.000    0.000    0.000    0.000    0.000    0.000 
#
# Total GULP energy -396647.992524 kJ/mol
# GULP energy per Si atom -12395.249766 kJ/mol
# Density = 2.157400 g / cm^3
# Si number density = 21.623214 Si / 1000 Ang^3
#
#
#
# Elastic Constant Matrix: (Units=GPa)
#
#
# Indices 1 2 3 4 5 6 
#
# 1 166.5140 48.2114 25.5302 -0.0004 -26.1822 0.0000
# 2 48.2114 135.9468 24.4545 -0.0014 -2.8357 0.0005
# 3 25.5302 24.4545 55.0953 -0.0016 -11.5256 0.0017
# 4 -0.0004 -0.0014 -0.0016 16.4956 0.0002 -2.4711
# 5 -26.1822 -2.8357 -11.5256 0.0002 38.6375 -0.0003
# 6 0.0000 0.0005 0.0017 -2.4711 -0.0003 24.9867
#
#
#
# Elastic Compliance Matrix: (Units=1/GPa)
#
#
# Indices 1 2 3 4 5 6 
#
# 1 0.007632 -0.002333 -0.001552 0.000000 0.004538 0.000000
# 2 -0.002333 0.008716 -0.003183 0.000000 -0.001891 0.000000
# 3 -0.001552 -0.003183 0.021346 0.000002 0.005082 -0.000001
# 4 0.000000 0.000000 0.000002 0.061534 0.000000 0.006085
# 5 0.004538 -0.001891 0.005082 0.000000 0.030334 0.000000
# 6 0.000000 0.000000 -0.000001 0.006085 0.000000 0.040623
#
#
# Mechanical properties :
#
#
# Convention : Reuss Voigt Hill
#
# Bulk Modulus (GPa) = 42.44839 61.54980 51.99910
# Shear Modulus (GPa) = 26.01807 33.31463 29.66635
#
# Velocity S-wave (km/s) = 3.47255 3.92942 3.70803
# Velocity P-wave (km/s) = 5.97927 7.00811 6.51403
#
# Compressibility (1/GPa) = 0.02355802
#
# Stress axis : x y z
#
# Youngs Moduli (GPa) = 131.02016 114.72731 46.84799
#
# Poissons Ratio (x) = 0.26765 0.07271
# Poissons Ratio (y) = 0.30565 0.14913
# Poissons Ratio (z) = 0.20334 0.36521
#
# Static dielectric constant tensor:
#      x y z
#    x 4.392100 0.000010 -0.385240 
#    y 0.000010 4.153760 0.000030 
#    z -0.385240 0.000030 4.025770 
# 
# 
# High freq. dielectric constant tensor:
#      x y z
#    x 1.858260 0.000000 -0.012450 
#    y 0.000000 1.851090 0.000000 
#    z -0.012450 0.000000 1.842660 
# 
# From -- ./inp_files/293045.got.cif
#   From: 2010.06.25/outbox.cif.g09.slc.cpg/sg15_147_cif.got.tgz:293045.got - 2010.06.28 07:06:18.
