data_PCOD8140010
_publ_section_title
;
Structure prediction by ZEFSAII (Michael W. Deem and Ramdas Pophale) SiO2 
 PCOD8140010
Probable space group: C 2/C
;
_chemical_formula_sum "Si O2"
_cell_formula_units_Z 32
_cell_length_a 7.305933
_cell_length_b 7.184806
_cell_length_c 22.262268
_cell_angle_alpha 90.000000
_cell_angle_beta 92.726538
_cell_angle_gamma 90.000000
_cell_volume 1167.261647
_symmetry_space_group_name_H-M "C 2/C"
_symmetry_group_IT_number 15
_symmetry_cell_setting 'monoclinic'
loop_
_space_group_symop_operation_xyz
x,y,z
-x,y,1/2-z
-x,-y,-z
x,-y,1/2+z
1/2+x,1/2+y,z
1/2-x,1/2+y,1/2-z
1/2-x,1/2-y,-z
1/2+x,1/2-y,1/2+z
loop_
_atom_site_type_symbol
_atom_site_label
_atom_site_fract_x
_atom_site_fract_y
_atom_site_fract_z
Si Si1 0.784683 0.025964 0.993290
Si Si2 0.493103 0.863876 0.679152
Si Si3 0.230239 0.284680 0.094298
Si Si4 0.160912 0.267841 0.379666
O O1 0.690651 0.860894 0.953009
O O2 0.725321 0.210024 0.952458
O O3 0.706492 0.987714 0.060668
O O4 0.000000 0.000000 0.000000
O O5 0.500000 0.849857 0.750000
O O6 0.382043 0.688556 0.649452
O O7 0.701011 0.863623 0.656321
O O8 0.368532 0.039109 0.656857
O O9 0.045246 0.190915 0.118277
#
# Coordination Sequence:
#
# PCOD8140010 Si02
#       4
#     8   8   8   8
#     4  10  20  40  65 102 138 171 228 284 353 432
#     4  11  27  45  66  99 135 180 245 288 346 425
#     4  10  23  41  66  99 137 179 223 291 353 428
#     4  11  25  44  69 100 134 186 227 290 361 414
#
# _framework density 27.414591999999999
#
# number of rings (size 3 to 8) (size 9 to 14) (size 15 to 20)
#    0.000    1.500    2.500    0.750    7.000    1.000 
#    0.000    0.000    0.000    0.000    0.000    0.000 
#    0.000    0.000    0.000    0.000    0.000    0.000 
#
# Total GULP energy -198227.199390 kJ/mol
# GULP energy per Si atom -12389.199962 kJ/mol
# Density = 2.735220 g / cm^3
# Si number density = 27.414592 Si / 1000 Ang^3
#
#
#
# Elastic Constant Matrix: (Units=GPa)
#
#
# Indices 1 2 3 4 5 6 
#
# 1 145.7654 -1.8500 55.6097 0.0000 -6.5527 0.0000
# 2 -1.8500 61.2817 35.8876 0.0000 3.0204 0.0000
# 3 55.6097 35.8876 254.9102 0.0000 8.3081 0.0000
# 4 0.0000 0.0000 0.0000 33.7013 0.0000 -2.4627
# 5 -6.5527 3.0204 8.3081 0.0000 49.8224 0.0000
# 6 0.0000 0.0000 0.0000 -2.4627 0.0000 34.3721
#
#
#
# Elastic Compliance Matrix: (Units=1/GPa)
#
#
# Indices 1 2 3 4 5 6 
#
# 1 0.007653 0.001276 -0.001890 0.000000 0.001244 0.000000
# 2 0.001276 0.018019 -0.002800 0.000000 -0.000458 0.000000
# 3 -0.001890 -0.002800 0.004758 0.000000 -0.000872 0.000000
# 4 0.000000 0.000000 0.000000 0.029829 0.000000 0.002137
# 5 0.001244 -0.000458 -0.000872 0.000000 0.020408 0.000000
# 6 0.000000 0.000000 0.000000 0.002137 0.000000 0.029246
#
#
# Mechanical properties :
#
#
# Convention : Reuss Voigt Hill
#
# Bulk Modulus (GPa) = 42.36767 71.25019 56.80893
# Shear Modulus (GPa) = 40.12551 48.39983 44.26267
#
# Velocity S-wave (km/s) = 3.82993 4.20632 4.02253
# Velocity P-wave (km/s) = 5.91994 7.04536 6.50703
#
# Compressibility (1/GPa) = 0.02360290
#
# Stress axis : x y z
#
# Youngs Moduli (GPa) = 130.65959 55.49659 210.17588
#
# Poissons Ratio (x) = -0.07084 0.39721
# Poissons Ratio (y) = -0.16678 0.58857
# Poissons Ratio (z) = 0.24693 0.15541
#
# Static dielectric constant tensor:
#      x y z
#    x 4.915730 0.000000 0.210690 
#    y 0.000000 5.654490 0.000000 
#    z 0.210690 0.000000 5.141960 
# 
# 
# High freq. dielectric constant tensor:
#      x y z
#    x 2.103470 0.000000 0.009750 
#    y 0.000000 2.135180 0.000000 
#    z 0.009750 0.000000 2.106760 
# 
# From -- ./inp_files/226223.got.cif
#   From: 2010.06.25/outbox.cif.g09.slc.cpg/sg15_114_cif.got.tgz:226223.got - 2010.06.28 07:06:18.
