data_PCOD8140852
_publ_section_title
;
Structure prediction by ZEFSAII (Michael W. Deem and Ramdas Pophale) SiO2 
 PCOD8140852
Probable space group: C 2/C
;
_chemical_formula_sum "Si O2"
_cell_formula_units_Z 48
_cell_length_a 16.280504
_cell_length_b 7.882932
_cell_length_c 29.097388
_cell_angle_alpha 90.000000
_cell_angle_beta 144.225943
_cell_angle_gamma 90.000000
_cell_volume 2183.037971
_symmetry_space_group_name_H-M "C 2/C"
_symmetry_group_IT_number 15
_symmetry_cell_setting 'monoclinic'
loop_
_space_group_symop_operation_xyz
x,y,z
-x,y,1/2-z
-x,-y,-z
x,-y,1/2+z
1/2+x,1/2+y,z
1/2-x,1/2+y,1/2-z
1/2-x,1/2-y,-z
1/2+x,1/2-y,1/2+z
loop_
_atom_site_type_symbol
_atom_site_label
_atom_site_fract_x
_atom_site_fract_y
_atom_site_fract_z
Si Si1 0.049129 0.488467 0.075267
Si Si2 0.380590 0.695926 0.528718
Si Si3 0.000000 0.361101 0.250000
Si Si4 0.647787 0.400574 0.757745
Si Si5 0.076039 0.883779 0.624013
Si Si6 0.728937 0.897407 0.869715
Si Si7 0.500000 0.634703 0.750000
O O1 0.213727 0.523658 0.155695
O O2 0.013727 0.299526 0.079374
O O3 0.975658 0.635915 0.071359
O O4 0.000000 0.500000 0.000000
O O5 0.250000 0.750000 0.500000
O O6 0.458821 0.526513 0.582314
O O7 0.337647 0.642420 0.458471
O O8 0.895987 0.272614 0.237965
O O9 0.890993 0.469762 0.169645
O O10 0.664294 0.364717 0.711228
O O11 0.517160 0.524294 0.711205
O O12 0.181168 0.957995 0.633468
O O13 0.646439 0.728840 0.819948
#
# Coordination Sequence:
#
# PCOD8140852 Si02
#       7
#     8   8   4   8   8   8   4
#     4  12  27  48  75 104 146 192 238 299 363 429
#     4  12  28  47  70 103 148 188 243 297 359 428
#     4  10  26  40  74  98 144 180 236 296 356 424
#     4  11  25  45  69 106 138 185 239 293 358 429
#     4  12  27  45  75 105 141 190 241 295 361 429
#     4  11  23  44  69 104 138 188 235 293 361 428
#     4  10  20  44  70  96 144 176 236 292 360 416
#
# _framework density 21.987708000000001
#
# number of rings (size 3 to 8) (size 9 to 14) (size 15 to 20)
#    0.000    0.667    3.333    2.500    9.333    3.333 
#    0.000    0.000    0.000    0.000    0.000    0.000 
#    0.000    0.000    0.000    0.000    0.000    0.000 
#
# Total GULP energy -297393.846984 kJ/mol
# GULP energy per Si atom -12391.410291 kJ/mol
# Density = 2.193766 g / cm^3
# Si number density = 21.987708 Si / 1000 Ang^3
#
#
#
# Elastic Constant Matrix: (Units=GPa)
#
#
# Indices 1 2 3 4 5 6 
#
# 1 128.4083 44.2774 43.8897 0.0000 -0.6923 0.0001
# 2 44.2774 156.5331 40.5008 0.0001 15.8280 0.0001
# 3 43.8897 40.5008 111.3002 0.0001 -10.9078 0.0000
# 4 0.0000 0.0001 0.0001 24.8901 0.0000 13.8496
# 5 -0.6923 15.8280 -10.9078 0.0000 43.1973 0.0000
# 6 0.0001 0.0001 0.0000 13.8496 0.0000 32.5502
#
#
#
# Elastic Compliance Matrix: (Units=1/GPa)
#
#
# Indices 1 2 3 4 5 6 
#
# 1 0.009483 -0.001905 -0.003038 0.000000 0.000083 0.000000
# 2 -0.001905 0.007930 -0.002484 0.000000 -0.003563 0.000000
# 3 -0.003038 -0.002484 0.011455 0.000000 0.003754 0.000000
# 4 0.000000 0.000000 0.000000 0.052639 0.000000 -0.022397
# 5 0.000083 -0.003563 0.003754 0.000000 0.025404 0.000000
# 6 0.000000 0.000000 0.000000 -0.022397 0.000000 0.040251
#
#
# Mechanical properties :
#
#
# Convention : Reuss Voigt Hill
#
# Bulk Modulus (GPa) = 71.35613 72.61973 71.98793
# Shear Modulus (GPa) = 29.99611 37.96576 33.98094
#
# Velocity S-wave (km/s) = 3.69754 4.15984 3.93549
# Velocity P-wave (km/s) = 7.12406 7.49477 7.31176
#
# Compressibility (1/GPa) = 0.01401421
#
# Stress axis : x y z
#
# Youngs Moduli (GPa) = 105.44715 126.10064 87.30115
#
# Poissons Ratio (x) = 0.24019 0.26526
# Poissons Ratio (y) = 0.20085 0.21684
# Poissons Ratio (z) = 0.32040 0.31321
#
# Static dielectric constant tensor:
#      x y z
#    x 3.803720 0.000000 0.019600 
#    y 0.000000 4.414180 0.000000 
#    z 0.019600 0.000000 4.418000 
# 
# 
# High freq. dielectric constant tensor:
#      x y z
#    x 1.867720 0.000000 0.007580 
#    y 0.000000 1.886630 0.000000 
#    z 0.007580 0.000000 1.862070 
# 
# From -- ./inp_files/224569.got.cif
#   From: 2010.06.25/outbox.cif.g09.slc.cpg/sg15_113_cif.got.tgz:224569.got - 2010.06.28 07:06:18.
