data_PCOD8140062
_publ_section_title
;
Structure prediction by ZEFSAII (Michael W. Deem and Ramdas Pophale) SiO2 
 PCOD8140062
Probable space group: C 2/C
;
_chemical_formula_sum "Si O2"
_cell_formula_units_Z 56
_cell_length_a 17.251804
_cell_length_b 9.102513
_cell_length_c 19.581961
_cell_angle_alpha 90.000000
_cell_angle_beta 117.537131
_cell_angle_gamma 90.000000
_cell_volume 2726.680799
_symmetry_space_group_name_H-M "C 2/C"
_symmetry_group_IT_number 15
_symmetry_cell_setting 'monoclinic'
loop_
_space_group_symop_operation_xyz
x,y,z
-x,y,1/2-z
-x,-y,-z
x,-y,1/2+z
1/2+x,1/2+y,z
1/2-x,1/2+y,1/2-z
1/2-x,1/2-y,-z
1/2+x,1/2-y,1/2+z
loop_
_atom_site_type_symbol
_atom_site_label
_atom_site_fract_x
_atom_site_fract_y
_atom_site_fract_z
Si Si1 0.672046 0.412465 0.430679
Si Si2 0.655297 0.911185 0.923186
Si Si3 0.839168 0.295006 0.295024
Si Si4 0.407633 0.365175 0.692352
Si Si5 0.240436 0.019195 0.168285
Si Si6 0.534862 0.834444 0.408085
Si Si7 0.088281 0.081783 0.520513
O O1 0.626095 0.255874 0.398230
O O2 0.774970 0.402988 0.486740
O O3 0.658163 0.508507 0.357747
O O4 0.628422 0.490817 0.475931
O O5 0.692744 0.979475 0.868228
O O6 0.573311 0.001499 0.919359
O O7 0.858958 0.208632 0.234562
O O8 0.783086 0.438780 0.251326
O O9 0.929717 0.343827 0.367699
O O10 0.785519 0.187131 0.323634
O O11 0.500000 0.439010 0.750000
O O12 0.428243 0.245688 0.643363
O O13 0.153940 0.925810 0.111742
O O14 0.570018 0.749959 0.490004
O O15 0.000000 0.000000 0.500000
#
# Coordination Sequence:
#
# PCOD8140062 Si02
#       7
#     8   8   8   8   8   8   8
#     4   9  21  37  62  88 120 153 204 258 304 352
#     4  10  21  40  62  91 118 157 208 260 298 361
#     4  11  23  40  57  93 127 164 199 255 318 373
#     4   9  19  36  58  84 116 160 204 241 298 373
#     4  11  24  39  62  87 128 163 203 254 318 372
#     4  10  20  40  66  86 119 159 212 255 299 371
#     4  10  20  41  65  87 117 163 209 255 306 368
#
# _framework density 20.537790999999999
#
# number of rings (size 3 to 8) (size 9 to 14) (size 15 to 20)
#    0.000    2.000    2.857    0.000    4.000    1.714 
#    5.143    0.714    0.000    0.000    0.000    0.000 
#    0.000    0.000    0.000    0.000    0.000    0.000 
#
# Total GULP energy -347142.430173 kJ/mol
# GULP energy per Si atom -12397.943935 kJ/mol
# Density = 2.049105 g / cm^3
# Si number density = 20.537791 Si / 1000 Ang^3
#
#
#
# Elastic Constant Matrix: (Units=GPa)
#
#
# Indices 1 2 3 4 5 6 
#
# 1 56.4778 30.9585 7.9082 0.0000 18.8323 0.0000
# 2 30.9585 106.2066 36.9437 0.0000 24.3210 0.0000
# 3 7.9082 36.9437 68.6882 0.0000 20.4599 0.0000
# 4 0.0000 0.0000 0.0000 23.4152 0.0000 12.1458
# 5 18.8323 24.3210 20.4599 0.0000 25.0332 0.0000
# 6 0.0000 0.0000 0.0000 12.1458 0.0000 31.8174
#
#
#
# Elastic Compliance Matrix: (Units=1/GPa)
#
#
# Indices 1 2 3 4 5 6 
#
# 1 0.026135 -0.005134 0.005450 0.000000 -0.019128 0.000000
# 2 -0.005134 0.014000 -0.005337 0.000000 -0.005378 0.000000
# 3 0.005450 -0.005337 0.021781 0.000000 -0.016716 0.000000
# 4 0.000000 0.000000 0.000000 0.053252 0.000000 -0.020328
# 5 -0.019128 -0.005378 -0.016716 0.000000 0.073224 0.000000
# 6 0.000000 0.000000 0.000000 -0.020328 0.000000 0.039189
#
#
# Mechanical properties :
#
#
# Convention : Reuss Voigt Hill
#
# Bulk Modulus (GPa) = 19.27749 42.55483 30.91616
# Shear Modulus (GPa) = 19.61445 26.42396 23.01920
#
# Velocity S-wave (km/s) = 3.09373 3.59081 3.35150
# Velocity P-wave (km/s) = 4.70832 6.16094 5.48295
#
# Compressibility (1/GPa) = 0.05187397
#
# Stress axis : x y z
#
# Youngs Moduli (GPa) = 38.26266 71.42878 45.91192
#
# Poissons Ratio (x) = 0.36669 -0.25021
# Poissons Ratio (y) = 0.19643 0.24503
# Poissons Ratio (z) = -0.20852 0.38121
#
# Static dielectric constant tensor:
#      x y z
#    x 3.586880 0.000000 0.162030 
#    y 0.000000 3.692860 0.000000 
#    z 0.162030 0.000000 4.046830 
# 
# 
# High freq. dielectric constant tensor:
#      x y z
#    x 1.794740 0.000000 0.005450 
#    y 0.000000 1.797230 0.000000 
#    z 0.005450 0.000000 1.803060 
# 
# From -- ./inp_files/247596.got.cif
#   From: 2010.06.25/outbox.cif.g09.slc.cpg/sg15_124_cif.got.tgz:247596.got - 2010.06.28 07:06:18.
