data_PCOD8140159
_publ_section_title
;
Structure prediction by ZEFSAII (Michael W. Deem and Ramdas Pophale) SiO2 
 PCOD8140159
Probable space group: C 2/C
;
_chemical_formula_sum "Si O2"
_cell_formula_units_Z 40
_cell_length_a 13.617561
_cell_length_b 14.326621
_cell_length_c 9.725204
_cell_angle_alpha 90.000000
_cell_angle_beta 75.109736
_cell_angle_gamma 90.000000
_cell_volume 1833.612758
_symmetry_space_group_name_H-M "C 2/C"
_symmetry_group_IT_number 15
_symmetry_cell_setting 'monoclinic'
loop_
_space_group_symop_operation_xyz
x,y,z
-x,y,1/2-z
-x,-y,-z
x,-y,1/2+z
1/2+x,1/2+y,z
1/2-x,1/2+y,1/2-z
1/2-x,1/2-y,-z
1/2+x,1/2-y,1/2+z
loop_
_atom_site_type_symbol
_atom_site_label
_atom_site_fract_x
_atom_site_fract_y
_atom_site_fract_z
Si Si1 0.839986 0.239672 0.764221
Si Si2 0.836627 0.402172 0.120210
Si Si3 0.783871 0.448458 0.836915
Si Si4 0.529377 0.257844 0.016106
Si Si5 0.443201 0.443452 0.633710
O O1 0.746100 0.169567 0.788439
O O2 0.800440 0.344157 0.781438
O O3 0.912308 0.234365 0.604682
O O4 0.898929 0.215465 0.882316
O O5 0.858993 0.480067 0.229085
O O6 0.940728 0.345251 0.050577
O O7 0.798743 0.454861 0.995652
O O8 0.672267 0.478933 0.826795
O O9 0.549625 0.332296 0.889669
O O10 0.500000 0.473503 0.750000
O O11 0.500000 0.500000 0.500000
#
# Coordination Sequence:
#
# PCOD8140159 Si02
#       5
#     8   8   8   8   8
#     4  10  20  40  68  87 125 166 210 256 311 377
#     4  11  21  42  65  92 129 161 214 259 310 380
#     4  11  22  40  63  91 124 171 205 256 316 372
#     4  10  21  40  63  90 124 170 204 256 315 367
#     4  12  24  38  61  94 124 158 210 253 312 367
#
# _framework density 21.814855999999999
#
# number of rings (size 3 to 8) (size 9 to 14) (size 15 to 20)
#    0.000    1.200    4.000    3.600    2.800    0.800 
#    3.600    2.000    0.000    0.000    0.000    0.000 
#    0.000    0.000    0.000    0.000    0.000    0.000 
#
# Total GULP energy -248016.555383 kJ/mol
# GULP energy per Si atom -12400.827769 kJ/mol
# Density = 2.176520 g / cm^3
# Si number density = 21.814856 Si / 1000 Ang^3
#
#
#
# Elastic Constant Matrix: (Units=GPa)
#
#
# Indices 1 2 3 4 5 6 
#
# 1 39.8843 6.3083 27.6083 0.0000 -4.6931 0.0000
# 2 6.3083 100.9332 56.2995 0.0000 10.3810 0.0000
# 3 27.6083 56.2995 115.0824 0.0000 -7.0468 0.0000
# 4 0.0000 0.0000 0.0000 53.9408 0.0000 -8.3670
# 5 -4.6931 10.3810 -7.0468 0.0000 23.7998 0.0000
# 6 0.0000 0.0000 0.0000 -8.3670 0.0000 18.9782
#
#
#
# Elastic Compliance Matrix: (Units=1/GPa)
#
#
# Indices 1 2 3 4 5 6 
#
# 1 0.030841 0.002564 -0.008503 0.000000 0.002445 0.000000
# 2 0.002564 0.015549 -0.008765 0.000000 -0.008872 0.000000
# 3 -0.008503 -0.008765 0.015428 0.000000 0.006714 0.000000
# 4 0.000000 0.000000 0.000000 0.019900 0.000000 0.008773
# 5 0.002445 -0.008872 0.006714 0.000000 0.048357 0.000000
# 6 0.000000 0.000000 0.000000 0.008773 0.000000 0.056560
#
#
# Mechanical properties :
#
#
# Convention : Reuss Voigt Hill
#
# Bulk Modulus (GPa) = 30.85519 48.48136 39.66827
# Shear Modulus (GPa) = 22.04134 30.38934 26.21534
#
# Velocity S-wave (km/s) = 3.18210 3.73642 3.47034
# Velocity P-wave (km/s) = 5.26078 6.39427 5.85502
#
# Compressibility (1/GPa) = 0.03240946
#
# Stress axis : x y z
#
# Youngs Moduli (GPa) = 32.42453 64.31395 64.81550
#
# Poissons Ratio (x) = -0.16490 0.55115
# Poissons Ratio (y) = -0.08314 0.56810
# Poissons Ratio (z) = 0.27572 0.56371
#
# Static dielectric constant tensor:
#      x y z
#    x 3.728080 0.000000 -0.456940 
#    y 0.000000 4.374100 0.000000 
#    z -0.456940 0.000000 5.052530 
# 
# 
# High freq. dielectric constant tensor:
#      x y z
#    x 1.836010 0.000000 -0.022590 
#    y 0.000000 1.867640 0.000000 
#    z -0.022590 0.000000 1.857800 
# 
# From -- ./inp_files/37815.got.cif
#   From: 2010.06.25/outbox.cif.g09.slc.cpg/sg15_19_cif.got.tgz:37815.got - 2010.06.28 07:06:18.
