data_PCOD8140911
_publ_section_title
;
Structure prediction by ZEFSAII (Michael W. Deem and Ramdas Pophale) SiO2 
 PCOD8140911
Probable space group: C 2/C
;
_chemical_formula_sum "Si O2"
_cell_formula_units_Z 64
_cell_length_a 26.678348
_cell_length_b 13.377561
_cell_length_c 11.443946
_cell_angle_alpha 90.000000
_cell_angle_beta 109.546564
_cell_angle_gamma 90.000000
_cell_volume 3848.868538
_symmetry_space_group_name_H-M "C 2/C"
_symmetry_group_IT_number 15
_symmetry_cell_setting 'monoclinic'
loop_
_space_group_symop_operation_xyz
x,y,z
-x,y,1/2-z
-x,-y,-z
x,-y,1/2+z
1/2+x,1/2+y,z
1/2-x,1/2+y,1/2-z
1/2-x,1/2-y,-z
1/2+x,1/2-y,1/2+z
loop_
_atom_site_type_symbol
_atom_site_label
_atom_site_fract_x
_atom_site_fract_y
_atom_site_fract_z
Si Si1 0.739224 0.380592 0.584206
Si Si2 0.663965 0.210614 0.471491
Si Si3 0.278757 0.801474 0.852245
Si Si4 0.260966 0.900976 0.084680
Si Si5 0.888740 0.379112 0.924087
Si Si6 0.440992 0.144561 0.228247
Si Si7 0.858988 0.408186 0.323475
Si Si8 0.440164 0.085623 0.698448
O O1 0.690378 0.320862 0.486066
O O2 0.795497 0.364026 0.562137
O O3 0.742792 0.344980 0.720706
O O4 0.725726 0.498217 0.564795
O O5 0.605661 0.211248 0.366285
O O6 0.657836 0.179272 0.602029
O O7 0.266992 0.685564 0.863484
O O8 0.340482 0.803066 0.864867
O O9 0.267872 0.869329 0.956472
O O10 0.317446 0.924827 0.186700
O O11 0.933623 0.360037 0.861928
O O12 0.864778 0.490439 0.900644
O O13 0.912964 0.357907 0.069502
O O14 0.500000 0.189530 0.250000
O O15 0.436860 0.033340 0.172096
O O16 0.913939 0.381726 0.300642
O O17 0.500000 0.123533 0.750000
#
# Coordination Sequence:
#
# PCOD8140911 Si02
#       8
#     8   8   8   8   8   8   8   8
#     4  11  22  35  54  76 108 141 172 214 258 316
#     4  11  21  34  50  79 103 140 174 207 259 311
#     4  11  21  35  52  77 107 137 177 208 263 310
#     4  11  22  34  52  79 105 141 172 214 255 309
#     4  11  19  33  50  71 104 139 170 207 259 314
#     4  10  21  32  49  74 104 135 173 216 255 306
#     4  11  19  30  51  70 107 134 167 209 253 306
#     4  10  21  31  48  73 101 141 171 208 257 313
#
# _framework density 16.628264000000001
#
# number of rings (size 3 to 8) (size 9 to 14) (size 15 to 20)
#    0.000    1.250    6.250    1.500    1.750    1.500 
#    0.000    0.000    0.000    0.000    0.000    1.750 
#    0.000    0.000    0.000    0.000    0.000    0.000 
#
# Total GULP energy -396846.395980 kJ/mol
# GULP energy per Si atom -12401.449874 kJ/mol
# Density = 1.659042 g / cm^3
# Si number density = 16.628264 Si / 1000 Ang^3
#
#
#
# Elastic Constant Matrix: (Units=GPa)
#
#
# Indices 1 2 3 4 5 6 
#
# 1 99.5102 34.0782 25.9498 0.0000 -1.4751 0.0000
# 2 34.0782 86.7829 26.1024 0.0000 -5.5638 0.0000
# 3 25.9498 26.1024 77.0940 0.0000 -2.9348 0.0000
# 4 0.0000 0.0000 0.0000 17.2731 0.0000 -0.0509
# 5 -1.4751 -5.5638 -2.9348 0.0000 27.9381 0.0000
# 6 0.0000 0.0000 0.0000 -0.0509 0.0000 16.5608
#
#
#
# Elastic Compliance Matrix: (Units=1/GPa)
#
#
# Indices 1 2 3 4 5 6 
#
# 1 0.012116 -0.003957 -0.002755 0.000000 -0.000438 0.000000
# 2 -0.003957 0.014247 -0.003405 0.000000 0.002271 0.000000
# 3 -0.002755 -0.003405 0.015080 0.000000 0.000761 0.000000
# 4 0.000000 0.000000 0.000000 0.057894 0.000000 0.000178
# 5 -0.000438 0.002271 0.000761 0.000000 0.036302 0.000000
# 6 0.000000 0.000000 0.000000 0.000178 0.000000 0.060384
#
#
# Mechanical properties :
#
#
# Convention : Reuss Voigt Hill
#
# Bulk Modulus (GPa) = 47.15139 48.40532 47.77835
# Shear Modulus (GPa) = 22.38852 24.17152 23.28002
#
# Velocity S-wave (km/s) = 3.67333 3.81680 3.74575
# Velocity P-wave (km/s) = 6.81241 6.97118 6.89225
#
# Compressibility (1/GPa) = 0.02120828
#
# Stress axis : x y z
#
# Youngs Moduli (GPa) = 82.53254 70.19151 66.31105
#
# Poissons Ratio (x) = 0.27777 0.18270
# Poissons Ratio (y) = 0.32660 0.22580
# Poissons Ratio (z) = 0.22739 0.23901
#
# Static dielectric constant tensor:
#      x y z
#    x 3.171130 0.000000 -0.068500 
#    y 0.000000 2.874410 0.000000 
#    z -0.068500 0.000000 3.188520 
# 
# 
# High freq. dielectric constant tensor:
#      x y z
#    x 1.635790 0.000000 -0.010780 
#    y 0.000000 1.597250 0.000000 
#    z -0.010780 0.000000 1.658930 
# 
# From -- ./inp_files/122457.got.cif
#   From: 2010.06.25/outbox.cif.g09.slc.cpg/sg15_62_cif.got.tgz:122457.got - 2010.06.28 07:06:18.
