data_PCOD8140825
_publ_section_title
;
Structure prediction by ZEFSAII (Michael W. Deem and Ramdas Pophale) SiO2 
 PCOD8140825
Probable space group: C 2/C
;
_chemical_formula_sum "Si O2"
_cell_formula_units_Z 56
_cell_length_a 25.817434
_cell_length_b 8.836986
_cell_length_c 14.174276
_cell_angle_alpha 90.000000
_cell_angle_beta 57.838748
_cell_angle_gamma 90.000000
_cell_volume 2737.615545
_symmetry_space_group_name_H-M "C 2/C"
_symmetry_group_IT_number 15
_symmetry_cell_setting 'monoclinic'
loop_
_space_group_symop_operation_xyz
x,y,z
-x,y,1/2-z
-x,-y,-z
x,-y,1/2+z
1/2+x,1/2+y,z
1/2-x,1/2+y,1/2-z
1/2-x,1/2-y,-z
1/2+x,1/2-y,1/2+z
loop_
_atom_site_type_symbol
_atom_site_label
_atom_site_fract_x
_atom_site_fract_y
_atom_site_fract_z
Si Si1 0.079090 0.240447 0.090232
Si Si2 0.664270 0.743265 0.832986
Si Si3 0.691312 0.660541 0.093285
Si Si4 0.500000 0.011603 0.750000
Si Si5 0.805833 0.169176 0.998055
Si Si6 0.778941 0.919327 0.729616
Si Si7 0.088334 0.740249 0.220564
Si Si8 0.500000 0.510959 0.750000
O O1 0.130607 0.251141 0.121710
O O2 0.035640 0.386236 0.139612
O O3 0.108876 0.234177 0.959119
O O4 0.038583 0.089949 0.140024
O O5 0.706179 0.890338 0.813612
O O6 0.707889 0.596245 0.797188
O O7 0.636233 0.758622 0.757932
O O8 0.687415 0.643639 0.209865
O O9 0.750000 0.750000 0.000000
O O10 0.691008 0.500826 0.041939
O O11 0.452260 0.910100 0.738173
O O12 0.799439 0.174000 0.117207
O O13 0.750000 0.250000 0.000000
O O14 0.869951 0.253334 0.914147
O O15 0.044588 0.886039 0.270074
#
# Coordination Sequence:
#
# PCOD8140825 Si02
#       8
#     8   8   8   4   8   8   8   4
#     4  11  23  44  65  96 129 178 222 279 324 399
#     4  12  24  40  68  96 136 168 226 265 341 402
#     4  12  23  40  67  98 137 171 214 274 336 398
#     4  10  28  44  66  86 132 184 224 282 328 378
#     4  12  23  40  67  98 137 171 214 274 336 398
#     4  12  22  40  64 109 132 177 206 271 345 402
#     4  11  23  44  65  96 129 178 222 279 324 399
#     4  10  20  44  66  86 132 176 232 262 328 378
#
# _framework density 20.455757999999999
#
# number of rings (size 3 to 8) (size 9 to 14) (size 15 to 20)
#    0.000    0.571    7.143    0.000    2.000    3.429 
#    0.000    5.714    0.000    0.000    0.000    0.000 
#    0.000    0.000    0.000    0.000    0.000    0.000 
#
# Total GULP energy -347279.719966 kJ/mol
# GULP energy per Si atom -12402.847142 kJ/mol
# Density = 2.040920 g / cm^3
# Si number density = 20.455758 Si / 1000 Ang^3
#
#
#
# Elastic Constant Matrix: (Units=GPa)
#
#
# Indices 1 2 3 4 5 6 
#
# 1 72.9741 29.1841 25.7505 0.0000 -10.4242 0.0000
# 2 29.1841 111.1617 39.0845 0.0000 -20.1330 0.0000
# 3 25.7505 39.0845 132.4866 0.0000 -1.5855 0.0000
# 4 0.0000 0.0000 0.0000 22.0451 0.0000 -1.8377
# 5 -10.4242 -20.1330 -1.5855 0.0000 45.6029 0.0000
# 6 0.0000 0.0000 0.0000 -1.8377 0.0000 26.1787
#
#
#
# Elastic Compliance Matrix: (Units=1/GPa)
#
#
# Indices 1 2 3 4 5 6 
#
# 1 0.016008 -0.003025 -0.002192 0.000000 0.002248 0.000000
# 2 -0.003025 0.011543 -0.002766 0.000000 0.004308 0.000000
# 3 -0.002192 -0.002766 0.008773 0.000000 -0.001417 0.000000
# 4 0.000000 0.000000 0.000000 0.045629 0.000000 0.003203
# 5 0.002248 0.004308 -0.001417 0.000000 0.024295 0.000000
# 6 0.000000 0.000000 0.000000 0.003203 0.000000 0.038424
#
#
# Mechanical properties :
#
#
# Convention : Reuss Voigt Hill
#
# Bulk Modulus (GPa) = 49.12023 56.07338 52.59681
# Shear Modulus (GPa) = 29.86462 33.60556 31.73509
#
# Velocity S-wave (km/s) = 3.82509 4.05759 3.94306
# Velocity P-wave (km/s) = 6.60102 7.03019 6.81898
#
# Compressibility (1/GPa) = 0.02035821
#
# Stress axis : x y z
#
# Youngs Moduli (GPa) = 62.46967 86.63426 113.98683
#
# Poissons Ratio (x) = 0.26205 0.24987
# Poissons Ratio (y) = 0.18896 0.31526
# Poissons Ratio (z) = 0.13694 0.23961
#
# Static dielectric constant tensor:
#      x y z
#    x 5.014310 0.000000 -1.107170 
#    y 0.000000 3.862130 0.000000 
#    z -1.107170 0.000000 4.727660 
# 
# 
# High freq. dielectric constant tensor:
#      x y z
#    x 1.802610 0.000000 -0.012150 
#    y 0.000000 1.803820 0.000000 
#    z -0.012150 0.000000 1.805900 
# 
# From -- ./inp_files/172312.got.cif
#   From: 2010.06.25/outbox.cif.g09.slc.cpg/sg15_87_cif.got.tgz:172312.got - 2010.06.28 07:06:18.
