data_PCOD8140770
_publ_section_title
;
Structure prediction by ZEFSAII (Michael W. Deem and Ramdas Pophale) SiO2 
 PCOD8140770
Probable space group: C 2/C
;
_chemical_formula_sum "Si O2"
_cell_formula_units_Z 44
_cell_length_a 11.138571
_cell_length_b 13.812618
_cell_length_c 14.709413
_cell_angle_alpha 90.000000
_cell_angle_beta 67.202723
_cell_angle_gamma 90.000000
_cell_volume 2086.296128
_symmetry_space_group_name_H-M "C 2/C"
_symmetry_group_IT_number 15
_symmetry_cell_setting 'monoclinic'
loop_
_space_group_symop_operation_xyz
x,y,z
-x,y,1/2-z
-x,-y,-z
x,-y,1/2+z
1/2+x,1/2+y,z
1/2-x,1/2+y,1/2-z
1/2-x,1/2-y,-z
1/2+x,1/2-y,1/2+z
loop_
_atom_site_type_symbol
_atom_site_label
_atom_site_fract_x
_atom_site_fract_y
_atom_site_fract_z
Si Si1 0.130725 0.704709 0.983761
Si Si2 0.490565 0.031506 0.400111
Si Si3 0.563294 0.684173 0.077609
Si Si4 0.196318 0.630192 0.610643
Si Si5 0.500000 0.459917 0.750000
Si Si6 0.737563 0.069333 0.793960
O O1 0.182560 0.640874 0.885767
O O2 0.036622 0.787766 0.972636
O O3 0.250000 0.750000 0.000000
O O4 0.051651 0.643769 0.083788
O O5 0.500000 0.000000 0.500000
O O6 0.383318 0.968061 0.380094
O O7 0.632024 0.017862 0.311625
O O8 0.601876 0.777866 0.125818
O O9 0.495733 0.605672 0.161535
O O10 0.689191 0.634688 0.996374
O O11 0.253784 0.628756 0.695543
O O12 0.374050 0.527427 0.786549
#
# Coordination Sequence:
#
# PCOD8140770 Si02
#       6
#     8   8   8   8   4   8
#     4  11  25  44  69  98 135 171 225 277 329 391
#     4  10  20  43  67  91 127 175 214 264 329 391
#     4  11  24  43  69  98 131 173 221 274 326 399
#     4  11  23  43  72  94 131 175 223 272 332 395
#     4  12  28  42  66 100 134 172 222 270 334 392
#     4  11  25  44  65  96 135 176 222 271 332 401
#
# _framework density 21.090007
#
# number of rings (size 3 to 8) (size 9 to 14) (size 15 to 20)
#    0.000    1.091    3.636    3.818    7.636    0.727 
#    0.000    0.000    0.000    0.000    0.000    0.000 
#    0.000    0.000    0.000    0.000    0.000    0.000 
#
# Total GULP energy -272842.879484 kJ/mol
# GULP energy per Si atom -12401.949067 kJ/mol
# Density = 2.104200 g / cm^3
# Si number density = 21.090007 Si / 1000 Ang^3
#
#
#
# Elastic Constant Matrix: (Units=GPa)
#
#
# Indices 1 2 3 4 5 6 
#
# 1 138.6147 42.4780 19.6205 0.0000 -7.1101 0.0000
# 2 42.4780 37.5972 15.2348 0.0000 3.3601 0.0000
# 3 19.6205 15.2348 71.8554 0.0000 0.8498 0.0000
# 4 0.0000 0.0000 0.0000 24.3183 0.0000 -0.4309
# 5 -7.1101 3.3601 0.8498 0.0000 35.7391 0.0000
# 6 0.0000 0.0000 0.0000 -0.4309 0.0000 40.4200
#
#
#
# Elastic Compliance Matrix: (Units=1/GPa)
#
#
# Indices 1 2 3 4 5 6 
#
# 1 0.011469 -0.013114 -0.000393 0.000000 0.003524 0.000000
# 2 -0.013114 0.044334 -0.005740 0.000000 -0.006641 0.000000
# 3 -0.000393 -0.005740 0.015240 0.000000 0.000099 0.000000
# 4 0.000000 0.000000 0.000000 0.041129 0.000000 0.000439
# 5 0.003524 -0.006641 0.000099 0.000000 0.029304 0.000000
# 6 0.000000 0.000000 0.000000 0.000439 0.000000 0.024745
#
#
# Mechanical properties :
#
#
# Convention : Reuss Voigt Hill
#
# Bulk Modulus (GPa) = 30.72337 44.74821 37.73579
# Shear Modulus (GPa) = 23.19489 31.47774 27.33632
#
# Velocity S-wave (km/s) = 3.31993 3.86754 3.60415
# Velocity P-wave (km/s) = 5.41251 6.41931 5.93729
#
# Compressibility (1/GPa) = 0.03254852
#
# Stress axis : x y z
#
# Youngs Moduli (GPa) = 87.18872 22.55623 65.61666
#
# Poissons Ratio (x) = 0.29580 0.02579
# Poissons Ratio (y) = 1.14339 0.37666
# Poissons Ratio (z) = 0.03427 0.12948
#
# Static dielectric constant tensor:
#      x y z
#    x 3.955050 0.000000 -0.015760 
#    y 0.000000 4.122880 0.000000 
#    z -0.015760 0.000000 3.709850 
# 
# 
# High freq. dielectric constant tensor:
#      x y z
#    x 1.836390 0.000000 -0.002260 
#    y 0.000000 1.815390 0.000000 
#    z -0.002260 0.000000 1.832100 
# 
# From -- ./inp_files/143387.got.cif
#   From: 2010.06.25/outbox.cif.g09.slc.cpg/sg15_72_cif.got.tgz:143387.got - 2010.06.28 07:06:18.
