data_PCOD8140619
_publ_section_title
;
Structure prediction by ZEFSAII (Michael W. Deem and Ramdas Pophale) SiO2 
 PCOD8140619
Probable space group: C 2/C
;
_chemical_formula_sum "Si O2"
_cell_formula_units_Z 44
_cell_length_a 11.461051
_cell_length_b 9.128261
_cell_length_c 19.816168
_cell_angle_alpha 90.000000
_cell_angle_beta 66.321210
_cell_angle_gamma 90.000000
_cell_volume 1898.620561
_symmetry_space_group_name_H-M "C 2/C"
_symmetry_group_IT_number 15
_symmetry_cell_setting 'monoclinic'
loop_
_space_group_symop_operation_xyz
x,y,z
-x,y,1/2-z
-x,-y,-z
x,-y,1/2+z
1/2+x,1/2+y,z
1/2-x,1/2+y,1/2-z
1/2-x,1/2-y,-z
1/2+x,1/2-y,1/2+z
loop_
_atom_site_type_symbol
_atom_site_label
_atom_site_fract_x
_atom_site_fract_y
_atom_site_fract_z
Si Si1 0.690007 0.771460 0.837793
Si Si2 0.500000 0.946925 0.250000
Si Si3 0.276219 0.455680 0.704894
Si Si4 0.054608 0.398542 0.544766
Si Si5 0.451706 0.353662 0.546598
Si Si6 0.376470 0.830755 0.401659
O O1 0.669899 0.620557 0.800866
O O2 0.790574 0.871563 0.772839
O O3 0.556629 0.852960 0.877282
O O4 0.747847 0.732849 0.898101
O O5 0.374322 0.046741 0.276500
O O6 0.486947 0.842898 0.318968
O O7 0.346580 0.374553 0.627859
O O8 0.000000 0.500000 0.500000
O O9 0.111042 0.252642 0.496212
O O10 0.153207 0.503228 0.562820
O O11 0.500000 0.500000 0.500000
O O12 0.576570 0.277830 0.550667
#
# Coordination Sequence:
#
# PCOD8140619 Si02
#       6
#     8   4   8   8   8   8
#     4  11  23  44  70 100 132 181 234 288 335 422
#     4  10  20  42  66  98 118 178 236 270 338 410
#     4  11  23  41  71  95 138 176 229 290 340 409
#     4  10  22  41  68  95 138 174 227 275 349 415
#     4  11  22  41  64 101 139 172 219 290 342 413
#     4  10  22  42  72  93 127 183 230 273 353 409
#
# _framework density 23.174717999999999
#
# number of rings (size 3 to 8) (size 9 to 14) (size 15 to 20)
#    0.000    1.455    3.636    2.182    2.545    2.909 
#    0.000    9.091    4.000    0.000    0.000    0.000 
#    0.000    0.000    0.000    0.000    0.000    0.000 
#
# Total GULP energy -272652.280703 kJ/mol
# GULP energy per Si atom -12393.285486 kJ/mol
# Density = 2.312197 g / cm^3
# Si number density = 23.174718 Si / 1000 Ang^3
#
#
#
# Elastic Constant Matrix: (Units=GPa)
#
#
# Indices 1 2 3 4 5 6 
#
# 1 45.9244 22.5566 3.5371 0.0000 9.1107 0.0000
# 2 22.5566 154.2823 61.8215 0.0000 11.8321 0.0000
# 3 3.5371 61.8215 127.6389 0.0000 0.9772 0.0000
# 4 0.0000 0.0000 0.0000 63.0905 0.0000 6.3256
# 5 9.1107 11.8321 0.9772 0.0000 34.0005 0.0000
# 6 0.0000 0.0000 0.0000 6.3256 0.0000 28.8991
#
#
#
# Elastic Compliance Matrix: (Units=1/GPa)
#
#
# Indices 1 2 3 4 5 6 
#
# 1 0.024529 -0.003624 0.001116 0.000000 -0.005344 0.000000
# 2 -0.003624 0.008831 -0.004162 0.000000 -0.001983 0.000000
# 3 0.001116 -0.004162 0.009813 0.000000 0.000867 0.000000
# 4 0.000000 0.000000 0.000000 0.016206 0.000000 -0.003547
# 5 -0.005344 -0.001983 0.000867 0.000000 0.031508 0.000000
# 6 0.000000 0.000000 0.000000 -0.003547 0.000000 0.035380
#
#
# Mechanical properties :
#
#
# Convention : Reuss Voigt Hill
#
# Bulk Modulus (GPa) = 33.51822 55.96399 44.74111
# Shear Modulus (GPa) = 33.43373 41.19338 37.31356
#
# Velocity S-wave (km/s) = 3.80239 4.22063 4.01696
# Velocity P-wave (km/s) = 5.81138 6.92480 6.39238
#
# Compressibility (1/GPa) = 0.02983452
#
# Stress axis : x y z
#
# Youngs Moduli (GPa) = 40.76822 113.23638 101.90829
#
# Poissons Ratio (x) = 0.41033 -0.11376
# Poissons Ratio (y) = 0.14773 0.42411
# Poissons Ratio (z) = -0.04551 0.47126
#
# Static dielectric constant tensor:
#      x y z
#    x 3.755530 0.000000 0.116500 
#    y 0.000000 4.378780 0.000000 
#    z 0.116500 0.000000 3.911590 
# 
# 
# High freq. dielectric constant tensor:
#      x y z
#    x 1.873470 0.000000 0.002780 
#    y 0.000000 1.925140 0.000000 
#    z 0.002780 0.000000 1.946110 
# 
# From -- ./inp_files/242281.got.cif
#   From: 2010.06.25/outbox.cif.g09.slc.cpg/sg15_122_cif.got.tgz:242281.got - 2010.06.28 07:06:18.
