data_PCOD8140901
_publ_section_title
;
Structure prediction by ZEFSAII (Michael W. Deem and Ramdas Pophale) SiO2 
 PCOD8140901
Probable space group: C 2/C
;
_chemical_formula_sum "Si O2"
_cell_formula_units_Z 52
_cell_length_a 10.330437
_cell_length_b 15.773134
_cell_length_c 15.188786
_cell_angle_alpha 90.000000
_cell_angle_beta 91.548683
_cell_angle_gamma 90.000000
_cell_volume 2474.007902
_symmetry_space_group_name_H-M "C 2/C"
_symmetry_group_IT_number 15
_symmetry_cell_setting 'monoclinic'
loop_
_space_group_symop_operation_xyz
x,y,z
-x,y,1/2-z
-x,-y,-z
x,-y,1/2+z
1/2+x,1/2+y,z
1/2-x,1/2+y,1/2-z
1/2-x,1/2-y,-z
1/2+x,1/2-y,1/2+z
loop_
_atom_site_type_symbol
_atom_site_label
_atom_site_fract_x
_atom_site_fract_y
_atom_site_fract_z
Si Si1 0.500000 0.309004 0.750000
Si Si2 0.298997 0.809933 0.151269
Si Si3 0.555812 0.390801 0.579346
Si Si4 0.082044 0.414120 0.497282
Si Si5 0.531492 0.260217 0.067613
Si Si6 0.318766 0.491726 0.053869
Si Si7 0.878201 0.131730 0.698664
O O1 0.598735 0.259051 0.813866
O O2 0.583226 0.364246 0.681021
O O3 0.378606 0.882768 0.100250
O O4 0.185431 0.772085 0.087479
O O5 0.233339 0.844846 0.236770
O O6 0.506670 0.312331 0.519712
O O7 0.681441 0.435366 0.536665
O O8 0.454216 0.466068 0.576559
O O9 0.007064 0.338994 0.546970
O O10 0.212530 0.435563 0.551860
O O11 0.000000 0.500000 0.500000
O O12 0.441878 0.287725 0.148176
O O13 0.297138 0.427613 0.133176
O O14 0.000000 0.086436 0.750000
#
# Coordination Sequence:
#
# PCOD8140901 Si02
#       7
#     4   8   8   8   8   8   8
#     4  12  24  34  64  96 122 166 218 270 306 376
#     4  11  23  42  65  89 129 173 213 261 320 379
#     4  10  21  39  66  91 121 165 225 264 310 371
#     4  12  25  40  65  94 131 175 206 256 332 394
#     4  10  20  47  68  85 122 180 215 250 323 401
#     4  10  22  39  63  96 126 168 211 265 317 380
#     4   9  22  40  67  91 124 165 219 272 312 366
#
# _framework density 21.018526999999999
#
# number of rings (size 3 to 8) (size 9 to 14) (size 15 to 20)
#    0.000    1.538    3.077    1.385    5.385    1.231 
#    0.000    7.692    0.000    0.000    0.000    0.000 
#    0.000    0.000    0.000    0.000    0.000    0.000 
#
# Total GULP energy -322158.769215 kJ/mol
# GULP energy per Si atom -12390.721893 kJ/mol
# Density = 2.097069 g / cm^3
# Si number density = 21.018527 Si / 1000 Ang^3
#
#
#
# Elastic Constant Matrix: (Units=GPa)
#
#
# Indices 1 2 3 4 5 6 
#
# 1 47.5806 25.8221 28.7924 0.0000 -18.3285 0.0000
# 2 25.8221 115.4001 45.6186 0.0000 -16.0675 0.0000
# 3 28.7924 45.6186 107.8375 0.0000 -31.1386 0.0000
# 4 0.0000 0.0000 0.0000 26.5268 0.0000 11.0800
# 5 -18.3285 -16.0675 -31.1386 0.0000 31.9340 0.0000
# 6 0.0000 0.0000 0.0000 11.0800 0.0000 26.5217
#
#
#
# Elastic Compliance Matrix: (Units=1/GPa)
#
#
# Indices 1 2 3 4 5 6 
#
# 1 0.029480 -0.003812 -0.002682 0.000000 0.012387 0.000000
# 2 -0.003812 0.010938 -0.003691 0.000000 -0.000284 0.000000
# 3 -0.002682 -0.003691 0.014713 0.000000 0.010950 0.000000
# 4 0.000000 0.000000 0.000000 0.045666 0.000000 -0.019078
# 5 0.012387 -0.000284 0.010950 0.000000 0.048958 0.000000
# 6 0.000000 0.000000 0.000000 -0.019078 0.000000 0.045675
#
#
# Mechanical properties :
#
#
# Convention : Reuss Voigt Hill
#
# Bulk Modulus (GPa) = 28.76773 52.36494 40.56634
# Shear Modulus (GPa) = 21.98889 28.36884 25.17886
#
# Velocity S-wave (km/s) = 3.23796 3.67782 3.46488
# Velocity P-wave (km/s) = 5.26267 6.55766 5.94553
#
# Compressibility (1/GPa) = 0.03476117
#
# Stress axis : x y z
#
# Youngs Moduli (GPa) = 33.92113 91.42314 67.96917
#
# Poissons Ratio (x) = 0.34847 0.18228
# Poissons Ratio (y) = 0.12930 0.25090
# Poissons Ratio (z) = 0.09097 0.33748
#
# Static dielectric constant tensor:
#      x y z
#    x 4.256250 0.000000 -0.297150 
#    y 0.000000 3.880160 0.000000 
#    z -0.297150 0.000000 4.044370 
# 
# 
# High freq. dielectric constant tensor:
#      x y z
#    x 1.809150 0.000000 -0.016320 
#    y 0.000000 1.822980 0.000000 
#    z -0.016320 0.000000 1.832770 
# 
# From -- ./inp_files/144336.got.cif
#   From: 2010.06.25/outbox.cif.g09.slc.cpg/sg15_73_cif.got.tgz:144336.got - 2010.06.28 07:06:18.
