data_PCOD8140563
_publ_section_title
;
Structure prediction by ZEFSAII (Michael W. Deem and Ramdas Pophale) SiO2 
 PCOD8140563
Probable space group: C 2/C
;
_chemical_formula_sum "Si O2"
_cell_formula_units_Z 52
_cell_length_a 19.910171
_cell_length_b 9.185750
_cell_length_c 13.548486
_cell_angle_alpha 90.000000
_cell_angle_beta 75.020153
_cell_angle_gamma 90.000000
_cell_volume 2393.674310
_symmetry_space_group_name_H-M "C 2/C"
_symmetry_group_IT_number 15
_symmetry_cell_setting 'monoclinic'
loop_
_space_group_symop_operation_xyz
x,y,z
-x,y,1/2-z
-x,-y,-z
x,-y,1/2+z
1/2+x,1/2+y,z
1/2-x,1/2+y,1/2-z
1/2-x,1/2-y,-z
1/2+x,1/2-y,1/2+z
loop_
_atom_site_type_symbol
_atom_site_label
_atom_site_fract_x
_atom_site_fract_y
_atom_site_fract_z
Si Si1 0.281321 0.026631 0.110724
Si Si2 0.000000 0.985484 0.250000
Si Si3 0.277763 0.244854 0.273201
Si Si4 0.940217 0.084691 0.078733
Si Si5 0.430863 0.087103 0.506473
Si Si6 0.394513 0.740498 0.855943
Si Si7 0.802505 0.074382 0.035237
O O1 0.255215 0.903440 0.198321
O O2 0.363560 0.003930 0.065238
O O3 0.238433 0.033532 0.024135
O O4 0.266383 0.183596 0.167338
O O5 0.950659 0.887514 0.337209
O O6 0.952764 0.078753 0.192472
O O7 0.361749 0.244682 0.259669
O O8 0.249821 0.132294 0.364180
O O9 0.935200 0.255697 0.057209
O O10 0.867986 0.005773 0.071316
O O11 0.000000 0.000000 0.000000
O O12 0.428395 0.113130 0.388067
O O13 0.500000 0.000000 0.500000
O O14 0.330935 0.705114 0.955800
#
# Coordination Sequence:
#
# PCOD8140563 Si02
#       7
#     8   4   8   8   8   8   8
#     4  11  23  43  67  98 129 174 221 273 330 395
#     4  12  24  40  68 104 126 174 234 274 316 396
#     4  11  22  40  68  92 126 170 223 269 330 395
#     4  11  23  42  66  96 128 174 228 271 323 389
#     4  11  23  45  65  93 140 178 211 274 343 396
#     4  10  21  41  67  88 128 179 217 263 337 396
#     4  10  20  42  65  87 127 171 212 267 325 380
#
# _framework density 21.723925000000001
#
# number of rings (size 3 to 8) (size 9 to 14) (size 15 to 20)
#    0.000    1.231    7.692    0.923    6.462    0.000 
#    2.769    0.769    0.000    0.000    0.000    0.000 
#    0.000    0.000    0.000    0.000    0.000    0.000 
#
# Total GULP energy -322137.248799 kJ/mol
# GULP energy per Si atom -12389.894185 kJ/mol
# Density = 2.167448 g / cm^3
# Si number density = 21.723925 Si / 1000 Ang^3
#
#
#
# Elastic Constant Matrix: (Units=GPa)
#
#
# Indices 1 2 3 4 5 6 
#
# 1 154.4414 31.9183 35.7743 0.0000 29.6522 0.0000
# 2 31.9183 34.7568 16.5919 0.0000 5.8607 0.0000
# 3 35.7743 16.5919 68.5234 0.0000 26.0310 0.0000
# 4 0.0000 0.0000 0.0000 25.3643 0.0000 10.8110
# 5 29.6522 5.8607 26.0310 0.0000 37.2772 0.0000
# 6 0.0000 0.0000 0.0000 10.8110 0.0000 32.8041
#
#
#
# Elastic Compliance Matrix: (Units=1/GPa)
#
#
# Indices 1 2 3 4 5 6 
#
# 1 0.009229 -0.007062 -0.001009 0.000000 -0.005527 0.000000
# 2 -0.007062 0.037943 -0.007307 0.000000 0.004754 0.000000
# 3 -0.001009 -0.007307 0.021979 0.000000 -0.013397 0.000000
# 4 0.000000 0.000000 0.000000 0.045868 0.000000 -0.015116
# 5 -0.005527 0.004754 -0.013397 0.000000 0.039830 0.000000
# 6 0.000000 0.000000 0.000000 -0.015116 0.000000 0.035466
#
#
# Mechanical properties :
#
#
# Convention : Reuss Voigt Hill
#
# Bulk Modulus (GPa) = 26.04450 47.36564 36.70507
# Shear Modulus (GPa) = 21.37958 30.65161 26.01559
#
# Velocity S-wave (km/s) = 3.14052 3.76035 3.46433
# Velocity P-wave (km/s) = 5.01651 6.38000 5.73889
#
# Compressibility (1/GPa) = 0.03839582
#
# Stress axis : x y z
#
# Youngs Moduli (GPa) = 108.35141 26.35542 45.49881
#
# Poissons Ratio (x) = 0.18612 0.04591
# Poissons Ratio (y) = 0.76518 0.33244
# Poissons Ratio (z) = 0.10932 0.19257
#
# Static dielectric constant tensor:
#      x y z
#    x 4.516140 0.000000 0.477150 
#    y 0.000000 3.753450 0.000000 
#    z 0.477150 0.000000 4.101970 
# 
# 
# High freq. dielectric constant tensor:
#      x y z
#    x 1.877480 0.000000 0.015690 
#    y 0.000000 1.812970 0.000000 
#    z 0.015690 0.000000 1.852530 
# 
# From -- ./inp_files/166304.got.cif
#   From: 2010.06.25/outbox.cif.g09.slc.cpg/sg15_84_cif.got.tgz:166304.got - 2010.06.28 07:06:18.
