data_PCOD8140085
_publ_section_title
;
Structure prediction by ZEFSAII (Michael W. Deem and Ramdas Pophale) SiO2 
 PCOD8140085
Probable space group: C 2/C
;
_chemical_formula_sum "Si O2"
_cell_formula_units_Z 48
_cell_length_a 9.215148
_cell_length_b 28.375462
_cell_length_c 15.812109
_cell_angle_alpha 90.000000
_cell_angle_beta 34.575444
_cell_angle_gamma 90.000000
_cell_volume 2346.356321
_symmetry_space_group_name_H-M "C 2/C"
_symmetry_group_IT_number 15
_symmetry_cell_setting 'monoclinic'
loop_
_space_group_symop_operation_xyz
x,y,z
-x,y,1/2-z
-x,-y,-z
x,-y,1/2+z
1/2+x,1/2+y,z
1/2-x,1/2+y,1/2-z
1/2-x,1/2-y,-z
1/2+x,1/2-y,1/2+z
loop_
_atom_site_type_symbol
_atom_site_label
_atom_site_fract_x
_atom_site_fract_y
_atom_site_fract_z
Si Si1 0.264718 0.015842 0.168980
Si Si2 0.095910 0.873566 0.970131
Si Si3 0.276813 0.706102 0.581517
Si Si4 0.209770 0.034598 0.860666
Si Si5 0.723153 0.189381 0.420598
Si Si6 0.426083 0.882354 0.649026
O O1 0.341363 0.064627 0.174401
O O2 0.000000 0.025577 0.250000
O O3 0.211475 0.973688 0.259779
O O4 0.500000 0.000000 0.000000
O O5 0.241200 0.864227 0.811849
O O6 0.284462 0.884280 0.956730
O O7 0.951353 0.824815 0.060065
O O8 0.877428 0.913423 0.071155
O O9 0.406292 0.758236 0.515235
O O10 0.251354 0.676389 0.505805
O O11 0.000000 0.713242 0.750000
O O12 0.500000 0.024006 0.750000
O O13 0.000000 0.000000 0.000000
O O14 0.573762 0.150515 0.435532
O O15 0.000000 0.192506 0.250000
#
# Coordination Sequence:
#
# PCOD8140085 Si02
#       6
#     8   8   8   8   8   8
#     4  12  26  42  64  95 129 167 215 268 322 377
#     4  11  23  40  64  95 127 170 217 264 322 387
#     4  10  22  39  64  96 125 163 211 269 324 382
#     4  12  24  43  67  93 130 172 215 267 320 385
#     4  10  20  40  66  91 126 166 216 264 319 386
#     4  11  23  40  66  92 128 172 216 262 323 391
#
# _framework density 20.457249000000001
#
# number of rings (size 3 to 8) (size 9 to 14) (size 15 to 20)
#    0.000    1.000    3.333    4.000    0.000    2.000 
#    0.000    2.500    0.000    0.000    0.000    0.000 
#    0.000    0.000    0.000    0.000    0.000    0.000 
#
# Total GULP energy -297443.544450 kJ/mol
# GULP energy per Si atom -12393.481019 kJ/mol
# Density = 2.041069 g / cm^3
# Si number density = 20.457249 Si / 1000 Ang^3
#
#
#
# Elastic Constant Matrix: (Units=GPa)
#
#
# Indices 1 2 3 4 5 6 
#
# 1 105.6657 30.0062 28.1040 0.0000 -13.5020 0.0000
# 2 30.0062 87.9530 12.2808 0.0000 -12.0677 0.0000
# 3 28.1040 12.2808 89.6696 0.0000 -5.0632 0.0000
# 4 0.0000 0.0000 0.0000 32.5724 0.0000 5.0316
# 5 -13.5020 -12.0677 -5.0632 0.0000 44.3248 0.0000
# 6 0.0000 0.0000 0.0000 5.0316 0.0000 38.5699
#
#
#
# Elastic Compliance Matrix: (Units=1/GPa)
#
#
# Indices 1 2 3 4 5 6 
#
# 1 0.011462 -0.003175 -0.003029 0.000000 0.002281 0.000000
# 2 -0.003175 0.012879 -0.000630 0.000000 0.002468 0.000000
# 3 -0.003029 -0.000630 0.012205 0.000000 0.000300 0.000000
# 4 0.000000 0.000000 0.000000 0.031332 0.000000 -0.004087
# 5 0.002281 0.002468 0.000300 0.000000 0.023962 0.000000
# 6 0.000000 0.000000 0.000000 -0.004087 0.000000 0.026460
#
#
# Mechanical properties :
#
#
# Convention : Reuss Voigt Hill
#
# Bulk Modulus (GPa) = 43.70639 47.11894 45.41267
# Shear Modulus (GPa) = 35.81836 37.28657 36.55246
#
# Velocity S-wave (km/s) = 4.18890 4.27389 4.23161
# Velocity P-wave (km/s) = 6.69380 6.88751 6.79134
#
# Compressibility (1/GPa) = 0.02287995
#
# Stress axis : x y z
#
# Youngs Moduli (GPa) = 87.24151 77.64445 81.93672
#
# Poissons Ratio (x) = 0.24649 0.24818
# Poissons Ratio (y) = 0.27696 0.05159
# Poissons Ratio (z) = 0.26425 0.04888
#
# Static dielectric constant tensor:
#      x y z
#    x 3.666150 0.000000 -0.061720 
#    y 0.000000 3.882180 0.000000 
#    z -0.061720 0.000000 3.899440 
# 
# 
# High freq. dielectric constant tensor:
#      x y z
#    x 1.796330 0.000000 0.000220 
#    y 0.000000 1.808040 0.000000 
#    z 0.000220 0.000000 1.803720 
# 
# From -- ./inp_files/115066.got.cif
#   From: 2010.06.25/outbox.cif.g09.slc.cpg/sg15_58_cif.got.tgz:115066.got - 2010.06.28 07:06:18.
