data_PCOD8140086
_publ_section_title
;
Structure prediction by ZEFSAII (Michael W. Deem and Ramdas Pophale) SiO2 
 PCOD8140086
Probable space group: C 2/C
;
_chemical_formula_sum "Si O2"
_cell_formula_units_Z 64
_cell_length_a 24.832631
_cell_length_b 15.535397
_cell_length_c 10.596641
_cell_angle_alpha 90.000000
_cell_angle_beta 134.307233
_cell_angle_gamma 90.000000
_cell_volume 2925.407779
_symmetry_space_group_name_H-M "C 2/C"
_symmetry_group_IT_number 15
_symmetry_cell_setting 'monoclinic'
loop_
_space_group_symop_operation_xyz
x,y,z
-x,y,1/2-z
-x,-y,-z
x,-y,1/2+z
1/2+x,1/2+y,z
1/2-x,1/2+y,1/2-z
1/2-x,1/2-y,-z
1/2+x,1/2-y,1/2+z
loop_
_atom_site_type_symbol
_atom_site_label
_atom_site_fract_x
_atom_site_fract_y
_atom_site_fract_z
Si Si1 0.339429 0.822725 0.215292
Si Si2 0.175354 0.856546 0.912978
Si Si3 0.916804 0.396597 0.590225
Si Si4 0.088094 0.993948 0.372890
Si Si5 0.838813 0.328155 0.709205
Si Si6 0.291581 0.511124 0.237539
Si Si7 0.678358 0.361624 0.365961
Si Si8 0.636937 0.077559 0.008892
O O1 0.360978 0.722690 0.223262
O O2 0.386975 0.854754 0.411912
O O3 0.250603 0.824043 0.109414
O O4 0.359959 0.875384 0.121371
O O5 0.211341 0.933036 0.892090
O O6 0.111514 0.905530 0.889947
O O7 0.865871 0.376178 0.628044
O O8 0.922963 0.500279 0.590651
O O9 0.000000 0.359468 0.750000
O O10 0.132811 0.960959 0.567720
O O11 0.112938 0.926478 0.306360
O O12 0.000000 0.987956 0.250000
O O13 0.748328 0.342849 0.575577
O O14 0.859836 0.227846 0.733203
O O15 0.882116 0.357852 0.907227
O O16 0.289330 0.408967 0.205332
O O17 0.214704 0.532608 0.183967
#
# Coordination Sequence:
#
# PCOD8140086 Si02
#       8
#     8   8   8   8   8   8   8   8
#     4  10  23  43  72  98 134 174 231 288 329 399
#     4   9  22  39  66 101 125 179 231 273 330 405
#     4  12  27  45  67  98 138 179 219 282 355 402
#     4  11  23  40  64  96 141 181 218 278 349 422
#     4  11  24  41  69 103 126 174 234 284 325 404
#     4  10  20  40  66  91 133 173 221 274 338 407
#     4  10  23  39  65  98 132 175 225 280 335 406
#     4  11  22  42  72  97 127 174 231 284 335 399
#
# _framework density 21.877291
#
# number of rings (size 3 to 8) (size 9 to 14) (size 15 to 20)
#    0.000    1.500    2.500    1.500    5.250    6.500 
#    2.250    0.625    0.000    0.000    0.000    0.000 
#    0.000    0.000    0.000    0.000    0.000    0.000 
#
# Total GULP energy -396518.493469 kJ/mol
# GULP energy per Si atom -12391.202921 kJ/mol
# Density = 2.182750 g / cm^3
# Si number density = 21.877291 Si / 1000 Ang^3
#
#
#
# Elastic Constant Matrix: (Units=GPa)
#
#
# Indices 1 2 3 4 5 6 
#
# 1 88.0134 40.3960 51.0508 0.0000 0.2062 0.0000
# 2 40.3960 141.5962 31.7066 0.0000 -3.4570 0.0000
# 3 51.0508 31.7066 111.5316 0.0000 -2.3895 0.0000
# 4 0.0000 0.0000 0.0000 22.8884 0.0000 -3.4483
# 5 0.2062 -3.4570 -2.3895 0.0000 41.7447 0.0000
# 6 0.0000 0.0000 0.0000 -3.4483 0.0000 20.6885
#
#
#
# Elastic Compliance Matrix: (Units=1/GPa)
#
#
# Indices 1 2 3 4 5 6 
#
# 1 0.016803 -0.003296 -0.006770 0.000000 -0.000743 0.000000
# 2 -0.003296 0.008200 -0.000808 0.000000 0.000649 0.000000
# 3 -0.006770 -0.000808 0.012309 0.000000 0.000671 0.000000
# 4 0.000000 0.000000 0.000000 0.044816 0.000000 0.007470
# 5 -0.000743 0.000649 0.000671 0.000000 0.024051 0.000000
# 6 0.000000 0.000000 0.000000 0.007470 0.000000 0.049581
#
#
# Mechanical properties :
#
#
# Convention : Reuss Voigt Hill
#
# Bulk Modulus (GPa) = 64.25599 65.27199 64.76399
# Shear Modulus (GPa) = 27.36778 31.59686 29.48232
#
# Velocity S-wave (km/s) = 3.54074 3.80449 3.67498
# Velocity P-wave (km/s) = 6.79343 7.01421 6.90470
#
# Compressibility (1/GPa) = 0.01556275
#
# Stress axis : x y z
#
# Youngs Moduli (GPa) = 59.51169 121.95837 81.24004
#
# Poissons Ratio (x) = 0.40197 0.55002
# Poissons Ratio (y) = 0.19615 0.06568
# Poissons Ratio (z) = 0.40291 0.09859
#
# Static dielectric constant tensor:
#      x y z
#    x 3.769010 0.000000 -0.070110 
#    y 0.000000 4.137660 0.000000 
#    z -0.070110 0.000000 3.788200 
# 
# 
# High freq. dielectric constant tensor:
#      x y z
#    x 1.842440 0.000000 -0.012080 
#    y 0.000000 1.874110 0.000000 
#    z -0.012080 0.000000 1.844030 
# 
# From -- ./inp_files/123554.got.cif
#   From: 2010.06.25/outbox.cif.g09.slc.cpg/sg15_62_cif.got.tgz:123554.got - 2010.06.28 07:06:18.
