data_PCOD8140464
_publ_section_title
;
Structure prediction by ZEFSAII (Michael W. Deem and Ramdas Pophale) SiO2 
 PCOD8140464
Probable space group: C 2/C
;
_chemical_formula_sum "Si O2"
_cell_formula_units_Z 48
_cell_length_a 13.459965
_cell_length_b 11.314850
_cell_length_c 17.250372
_cell_angle_alpha 90.000000
_cell_angle_beta 65.598289
_cell_angle_gamma 90.000000
_cell_volume 2392.505021
_symmetry_space_group_name_H-M "C 2/C"
_symmetry_group_IT_number 15
_symmetry_cell_setting 'monoclinic'
loop_
_space_group_symop_operation_xyz
x,y,z
-x,y,1/2-z
-x,-y,-z
x,-y,1/2+z
1/2+x,1/2+y,z
1/2-x,1/2+y,1/2-z
1/2-x,1/2-y,-z
1/2+x,1/2-y,1/2+z
loop_
_atom_site_type_symbol
_atom_site_label
_atom_site_fract_x
_atom_site_fract_y
_atom_site_fract_z
Si Si1 0.001594 0.772049 0.657655
Si Si2 0.215773 0.099142 0.100363
Si Si3 0.615353 0.112309 0.172445
Si Si4 0.567506 0.051015 0.549141
Si Si5 0.698973 0.437044 0.775253
Si Si6 0.625265 0.620235 0.693753
O O1 0.120526 0.820382 0.595387
O O2 0.990622 0.644722 0.619188
O O3 0.000000 0.753463 0.750000
O O4 0.906762 0.862731 0.660520
O O5 0.240562 0.130125 0.183380
O O6 0.170599 0.963810 0.110614
O O7 0.324476 0.116602 0.015940
O O8 0.500000 0.097775 0.250000
O O9 0.709246 0.046745 0.189763
O O10 0.654014 0.248027 0.159310
O O11 0.605390 0.057926 0.090578
O O12 0.500000 0.000000 0.500000
O O13 0.675229 0.574286 0.759827
O O14 0.500000 0.599029 0.750000
#
# Coordination Sequence:
#
# PCOD8140464 Si02
#       6
#     8   8   8   8   8   8
#     4  10  20  41  70  86 113 163 214 243 295 368
#     4   9  19  40  64  87 122 156 201 252 299 350
#     4  11  24  38  61  93 122 163 201 247 310 362
#     4  12  26  39  56  92 135 159 194 254 319 358
#     4   9  19  40  66  90 112 161 212 248 288 363
#     4   9  18  40  66  89 120 152 208 249 293 357
#
# _framework density 20.062653999999998
#
# number of rings (size 3 to 8) (size 9 to 14) (size 15 to 20)
#    1.000    1.000    1.667    2.000    2.333    3.333 
#    0.000    4.167    0.000    0.000    0.000    0.000 
#    0.000    0.000    0.000    0.000    0.000    0.000 
#
# Total GULP energy -297336.632333 kJ/mol
# GULP energy per Si atom -12389.026347 kJ/mol
# Density = 2.001699 g / cm^3
# Si number density = 20.062654 Si / 1000 Ang^3
#
#
#
# Elastic Constant Matrix: (Units=GPa)
#
#
# Indices 1 2 3 4 5 6 
#
# 1 114.0691 55.4760 42.3683 0.0000 21.2611 0.0000
# 2 55.4760 112.9047 41.5565 0.0000 15.8796 0.0000
# 3 42.3683 41.5565 66.7006 0.0000 2.1014 0.0000
# 4 0.0000 0.0000 0.0000 29.0645 0.0000 -2.4369
# 5 21.2611 15.8796 2.1014 0.0000 39.0464 0.0000
# 6 0.0000 0.0000 0.0000 -2.4369 0.0000 14.1977
#
#
#
# Elastic Compliance Matrix: (Units=1/GPa)
#
#
# Indices 1 2 3 4 5 6 
#
# 1 0.014038 -0.003723 -0.006415 0.000000 -0.005785 0.000000
# 2 -0.003723 0.013247 -0.005793 0.000000 -0.003049 0.000000
# 3 -0.006415 -0.005793 0.022530 0.000000 0.004636 0.000000
# 4 0.000000 0.000000 0.000000 0.034909 0.000000 0.005992
# 5 -0.005785 -0.003049 0.004636 0.000000 0.029751 0.000000
# 6 0.000000 0.000000 0.000000 0.005992 0.000000 0.071462
#
#
# Mechanical properties :
#
#
# Convention : Reuss Voigt Hill
#
# Bulk Modulus (GPa) = 55.69780 63.60845 59.65312
# Shear Modulus (GPa) = 22.34304 26.74662 24.54483
#
# Velocity S-wave (km/s) = 3.34078 3.65520 3.50152
# Velocity P-wave (km/s) = 6.53477 7.04185 6.79305
#
# Compressibility (1/GPa) = 0.01795403
#
# Stress axis : x y z
#
# Youngs Moduli (GPa) = 71.23423 75.48845 44.38467
#
# Poissons Ratio (x) = 0.28103 0.28475
# Poissons Ratio (y) = 0.26519 0.25710
# Poissons Ratio (z) = 0.45700 0.43727
#
# Static dielectric constant tensor:
#      x y z
#    x 3.602540 0.000000 -0.098540 
#    y 0.000000 3.690910 0.000000 
#    z -0.098540 0.000000 3.369330 
# 
# 
# High freq. dielectric constant tensor:
#      x y z
#    x 1.788650 0.000000 -0.012130 
#    y 0.000000 1.780120 0.000000 
#    z -0.012130 0.000000 1.758090 
# 
# From -- ./inp_files/203476.got.cif
#   From: 2010.06.25/outbox.cif.g09.slc.cpg/sg15_102_cif.got.tgz:203476.got - 2010.06.28 07:06:18.
