data_PCOD8140225
_publ_section_title
;
Structure prediction by ZEFSAII (Michael W. Deem and Ramdas Pophale) SiO2 
 PCOD8140225
Probable space group: C 2/C
;
_chemical_formula_sum "Si O2"
_cell_formula_units_Z 36
_cell_length_a 6.158884
_cell_length_b 17.234821
_cell_length_c 15.978173
_cell_angle_alpha 90.000000
_cell_angle_beta 65.893358
_cell_angle_gamma 90.000000
_cell_volume 1548.122379
_symmetry_space_group_name_H-M "C 2/C"
_symmetry_group_IT_number 15
_symmetry_cell_setting 'monoclinic'
loop_
_space_group_symop_operation_xyz
x,y,z
-x,y,1/2-z
-x,-y,-z
x,-y,1/2+z
1/2+x,1/2+y,z
1/2-x,1/2+y,1/2-z
1/2-x,1/2-y,-z
1/2+x,1/2-y,1/2+z
loop_
_atom_site_type_symbol
_atom_site_label
_atom_site_fract_x
_atom_site_fract_y
_atom_site_fract_z
Si Si1 0.000000 0.331825 0.750000
Si Si2 0.607107 0.157929 0.528782
Si Si3 0.588999 0.728106 0.892836
Si Si4 0.178274 0.071057 0.567016
Si Si5 0.424691 0.422086 0.602838
O O1 0.896240 0.279701 0.691887
O O2 0.776416 0.385222 0.807934
O O3 0.477871 0.219226 0.486065
O O4 0.653725 0.197318 0.612336
O O5 0.446178 0.080250 0.562223
O O6 0.862693 0.138030 0.447926
O O7 0.439644 0.652848 0.892527
O O8 0.197590 0.054066 0.465201
O O9 0.033351 0.999386 0.630733
#
# Coordination Sequence:
#
# PCOD8140225 Si02
#       5
#     4   8   8   8   8
#     4  12  24  44  58 104 146 180 218 296 350 396
#     4  10  20  40  70  98 120 184 232 272 323 420
#     4  10  23  38  68  94 134 168 229 278 335 401
#     4  10  20  44  68  96 126 181 230 274 324 428
#     4  10  23  39  69  96 137 174 226 279 341 403
#
# _framework density 23.253973999999999
#
# number of rings (size 3 to 8) (size 9 to 14) (size 15 to 20)
#    0.000    1.778    2.222    1.333    6.222    0.889 
#    0.000    4.444    0.000    0.000    0.000    0.000 
#    0.000    0.000    0.000    0.000    0.000    0.000 
#
# Total GULP energy -223053.116000 kJ/mol
# GULP energy per Si atom -12391.839778 kJ/mol
# Density = 2.320105 g / cm^3
# Si number density = 23.253974 Si / 1000 Ang^3
#
#
#
# Elastic Constant Matrix: (Units=GPa)
#
#
# Indices 1 2 3 4 5 6 
#
# 1 137.9651 74.5022 62.9574 0.0000 -3.9360 0.0000
# 2 74.5022 154.6573 65.4563 0.0000 -14.4487 0.0000
# 3 62.9574 65.4563 99.6597 0.0000 -1.9372 0.0000
# 4 0.0000 0.0000 0.0000 29.2864 0.0000 -0.0958
# 5 -3.9360 -14.4487 -1.9372 0.0000 34.4144 0.0000
# 6 0.0000 0.0000 0.0000 -0.0958 0.0000 54.7500
#
#
#
# Elastic Compliance Matrix: (Units=1/GPa)
#
#
# Indices 1 2 3 4 5 6 
#
# 1 0.011324 -0.003411 -0.004922 0.000000 -0.000414 0.000000
# 2 -0.003411 0.010407 -0.004608 0.000000 0.003720 0.000000
# 3 -0.004922 -0.004608 0.016139 0.000000 -0.001589 0.000000
# 4 0.000000 0.000000 0.000000 0.034146 0.000000 0.000060
# 5 -0.000414 0.003720 -0.001589 0.000000 0.030483 0.000000
# 6 0.000000 0.000000 0.000000 0.000060 0.000000 0.018265
#
#
# Mechanical properties :
#
#
# Convention : Reuss Voigt Hill
#
# Bulk Modulus (GPa) = 83.41105 88.67931 86.04518
# Shear Modulus (GPa) = 33.19160 36.31457 34.75308
#
# Velocity S-wave (km/s) = 3.78213 3.95606 3.87007
# Velocity P-wave (km/s) = 7.41756 7.68668 7.55332
#
# Compressibility (1/GPa) = 0.01198882
#
# Stress axis : x y z
#
# Youngs Moduli (GPa) = 88.30730 96.09062 61.96185
#
# Poissons Ratio (x) = 0.32775 0.30495
# Poissons Ratio (y) = 0.30120 0.28553
# Poissons Ratio (z) = 0.43461 0.44281
#
# Static dielectric constant tensor:
#      x y z
#    x 4.496010 0.000000 0.180020 
#    y 0.000000 4.498880 0.000000 
#    z 0.180020 0.000000 3.602940 
# 
# 
# High freq. dielectric constant tensor:
#      x y z
#    x 1.935610 0.000000 0.007400 
#    y 0.000000 1.944990 0.000000 
#    z 0.007400 0.000000 1.857240 
# 
# From -- ./inp_files/184189.got.cif
#   From: 2010.06.25/outbox.cif.g09.slc.cpg/sg15_93_cif.got.tgz:184189.got - 2010.06.28 07:06:18.
