data_PCOD8140812
_publ_section_title
;
Structure prediction by ZEFSAII (Michael W. Deem and Ramdas Pophale) SiO2 
 PCOD8140812
Probable space group: C 2/C
;
_chemical_formula_sum "Si O2"
_cell_formula_units_Z 60
_cell_length_a 25.486801
_cell_length_b 19.452680
_cell_length_c 10.630998
_cell_angle_alpha 90.000000
_cell_angle_beta 147.473438
_cell_angle_gamma 90.000000
_cell_volume 2834.008865
_symmetry_space_group_name_H-M "C 2/C"
_symmetry_group_IT_number 15
_symmetry_cell_setting 'monoclinic'
loop_
_space_group_symop_operation_xyz
x,y,z
-x,y,1/2-z
-x,-y,-z
x,-y,1/2+z
1/2+x,1/2+y,z
1/2-x,1/2+y,1/2-z
1/2-x,1/2-y,-z
1/2+x,1/2-y,1/2+z
loop_
_atom_site_type_symbol
_atom_site_label
_atom_site_fract_x
_atom_site_fract_y
_atom_site_fract_z
Si Si1 0.688159 0.764762 0.694855
Si Si2 0.943634 0.577118 0.753414
Si Si3 0.883574 0.937913 0.173893
Si Si4 0.467467 0.920190 0.815940
Si Si5 0.500000 0.686547 0.250000
Si Si6 0.226302 0.359941 0.997627
Si Si7 0.417456 0.592019 0.302541
Si Si8 0.730324 0.622526 0.292037
O O1 0.579203 0.737847 0.465754
O O2 0.686525 0.827620 0.789072
O O3 0.735120 0.799011 0.665340
O O4 0.756180 0.701644 0.870307
O O5 0.988002 0.500936 0.849608
O O6 0.827543 0.576292 0.498958
O O7 0.000000 0.614157 0.750000
O O8 0.971640 0.612641 0.943948
O O9 0.995523 0.916072 0.420594
O O10 0.879713 0.020296 0.168451
O O11 0.822369 0.905676 0.166235
O O12 0.841930 0.910164 0.958233
O O13 0.500000 0.884945 0.750000
O O14 0.352697 0.909714 0.601977
O O15 0.449916 0.640107 0.254391
O O16 0.326419 0.625744 0.190837
#
# Coordination Sequence:
#
# PCOD8140812 Si02
#       8
#     8   8   8   8   4   8   8   8
#     4  10  24  41  64  88 126 180 223 255 321 396
#     4  10  21  39  64  97 130 166 209 266 337 390
#     4  10  22  42  69  97 131 168 215 278 344 387
#     4  10  22  38  62  97 129 161 213 273 326 388
#     4  12  26  44  64  94 138 178 208 278 328 400
#     4  10  20  44  64  91 126 177 217 263 328 395
#     4  11  25  41  67 100 129 168 220 278 333 392
#     4  11  24  41  67  96 128 175 220 270 317 399
#
# _framework density 21.171423000000001
#
# number of rings (size 3 to 8) (size 9 to 14) (size 15 to 20)
#    0.000    1.600    1.333    2.800    6.533    4.800 
#    2.400    0.000    0.000    0.000    0.000    0.000 
#    0.000    0.000    0.000    0.000    0.000    0.000 
#
# Total GULP energy -371961.981458 kJ/mol
# GULP energy per Si atom -12398.732715 kJ/mol
# Density = 2.112324 g / cm^3
# Si number density = 21.171423 Si / 1000 Ang^3
#
#
#
# Elastic Constant Matrix: (Units=GPa)
#
#
# Indices 1 2 3 4 5 6 
#
# 1 150.6348 37.9662 55.0037 0.0000 13.6779 0.0000
# 2 37.9662 82.5990 24.8651 0.0000 7.5017 0.0000
# 3 55.0037 24.8651 78.9200 0.0000 2.7487 0.0000
# 4 0.0000 0.0000 0.0000 29.5663 0.0000 12.9767
# 5 13.6779 7.5017 2.7487 0.0000 35.7580 0.0000
# 6 0.0000 0.0000 0.0000 12.9767 0.0000 21.5427
#
#
#
# Elastic Compliance Matrix: (Units=1/GPa)
#
#
# Indices 1 2 3 4 5 6 
#
# 1 0.009635 -0.002417 -0.005858 0.000000 -0.002728 0.000000
# 2 -0.002417 0.014206 -0.002727 0.000000 -0.001846 0.000000
# 3 -0.005858 -0.002727 0.017562 0.000000 0.001463 0.000000
# 4 0.000000 0.000000 0.000000 0.045978 0.000000 -0.027696
# 5 -0.002728 -0.001846 0.001463 0.000000 0.029284 0.000000
# 6 0.000000 0.000000 0.000000 -0.027696 0.000000 0.063103
#
#
# Mechanical properties :
#
#
# Convention : Reuss Voigt Hill
#
# Bulk Modulus (GPa) = 51.55107 60.86931 56.21019
# Shear Modulus (GPa) = 24.01086 30.32801 27.16944
#
# Velocity S-wave (km/s) = 3.37132 3.78894 3.58621
# Velocity P-wave (km/s) = 6.28940 6.92492 6.61480
#
# Compressibility (1/GPa) = 0.01939824
#
# Stress axis : x y z
#
# Youngs Moduli (GPa) = 103.79208 70.39126 56.94029
#
# Poissons Ratio (x) = 0.17015 0.33357
# Poissons Ratio (y) = 0.25089 0.15527
# Poissons Ratio (z) = 0.60805 0.19195
#
# Static dielectric constant tensor:
#      x y z
#    x 4.026380 0.000000 -0.121860 
#    y 0.000000 3.696350 0.000000 
#    z -0.121860 0.000000 3.887930 
# 
# 
# High freq. dielectric constant tensor:
#      x y z
#    x 1.832090 0.000000 0.001200 
#    y 0.000000 1.816470 0.000000 
#    z 0.001200 0.000000 1.839420 
# 
# From -- ./inp_files/124018.got.cif
#   From: 2010.06.25/outbox.cif.g09.slc.cpg/sg15_63_cif.got.tgz:124018.got - 2010.06.28 07:06:18.
