data_PCOD8140244
_publ_section_title
;
Structure prediction by ZEFSAII (Michael W. Deem and Ramdas Pophale) SiO2 
 PCOD8140244
Probable space group: C 2/C
;
_chemical_formula_sum "Si O2"
_cell_formula_units_Z 44
_cell_length_a 18.963563
_cell_length_b 11.556839
_cell_length_c 10.660363
_cell_angle_alpha 90.000000
_cell_angle_beta 53.363554
_cell_angle_gamma 90.000000
_cell_volume 1874.746323
_symmetry_space_group_name_H-M "C 2/C"
_symmetry_group_IT_number 15
_symmetry_cell_setting 'monoclinic'
loop_
_space_group_symop_operation_xyz
x,y,z
-x,y,1/2-z
-x,-y,-z
x,-y,1/2+z
1/2+x,1/2+y,z
1/2-x,1/2+y,1/2-z
1/2-x,1/2-y,-z
1/2+x,1/2-y,1/2+z
loop_
_atom_site_type_symbol
_atom_site_label
_atom_site_fract_x
_atom_site_fract_y
_atom_site_fract_z
Si Si1 0.667096 0.536720 0.028174
Si Si2 0.500000 0.609195 0.750000
Si Si3 0.249830 0.926115 0.184524
Si Si4 0.092416 0.279360 0.101081
Si Si5 0.102841 0.466742 0.631638
Si Si6 0.381193 0.770015 0.705860
O O1 0.573563 0.472607 0.107961
O O2 0.715829 0.498289 0.100870
O O3 0.659216 0.675067 0.051966
O O4 0.723747 0.511502 0.841960
O O5 0.454249 0.689340 0.694355
O O6 0.209890 0.798083 0.219355
O O7 0.355712 0.926997 0.047933
O O8 0.123463 0.397685 0.137642
O O9 0.000000 0.236134 0.250000
O O10 0.079955 0.309645 0.967922
O O11 0.146599 0.384074 0.688827
O O12 0.000000 0.442057 0.750000
#
# Coordination Sequence:
#
# PCOD8140244 Si02
#       6
#     8   4   8   8   8   8
#     4  10  22  42  69  99 132 166 218 268 324 376
#     4  10  20  40  72  98 124 174 212 258 328 388
#     4  10  24  42  68  97 130 169 216 277 313 384
#     4  10  23  39  65  96 132 166 211 272 313 387
#     4  11  24  44  62  91 128 177 214 259 326 390
#     4  10  22  43  66  95 128 168 220 263 320 386
#
# _framework density 23.469842
#
# number of rings (size 3 to 8) (size 9 to 14) (size 15 to 20)
#    0.000    1.818    1.818    0.545    5.091    5.818 
#    3.273    0.000    0.000    0.000    0.000    0.000 
#    0.000    0.000    0.000    0.000    0.000    0.000 
#
# Total GULP energy -272699.647686 kJ/mol
# GULP energy per Si atom -12395.438531 kJ/mol
# Density = 2.341642 g / cm^3
# Si number density = 23.469842 Si / 1000 Ang^3
#
#
#
# Elastic Constant Matrix: (Units=GPa)
#
#
# Indices 1 2 3 4 5 6 
#
# 1 43.0491 34.6024 36.8063 0.0000 -3.1986 0.0000
# 2 34.6024 137.3370 50.9957 0.0000 11.2848 0.0000
# 3 36.8063 50.9957 210.6881 0.0000 -3.4689 0.0000
# 4 0.0000 0.0000 0.0000 22.6814 0.0000 10.3235
# 5 -3.1986 11.2848 -3.4689 0.0000 43.5484 0.0000
# 6 0.0000 0.0000 0.0000 10.3235 0.0000 21.1910
#
#
#
# Elastic Compliance Matrix: (Units=1/GPa)
#
#
# Indices 1 2 3 4 5 6 
#
# 1 0.032545 -0.007069 -0.003910 0.000000 0.003911 0.000000
# 2 -0.007069 0.009758 -0.001179 0.000000 -0.003142 0.000000
# 3 -0.003910 -0.001179 0.005723 0.000000 0.000474 0.000000
# 4 0.000000 0.000000 0.000000 0.056650 0.000000 -0.027598
# 5 0.003911 -0.003142 0.000474 0.000000 0.024102 0.000000
# 6 0.000000 0.000000 0.000000 -0.027598 0.000000 0.060634
#
#
# Mechanical properties :
#
#
# Convention : Reuss Voigt Hill
#
# Bulk Modulus (GPa) = 42.17650 70.65366 56.41508
# Shear Modulus (GPa) = 22.55995 35.39550 28.97773
#
# Velocity S-wave (km/s) = 3.10374 3.88767 3.51761
# Velocity P-wave (km/s) = 5.55462 7.09376 6.37084
#
# Compressibility (1/GPa) = 0.02370989
#
# Stress axis : x y z
#
# Youngs Moduli (GPa) = 30.72666 102.47684 174.74842
#
# Poissons Ratio (x) = 0.72444 0.68327
# Poissons Ratio (y) = 0.21722 0.20597
# Poissons Ratio (z) = 0.12014 0.12079
#
# Static dielectric constant tensor:
#      x y z
#    x 3.948370 0.000000 -0.181950 
#    y 0.000000 4.334640 0.000000 
#    z -0.181950 0.000000 4.776450 
# 
# 
# High freq. dielectric constant tensor:
#      x y z
#    x 1.903590 0.000000 -0.009000 
#    y 0.000000 1.942270 0.000000 
#    z -0.009000 0.000000 1.950270 
# 
# From -- ./inp_files/103631.got.cif
#   From: 2010.06.25/outbox.cif.g09.slc.cpg/sg15_52_cif.got.tgz:103631.got - 2010.06.28 07:06:18.
