data_PCOD8140870
_publ_section_title
;
Structure prediction by ZEFSAII (Michael W. Deem and Ramdas Pophale) SiO2 
 PCOD8140870
Probable space group: C 2/C
;
_chemical_formula_sum "Si O2"
_cell_formula_units_Z 44
_cell_length_a 7.958499
_cell_length_b 12.115781
_cell_length_c 25.847437
_cell_angle_alpha 90.000000
_cell_angle_beta 127.264894
_cell_angle_gamma 90.000000
_cell_volume 1983.482423
_symmetry_space_group_name_H-M "C 2/C"
_symmetry_group_IT_number 15
_symmetry_cell_setting 'monoclinic'
loop_
_space_group_symop_operation_xyz
x,y,z
-x,y,1/2-z
-x,-y,-z
x,-y,1/2+z
1/2+x,1/2+y,z
1/2-x,1/2+y,1/2-z
1/2-x,1/2-y,-z
1/2+x,1/2-y,1/2+z
loop_
_atom_site_type_symbol
_atom_site_label
_atom_site_fract_x
_atom_site_fract_y
_atom_site_fract_z
Si Si1 0.884589 0.725872 0.104643
Si Si2 0.838604 0.312121 0.347996
Si Si3 0.335631 0.593618 0.519786
Si Si4 0.000000 0.976223 0.250000
Si Si5 0.689720 0.144359 0.244388
Si Si6 0.258744 0.634834 0.972423
O O1 0.695530 0.723244 0.111638
O O2 0.873385 0.852731 0.082617
O O3 0.098955 0.690113 0.173110
O O4 0.852828 0.647713 0.049157
O O5 0.645800 0.398881 0.312974
O O6 0.834772 0.242348 0.294317
O O7 0.057963 0.375395 0.396753
O O8 0.546113 0.617576 0.527903
O O9 0.269786 0.465863 0.515682
O O10 0.153458 0.044197 0.239964
O O11 0.500000 0.112292 0.250000
O O12 0.250000 0.750000 0.000000
#
# Coordination Sequence:
#
# PCOD8140870 Si02
#       6
#     8   8   8   4   8   8
#     4  10  20  45  65  95 138 170 228 285 333 413
#     4  11  23  45  66 101 137 168 238 282 329 426
#     4  10  23  40  67  96 131 182 222 275 346 409
#     4  12  24  46  72  98 138 192 216 286 364 390
#     4  10  24  46  69 101 137 177 231 289 339 419
#     4  11  23  42  64  97 136 177 226 279 340 408
#
# _framework density 22.183206999999999
#
# number of rings (size 3 to 8) (size 9 to 14) (size 15 to 20)
#    0.000    1.455    4.545    1.091    2.545    2.182 
#    8.182    0.000    0.000    0.000    0.000    0.000 
#    0.000    0.000    0.000    0.000    0.000    0.000 
#
# Total GULP energy -272616.977808 kJ/mol
# GULP energy per Si atom -12391.680809 kJ/mol
# Density = 2.213272 g / cm^3
# Si number density = 22.183207 Si / 1000 Ang^3
#
#
#
# Elastic Constant Matrix: (Units=GPa)
#
#
# Indices 1 2 3 4 5 6 
#
# 1 50.3063 33.2206 25.6813 0.0000 4.3690 0.0000
# 2 33.2206 135.4779 43.9491 0.0000 1.1259 0.0000
# 3 25.6813 43.9491 110.7482 0.0000 1.9414 0.0000
# 4 0.0000 0.0000 0.0000 29.7442 0.0000 5.0038
# 5 4.3690 1.1259 1.9414 0.0000 29.3476 0.0000
# 6 0.0000 0.0000 0.0000 5.0038 0.0000 41.2562
#
#
#
# Elastic Compliance Matrix: (Units=1/GPa)
#
#
# Indices 1 2 3 4 5 6 
#
# 1 0.025411 -0.004948 -0.003871 0.000000 -0.003337 0.000000
# 2 -0.004948 0.009436 -0.002607 0.000000 0.000547 0.000000
# 3 -0.003871 -0.002607 0.010962 0.000000 -0.000049 0.000000
# 4 0.000000 0.000000 0.000000 0.034320 0.000000 -0.004163
# 5 -0.003337 0.000547 -0.000049 0.000000 0.034553 0.000000
# 6 0.000000 0.000000 0.000000 -0.004163 0.000000 0.024744
#
#
# Mechanical properties :
#
#
# Convention : Reuss Voigt Hill
#
# Bulk Modulus (GPa) = 43.55566 55.80381 49.67974
# Shear Modulus (GPa) = 29.42393 32.98169 31.20281
#
# Velocity S-wave (km/s) = 3.64594 3.86007 3.75453
# Velocity P-wave (km/s) = 6.11563 6.71397 6.42177
#
# Compressibility (1/GPa) = 0.02295913
#
# Stress axis : x y z
#
# Youngs Moduli (GPa) = 39.35250 105.98192 91.22149
#
# Poissons Ratio (x) = 0.52437 0.35309
# Poissons Ratio (y) = 0.19471 0.23778
# Poissons Ratio (z) = 0.15232 0.27626
#
# Static dielectric constant tensor:
#      x y z
#    x 3.848650 0.000000 0.014740 
#    y 0.000000 4.436750 0.000000 
#    z 0.014740 0.000000 4.644150 
# 
# 
# High freq. dielectric constant tensor:
#      x y z
#    x 1.854470 0.000000 0.007580 
#    y 0.000000 1.873720 0.000000 
#    z 0.007580 0.000000 1.889240 
# 
# From -- ./inp_files/230186.got.cif
#   From: 2010.06.25/outbox.cif.g09.slc.cpg/sg15_116_cif.got.tgz:230186.got - 2010.06.28 07:06:18.
