data_PCOD8140241
_publ_section_title
;
Structure prediction by ZEFSAII (Michael W. Deem and Ramdas Pophale) SiO2 
 PCOD8140241
Probable space group: C 2/C
;
_chemical_formula_sum "Si O2"
_cell_formula_units_Z 40
_cell_length_a 4.959700
_cell_length_b 28.284805
_cell_length_c 13.867661
_cell_angle_alpha 90.000000
_cell_angle_beta 66.546652
_cell_angle_gamma 90.000000
_cell_volume 1784.691623
_symmetry_space_group_name_H-M "C 2/C"
_symmetry_group_IT_number 15
_symmetry_cell_setting 'monoclinic'
loop_
_space_group_symop_operation_xyz
x,y,z
-x,y,1/2-z
-x,-y,-z
x,-y,1/2+z
1/2+x,1/2+y,z
1/2-x,1/2+y,1/2-z
1/2-x,1/2-y,-z
1/2+x,1/2-y,1/2+z
loop_
_atom_site_type_symbol
_atom_site_label
_atom_site_fract_x
_atom_site_fract_y
_atom_site_fract_z
Si Si1 0.500000 0.489753 0.750000
Si Si2 0.117535 0.631968 0.566573
Si Si3 0.948236 0.080150 0.863378
Si Si4 0.093619 0.845913 0.848282
Si Si5 0.500000 0.925919 0.750000
Si Si6 0.000000 0.296723 0.250000
Si Si7 0.000000 0.734227 0.250000
O O1 0.451237 0.522933 0.851671
O O2 0.207026 0.458358 0.786791
O O3 0.290529 0.593018 0.603034
O O4 0.307645 0.655163 0.455136
O O5 0.852064 0.603168 0.554410
O O6 0.003205 0.673338 0.651789
O O7 0.000000 0.103280 0.750000
O O8 0.288579 0.892492 0.844729
O O9 0.287027 0.799408 0.844411
O O10 0.000000 0.846473 0.750000
O O11 0.296849 0.265456 0.208463
#
# Coordination Sequence:
#
# PCOD8140241 Si02
#       7
#     4   8   8   8   4   4   4
#     4  10  20  40  72  93 142 159 226 276 324 376
#     4  12  24  42  73  99 131 177 212 271 333 397
#     4  10  21  41  68 101 136 163 209 284 332 375
#     4  11  27  48  65  91 140 180 226 255 328 397
#     4  11  22  43  68  89 128 195 212 267 312 403
#     4  12  22  44  70 103 122 163 224 276 340 382
#     4  11  26  45  66  95 136 167 218 279 322 389
#
# _framework density 22.412837
#
# number of rings (size 3 to 8) (size 9 to 14) (size 15 to 20)
#    0.600    0.400    4.000    2.400    5.600    1.600 
#    0.000    6.000    0.000    0.000    0.000    0.000 
#    0.000    0.000    0.000    0.000    0.000    0.000 
#
# Total GULP energy -247955.410618 kJ/mol
# GULP energy per Si atom -12397.770531 kJ/mol
# Density = 2.236182 g / cm^3
# Si number density = 22.412837 Si / 1000 Ang^3
#
#
#
# Elastic Constant Matrix: (Units=GPa)
#
#
# Indices 1 2 3 4 5 6 
#
# 1 115.6304 56.5125 5.9580 0.0000 -16.4987 0.0000
# 2 56.5125 138.8680 25.7940 0.0000 -11.8862 0.0000
# 3 5.9580 25.7940 100.1576 0.0000 -18.9242 0.0000
# 4 0.0000 0.0000 0.0000 4.6278 0.0000 -1.5135
# 5 -16.4987 -11.8862 -18.9242 0.0000 34.8007 0.0000
# 6 0.0000 0.0000 0.0000 -1.5135 0.0000 29.9918
#
#
#
# Elastic Compliance Matrix: (Units=1/GPa)
#
#
# Indices 1 2 3 4 5 6 
#
# 1 0.011443 -0.004513 0.001355 0.000000 0.004620 0.000000
# 2 -0.004513 0.009434 -0.002181 0.000000 -0.000103 0.000000
# 3 0.001355 -0.002181 0.011642 0.000000 0.006228 0.000000
# 4 0.000000 0.000000 0.000000 0.219713 0.000000 0.011088
# 5 0.004620 -0.000103 0.006228 0.000000 0.034277 0.000000
# 6 0.000000 0.000000 0.000000 0.011088 0.000000 0.033902
#
#
# Mechanical properties :
#
#
# Convention : Reuss Voigt Hill
#
# Bulk Modulus (GPa) = 45.78516 59.02055 52.40286
# Shear Modulus (GPa) = 14.77671 31.64347 23.21009
#
# Velocity S-wave (km/s) = 2.57046 3.76153 3.22152
# Velocity P-wave (km/s) = 5.41130 6.72726 6.10484
#
# Compressibility (1/GPa) = 0.02184114
#
# Stress axis : x y z
#
# Youngs Moduli (GPa) = 87.38679 106.00112 85.89556
#
# Poissons Ratio (x) = 0.47839 -0.11635
# Poissons Ratio (y) = 0.39438 0.18730
# Poissons Ratio (z) = -0.11837 0.23114
#
# Static dielectric constant tensor:
#      x y z
#    x 4.274610 0.000000 -0.232770 
#    y 0.000000 4.221680 0.000000 
#    z -0.232770 0.000000 3.645880 
# 
# 
# High freq. dielectric constant tensor:
#      x y z
#    x 1.904210 0.000000 -0.016080 
#    y 0.000000 1.892200 0.000000 
#    z -0.016080 0.000000 1.844310 
# 
# From -- ./inp_files/129704.got.cif
#   From: 2010.06.25/outbox.cif.g09.slc.cpg/sg15_65_cif.got.tgz:129704.got - 2010.06.28 07:06:18.
