data_PCOD8140681
_publ_section_title
;
Structure prediction by ZEFSAII (Michael W. Deem and Ramdas Pophale) SiO2 
 PCOD8140681
Probable space group: C 2/C
;
_chemical_formula_sum "Si O2"
_cell_formula_units_Z 64
_cell_length_a 12.230093
_cell_length_b 26.567975
_cell_length_c 18.956875
_cell_angle_alpha 90.000000
_cell_angle_beta 150.084745
_cell_angle_gamma 90.000000
_cell_volume 3071.924004
_symmetry_space_group_name_H-M "C 2/C"
_symmetry_group_IT_number 15
_symmetry_cell_setting 'monoclinic'
loop_
_space_group_symop_operation_xyz
x,y,z
-x,y,1/2-z
-x,-y,-z
x,-y,1/2+z
1/2+x,1/2+y,z
1/2-x,1/2+y,1/2-z
1/2-x,1/2-y,-z
1/2+x,1/2-y,1/2+z
loop_
_atom_site_type_symbol
_atom_site_label
_atom_site_fract_x
_atom_site_fract_y
_atom_site_fract_z
Si Si1 0.873089 0.893560 0.111000
Si Si2 0.757142 0.305300 0.200659
Si Si3 0.436327 0.933138 0.905730
Si Si4 0.382811 0.414006 0.382074
Si Si5 0.542395 0.407941 0.917295
Si Si6 0.459875 0.276541 0.149296
Si Si7 0.954585 0.454403 0.074902
Si Si8 0.260195 0.198238 0.545892
O O1 0.931620 0.835631 0.138180
O O2 0.000000 0.916769 0.250000
O O3 0.948447 0.928419 0.086361
O O4 0.610646 0.894692 0.970097
O O5 0.608658 0.354148 0.117037
O O6 0.669665 0.267724 0.213748
O O7 0.738278 0.280645 0.113078
O O8 0.006626 0.324430 0.347783
O O9 0.193009 0.917994 0.747735
O O10 0.509805 0.986873 0.917559
O O11 0.463038 0.927012 0.004419
O O12 0.462451 0.428557 0.504837
O O13 0.142235 0.435772 0.233073
O O14 0.718852 0.442539 0.976510
O O15 0.591749 0.347776 0.937106
O O16 0.500000 0.253692 0.250000
O O17 0.250000 0.250000 0.000000
O O18 0.250000 0.250000 0.500000
#
# Coordination Sequence:
#
# PCOD8140681 Si02
#       8
#     8   8   8   8   8   8   8   8
#     4  10  21  43  67  89 125 174 217 248 323 403
#     4   9  20  40  60  91 123 172 214 243 332 390
#     4  11  26  41  66  98 127 166 214 277 321 375
#     4  10  20  42  70  86 126 173 206 261 317 399
#     4  11  24  43  65 101 132 162 217 275 327 374
#     4  10  23  40  64  90 122 171 216 264 314 377
#     4  11  23  43  67  88 129 173 210 259 331 391
#     4  10  21  39  65  93 131 171 209 268 321 386
#
# _framework density 20.833849000000001
#
# number of rings (size 3 to 8) (size 9 to 14) (size 15 to 20)
#    0.000    1.750    2.500    0.750    3.500    2.000 
#   11.250    0.000    0.000    0.000    0.000    0.000 
#    0.000    0.000    0.000    0.000    0.000    0.000 
#
# Total GULP energy -396478.922458 kJ/mol
# GULP energy per Si atom -12389.966327 kJ/mol
# Density = 2.078643 g / cm^3
# Si number density = 20.833849 Si / 1000 Ang^3
#
#
#
# Elastic Constant Matrix: (Units=GPa)
#
#
# Indices 1 2 3 4 5 6 
#
# 1 153.9545 30.0420 44.8973 0.0012 4.8031 -0.0004
# 2 30.0420 43.4296 18.7296 0.0028 -5.6927 0.0001
# 3 44.8973 18.7296 107.5377 0.0012 6.8879 -0.0014
# 4 0.0012 0.0028 0.0012 27.7483 0.0009 1.4480
# 5 4.8031 -5.6927 6.8879 0.0009 37.7448 0.0015
# 6 -0.0004 0.0001 -0.0014 1.4480 0.0015 27.7225
#
#
#
# Elastic Compliance Matrix: (Units=1/GPa)
#
#
# Indices 1 2 3 4 5 6 
#
# 1 0.008197 -0.004758 -0.002510 0.000000 -0.001303 0.000000
# 2 -0.004758 0.028473 -0.003325 -0.000003 0.005507 0.000000
# 3 -0.002510 -0.003325 0.011067 0.000000 -0.002202 0.000001
# 4 0.000000 -0.000003 0.000000 0.036137 -0.000001 -0.001887
# 5 -0.001303 0.005507 -0.002202 -0.000001 0.027892 -0.000002
# 6 0.000000 0.000000 0.000001 -0.001887 -0.000002 0.036170
#
#
# Mechanical properties :
#
#
# Convention : Reuss Voigt Hill
#
# Bulk Modulus (GPa) = 37.66474 54.69552 46.18013
# Shear Modulus (GPa) = 28.09425 32.72663 30.41044
#
# Velocity S-wave (km/s) = 3.67616 3.96768 3.82470
# Velocity P-wave (km/s) = 6.01139 6.87751 6.45898
#
# Compressibility (1/GPa) = 0.02655003
#
# Stress axis : x y z
#
# Youngs Moduli (GPa) = 122.00312 35.12094 90.35766
#
# Poissons Ratio (x) = 0.16711 0.22679
# Poissons Ratio (y) = 0.58051 0.30046
# Poissons Ratio (z) = 0.30622 0.11679
#
# Static dielectric constant tensor:
#      x y z
#    x 4.615180 -0.000050 -0.236260 
#    y -0.000050 3.230490 -0.000030 
#    z -0.236260 -0.000030 3.567220 
# 
# 
# High freq. dielectric constant tensor:
#      x y z
#    x 1.844830 0.000000 -0.001160 
#    y 0.000000 1.795100 0.000000 
#    z -0.001160 0.000000 1.806190 
# 
# From -- ./inp_files/201497.got.cif
#   From: 2010.06.25/outbox.cif.g09.slc.cpg/sg15_101_cif.got.tgz:201497.got - 2010.06.28 07:06:18.
