data_PCOD8140549
_publ_section_title
;
Structure prediction by ZEFSAII (Michael W. Deem and Ramdas Pophale) SiO2 
 PCOD8140549
Probable space group: C 2/C
;
_chemical_formula_sum "Si O2"
_cell_formula_units_Z 56
_cell_length_a 26.128834
_cell_length_b 9.780380
_cell_length_c 27.909140
_cell_angle_alpha 90.000000
_cell_angle_beta 159.542071
_cell_angle_gamma 90.000000
_cell_volume 2492.835583
_symmetry_space_group_name_H-M "C 2/C"
_symmetry_group_IT_number 15
_symmetry_cell_setting 'monoclinic'
loop_
_space_group_symop_operation_xyz
x,y,z
-x,y,1/2-z
-x,-y,-z
x,-y,1/2+z
1/2+x,1/2+y,z
1/2-x,1/2+y,1/2-z
1/2-x,1/2-y,-z
1/2+x,1/2-y,1/2+z
loop_
_atom_site_type_symbol
_atom_site_label
_atom_site_fract_x
_atom_site_fract_y
_atom_site_fract_z
Si Si1 0.087723 0.671781 0.777926
Si Si2 0.701467 0.560872 0.138952
Si Si3 0.044530 0.155708 0.090285
Si Si4 0.490709 0.072507 0.594152
Si Si5 0.674279 0.441831 0.801738
Si Si6 0.726386 0.112386 0.398334
Si Si7 0.490110 0.332616 0.188572
O O1 0.984066 0.626563 0.643088
O O2 0.166867 0.811085 0.830885
O O3 0.206229 0.550350 0.890318
O O4 0.000000 0.697994 0.750000
O O5 0.649647 0.659492 0.136004
O O6 0.872697 0.525872 0.295484
O O7 0.687034 0.637398 0.075433
O O8 0.604469 0.423882 0.053035
O O9 0.996028 0.307136 0.060073
O O10 0.138140 0.093080 0.215482
O O11 0.337722 0.995977 0.449695
O O12 0.563332 0.560844 0.717288
O O13 0.567290 0.184076 0.256592
O O14 0.821569 0.182139 0.523896
O O15 0.500000 0.396382 0.250000
#
# Coordination Sequence:
#
# PCOD8140549 Si02
#       7
#     8   8   8   8   8   8   8
#     4  10  23  41  69  95 133 176 216 269 330 386
#     4  10  22  42  67  87 131 173 212 267 330 388
#     4  10  20  42  64  92 126 172 209 272 329 380
#     4  10  22  38  63  97 128 162 218 270 324 384
#     4  11  24  41  67 100 132 165 223 275 322 392
#     4  11  25  46  65  96 134 174 221 272 324 395
#     4  12  27  44  67  96 134 175 221 273 328 386
#
# _framework density 22.464376999999999
#
# number of rings (size 3 to 8) (size 9 to 14) (size 15 to 20)
#    0.000    1.429    1.429    3.857    8.000    2.286 
#    2.571    0.000    0.000    0.000    0.000    0.000 
#    0.000    0.000    0.000    0.000    0.000    0.000 
#
# Total GULP energy -347215.670951 kJ/mol
# GULP energy per Si atom -12400.559677 kJ/mol
# Density = 2.241325 g / cm^3
# Si number density = 22.464377 Si / 1000 Ang^3
#
#
#
# Elastic Constant Matrix: (Units=GPa)
#
#
# Indices 1 2 3 4 5 6 
#
# 1 146.9708 9.5176 19.8078 0.0005 -2.4367 -0.0007
# 2 9.5176 61.7012 11.6541 -0.0075 -4.2521 0.0012
# 3 19.8078 11.6541 98.9730 -0.0239 -1.7300 0.0023
# 4 0.0005 -0.0075 -0.0239 25.1868 -0.0033 -1.6486
# 5 -2.4367 -4.2521 -1.7300 -0.0033 23.7770 0.0008
# 6 -0.0007 0.0012 0.0023 -1.6486 0.0008 20.6565
#
#
#
# Elastic Compliance Matrix: (Units=1/GPa)
#
#
# Indices 1 2 3 4 5 6 
#
# 1 0.007040 -0.000806 -0.001306 -0.000002 0.000482 0.000000
# 2 -0.000806 0.016860 -0.001775 0.000004 0.002803 -0.000001
# 3 -0.001306 -0.001775 0.010580 0.000010 0.000319 0.000000
# 4 -0.000002 0.000004 0.000010 0.039912 0.000007 0.003185
# 5 0.000482 0.002803 0.000319 0.000007 0.042631 -0.000001
# 6 0.000000 -0.000001 0.000000 0.003185 -0.000001 0.048665
#
#
# Mechanical properties :
#
#
# Convention : Reuss Voigt Hill
#
# Bulk Modulus (GPa) = 37.44421 43.28936 40.36678
# Shear Modulus (GPa) = 27.41773 31.70176 29.55975
#
# Velocity S-wave (km/s) = 3.49735 3.76067 3.63140
# Velocity P-wave (km/s) = 5.74570 6.17810 5.96582
#
# Compressibility (1/GPa) = 0.02670640
#
# Stress axis : x y z
#
# Youngs Moduli (GPa) = 142.04067 59.31227 94.52120
#
# Poissons Ratio (x) = 0.04781 0.12341
# Poissons Ratio (y) = 0.11450 0.16777
# Poissons Ratio (z) = 0.18545 0.10527
#
# Static dielectric constant tensor:
#      x y z
#    x 4.274570 0.000000 -0.025570 
#    y 0.000000 3.779700 -0.000010 
#    z -0.025570 -0.000010 3.987200 
# 
# 
# High freq. dielectric constant tensor:
#      x y z
#    x 1.896250 0.000000 -0.001480 
#    y 0.000000 1.865490 0.000000 
#    z -0.001480 0.000000 1.890550 
# 
# From -- ./inp_files/319539.got.cif
#   From: 2010.06.25/outbox.cif.g09.slc.cpg/sg15_160_cif.got.tgz:319539.got - 2010.06.28 07:06:18.
