data_PCOD8140026
_publ_section_title
;
Structure prediction by ZEFSAII (Michael W. Deem and Ramdas Pophale) SiO2 
 PCOD8140026
Probable space group: C 2/C
;
_chemical_formula_sum "Si O2"
_cell_formula_units_Z 56
_cell_length_a 30.086709
_cell_length_b 9.117676
_cell_length_c 18.117701
_cell_angle_alpha 90.000000
_cell_angle_beta 145.625656
_cell_angle_gamma 90.000000
_cell_volume 2806.085253
_symmetry_space_group_name_H-M "C 2/C"
_symmetry_group_IT_number 15
_symmetry_cell_setting 'monoclinic'
loop_
_space_group_symop_operation_xyz
x,y,z
-x,y,1/2-z
-x,-y,-z
x,-y,1/2+z
1/2+x,1/2+y,z
1/2-x,1/2+y,1/2-z
1/2-x,1/2-y,-z
1/2+x,1/2-y,1/2+z
loop_
_atom_site_type_symbol
_atom_site_label
_atom_site_fract_x
_atom_site_fract_y
_atom_site_fract_z
Si Si1 0.331221 0.249408 0.570072
Si Si2 0.955764 0.286947 0.999029
Si Si3 0.955442 0.473758 0.261510
Si Si4 0.654273 0.367544 0.643078
Si Si5 0.804735 0.178833 0.864226
Si Si6 0.081729 0.061502 0.197092
Si Si7 0.484171 0.745798 0.878673
O O1 0.250000 0.250000 0.500000
O O2 0.323874 0.296607 0.475879
O O3 0.389344 0.364128 0.688321
O O4 0.366631 0.085507 0.629647
O O5 0.002175 0.404256 0.110136
O O6 0.995190 0.124543 0.058533
O O7 0.865460 0.274637 0.899217
O O8 0.964851 0.336345 0.926802
O O9 0.000000 0.422083 0.250000
O O10 0.959649 0.649238 0.277192
O O11 0.717708 0.236422 0.726139
O O12 0.687805 0.506990 0.644523
O O13 0.641318 0.410884 0.710944
O O14 0.575183 0.303645 0.497519
O O15 0.074586 0.891043 0.204667
#
# Coordination Sequence:
#
# PCOD8140026 Si02
#       7
#     8   8   8   8   8   8   8
#     4  11  24  43  64  88 127 172 206 251 324 383
#     4  10  20  40  65  89 121 168 211 249 309 377
#     4  11  24  38  63  96 127 163 211 263 302 375
#     4  11  24  40  64  96 128 165 206 269 308 375
#     4  12  23  40  67  93 129 163 213 261 318 368
#     4  10  20  43  66  87 125 167 208 255 312 379
#     4  11  22  42  66  94 128 163 214 259 317 366
#
# _framework density 19.956627999999998
#
# number of rings (size 3 to 8) (size 9 to 14) (size 15 to 20)
#    0.000    1.143    5.714    1.286    2.000    2.286 
#    0.000    0.714    0.000    0.000    0.000    0.000 
#    0.000    0.000    0.000    0.000    0.000    0.000 
#
# Total GULP energy -347258.622178 kJ/mol
# GULP energy per Si atom -12402.093649 kJ/mol
# Density = 1.991121 g / cm^3
# Si number density = 19.956628 Si / 1000 Ang^3
#
#
#
# Elastic Constant Matrix: (Units=GPa)
#
#
# Indices 1 2 3 4 5 6 
#
# 1 101.2236 47.4456 48.0916 0.0000 19.5158 0.0000
# 2 47.4456 114.7442 39.6272 0.0000 3.2413 0.0000
# 3 48.0916 39.6272 79.2263 0.0000 8.6958 0.0000
# 4 0.0000 0.0000 0.0000 23.7376 0.0000 2.3823
# 5 19.5158 3.2413 8.6958 0.0000 35.3717 0.0000
# 6 0.0000 0.0000 0.0000 2.3823 0.0000 32.2809
#
#
#
# Elastic Compliance Matrix: (Units=1/GPa)
#
#
# Indices 1 2 3 4 5 6 
#
# 1 0.016626 -0.004179 -0.007232 0.000000 -0.007012 0.000000
# 2 -0.004179 0.011589 -0.003491 0.000000 0.002102 0.000000
# 3 -0.007232 -0.003491 0.018792 0.000000 -0.000310 0.000000
# 4 0.000000 0.000000 0.000000 0.042442 0.000000 -0.003132
# 5 -0.007012 0.002102 -0.000310 0.000000 0.032024 0.000000
# 6 0.000000 0.000000 0.000000 -0.003132 0.000000 0.031209
#
#
# Mechanical properties :
#
#
# Convention : Reuss Voigt Hill
#
# Bulk Modulus (GPa) = 58.12806 62.83589 60.48197
# Shear Modulus (GPa) = 26.56472 28.94670 27.75571
#
# Velocity S-wave (km/s) = 3.65241 3.81265 3.73339
# Velocity P-wave (km/s) = 6.85400 7.13697 6.99691
#
# Compressibility (1/GPa) = 0.01720340
#
# Stress axis : x y z
#
# Youngs Moduli (GPa) = 60.14730 86.28812 53.21363
#
# Poissons Ratio (x) = 0.36058 0.38486
# Poissons Ratio (y) = 0.25135 0.18575
# Poissons Ratio (z) = 0.43501 0.30120
#
# Static dielectric constant tensor:
#      x y z
#    x 4.094670 0.000000 -0.127610 
#    y 0.000000 3.570230 0.000000 
#    z -0.127610 0.000000 3.668460 
# 
# 
# High freq. dielectric constant tensor:
#      x y z
#    x 1.789440 0.000000 0.001160 
#    y 0.000000 1.777190 0.000000 
#    z 0.001160 0.000000 1.768760 
# 
# From -- ./inp_files/213795.got.cif
#   From: 2010.06.25/outbox.cif.g09.slc.cpg/sg15_107_cif.got.tgz:213795.got - 2010.06.28 07:06:18.
