data_PCOD8140723
_publ_section_title
;
Structure prediction by ZEFSAII (Michael W. Deem and Ramdas Pophale) SiO2 
 PCOD8140723
Probable space group: C 2/C
;
_chemical_formula_sum "Si O2"
_cell_formula_units_Z 44
_cell_length_a 19.826775
_cell_length_b 4.991809
_cell_length_c 22.566113
_cell_angle_alpha 90.000000
_cell_angle_beta 115.625717
_cell_angle_gamma 90.000000
_cell_volume 2013.720735
_symmetry_space_group_name_H-M "C 2/C"
_symmetry_group_IT_number 15
_symmetry_cell_setting 'monoclinic'
loop_
_space_group_symop_operation_xyz
x,y,z
-x,y,1/2-z
-x,-y,-z
x,-y,1/2+z
1/2+x,1/2+y,z
1/2-x,1/2+y,1/2-z
1/2-x,1/2-y,-z
1/2+x,1/2-y,1/2+z
loop_
_atom_site_type_symbol
_atom_site_label
_atom_site_fract_x
_atom_site_fract_y
_atom_site_fract_z
Si Si1 0.292271 0.927982 0.749538
Si Si2 0.829456 0.219099 0.061218
Si Si3 0.500000 0.125134 0.250000
Si Si4 0.047795 0.463769 0.646117
Si Si5 0.981215 0.951596 0.560863
Si Si6 0.651502 0.769720 0.852844
O O1 0.229129 0.739336 0.753823
O O2 0.366235 0.876114 0.816658
O O3 0.297058 0.861553 0.681847
O O4 0.894547 0.131130 0.039490
O O5 0.854810 0.494996 0.100974
O O6 0.815232 0.994874 0.105385
O O7 0.750000 0.250000 0.000000
O O8 0.477830 0.941473 0.297736
O O9 0.430025 0.308639 0.204174
O O10 0.037441 0.713997 0.599436
O O11 0.998282 0.214303 0.605550
O O12 0.000000 0.000000 0.500000
#
# Coordination Sequence:
#
# PCOD8140723 Si02
#       6
#     8   8   4   8   8   8
#     4  11  24  43  66 103 140 171 224 292 366 417
#     4  12  25  44  66 100 140 187 238 282 347 418
#     4  10  20  42  72  98 128 160 232 296 328 400
#     4  11  24  42  70  99 131 179 229 291 350 409
#     4  12  25  44  66 100 140 187 238 282 347 418
#     4  11  24  42  70  99 131 179 229 291 350 409
#
# _framework density 21.850099
#
# number of rings (size 3 to 8) (size 9 to 14) (size 15 to 20)
#    0.000    0.727    3.636    3.273    0.000   10.182 
#    0.000    0.000    0.000    0.000    0.000    0.000 
#    0.000    0.000    0.000    0.000    0.000    0.000 
#
# Total GULP energy -272817.626588 kJ/mol
# GULP energy per Si atom -12400.801209 kJ/mol
# Density = 2.180037 g / cm^3
# Si number density = 21.850099 Si / 1000 Ang^3
#
#
#
# Elastic Constant Matrix: (Units=GPa)
#
#
# Indices 1 2 3 4 5 6 
#
# 1 115.3921 21.0039 69.8628 0.0017 2.4581 -0.0010
# 2 21.0039 114.4641 51.2136 0.0071 12.8906 -0.0088
# 3 69.8628 51.2136 142.7847 -0.0014 13.9901 -0.0011
# 4 0.0017 0.0071 -0.0014 42.1673 0.0012 -1.5692
# 5 2.4581 12.8906 13.9901 0.0012 29.0819 0.0003
# 6 -0.0010 -0.0088 -0.0011 -1.5692 0.0003 35.3157
#
#
#
# Elastic Compliance Matrix: (Units=1/GPa)
#
#
# Indices 1 2 3 4 5 6 
#
# 1 0.012433 0.000372 -0.006399 -0.000001 0.001863 0.000000
# 2 0.000372 0.010665 -0.003716 -0.000002 -0.002971 0.000003
# 3 -0.006399 -0.003716 0.011810 0.000001 -0.003493 -0.000001
# 4 -0.000001 -0.000002 0.000001 0.023754 -0.000001 0.001055
# 5 0.001863 -0.002971 -0.003493 -0.000001 0.037226 -0.000001
# 6 0.000000 0.000003 -0.000001 0.001055 -0.000001 0.028363
#
#
# Mechanical properties :
#
#
# Convention : Reuss Voigt Hill
#
# Bulk Modulus (GPa) = 64.84618 72.97794 68.91206
# Shear Modulus (GPa) = 33.58433 36.68369 35.13401
#
# Velocity S-wave (km/s) = 3.92475 4.10186 4.01428
# Velocity P-wave (km/s) = 7.09087 7.47700 7.28649
#
# Compressibility (1/GPa) = 0.01542111
#
# Stress axis : x y z
#
# Youngs Moduli (GPa) = 80.43045 93.76038 84.67491
#
# Poissons Ratio (x) = -0.03488 0.54186
# Poissons Ratio (y) = -0.02992 0.31468
# Poissons Ratio (z) = 0.51470 0.34845
#
# Static dielectric constant tensor:
#      x y z
#    x 3.951350 -0.000090 0.170600 
#    y -0.000090 4.011290 0.000350 
#    z 0.170600 0.000350 3.764860 
# 
# 
# High freq. dielectric constant tensor:
#      x y z
#    x 1.866780 0.000000 0.000160 
#    y 0.000000 1.857310 0.000000 
#    z 0.000160 0.000000 1.867410 
# 
# From -- ./inp_files/246524.got.cif
#   From: 2010.06.25/outbox.cif.g09.slc.cpg/sg15_124_cif.got.tgz:246524.got - 2010.06.28 07:06:18.
