data_PCOD8140801
_publ_section_title
;
Structure prediction by ZEFSAII (Michael W. Deem and Ramdas Pophale) SiO2 
 PCOD8140801
Probable space group: C 2/C
;
_chemical_formula_sum "Si O2"
_cell_formula_units_Z 52
_cell_length_a 20.034765
_cell_length_b 30.405420
_cell_length_c 8.447794
_cell_angle_alpha 90.000000
_cell_angle_beta 148.438343
_cell_angle_gamma 90.000000
_cell_volume 2693.552256
_symmetry_space_group_name_H-M "C 2/C"
_symmetry_group_IT_number 15
_symmetry_cell_setting 'monoclinic'
loop_
_space_group_symop_operation_xyz
x,y,z
-x,y,1/2-z
-x,-y,-z
x,-y,1/2+z
1/2+x,1/2+y,z
1/2-x,1/2+y,1/2-z
1/2-x,1/2-y,-z
1/2+x,1/2-y,1/2+z
loop_
_atom_site_type_symbol
_atom_site_label
_atom_site_fract_x
_atom_site_fract_y
_atom_site_fract_z
Si Si1 0.360879 0.562098 0.490278
Si Si2 0.137164 0.444995 0.953299
Si Si3 0.791653 0.629697 0.132429
Si Si4 0.375514 0.745736 0.150524
Si Si5 0.737485 0.489247 0.004176
Si Si6 0.500000 0.825274 0.250000
Si Si7 0.648682 0.285390 0.236073
O O1 0.500000 0.582483 0.750000
O O2 0.265778 0.601183 0.341142
O O3 0.362777 0.525314 0.632887
O O4 0.322386 0.541807 0.246277
O O5 0.227514 0.457969 0.280299
O O6 0.182708 0.398713 0.973086
O O7 0.143393 0.483409 0.831574
O O8 0.000000 0.439728 0.750000
O O9 0.927448 0.646237 0.471521
O O10 0.689782 0.667395 0.884858
O O11 0.397788 0.794973 0.132714
O O12 0.503749 0.727805 0.499466
O O13 0.250000 0.750000 0.000000
O O14 0.347856 0.713359 0.947686
O O15 0.750000 0.250000 0.500000
#
# Coordination Sequence:
#
# PCOD8140801 Si02
#       7
#     8   8   8   8   8   4   8
#     4  10  21  38  62  86 118 158 201 245 298 354
#     4  10  21  36  60  88 118 158 198 244 300 353
#     4  11  23  39  59  89 124 157 195 250 301 355
#     4  10  22  40  68  87 109 164 206 240 301 362
#     4   9  20  40  58  86 118 154 203 244 297 355
#     4  10  22  42  58  86 132 148 194 258 306 342
#     4  10  20  44  60  86 127 155 195 249 295 354
#
# _framework density 19.305361999999999
#
# number of rings (size 3 to 8) (size 9 to 14) (size 15 to 20)
#    0.000    2.154    3.077    0.923    2.154    3.077 
#    8.308    0.000    0.000    0.000    0.000    0.000 
#    0.000    0.000    0.000    0.000    0.000    0.000 
#
# Total GULP energy -322264.915813 kJ/mol
# GULP energy per Si atom -12394.804454 kJ/mol
# Density = 1.926142 g / cm^3
# Si number density = 19.305362 Si / 1000 Ang^3
#
#
#
# Elastic Constant Matrix: (Units=GPa)
#
#
# Indices 1 2 3 4 5 6 
#
# 1 120.7531 39.9614 51.4015 0.0000 11.4420 0.0000
# 2 39.9614 100.8014 50.6848 0.0000 -11.5537 0.0000
# 3 51.4015 50.6848 105.6769 0.0000 4.7350 0.0000
# 4 0.0000 0.0000 0.0000 37.8536 0.0000 -8.8154
# 5 11.4420 -11.5537 4.7350 0.0000 37.3579 0.0000
# 6 0.0000 0.0000 0.0000 -8.8154 0.0000 22.7292
#
#
#
# Elastic Compliance Matrix: (Units=1/GPa)
#
#
# Indices 1 2 3 4 5 6 
#
# 1 0.011287 -0.002960 -0.003897 0.000000 -0.003879 0.000000
# 2 -0.002960 0.014792 -0.005934 0.000000 0.006233 0.000000
# 3 -0.003897 -0.005934 0.014314 0.000000 -0.002456 0.000000
# 4 0.000000 0.000000 0.000000 0.029041 0.000000 0.011263
# 5 -0.003879 0.006233 -0.002456 0.000000 0.030195 0.000000
# 6 0.000000 0.000000 0.000000 0.011263 0.000000 0.048365
#
#
# Mechanical properties :
#
#
# Convention : Reuss Voigt Hill
#
# Bulk Modulus (GPa) = 67.51229 67.92521 67.71875
# Shear Modulus (GPa) = 28.00913 31.93371 29.97142
#
# Velocity S-wave (km/s) = 3.81313 4.07152 3.94444
# Velocity P-wave (km/s) = 7.37789 7.57391 7.47654
#
# Compressibility (1/GPa) = 0.01481212
#
# Stress axis : x y z
#
# Youngs Moduli (GPa) = 88.59669 67.60304 69.85965
#
# Poissons Ratio (x) = 0.20009 0.27222
# Poissons Ratio (y) = 0.26223 0.41457
# Poissons Ratio (z) = 0.34523 0.40118
#
# Static dielectric constant tensor:
#      x y z
#    x 3.637930 0.000000 -0.088440 
#    y 0.000000 3.562940 0.000000 
#    z -0.088440 0.000000 3.710690 
# 
# 
# High freq. dielectric constant tensor:
#      x y z
#    x 1.753920 0.000000 -0.000970 
#    y 0.000000 1.749220 0.000000 
#    z -0.000970 0.000000 1.750880 
# 
# From -- ./inp_files/59325.got.cif
#   From: 2010.06.25/outbox.cif.g09.slc.cpg/sg15_30_cif.got.tgz:59325.got - 2010.06.28 07:06:18.
