data_PCOD8140646
_publ_section_title
;
Structure prediction by ZEFSAII (Michael W. Deem and Ramdas Pophale) SiO2 
 PCOD8140646
Probable space group: C 2/C
;
_chemical_formula_sum "Si O2"
_cell_formula_units_Z 48
_cell_length_a 31.793317
_cell_length_b 8.958464
_cell_length_c 18.959718
_cell_angle_alpha 90.000000
_cell_angle_beta 25.332615
_cell_angle_gamma 90.000000
_cell_volume 2310.551077
_symmetry_space_group_name_H-M "C 2/C"
_symmetry_group_IT_number 15
_symmetry_cell_setting 'monoclinic'
loop_
_space_group_symop_operation_xyz
x,y,z
-x,y,1/2-z
-x,-y,-z
x,-y,1/2+z
1/2+x,1/2+y,z
1/2-x,1/2+y,1/2-z
1/2-x,1/2-y,-z
1/2+x,1/2-y,1/2+z
loop_
_atom_site_type_symbol
_atom_site_label
_atom_site_fract_x
_atom_site_fract_y
_atom_site_fract_z
Si Si1 0.727691 0.039110 0.632868
Si Si2 0.113765 0.631337 0.418474
Si Si3 0.785096 0.360506 0.591401
Si Si4 0.603389 0.426044 0.339836
Si Si5 0.849651 0.184720 0.877789
Si Si6 0.413596 0.999562 0.783482
O O1 0.761629 0.207494 0.588218
O O2 0.659325 0.000667 0.802769
O O3 0.822465 0.925971 0.484575
O O4 0.669814 0.027454 0.647718
O O5 0.187684 0.672965 0.369111
O O6 0.100744 0.772942 0.387574
O O7 0.013010 0.571574 0.604172
O O8 0.692708 0.472053 0.731080
O O9 0.879860 0.428409 0.408306
O O10 0.500000 0.500000 0.500000
O O11 0.605487 0.408233 0.253187
O O12 0.923047 0.321473 0.786276
O O13 0.750000 0.250000 0.000000
#
# Coordination Sequence:
#
# PCOD8140646 Si02
#       6
#     8   8   8   8   8   8
#     4  11  22  41  70  94 125 175 220 265 318 397
#     4  12  25  42  65  98 137 167 218 274 335 387
#     4  12  25  42  65  98 138 169 207 282 342 373
#     4  12  25  43  68  98 126 174 226 271 314 401
#     4  10  20  42  68  90 124 164 224 267 308 380
#     4  11  22  42  68  94 125 179 217 265 318 400
#
# _framework density 20.774263999999999
#
# number of rings (size 3 to 8) (size 9 to 14) (size 15 to 20)
#    0.000    0.667    6.667    3.500    4.667    0.000 
#    0.000    0.000    3.667    0.000    0.000    0.000 
#    0.000    0.000    0.000    0.000    0.000    0.000 
#
# Total GULP energy -297512.880365 kJ/mol
# GULP energy per Si atom -12396.370015 kJ/mol
# Density = 2.072698 g / cm^3
# Si number density = 20.774264 Si / 1000 Ang^3
#
#
#
# Elastic Constant Matrix: (Units=GPa)
#
#
# Indices 1 2 3 4 5 6 
#
# 1 54.4239 12.8632 14.0895 0.0003 13.6879 0.0001
# 2 12.8632 110.6573 47.7750 0.0020 -11.6931 0.0005
# 3 14.0895 47.7750 143.9120 0.0010 6.7896 0.0002
# 4 0.0003 0.0020 0.0010 48.2605 0.0001 5.0397
# 5 13.6879 -11.6931 6.7896 0.0001 23.0042 0.0001
# 6 0.0001 0.0005 0.0002 5.0397 0.0001 14.6993
#
#
#
# Elastic Compliance Matrix: (Units=1/GPa)
#
#
# Indices 1 2 3 4 5 6 
#
# 1 0.023515 -0.004416 -0.000071 0.000000 -0.016215 0.000000
# 2 -0.004416 0.012427 -0.004173 0.000000 0.010176 0.000000
# 3 -0.000071 -0.004173 0.008558 0.000000 -0.004605 0.000000
# 4 0.000000 0.000000 0.000000 0.021490 0.000000 -0.007368
# 5 -0.016215 0.010176 -0.004605 0.000000 0.059650 0.000000
# 6 0.000000 0.000000 0.000000 -0.007368 0.000000 0.070557
#
#
# Mechanical properties :
#
#
# Convention : Reuss Voigt Hill
#
# Bulk Modulus (GPa) = 36.79282 50.93873 43.86577
# Shear Modulus (GPa) = 22.46396 32.81051 27.63724
#
# Velocity S-wave (km/s) = 3.29194 3.97846 3.65137
# Velocity P-wave (km/s) = 5.67436 6.75851 6.24002
#
# Compressibility (1/GPa) = 0.02717922
#
# Stress axis : x y z
#
# Youngs Moduli (GPa) = 42.52659 80.46763 116.84521
#
# Poissons Ratio (x) = 0.35536 0.00831
# Poissons Ratio (y) = 0.18781 0.48763
# Poissons Ratio (z) = 0.00302 0.33582
#
# Static dielectric constant tensor:
#      x y z
#    x 3.569330 0.000000 0.194910 
#    y 0.000000 4.808510 0.000000 
#    z 0.194910 0.000000 4.056780 
# 
# 
# High freq. dielectric constant tensor:
#      x y z
#    x 1.795540 0.000000 0.019710 
#    y 0.000000 1.829070 0.000000 
#    z 0.019710 0.000000 1.829230 
# 
# From -- ./inp_files/224554.got.cif
#   From: 2010.06.25/outbox.cif.g09.slc.cpg/sg15_113_cif.got.tgz:224554.got - 2010.06.28 07:06:18.
