data_PCOD8140181
_publ_section_title
;
Structure prediction by ZEFSAII (Michael W. Deem and Ramdas Pophale) SiO2 
 PCOD8140181
Probable space group: C 2/C
;
_chemical_formula_sum "Si O2"
_cell_formula_units_Z 56
_cell_length_a 19.076252
_cell_length_b 8.456210
_cell_length_c 16.929747
_cell_angle_alpha 90.000000
_cell_angle_beta 118.615090
_cell_angle_gamma 90.000000
_cell_volume 2397.413749
_symmetry_space_group_name_H-M "C 2/C"
_symmetry_group_IT_number 15
_symmetry_cell_setting 'monoclinic'
loop_
_space_group_symop_operation_xyz
x,y,z
-x,y,1/2-z
-x,-y,-z
x,-y,1/2+z
1/2+x,1/2+y,z
1/2-x,1/2+y,1/2-z
1/2-x,1/2-y,-z
1/2+x,1/2-y,1/2+z
loop_
_atom_site_type_symbol
_atom_site_label
_atom_site_fract_x
_atom_site_fract_y
_atom_site_fract_z
Si Si1 0.850596 0.995649 0.761553
Si Si2 0.375470 0.164356 0.526261
Si Si3 0.618959 0.942124 0.302248
Si Si4 0.350122 0.718921 0.632365
Si Si5 0.165975 0.314206 0.041419
Si Si6 0.769080 0.212933 0.837269
Si Si7 0.949314 0.270775 0.375676
O O1 0.882067 0.064343 0.694664
O O2 0.829981 0.149839 0.803534
O O3 0.774675 0.877381 0.710296
O O4 0.928467 0.906918 0.837420
O O5 0.379726 0.183572 0.623580
O O6 0.314295 0.275754 0.446140
O O7 0.463454 0.206251 0.539570
O O8 0.343979 0.989089 0.496281
O O9 0.705619 0.927507 0.309714
O O10 0.554243 0.889694 0.201679
O O11 0.602577 0.123181 0.315615
O O12 0.257067 0.730388 0.607951
O O13 0.362379 0.696505 0.544638
O O14 0.116364 0.306624 0.094047
#
# Coordination Sequence:
#
# PCOD8140181 Si02
#       7
#     8   8   8   8   8   8   8
#     4  11  23  39  66  99 130 170 217 282 326 389
#     4  11  23  40  65  95 132 174 215 264 330 395
#     4  10  22  40  69  93 124 172 224 273 319 387
#     4  10  20  40  68  96 124 163 224 276 323 374
#     4  10  21  38  65  98 127 165 216 272 323 394
#     4  11  22  39  68  94 128 165 226 273 330 373
#     4  11  24  42  64  94 135 178 213 262 330 398
#
# _framework density 23.358505000000001
#
# number of rings (size 3 to 8) (size 9 to 14) (size 15 to 20)
#    0.000    1.429    1.429    4.714    2.000    0.571 
#    5.143    0.000    6.286    0.000    0.000    0.000 
#    0.000    0.000    0.000    0.000    0.000    0.000 
#
# Total GULP energy -347013.631267 kJ/mol
# GULP energy per Si atom -12393.343974 kJ/mol
# Density = 2.330534 g / cm^3
# Si number density = 23.358505 Si / 1000 Ang^3
#
#
#
# Elastic Constant Matrix: (Units=GPa)
#
#
# Indices 1 2 3 4 5 6 
#
# 1 25.7267 -4.3367 8.6928 0.0000 2.1232 0.0000
# 2 -4.3367 82.9987 23.0042 0.0000 -1.7180 0.0000
# 3 8.6928 23.0042 79.9113 0.0000 -4.1780 0.0000
# 4 0.0000 0.0000 0.0000 17.5050 0.0000 -12.3239
# 5 2.1232 -1.7180 -4.1780 0.0000 43.5844 0.0000
# 6 0.0000 0.0000 0.0000 -12.3239 0.0000 15.2659
#
#
#
# Elastic Compliance Matrix: (Units=1/GPa)
#
#
# Indices 1 2 3 4 5 6 
#
# 1 0.041630 0.003711 -0.005724 0.000000 -0.002430 0.000000
# 2 0.003711 0.013425 -0.004272 0.000000 -0.000061 0.000000
# 3 -0.005724 -0.004272 0.014444 0.000000 0.001495 0.000000
# 4 0.000000 0.000000 0.000000 0.132343 0.000000 0.106839
# 5 -0.002430 -0.000061 0.001495 0.000000 0.023203 0.000000
# 6 0.000000 0.000000 0.000000 0.106839 0.000000 0.151754
#
#
# Mechanical properties :
#
#
# Convention : Reuss Voigt Hill
#
# Bulk Modulus (GPa) = 17.56506 27.03971 22.30239
# Shear Modulus (GPa) = 12.24451 26.02282 19.13366
#
# Velocity S-wave (km/s) = 2.29202 3.34138 2.86515
# Velocity P-wave (km/s) = 3.81321 5.14660 4.52924
#
# Compressibility (1/GPa) = 0.05693119
#
# Stress axis : x y z
#
# Youngs Moduli (GPa) = 24.02091 74.48812 69.23112
#
# Poissons Ratio (x) = -0.27645 0.39628
# Poissons Ratio (y) = -0.08915 0.29573
# Poissons Ratio (z) = 0.13750 0.31818
#
# Static dielectric constant tensor:
#      x y z
#    x 3.935330 0.000000 -0.238980 
#    y 0.000000 4.064710 0.000000 
#    z -0.238980 0.000000 4.846570 
# 
# 
# High freq. dielectric constant tensor:
#      x y z
#    x 1.904670 0.000000 -0.014390 
#    y 0.000000 1.910230 0.000000 
#    z -0.014390 0.000000 1.940590 
# 
# From -- ./inp_files/214017.got.cif
#   From: 2010.06.25/outbox.cif.g09.slc.cpg/sg15_108_cif.got.tgz:214017.got - 2010.06.28 07:06:18.
