data_PCOD8140347
_publ_section_title
;
Structure prediction by ZEFSAII (Michael W. Deem and Ramdas Pophale) SiO2 
 PCOD8140347
Probable space group: C 2/C
;
_chemical_formula_sum "Si O2"
_cell_formula_units_Z 40
_cell_length_a 14.532968
_cell_length_b 12.853831
_cell_length_c 17.542877
_cell_angle_alpha 90.000000
_cell_angle_beta 35.745617
_cell_angle_gamma 90.000000
_cell_volume 1914.432423
_symmetry_space_group_name_H-M "C 2/C"
_symmetry_group_IT_number 15
_symmetry_cell_setting 'monoclinic'
loop_
_space_group_symop_operation_xyz
x,y,z
-x,y,1/2-z
-x,-y,-z
x,-y,1/2+z
1/2+x,1/2+y,z
1/2-x,1/2+y,1/2-z
1/2-x,1/2-y,-z
1/2+x,1/2-y,1/2+z
loop_
_atom_site_type_symbol
_atom_site_label
_atom_site_fract_x
_atom_site_fract_y
_atom_site_fract_z
Si Si1 0.542477 0.373359 0.381747
Si Si2 0.440005 0.862338 0.594638
Si Si3 0.845391 0.553784 0.003982
Si Si4 0.226260 0.971366 0.840749
Si Si5 0.500000 0.472617 0.250000
Si Si6 0.000000 0.544954 0.750000
O O1 0.509389 0.253221 0.417540
O O2 0.417146 0.441388 0.510675
O O3 0.704172 0.417481 0.311060
O O4 0.535053 0.397389 0.297441
O O5 0.408705 0.867533 0.525416
O O6 0.270189 0.886407 0.747122
O O7 0.577539 0.940209 0.530751
O O8 0.908872 0.604312 0.880877
O O9 0.654817 0.543980 0.130723
O O10 0.372432 0.971280 0.798510
#
# Coordination Sequence:
#
# PCOD8140347 Si02
#       6
#     8   8   8   8   4   4
#     4  11  24  39  65  94 129 168 215 266 325 378
#     4  10  23  41  65  89 129 171 213 262 324 382
#     4  10  22  41  64  93 126 167 212 267 317 379
#     4  10  22  41  60  91 131 169 211 270 316 379
#     4  12  22  41  67  98 130 166 212 271 321 378
#     4  10  20  41  65  86 126 170 210 263 315 366
#
# _framework density 20.893920999999999
#
# number of rings (size 3 to 8) (size 9 to 14) (size 15 to 20)
#    0.000    1.600    4.000    0.000    2.800    4.000 
#    0.000    2.000    0.000    0.000    0.000    0.000 
#    0.000    0.000    0.000    0.000    0.000    0.000 
#
# Total GULP energy -247766.152843 kJ/mol
# GULP energy per Si atom -12388.307642 kJ/mol
# Density = 2.084637 g / cm^3
# Si number density = 20.893921 Si / 1000 Ang^3
#
#
#
# Elastic Constant Matrix: (Units=GPa)
#
#
# Indices 1 2 3 4 5 6 
#
# 1 128.3761 28.1412 56.8455 -0.0004 13.8833 0.0001
# 2 28.1412 46.1980 5.5095 -0.0010 1.4102 0.0004
# 3 56.8455 5.5095 127.8302 -0.0008 24.6749 0.0003
# 4 -0.0004 -0.0010 -0.0008 10.9705 0.0004 12.7440
# 5 13.8833 1.4102 24.6749 0.0004 44.5918 -0.0001
# 6 0.0001 0.0004 0.0003 12.7440 -0.0001 2.7484
#
#
#
# Elastic Compliance Matrix: (Units=1/GPa)
#
#
# Indices 1 2 3 4 5 6 
#
# 1 0.011293 -0.006307 -0.004601 0.000000 -0.000770 -0.000001
# 2 -0.006307 0.025281 0.001668 -0.000002 0.000241 0.000003
# 3 -0.004601 0.001668 0.010671 -0.000001 -0.004525 0.000001
# 4 0.000000 -0.000002 -0.000001 -0.020781 0.000001 0.096357
# 5 -0.000770 0.000241 -0.004525 0.000001 0.025162 -0.000002
# 6 -0.000001 0.000003 0.000001 0.096357 -0.000002 -0.082948
#
#
# Mechanical properties :
#
#
# Convention : Reuss Voigt Hill
#
# Bulk Modulus (GPa) = 34.76385 53.71074 44.23730
# Shear Modulus (GPa) = -1536.22398 25.78934 -755.21732
#
# Velocity S-wave (km/s) = -27.14490 3.51707 -19.03255
# Velocity P-wave (km/s) = 31.07710 6.50040 21.48873
#
# Compressibility (1/GPa) = 0.02876551
#
# Stress axis : x y z
#
# Youngs Moduli (GPa) = 88.55104 39.55489 93.71549
#
# Poissons Ratio (x) = 0.24946 0.43122
# Poissons Ratio (y) = 0.55847 -0.15636
# Poissons Ratio (z) = 0.40746 -0.06600
#
# Static dielectric constant tensor:
#      x y z
#    x 4.117300 0.000000 0.088600 
#    y 0.000000 3.219230 0.000000 
#    z 0.088600 0.000000 4.530810 
# 
# 
# High freq. dielectric constant tensor:
#      x y z
#    x 1.836240 0.000000 0.010350 
#    y 0.000000 1.760510 0.000000 
#    z 0.010350 0.000000 1.848320 
# 
# From -- ./inp_files/94545.got.cif
#   From: 2010.06.25/outbox.cif.g09.slc.cpg/sg15_48_cif.got.tgz:94545.got - 2010.06.28 07:06:18.
