data_PCOD8140571
_publ_section_title
;
Structure prediction by ZEFSAII (Michael W. Deem and Ramdas Pophale) SiO2 
 PCOD8140571
Probable space group: C 2/C
;
_chemical_formula_sum "Si O2"
_cell_formula_units_Z 48
_cell_length_a 27.334502
_cell_length_b 14.025312
_cell_length_c 10.375975
_cell_angle_alpha 90.000000
_cell_angle_beta 34.405067
_cell_angle_gamma 90.000000
_cell_volume 2247.666044
_symmetry_space_group_name_H-M "C 2/C"
_symmetry_group_IT_number 15
_symmetry_cell_setting 'monoclinic'
loop_
_space_group_symop_operation_xyz
x,y,z
-x,y,1/2-z
-x,-y,-z
x,-y,1/2+z
1/2+x,1/2+y,z
1/2-x,1/2+y,1/2-z
1/2-x,1/2-y,-z
1/2+x,1/2-y,1/2+z
loop_
_atom_site_type_symbol
_atom_site_label
_atom_site_fract_x
_atom_site_fract_y
_atom_site_fract_z
Si Si1 0.669051 0.960572 0.921081
Si Si2 0.149794 0.874304 0.013950
Si Si3 0.363447 0.301277 0.726835
Si Si4 0.194697 0.596589 0.642072
Si Si5 0.000000 0.013711 0.250000
Si Si6 0.500000 0.835729 0.250000
Si Si7 0.037056 0.827848 0.475342
O O1 0.753658 0.912598 0.674406
O O2 0.657341 0.055188 0.857997
O O3 0.685064 0.976798 0.040646
O O4 0.582793 0.899808 0.096324
O O5 0.123446 0.819340 0.201570
O O6 0.078355 0.955413 0.142429
O O7 0.151784 0.799560 0.893035
O O8 0.357049 0.192136 0.787593
O O9 0.455957 0.345722 0.557049
O O10 0.294206 0.371141 0.946470
O O11 0.047166 0.081219 0.044247
O O12 0.476599 0.770703 0.421985
#
# Coordination Sequence:
#
# PCOD8140571 Si02
#       7
#     8   8   8   8   4   4   8
#     4  11  25  44  65  96 128 172 224 269 315 387
#     4  11  23  38  65  99 126 163 220 261 328 395
#     4  10  20  42  65  93 128 170 206 267 324 387
#     4  10  23  42  69  92 132 170 219 263 323 379
#     4  11  22  34  65  96 132 164 199 270 334 389
#     4  11  26  46  61  88 134 176 219 268 318 369
#     4  11  22  40  63  93 133 165 209 270 329 385
#
# _framework density 21.355487
#
# number of rings (size 3 to 8) (size 9 to 14) (size 15 to 20)
#    0.000    1.333    3.333    1.500    4.667    2.667 
#    3.000    0.000    0.000    0.000    0.000    0.000 
#    0.000    0.000    0.000    0.000    0.000    0.000 
#
# Total GULP energy -297524.493042 kJ/mol
# GULP energy per Si atom -12396.853877 kJ/mol
# Density = 2.130688 g / cm^3
# Si number density = 21.355487 Si / 1000 Ang^3
#
#
#
# Elastic Constant Matrix: (Units=GPa)
#
#
# Indices 1 2 3 4 5 6 
#
# 1 65.9855 29.4646 20.4496 0.0000 3.6883 0.0000
# 2 29.4646 70.0510 24.4152 0.0000 9.4651 0.0000
# 3 20.4496 24.4152 76.6174 0.0000 3.8867 0.0000
# 4 0.0000 0.0000 0.0000 12.3497 0.0000 -4.6201
# 5 3.6883 9.4651 3.8867 0.0000 45.2611 0.0000
# 6 0.0000 0.0000 0.0000 -4.6201 0.0000 14.9150
#
#
#
# Elastic Compliance Matrix: (Units=1/GPa)
#
#
# Indices 1 2 3 4 5 6 
#
# 1 0.019206 -0.007100 -0.002872 0.000000 0.000166 0.000000
# 2 -0.007100 0.019080 -0.004030 0.000000 -0.003066 0.000000
# 3 -0.002872 -0.004030 0.015114 0.000000 -0.000221 0.000000
# 4 0.000000 0.000000 0.000000 0.091587 0.000000 0.028370
# 5 0.000166 -0.003066 -0.000221 0.000000 0.022741 0.000000
# 6 0.000000 0.000000 0.000000 0.028370 0.000000 0.075835
#
#
# Mechanical properties :
#
#
# Convention : Reuss Voigt Hill
#
# Bulk Modulus (GPa) = 39.37511 40.14583 39.76047
# Shear Modulus (GPa) = 17.85517 23.72680 20.79099
#
# Velocity S-wave (km/s) = 2.89466 3.33684 3.12359
# Velocity P-wave (km/s) = 5.44519 5.80394 5.62742
#
# Compressibility (1/GPa) = 0.02539675
#
# Stress axis : x y z
#
# Youngs Moduli (GPa) = 52.06728 52.41008 66.16463
#
# Poissons Ratio (x) = 0.37210 0.19004
# Poissons Ratio (y) = 0.36966 0.26663
# Poissons Ratio (z) = 0.14955 0.21120
#
# Static dielectric constant tensor:
#      x y z
#    x 3.914240 0.000000 0.133810 
#    y 0.000000 3.619340 0.000000 
#    z 0.133810 0.000000 4.031210 
# 
# 
# High freq. dielectric constant tensor:
#      x y z
#    x 1.841120 0.000000 0.005360 
#    y 0.000000 1.817360 0.000000 
#    z 0.005360 0.000000 1.846670 
# 
# From -- ./inp_files/96356.got.cif
#   From: 2010.06.25/outbox.cif.g09.slc.cpg/sg15_49_cif.got.tgz:96356.got - 2010.06.28 07:06:18.
