data_PCOD8140118
_publ_section_title
;
Structure prediction by ZEFSAII (Michael W. Deem and Ramdas Pophale) SiO2 
 PCOD8140118
Probable space group: C 2/C
;
_chemical_formula_sum "Si O2"
_cell_formula_units_Z 48
_cell_length_a 7.318679
_cell_length_b 19.392128
_cell_length_c 25.237930
_cell_angle_alpha 90.000000
_cell_angle_beta 43.529081
_cell_angle_gamma 90.000000
_cell_volume 2466.926842
_symmetry_space_group_name_H-M "C 2/C"
_symmetry_group_IT_number 15
_symmetry_cell_setting 'monoclinic'
loop_
_space_group_symop_operation_xyz
x,y,z
-x,y,1/2-z
-x,-y,-z
x,-y,1/2+z
1/2+x,1/2+y,z
1/2-x,1/2+y,1/2-z
1/2-x,1/2-y,-z
1/2+x,1/2-y,1/2+z
loop_
_atom_site_type_symbol
_atom_site_label
_atom_site_fract_x
_atom_site_fract_y
_atom_site_fract_z
Si Si1 0.813088 0.202161 0.913343
Si Si2 0.129675 0.047853 0.586635
Si Si3 0.050583 0.549603 0.406758
Si Si4 0.666820 0.949241 0.661592
Si Si5 0.275222 0.699414 0.161587
Si Si6 0.165698 0.700318 0.406734
O O1 0.919047 0.125021 0.882554
O O2 0.744844 0.236612 0.872785
O O3 0.052498 0.243875 0.889866
O O4 0.531544 0.200999 0.002180
O O5 0.292029 0.049052 0.497825
O O6 0.252731 0.006415 0.609931
O O7 0.858946 0.013155 0.627252
O O8 0.180255 0.624909 0.378073
O O9 0.997442 0.532227 0.356618
O O10 0.500000 0.945212 0.750000
O O11 0.816498 0.874905 0.623353
O O12 0.530637 0.717871 0.143347
O O13 0.000000 0.695421 0.250000
#
# Coordination Sequence:
#
# PCOD8140118 Si02
#       6
#     8   8   8   8   8   8
#     4  10  22  40  63  94 119 156 206 258 305 352
#     4  10  22  40  63  94 119 156 206 258 305 352
#     4  10  20  40  67  88 121 160 206 253 299 367
#     4  11  23  40  61  91 123 165 205 243 307 377
#     4  11  23  40  61  91 123 165 205 243 307 377
#     4  10  20  40  67  88 121 160 206 253 299 367
#
# _framework density 19.457408000000001
#
# number of rings (size 3 to 8) (size 9 to 14) (size 15 to 20)
#    0.000    1.667    3.333    1.000    0.000    2.667 
#    6.000    0.000    0.000    0.000    0.000    0.000 
#    0.000    0.000    0.000    0.000    0.000    0.000 
#
# Total GULP energy -297521.582449 kJ/mol
# GULP energy per Si atom -12396.732602 kJ/mol
# Density = 1.941312 g / cm^3
# Si number density = 19.457408 Si / 1000 Ang^3
#
#
#
# Elastic Constant Matrix: (Units=GPa)
#
#
# Indices 1 2 3 4 5 6 
#
# 1 171.0813 81.0755 68.5533 0.0091 0.1646 0.0222
# 2 81.0755 176.1976 40.0572 0.0147 0.2801 0.0174
# 3 68.5533 40.0572 54.4098 0.0040 -0.7374 -0.0142
# 4 0.0091 0.0147 0.0040 3.9556 -0.0104 -0.1982
# 5 0.1646 0.2801 -0.7374 -0.0104 30.2452 0.0123
# 6 0.0222 0.0174 -0.0142 -0.1982 0.0123 10.2694
#
#
#
# Elastic Compliance Matrix: (Units=1/GPa)
#
#
# Indices 1 2 3 4 5 6 
#
# 1 0.012772 -0.002662 -0.014138 -0.000008 -0.000389 -0.000042
# 2 -0.002662 0.007372 -0.002075 -0.000020 -0.000104 -0.000010
# 3 -0.014138 -0.002075 0.037733 0.000009 0.001016 0.000085
# 4 -0.000008 -0.000020 0.000009 0.253049 0.000085 0.004883
# 5 -0.000389 -0.000104 0.001016 0.000085 0.033091 -0.000036
# 6 -0.000042 -0.000010 0.000085 0.004883 -0.000036 0.097471
#
#
# Mechanical properties :
#
#
# Convention : Reuss Voigt Hill
#
# Bulk Modulus (GPa) = 49.68138 86.78453 68.23296
# Shear Modulus (GPa) = 10.28919 23.02755 16.65837
#
# Velocity S-wave (km/s) = 2.30207 3.44391 2.92917
# Velocity P-wave (km/s) = 5.71445 7.77902 6.82525
#
# Compressibility (1/GPa) = 0.02012826
#
# Stress axis : x y z
#
# Youngs Moduli (GPa) = 78.29487 135.64280 26.50221
#
# Poissons Ratio (x) = 0.36113 0.37468
# Poissons Ratio (y) = 0.20845 0.05498
# Poissons Ratio (z) = 1.10690 0.28141
#
# Static dielectric constant tensor:
#      x y z
#    x 3.474970 -0.000030 0.002390 
#    y -0.000030 3.900000 0.000020 
#    z 0.002390 0.000020 3.445210 
# 
# 
# High freq. dielectric constant tensor:
#      x y z
#    x 1.766030 0.000000 -0.000340 
#    y 0.000000 1.770880 0.000000 
#    z -0.000340 0.000000 1.738470 
# 
# From -- ./inp_files/261284.got.cif
#   From: 2010.06.25/outbox.cif.g09.slc.cpg/sg15_131_cif.got.tgz:261284.got - 2010.06.28 07:06:18.
