data_PCOD8140819
_publ_section_title
;
Structure prediction by ZEFSAII (Michael W. Deem and Ramdas Pophale) SiO2 
 PCOD8140819
Probable space group: C 2/C
;
_chemical_formula_sum "Si O2"
_cell_formula_units_Z 52
_cell_length_a 19.364833
_cell_length_b 9.689867
_cell_length_c 23.165058
_cell_angle_alpha 90.000000
_cell_angle_beta 38.565962
_cell_angle_gamma 90.000000
_cell_volume 2709.831921
_symmetry_space_group_name_H-M "C 2/C"
_symmetry_group_IT_number 15
_symmetry_cell_setting 'monoclinic'
loop_
_space_group_symop_operation_xyz
x,y,z
-x,y,1/2-z
-x,-y,-z
x,-y,1/2+z
1/2+x,1/2+y,z
1/2-x,1/2+y,1/2-z
1/2-x,1/2-y,-z
1/2+x,1/2-y,1/2+z
loop_
_atom_site_type_symbol
_atom_site_label
_atom_site_fract_x
_atom_site_fract_y
_atom_site_fract_z
Si Si1 0.452731 0.523011 0.593725
Si Si2 0.328680 0.197752 0.999467
Si Si3 0.683750 0.626239 0.468530
Si Si4 0.000000 0.010429 0.250000
Si Si5 0.769905 0.114527 0.641707
Si Si6 0.230877 0.086651 0.566615
Si Si7 0.942384 0.214679 0.185608
O O1 0.500000 0.500000 0.500000
O O2 0.551053 0.600871 0.564061
O O3 0.341976 0.613807 0.654123
O O4 0.415030 0.379530 0.647858
O O5 0.452367 0.187728 0.894084
O O6 0.250000 0.250000 0.000000
O O7 0.331538 0.302584 0.050812
O O8 0.289211 0.052271 0.050670
O O9 0.739107 0.540140 0.379611
O O10 0.706663 0.787860 0.442446
O O11 0.744847 0.588034 0.488277
O O12 0.966511 0.108284 0.220069
O O13 0.898016 0.910968 0.331916
O O14 0.653458 0.180176 0.734163
#
# Coordination Sequence:
#
# PCOD8140819 Si02
#       7
#     8   8   8   4   8   8   8
#     4  10  20  44  65  82 128 176 205 258 329 374
#     4  12  19  39  65  95 124 164 218 257 311 386
#     4  10  21  43  62  89 128 172 201 266 329 373
#     4  12  20  38  64  92 126 162 208 272 318 374
#     4  11  22  41  68  91 121 173 217 261 309 384
#     4  11  22  38  64  94 129 162 209 262 328 376
#     4  12  22  39  67  95 123 169 217 264 317 374
#
# _framework density 19.189381000000001
#
# number of rings (size 3 to 8) (size 9 to 14) (size 15 to 20)
#    0.000    0.923    9.231    0.000    0.000    0.000 
#   13.846    0.769    0.000    0.000    0.000    0.000 
#    0.000    0.000    0.000    0.000    0.000    0.000 
#
# Total GULP energy -322313.066793 kJ/mol
# GULP energy per Si atom -12396.656415 kJ/mol
# Density = 1.914571 g / cm^3
# Si number density = 19.189381 Si / 1000 Ang^3
#
#
#
# Elastic Constant Matrix: (Units=GPa)
#
#
# Indices 1 2 3 4 5 6 
#
# 1 72.7783 40.5233 26.9628 0.0000 -5.5839 0.0000
# 2 40.5233 125.2306 38.4273 0.0000 -10.0635 0.0002
# 3 26.9628 38.4273 106.3723 0.0000 -19.6830 0.0000
# 4 0.0000 0.0000 0.0000 38.0223 0.0000 -0.6677
# 5 -5.5839 -10.0635 -19.6830 0.0000 35.4906 0.0000
# 6 0.0000 0.0002 0.0000 -0.6677 0.0000 1.6385
#
#
#
# Elastic Compliance Matrix: (Units=1/GPa)
#
#
# Indices 1 2 3 4 5 6 
#
# 1 0.017412 -0.004817 -0.002696 0.000000 -0.000121 0.000000
# 2 -0.004817 0.010335 -0.002352 0.000000 0.000868 -0.000001
# 3 -0.002696 -0.002352 0.011959 0.000000 0.005542 0.000001
# 4 0.000000 0.000000 0.000000 0.026490 0.000000 0.010794
# 5 -0.000121 0.000868 0.005542 0.000000 0.031477 0.000000
# 6 0.000000 -0.000001 0.000001 0.010794 0.000000 0.614714
#
#
# Mechanical properties :
#
#
# Convention : Reuss Voigt Hill
#
# Bulk Modulus (GPa) = 50.05725 57.35645 53.70685
# Shear Modulus (GPa) = 6.76795 28.26148 17.51472
#
# Velocity S-wave (km/s) = 1.88005 3.84183 3.02442
# Velocity P-wave (km/s) = 5.55476 7.04515 6.34387
#
# Compressibility (1/GPa) = 0.01997713
#
# Stress axis : x y z
#
# Youngs Moduli (GPa) = 57.43224 96.75429 83.61641
#
# Poissons Ratio (x) = 0.46605 0.22542
# Poissons Ratio (y) = 0.27664 0.19667
# Poissons Ratio (z) = 0.15483 0.22758
#
# Static dielectric constant tensor:
#      x y z
#    x 4.228750 0.000000 -0.295490 
#    y 0.000000 3.707630 0.000000 
#    z -0.295490 0.000000 3.651560 
# 
# 
# High freq. dielectric constant tensor:
#      x y z
#    x 1.747200 0.000000 -0.001390 
#    y 0.000000 1.737400 0.000000 
#    z -0.001390 0.000000 1.744240 
# 
# From -- ./inp_files/166243.got.cif
#   From: 2010.06.25/outbox.cif.g09.slc.cpg/sg15_84_cif.got.tgz:166243.got - 2010.06.28 07:06:18.
