data_PCOD8140740
_publ_section_title
;
Structure prediction by ZEFSAII (Michael W. Deem and Ramdas Pophale) SiO2 
 PCOD8140740
Probable space group: C 2/C
;
_chemical_formula_sum "Si O2"
_cell_formula_units_Z 48
_cell_length_a 13.488158
_cell_length_b 14.346423
_cell_length_c 20.312612
_cell_angle_alpha 90.000000
_cell_angle_beta 143.525882
_cell_angle_gamma 90.000000
_cell_volume 2336.600129
_symmetry_space_group_name_H-M "C 2/C"
_symmetry_group_IT_number 15
_symmetry_cell_setting 'monoclinic'
loop_
_space_group_symop_operation_xyz
x,y,z
-x,y,1/2-z
-x,-y,-z
x,-y,1/2+z
1/2+x,1/2+y,z
1/2-x,1/2+y,1/2-z
1/2-x,1/2-y,-z
1/2+x,1/2-y,1/2+z
loop_
_atom_site_type_symbol
_atom_site_label
_atom_site_fract_x
_atom_site_fract_y
_atom_site_fract_z
Si Si1 0.776129 0.157763 0.470984
Si Si2 0.500000 0.423033 0.750000
Si Si3 0.509092 0.635142 0.041809
Si Si4 0.000000 0.444573 0.750000
Si Si5 0.570563 0.266750 0.878110
Si Si6 0.313013 0.888652 0.207208
Si Si7 0.561940 0.534721 0.660906
O O1 0.750000 0.250000 0.500000
O O2 0.595225 0.117930 0.355163
O O3 0.875698 0.171908 0.455719
O O4 0.884521 0.087394 0.574161
O O5 0.614558 0.352193 0.852313
O O6 0.602728 0.485278 0.752204
O O7 0.546711 0.700605 0.124342
O O8 0.545777 0.530016 0.086743
O O9 0.314145 0.646266 0.917159
O O10 0.872810 0.507386 0.723161
O O11 0.473560 0.179393 0.794492
O O12 0.750000 0.250000 0.000000
O O13 0.213523 0.894797 0.224005
#
# Coordination Sequence:
#
# PCOD8140740 Si02
#       7
#     8   4   8   4   8   8   8
#     4  11  24  39  64  93 123 161 208 260 308 369
#     4  10  23  39  62  90 128 160 204 261 315 358
#     4  10  20  43  63  87 127 163 206 253 312 376
#     4  12  21  39  64  92 116 166 218 241 311 384
#     4  11  23  38  62  96 124 158 209 263 303 371
#     4  11  21  39  68  88 119 173 206 244 314 378
#     4  10  21  44  63  87 127 167 205 256 313 374
#
# _framework density 20.542667000000002
#
# number of rings (size 3 to 8) (size 9 to 14) (size 15 to 20)
#    0.000    1.333    3.333    3.500    2.333    4.667 
#    3.000    0.833    0.000    0.000    0.000    0.000 
#    0.000    0.000    0.000    0.000    0.000    0.000 
#
# Total GULP energy -297375.840650 kJ/mol
# GULP energy per Si atom -12390.660027 kJ/mol
# Density = 2.049591 g / cm^3
# Si number density = 20.542667 Si / 1000 Ang^3
#
#
#
# Elastic Constant Matrix: (Units=GPa)
#
#
# Indices 1 2 3 4 5 6 
#
# 1 113.3221 53.2080 50.4084 0.0000 -20.4394 0.0000
# 2 53.2080 111.4317 46.3668 0.0001 -8.3204 0.0000
# 3 50.4084 46.3668 101.3827 0.0004 2.5753 0.0001
# 4 0.0000 0.0001 0.0004 30.3475 0.0001 -8.3242
# 5 -20.4394 -8.3204 2.5753 0.0001 30.1792 0.0000
# 6 0.0000 0.0000 0.0001 -8.3242 0.0000 39.0569
#
#
#
# Elastic Compliance Matrix: (Units=1/GPa)
#
#
# Indices 1 2 3 4 5 6 
#
# 1 0.015068 -0.004025 -0.005895 0.000000 0.009598 0.000000
# 2 -0.004025 0.012539 -0.003760 0.000000 0.001052 0.000000
# 3 -0.005895 -0.003760 0.014674 0.000000 -0.006281 0.000000
# 4 0.000000 0.000000 0.000000 0.034998 0.000000 0.007459
# 5 0.009598 0.001052 -0.006281 0.000000 0.040462 0.000000
# 6 0.000000 0.000000 0.000000 0.007459 0.000000 0.027193
#
#
# Mechanical properties :
#
#
# Convention : Reuss Voigt Hill
#
# Bulk Modulus (GPa) = 67.02143 69.56699 68.29421
# Shear Modulus (GPa) = 28.20607 31.66028 29.93317
#
# Velocity S-wave (km/s) = 3.70949 3.93007 3.82137
# Velocity P-wave (km/s) = 7.14446 7.38458 7.26551
#
# Compressibility (1/GPa) = 0.01492060
#
# Stress axis : x y z
#
# Youngs Moduli (GPa) = 66.36756 79.74951 68.14926
#
# Poissons Ratio (x) = 0.32101 0.40171
# Poissons Ratio (y) = 0.26715 0.25625
# Poissons Ratio (z) = 0.39121 0.29986
#
# Static dielectric constant tensor:
#      x y z
#    x 3.694760 0.000000 -0.128770 
#    y 0.000000 3.954440 0.000000 
#    z -0.128770 0.000000 3.763190 
# 
# 
# High freq. dielectric constant tensor:
#      x y z
#    x 1.809860 0.000000 -0.007040 
#    y 0.000000 1.798490 0.000000 
#    z -0.007040 0.000000 1.797230 
# 
# From -- ./inp_files/274406.got.cif
#   From: 2010.06.25/outbox.cif.g09.slc.cpg/sg15_138_cif.got.tgz:274406.got - 2010.06.28 07:06:18.
