data_PCOD8140247
_publ_section_title
;
Structure prediction by ZEFSAII (Michael W. Deem and Ramdas Pophale) SiO2 
 PCOD8140247
Probable space group: C 2/C
;
_chemical_formula_sum "Si O2"
_cell_formula_units_Z 64
_cell_length_a 9.458346
_cell_length_b 26.409171
_cell_length_c 18.085750
_cell_angle_alpha 90.000000
_cell_angle_beta 137.707826
_cell_angle_gamma 90.000000
_cell_volume 3039.935909
_symmetry_space_group_name_H-M "C 2/C"
_symmetry_group_IT_number 15
_symmetry_cell_setting 'monoclinic'
loop_
_space_group_symop_operation_xyz
x,y,z
-x,y,1/2-z
-x,-y,-z
x,-y,1/2+z
1/2+x,1/2+y,z
1/2-x,1/2+y,1/2-z
1/2-x,1/2-y,-z
1/2+x,1/2-y,1/2+z
loop_
_atom_site_type_symbol
_atom_site_label
_atom_site_fract_x
_atom_site_fract_y
_atom_site_fract_z
Si Si1 0.559499 0.390481 0.356326
Si Si2 0.148281 0.254251 0.739264
Si Si3 0.496980 0.579549 0.333720
Si Si4 0.942041 0.556476 0.310461
Si Si5 0.695444 0.993143 0.023155
Si Si6 0.114716 0.343435 0.919926
Si Si7 0.256601 0.163708 0.673468
Si Si8 0.942930 0.830494 0.924122
O O1 0.500000 0.376764 0.250000
O O2 0.650733 0.447242 0.394475
O O3 0.731635 0.348085 0.449373
O O4 0.357050 0.385523 0.333198
O O5 0.227963 0.207647 0.722436
O O6 0.361290 0.279965 0.852089
O O7 0.000000 0.236974 0.750000
O O8 0.013931 0.291159 0.632579
O O9 0.500000 0.596331 0.250000
O O10 0.300624 0.541759 0.273275
O O11 0.695124 0.546926 0.434125
O O12 0.501755 0.629172 0.385065
O O13 0.000000 0.564778 0.250000
O O14 0.103428 0.515746 0.405767
O O15 0.954272 0.609781 0.359777
O O16 0.500000 0.000000 0.000000
O O17 0.251071 0.351606 0.898537
O O18 0.500000 0.152014 0.750000
O O19 0.144988 0.180189 0.553695
#
# Coordination Sequence:
#
# PCOD8140247 Si02
#       8
#     8   8   8   8   8   8   8   8
#     4  10  23  42  66  92 131 179 217 266 336 399
#     4  10  20  40  73  97 122 172 227 274 329 395
#     4  12  23  41  68  96 131 170 221 272 323 395
#     4  11  20  41  67  96 131 170 218 273 327 388
#     4  11  25  42  64  98 130 170 223 278 323 387
#     4   9  18  39  68  97 125 162 224 277 315 388
#     4  11  26  45  60  96 142 171 214 279 335 397
#     4  10  22  42  68  95 128 171 220 271 323 395
#
# _framework density 21.053076000000001
#
# number of rings (size 3 to 8) (size 9 to 14) (size 15 to 20)
#    0.000    1.500    3.750    1.125    0.000    8.000 
#    0.000    0.000    0.000    0.000    0.000    0.000 
#    0.000    0.000    0.000    0.000    0.000    0.000 
#
# Total GULP energy -396697.073260 kJ/mol
# GULP energy per Si atom -12396.783539 kJ/mol
# Density = 2.100516 g / cm^3
# Si number density = 21.053076 Si / 1000 Ang^3
#
#
#
# Elastic Constant Matrix: (Units=GPa)
#
#
# Indices 1 2 3 4 5 6 
#
# 1 109.3034 47.1401 62.0177 -0.0002 11.5733 0.0000
# 2 47.1401 82.1847 32.6639 -0.0002 1.9243 0.0002
# 3 62.0177 32.6639 136.7695 -0.0018 -4.7535 -0.0001
# 4 -0.0002 -0.0002 -0.0018 77.4616 -0.0007 -25.8418
# 5 11.5733 1.9243 -4.7535 -0.0007 41.1034 0.0000
# 6 0.0000 0.0002 -0.0001 -25.8418 0.0000 50.8181
#
#
#
# Elastic Compliance Matrix: (Units=1/GPa)
#
#
# Indices 1 2 3 4 5 6 
#
# 1 0.015782 -0.006662 -0.005732 0.000000 -0.004795 0.000000
# 2 -0.006662 0.016297 -0.000836 0.000000 0.001016 0.000000
# 3 -0.005732 -0.000836 0.010209 0.000000 0.002834 0.000000
# 4 0.000000 0.000000 0.000000 0.015547 0.000000 0.007906
# 5 -0.004795 0.001016 0.002834 0.000000 0.025959 0.000000
# 6 0.000000 0.000000 0.000000 0.007906 0.000000 0.023698
#
#
# Mechanical properties :
#
#
# Convention : Reuss Voigt Hill
#
# Bulk Modulus (GPa) = 63.17756 67.98899 65.58327
# Shear Modulus (GPa) = 35.91223 46.30568 41.10895
#
# Velocity S-wave (km/s) = 4.13461 4.69494 4.42366
# Velocity P-wave (km/s) = 7.27098 7.85838 7.57038
#
# Compressibility (1/GPa) = 0.01582841
#
# Stress axis : x y z
#
# Youngs Moduli (GPa) = 63.36402 61.35941 97.95458
#
# Poissons Ratio (x) = 0.40877 0.56146
# Poissons Ratio (y) = 0.42213 0.08190
# Poissons Ratio (z) = 0.36319 0.05130
#
# Static dielectric constant tensor:
#      x y z
#    x 3.610950 0.000000 -0.263310 
#    y 0.000000 3.214010 0.000000 
#    z -0.263310 0.000000 3.626800 
# 
# 
# High freq. dielectric constant tensor:
#      x y z
#    x 1.816420 0.000000 -0.001220 
#    y 0.000000 1.807670 0.000000 
#    z -0.001220 0.000000 1.845750 
# 
# From -- ./inp_files/194283.got.cif
#   From: 2010.06.25/outbox.cif.g09.slc.cpg/sg15_98_cif.got.tgz:194283.got - 2010.06.28 07:06:18.
