data_PCOD8140122
_publ_section_title
;
Structure prediction by ZEFSAII (Michael W. Deem and Ramdas Pophale) SiO2 
 PCOD8140122
Probable space group: C 2/C
;
_chemical_formula_sum "Si O2"
_cell_formula_units_Z 48
_cell_length_a 8.700709
_cell_length_b 19.102548
_cell_length_c 13.686998
_cell_angle_alpha 90.000000
_cell_angle_beta 97.602221
_cell_angle_gamma 90.000000
_cell_volume 2254.862182
_symmetry_space_group_name_H-M "C 2/C"
_symmetry_group_IT_number 15
_symmetry_cell_setting 'monoclinic'
loop_
_space_group_symop_operation_xyz
x,y,z
-x,y,1/2-z
-x,-y,-z
x,-y,1/2+z
1/2+x,1/2+y,z
1/2-x,1/2+y,1/2-z
1/2-x,1/2-y,-z
1/2+x,1/2-y,1/2+z
loop_
_atom_site_type_symbol
_atom_site_label
_atom_site_fract_x
_atom_site_fract_y
_atom_site_fract_z
Si Si1 0.628878 0.936865 0.904226
Si Si2 0.641773 0.845967 0.199925
Si Si3 0.412671 0.212253 0.003787
Si Si4 0.187127 0.489685 0.112707
Si Si5 0.131659 0.258975 0.681812
Si Si6 0.323708 0.604897 0.234261
O O1 0.755224 0.925803 0.830112
O O2 0.472715 0.976861 0.857191
O O3 0.582824 0.861879 0.942415
O O4 0.696662 0.985452 0.996309
O O5 0.500000 0.874613 0.250000
O O6 0.565692 0.795428 0.110737
O O7 0.723001 0.912976 0.158815
O O8 0.765121 0.807004 0.278697
O O9 0.250000 0.250000 0.000000
O O10 0.551005 0.256015 0.068658
O O11 0.322485 0.541808 0.156378
O O12 0.230477 0.329244 0.686099
O O13 0.000000 0.271501 0.750000
O O14 0.500000 0.630505 0.250000
#
# Coordination Sequence:
#
# PCOD8140122 Si02
#       6
#     8   8   8   8   8   8
#     4  10  20  40  67  90 121 168 214 250 313 384
#     4  11  24  40  63  97 129 158 209 266 318 375
#     4  11  21  39  68  93 120 169 215 256 311 380
#     4  10  22  41  66  89 123 170 208 256 315 382
#     4  12  22  41  68  90 124 170 213 258 314 377
#     4  12  23  39  64  93 127 164 211 263 315 375
#
# _framework density 21.287331999999999
#
# number of rings (size 3 to 8) (size 9 to 14) (size 15 to 20)
#    0.000    1.000    5.000    2.000    0.000    2.000 
#    0.000    0.000    0.000    0.000    0.000    0.000 
#    0.000    0.000    0.000    0.000    0.000    0.000 
#
# Total GULP energy -297525.639118 kJ/mol
# GULP energy per Si atom -12396.901630 kJ/mol
# Density = 2.123888 g / cm^3
# Si number density = 21.287332 Si / 1000 Ang^3
#
#
#
# Elastic Constant Matrix: (Units=GPa)
#
#
# Indices 1 2 3 4 5 6 
#
# 1 83.8796 17.6309 26.6009 0.0000 17.1458 0.0000
# 2 17.6309 90.0600 27.3787 0.0000 24.4508 0.0000
# 3 26.6009 27.3787 76.9067 0.0000 26.6675 0.0000
# 4 0.0000 0.0000 0.0000 37.3838 0.0000 8.5243
# 5 17.1458 24.4508 26.6675 0.0000 35.4139 0.0000
# 6 0.0000 0.0000 0.0000 8.5243 0.0000 31.5946
#
#
#
# Elastic Compliance Matrix: (Units=1/GPa)
#
#
# Indices 1 2 3 4 5 6 
#
# 1 0.013870 -0.000702 -0.003231 0.000000 -0.003798 0.000000
# 2 -0.000702 0.013970 -0.002035 0.000000 -0.007773 0.000000
# 3 -0.003231 -0.002035 0.018697 0.000000 -0.011110 0.000000
# 4 0.000000 0.000000 0.000000 0.028503 0.000000 -0.007690
# 5 -0.003798 -0.007773 -0.011110 0.000000 0.043809 0.000000
# 6 0.000000 0.000000 0.000000 -0.007690 0.000000 0.033726
#
#
# Mechanical properties :
#
#
# Convention : Reuss Voigt Hill
#
# Bulk Modulus (GPa) = 28.90037 43.78524 36.34280
# Shear Modulus (GPa) = 28.40170 32.82750 30.61460
#
# Velocity S-wave (km/s) = 3.65664 3.93124 3.79642
# Velocity P-wave (km/s) = 5.60659 6.42024 6.02716
#
# Compressibility (1/GPa) = 0.03460164
#
# Stress axis : x y z
#
# Youngs Moduli (GPa) = 72.09649 71.58089 53.48390
#
# Poissons Ratio (x) = 0.05026 0.17279
# Poissons Ratio (y) = 0.05062 0.10885
# Poissons Ratio (z) = 0.23292 0.14568
#
# Static dielectric constant tensor:
#      x y z
#    x 3.641810 0.000000 0.219790 
#    y 0.000000 3.976220 0.000000 
#    z 0.219790 0.000000 4.401440 
# 
# 
# High freq. dielectric constant tensor:
#      x y z
#    x 1.809480 0.000000 0.008590 
#    y 0.000000 1.839430 0.000000 
#    z 0.008590 0.000000 1.849770 
# 
# From -- ./inp_files/136194.got.cif
#   From: 2010.06.25/outbox.cif.g09.slc.cpg/sg15_69_cif.got.tgz:136194.got - 2010.06.28 07:06:18.
