data_PCOD8140431
_publ_section_title
;
Structure prediction by ZEFSAII (Michael W. Deem and Ramdas Pophale) SiO2 
 PCOD8140431
Probable space group: C 2/C
;
_chemical_formula_sum "Si O2"
_cell_formula_units_Z 48
_cell_length_a 9.819407
_cell_length_b 14.481591
_cell_length_c 17.240554
_cell_angle_alpha 90.000000
_cell_angle_beta 78.770765
_cell_angle_gamma 90.000000
_cell_volume 2404.683779
_symmetry_space_group_name_H-M "C 2/C"
_symmetry_group_IT_number 15
_symmetry_cell_setting 'monoclinic'
loop_
_space_group_symop_operation_xyz
x,y,z
-x,y,1/2-z
-x,-y,-z
x,-y,1/2+z
1/2+x,1/2+y,z
1/2-x,1/2+y,1/2-z
1/2-x,1/2-y,-z
1/2+x,1/2-y,1/2+z
loop_
_atom_site_type_symbol
_atom_site_label
_atom_site_fract_x
_atom_site_fract_y
_atom_site_fract_z
Si Si1 0.916738 0.369903 0.186498
Si Si2 0.987448 0.705074 0.336132
Si Si3 0.123654 0.111774 0.794976
Si Si4 0.196620 0.235178 0.418005
Si Si5 0.126201 0.970615 0.931809
Si Si6 0.058232 0.522706 0.075892
O O1 0.766567 0.397581 0.233684
O O2 0.910032 0.308208 0.108530
O O3 0.000000 0.323354 0.250000
O O4 0.001724 0.460267 0.151785
O O5 0.100392 0.786988 0.338352
O O6 0.000000 0.659141 0.250000
O O7 0.832924 0.747440 0.350532
O O8 0.992051 0.627402 0.401580
O O9 0.000000 0.096323 0.750000
O O10 0.113770 0.028522 0.855560
O O11 0.250000 0.250000 0.500000
O O12 0.117215 0.138406 0.416415
O O13 0.276745 0.988620 0.952360
O O14 0.000000 0.000000 0.000000
O O15 0.000000 0.500000 0.000000
#
# Coordination Sequence:
#
# PCOD8140431 Si02
#       6
#     8   8   8   8   8   8
#     4  12  23  42  66 102 136 166 228 285 331 389
#     4  10  20  41  68  90 120 177 224 250 321 410
#     4  11  23  41  69  96 129 175 218 275 328 394
#     4  11  23  43  70  94 133 181 219 261 337 412
#     4  11  25  44  65  97 130 169 224 272 327 400
#     4  11  25  42  66  93 131 178 215 272 337 400
#
# _framework density 19.961044000000001
#
# number of rings (size 3 to 8) (size 9 to 14) (size 15 to 20)
#    0.000    1.000    5.000    3.500    4.667    0.667 
#    3.000    1.667    0.000    0.000    0.000    0.000 
#    0.000    0.000    0.000    0.000    0.000    0.000 
#
# Total GULP energy -297431.201782 kJ/mol
# GULP energy per Si atom -12392.966741 kJ/mol
# Density = 1.991561 g / cm^3
# Si number density = 19.961044 Si / 1000 Ang^3
#
#
#
# Elastic Constant Matrix: (Units=GPa)
#
#
# Indices 1 2 3 4 5 6 
#
# 1 117.8515 41.2198 50.4096 0.0000 -9.6907 0.0000
# 2 41.2198 125.2528 48.2803 0.0000 4.6670 0.0000
# 3 50.4096 48.2803 122.3914 0.0000 11.9103 0.0000
# 4 0.0000 0.0000 0.0000 31.0245 0.0000 3.4851
# 5 -9.6907 4.6670 11.9103 0.0000 50.8652 0.0000
# 6 0.0000 0.0000 0.0000 3.4851 0.0000 27.5682
#
#
#
# Elastic Compliance Matrix: (Units=1/GPa)
#
#
# Indices 1 2 3 4 5 6 
#
# 1 0.011297 -0.002268 -0.004081 0.000000 0.003316 0.000000
# 2 -0.002268 0.009871 -0.002895 0.000000 -0.000660 0.000000
# 3 -0.004081 -0.002895 0.011301 0.000000 -0.003158 0.000000
# 4 0.000000 0.000000 0.000000 0.032697 0.000000 -0.004133
# 5 0.003316 -0.000660 -0.003158 0.000000 0.021092 0.000000
# 6 0.000000 0.000000 0.000000 -0.004133 0.000000 0.036796
#
#
# Mechanical properties :
#
#
# Convention : Reuss Voigt Hill
#
# Bulk Modulus (GPa) = 71.53249 71.70169 71.61709
# Shear Modulus (GPa) = 34.19930 36.93063 35.56497
#
# Velocity S-wave (km/s) = 4.14370 4.30599 4.22562
# Velocity P-wave (km/s) = 7.66860 7.79236 7.73073
#
# Compressibility (1/GPa) = 0.01397966
#
# Stress axis : x y z
#
# Youngs Moduli (GPa) = 88.52104 101.30704 88.49000
#
# Poissons Ratio (x) = 0.22979 0.36110
# Poissons Ratio (y) = 0.20079 0.25621
# Poissons Ratio (z) = 0.36123 0.29332
#
# Static dielectric constant tensor:
#      x y z
#    x 3.938710 0.000000 -0.200000 
#    y 0.000000 3.935530 0.000000 
#    z -0.200000 0.000000 3.635760 
# 
# 
# High freq. dielectric constant tensor:
#      x y z
#    x 1.779190 0.000000 -0.012820 
#    y 0.000000 1.781960 0.000000 
#    z -0.012820 0.000000 1.791670 
# 
# From -- ./inp_files/182513.got.cif
#   From: 2010.06.25/outbox.cif.g09.slc.cpg/sg15_92_cif.got.tgz:182513.got - 2010.06.28 07:06:18.
