data_PCOD8140150
_publ_section_title
;
Structure prediction by ZEFSAII (Michael W. Deem and Ramdas Pophale) SiO2 
 PCOD8140150
Probable space group: C 2/C
;
_chemical_formula_sum "Si O2"
_cell_formula_units_Z 52
_cell_length_a 16.388434
_cell_length_b 11.499669
_cell_length_c 14.988850
_cell_angle_alpha 90.000000
_cell_angle_beta 59.109076
_cell_angle_gamma 90.000000
_cell_volume 2424.110515
_symmetry_space_group_name_H-M "C 2/C"
_symmetry_group_IT_number 15
_symmetry_cell_setting 'monoclinic'
loop_
_space_group_symop_operation_xyz
x,y,z
-x,y,1/2-z
-x,-y,-z
x,-y,1/2+z
1/2+x,1/2+y,z
1/2-x,1/2+y,1/2-z
1/2-x,1/2-y,-z
1/2+x,1/2-y,1/2+z
loop_
_atom_site_type_symbol
_atom_site_label
_atom_site_fract_x
_atom_site_fract_y
_atom_site_fract_z
Si Si1 0.554227 0.924760 0.897658
Si Si2 0.613296 0.528022 0.189905
Si Si3 0.500000 0.971245 0.250000
Si Si4 0.362804 0.482433 0.516963
Si Si5 0.998289 0.194949 0.484042
Si Si6 0.879753 0.277313 0.246005
Si Si7 0.252734 0.041470 0.757625
O O1 0.551805 0.789617 0.925104
O O2 0.497888 0.944750 0.836745
O O3 0.663945 0.964005 0.831901
O O4 0.500000 0.000000 0.000000
O O5 0.500000 0.506201 0.250000
O O6 0.638935 0.664189 0.184588
O O7 0.657719 0.461615 0.250070
O O8 0.664336 0.480029 0.072387
O O9 0.409196 0.885012 0.293318
O O10 0.424018 0.597831 0.497744
O O11 0.416972 0.363619 0.508434
O O12 0.270935 0.488227 0.631746
O O13 0.037321 0.253343 0.371944
O O14 0.784948 0.323238 0.248656
#
# Coordination Sequence:
#
# PCOD8140150 Si02
#       7
#     8   8   4   8   8   8   8
#     4  11  24  44  71  98 147 189 234 297 369 416
#     4  12  23  46  73 100 140 196 236 290 362 430
#     4  10  20  40  68 100 124 186 242 274 348 436
#     4  11  24  42  70 101 139 184 247 286 360 428
#     4  11  21  46  69  98 141 193 228 301 360 421
#     4  11  21  44  73  96 143 188 241 292 346 434
#     4  11  26  42  66 111 141 175 246 308 348 419
#
# _framework density 21.451166000000001
#
# number of rings (size 3 to 8) (size 9 to 14) (size 15 to 20)
#    0.000    0.923    6.923    0.923    2.154    3.077 
#    4.154    0.769    0.000    0.000    0.000    0.000 
#    0.000    0.000    0.000    0.000    0.000    0.000 
#
# Total GULP energy -322374.330558 kJ/mol
# GULP energy per Si atom -12399.012714 kJ/mol
# Density = 2.140234 g / cm^3
# Si number density = 21.451166 Si / 1000 Ang^3
#
#
#
# Elastic Constant Matrix: (Units=GPa)
#
#
# Indices 1 2 3 4 5 6 
#
# 1 99.8461 33.2967 37.8966 0.0000 2.1467 0.0000
# 2 33.2967 53.3171 13.4773 0.0000 -5.3950 0.0000
# 3 37.8966 13.4773 129.4242 0.0000 2.2393 0.0000
# 4 0.0000 0.0000 0.0000 30.4457 0.0000 5.0140
# 5 2.1467 -5.3950 2.2393 0.0000 40.5125 0.0000
# 6 0.0000 0.0000 0.0000 5.0140 0.0000 34.0098
#
#
#
# Elastic Compliance Matrix: (Units=1/GPa)
#
#
# Indices 1 2 3 4 5 6 
#
# 1 0.013965 -0.008073 -0.003220 0.000000 -0.001637 0.000000
# 2 -0.008073 0.024224 -0.000222 0.000000 0.003666 0.000000
# 3 -0.003220 -0.000222 0.008698 0.000000 -0.000340 0.000000
# 4 0.000000 0.000000 0.000000 0.033663 0.000000 -0.004963
# 5 -0.001637 0.003666 -0.000340 0.000000 0.025277 0.000000
# 6 0.000000 0.000000 0.000000 -0.004963 0.000000 0.030135
#
#
# Mechanical properties :
#
#
# Convention : Reuss Voigt Hill
#
# Bulk Modulus (GPa) = 41.91557 50.21429 46.06493
# Shear Modulus (GPa) = 29.94991 34.18805 32.06898
#
# Velocity S-wave (km/s) = 3.74062 3.99653 3.87069
# Velocity P-wave (km/s) = 6.18374 6.68997 6.44183
#
# Compressibility (1/GPa) = 0.02385749
#
# Stress axis : x y z
#
# Youngs Moduli (GPa) = 71.60799 41.28077 114.96348
#
# Poissons Ratio (x) = 0.33325 0.37019
# Poissons Ratio (y) = 0.57808 0.02554
# Poissons Ratio (z) = 0.23058 0.00917
#
# Static dielectric constant tensor:
#      x y z
#    x 3.702450 0.000000 -0.083450 
#    y 0.000000 4.016100 0.000000 
#    z -0.083450 0.000000 3.940120 
# 
# 
# High freq. dielectric constant tensor:
#      x y z
#    x 1.833260 0.000000 0.007800 
#    y 0.000000 1.840490 0.000000 
#    z 0.007800 0.000000 1.846170 
# 
# From -- ./inp_files/160763.got.cif
#   From: 2010.06.25/outbox.cif.g09.slc.cpg/sg15_81_cif.got.tgz:160763.got - 2010.06.28 07:06:18.
