data_PCOD8140111
_publ_section_title
;
Structure prediction by ZEFSAII (Michael W. Deem and Ramdas Pophale) SiO2 
 PCOD8140111
Probable space group: C 2/C
;
_chemical_formula_sum "Si O2"
_cell_formula_units_Z 60
_cell_length_a 10.441078
_cell_length_b 19.375815
_cell_length_c 24.133304
_cell_angle_alpha 90.000000
_cell_angle_beta 33.660084
_cell_angle_gamma 90.000000
_cell_volume 2706.071842
_symmetry_space_group_name_H-M "C 2/C"
_symmetry_group_IT_number 15
_symmetry_cell_setting 'monoclinic'
loop_
_space_group_symop_operation_xyz
x,y,z
-x,y,1/2-z
-x,-y,-z
x,-y,1/2+z
1/2+x,1/2+y,z
1/2-x,1/2+y,1/2-z
1/2-x,1/2-y,-z
1/2+x,1/2-y,1/2+z
loop_
_atom_site_type_symbol
_atom_site_label
_atom_site_fract_x
_atom_site_fract_y
_atom_site_fract_z
Si Si1 0.000000 0.854503 0.250000
Si Si2 0.086856 0.074484 0.989341
Si Si3 0.479741 0.245463 0.344927
Si Si4 0.195695 0.331902 0.929519
Si Si5 0.995096 0.799687 0.048981
Si Si6 0.463892 0.072734 0.599600
Si Si7 0.744920 0.564020 0.182306
Si Si8 0.341121 0.638071 0.181151
O O1 0.889688 0.806950 0.337974
O O2 0.206176 0.898082 0.205551
O O3 0.346878 0.076903 0.919738
O O4 0.095331 0.124289 0.933130
O O5 0.900662 0.105716 0.100070
O O6 0.000000 0.000000 0.000000
O O7 0.272732 0.199589 0.444461
O O8 0.598699 0.280709 0.356085
O O9 0.647748 0.197438 0.247432
O O10 0.208359 0.361755 0.862581
O O11 0.441419 0.324182 0.869851
O O12 0.093452 0.255405 0.964746
O O13 0.046117 0.387597 0.016096
O O14 0.439833 0.991275 0.595833
O O15 0.500000 0.534141 0.250000
O O16 0.742706 0.575376 0.249343
#
# Coordination Sequence:
#
# PCOD8140111 Si02
#       8
#     4   8   8   8   8   8   8   8
#     4  12  24  42  64 104 134 172 238 282 356 402
#     4  11  28  48  67  99 142 191 229 282 360 430
#     4  11  24  42  71 101 134 179 227 303 338 417
#     4  10  21  41  66 100 133 179 232 287 346 413
#     4  11  24  44  69  99 138 178 232 286 352 414
#     4  11  24  42  67  97 142 180 225 292 344 423
#     4  10  20  40  66  99 132 175 231 282 342 410
#     4  10  23  41  73  96 135 184 231 282 350 416
#
# _framework density 22.172360999999999
#
# number of rings (size 3 to 8) (size 9 to 14) (size 15 to 20)
#    0.000    1.333    3.333    1.200    3.733    2.133 
#    2.400    1.333    0.000    0.000    0.000    0.000 
#    0.000    0.000    0.000    0.000    0.000    0.000 
#
# Total GULP energy -371921.670178 kJ/mol
# GULP energy per Si atom -12397.389006 kJ/mol
# Density = 2.212190 g / cm^3
# Si number density = 22.172361 Si / 1000 Ang^3
#
#
#
# Elastic Constant Matrix: (Units=GPa)
#
#
# Indices 1 2 3 4 5 6 
#
# 1 105.6697 60.4857 30.2259 0.0410 -2.5280 -0.0120
# 2 60.4857 139.0015 35.9246 0.0448 -6.7787 -0.0188
# 3 30.2259 35.9246 77.9672 0.0327 -11.4099 -0.0208
# 4 0.0410 0.0448 0.0327 34.9040 -0.0434 -1.9222
# 5 -2.5280 -6.7787 -11.4099 -0.0434 32.6173 0.0000
# 6 -0.0120 -0.0188 -0.0208 -1.9222 0.0000 21.8829
#
#
#
# Elastic Compliance Matrix: (Units=1/GPa)
#
#
# Indices 1 2 3 4 5 6 
#
# 1 0.013149 -0.005013 -0.002942 -0.000008 -0.001052 -0.000001
# 2 -0.005013 0.010083 -0.002585 -0.000003 0.000803 0.000003
# 3 -0.002942 -0.002585 0.015857 -0.000002 0.004782 0.000011
# 4 -0.000008 -0.000003 -0.000002 0.028789 0.000036 0.002529
# 5 -0.001052 0.000803 0.004782 0.000036 0.032417 0.000008
# 6 -0.000001 0.000003 0.000011 0.002529 0.000008 0.045920
#
#
# Mechanical properties :
#
#
# Convention : Reuss Voigt Hill
#
# Bulk Modulus (GPa) = 55.52478 63.99008 59.75743
# Shear Modulus (GPa) = 28.85218 30.94765 29.89992
#
# Velocity S-wave (km/s) = 3.61122 3.74006 3.67621
# Velocity P-wave (km/s) = 6.51802 6.89737 6.71038
#
# Compressibility (1/GPa) = 0.01800998
#
# Stress axis : x y z
#
# Youngs Moduli (GPa) = 76.05102 99.18033 63.06285
#
# Poissons Ratio (x) = 0.49716 0.18552
# Poissons Ratio (y) = 0.38122 0.16301
# Poissons Ratio (z) = 0.22373 0.25638
#
# Static dielectric constant tensor:
#      x y z
#    x 3.981760 -0.000020 -0.057220 
#    y -0.000020 3.842600 0.000080 
#    z -0.057220 0.000080 3.969900 
# 
# 
# High freq. dielectric constant tensor:
#      x y z
#    x 1.874300 0.000000 -0.004800 
#    y 0.000000 1.871010 0.000010 
#    z -0.004800 0.000010 1.865160 
# 
# From -- ./inp_files/293514.got.cif
#   From: 2010.06.25/outbox.cif.g09.slc.cpg/sg15_147_cif.got.tgz:293514.got - 2010.06.28 07:06:18.
