data_PCOD8140303
_publ_section_title
;
Structure prediction by ZEFSAII (Michael W. Deem and Ramdas Pophale) SiO2 
 PCOD8140303
Probable space group: C 2/C
;
_chemical_formula_sum "Si O2"
_cell_formula_units_Z 44
_cell_length_a 7.348219
_cell_length_b 15.983671
_cell_length_c 18.510509
_cell_angle_alpha 90.000000
_cell_angle_beta 102.975881
_cell_angle_gamma 90.000000
_cell_volume 2118.571293
_symmetry_space_group_name_H-M "C 2/C"
_symmetry_group_IT_number 15
_symmetry_cell_setting 'monoclinic'
loop_
_space_group_symop_operation_xyz
x,y,z
-x,y,1/2-z
-x,-y,-z
x,-y,1/2+z
1/2+x,1/2+y,z
1/2-x,1/2+y,1/2-z
1/2-x,1/2-y,-z
1/2+x,1/2-y,1/2+z
loop_
_atom_site_type_symbol
_atom_site_label
_atom_site_fract_x
_atom_site_fract_y
_atom_site_fract_z
Si Si1 0.124468 0.099844 0.411331
Si Si2 0.816287 0.911994 0.113658
Si Si3 0.000000 0.184614 0.750000
Si Si4 0.678452 0.248435 0.817338
Si Si5 0.577183 0.307779 0.501152
Si Si6 0.092127 0.654487 0.950869
O O1 0.189738 0.159483 0.352751
O O2 0.260516 0.097180 0.493826
O O3 0.923009 0.132634 0.426316
O O4 0.121293 0.007924 0.378291
O O5 0.851762 0.873541 0.195171
O O6 0.602984 0.896307 0.070242
O O7 0.957383 0.865869 0.070892
O O8 0.126364 0.240759 0.708380
O O9 0.500000 0.241903 0.750000
O O10 0.659978 0.175898 0.876087
O O11 0.750000 0.250000 0.500000
O O12 0.414459 0.240606 0.502199
#
# Coordination Sequence:
#
# PCOD8140303 Si02
#       6
#     8   8   4   8   8   8
#     4  11  22  38  64  93 129 156 210 272 311 359
#     4  11  22  37  62  96 125 163 205 263 323 371
#     4  12  24  42  64  84 128 174 208 246 326 384
#     4  11  23  43  64  89 125 169 214 251 309 384
#     4   9  19  36  62  89 117 162 212 247 301 374
#     4  10  20  41  63  90 122 163 212 260 306 380
#
# _framework density 20.768713999999999
#
# number of rings (size 3 to 8) (size 9 to 14) (size 15 to 20)
#    0.000    1.455    1.818    5.455    1.273    0.000 
#    0.000    1.818    0.000    0.000    0.000    0.000 
#    0.000    0.000    0.000    0.000    0.000    0.000 
#
# Total GULP energy -272574.037270 kJ/mol
# GULP energy per Si atom -12389.728967 kJ/mol
# Density = 2.072144 g / cm^3
# Si number density = 20.768714 Si / 1000 Ang^3
#
#
#
# Elastic Constant Matrix: (Units=GPa)
#
#
# Indices 1 2 3 4 5 6 
#
# 1 120.9585 41.4762 44.6699 0.0000 -21.0416 0.0000
# 2 41.4762 123.8927 43.6338 0.0000 -20.1060 0.0000
# 3 44.6699 43.6338 109.0471 0.0000 -10.3328 0.0000
# 4 0.0000 0.0000 0.0000 22.9078 0.0000 0.9303
# 5 -21.0416 -20.1060 -10.3328 0.0000 42.5026 0.0000
# 6 0.0000 0.0000 0.0000 0.9303 0.0000 16.7625
#
#
#
# Elastic Compliance Matrix: (Units=1/GPa)
#
#
# Indices 1 2 3 4 5 6 
#
# 1 0.010761 -0.001839 -0.003327 0.000000 0.003649 0.000000
# 2 -0.001839 0.010285 -0.003058 0.000000 0.003212 0.000000
# 3 -0.003327 -0.003058 0.011734 0.000000 -0.000241 0.000000
# 4 0.000000 0.000000 0.000000 0.043752 0.000000 -0.002428
# 5 0.003649 0.003212 -0.000241 0.000000 0.026795 0.000000
# 6 0.000000 0.000000 0.000000 -0.002428 0.000000 0.059792
#
#
# Mechanical properties :
#
#
# Convention : Reuss Voigt Hill
#
# Bulk Modulus (GPa) = 61.22405 68.16204 64.69305
# Shear Modulus (GPa) = 27.02556 31.37582 29.20069
#
# Velocity S-wave (km/s) = 3.61122 3.89102 3.75373
# Velocity P-wave (km/s) = 6.85061 7.28543 7.07136
#
# Compressibility (1/GPa) = 0.01633345
#
# Stress axis : x y z
#
# Youngs Moduli (GPa) = 92.92744 97.22630 85.22353
#
# Poissons Ratio (x) = 0.17878 0.28351
# Poissons Ratio (y) = 0.17087 0.26061
# Poissons Ratio (z) = 0.30914 0.29731
#
# Static dielectric constant tensor:
#      x y z
#    x 4.074220 0.000000 -0.397850 
#    y 0.000000 3.745160 0.000000 
#    z -0.397850 0.000000 3.981580 
# 
# 
# High freq. dielectric constant tensor:
#      x y z
#    x 1.821160 0.000000 -0.016090 
#    y 0.000000 1.799720 0.000000 
#    z -0.016090 0.000000 1.815070 
# 
# From -- ./inp_files/188960.got.cif
#   From: 2010.06.25/outbox.cif.g09.slc.cpg/sg15_95_cif.got.tgz:188960.got - 2010.06.28 07:06:18.
