data_PCOD8140454
_publ_section_title
;
Structure prediction by ZEFSAII (Michael W. Deem and Ramdas Pophale) SiO2 
 PCOD8140454
Probable space group: C 2/C
;
_chemical_formula_sum "Si O2"
_cell_formula_units_Z 44
_cell_length_a 10.143834
_cell_length_b 14.255914
_cell_length_c 16.363669
_cell_angle_alpha 90.000000
_cell_angle_beta 123.691796
_cell_angle_gamma 90.000000
_cell_volume 1968.877656
_symmetry_space_group_name_H-M "C 2/C"
_symmetry_group_IT_number 15
_symmetry_cell_setting 'monoclinic'
loop_
_space_group_symop_operation_xyz
x,y,z
-x,y,1/2-z
-x,-y,-z
x,-y,1/2+z
1/2+x,1/2+y,z
1/2-x,1/2+y,1/2-z
1/2-x,1/2-y,-z
1/2+x,1/2-y,1/2+z
loop_
_atom_site_type_symbol
_atom_site_label
_atom_site_fract_x
_atom_site_fract_y
_atom_site_fract_z
Si Si1 0.712503 0.952949 0.656729
Si Si2 0.899515 0.737405 0.875509
Si Si3 0.000000 0.807014 0.750000
Si Si4 0.627317 0.626582 0.725000
Si Si5 0.880498 0.411580 0.510116
Si Si6 0.435932 0.600814 0.503809
O O1 0.842171 0.870810 0.700311
O O2 0.535498 0.919882 0.621189
O O3 0.759911 0.034775 0.736842
O O4 0.683781 0.993537 0.554958
O O5 0.009899 0.737241 0.832039
O O6 0.720230 0.720740 0.781948
O O7 0.932473 0.661711 0.957042
O O8 0.931389 0.840946 0.919597
O O9 0.500000 0.602032 0.750000
O O10 0.554653 0.643909 0.611374
O O11 0.739198 0.383487 0.520783
O O12 0.500000 0.500000 0.500000
#
# Coordination Sequence:
#
# PCOD8140454 Si02
#       6
#     8   8   4   8   8   8
#     4  10  20  41  69  92 138 187 226 296 342 424
#     4  11  26  41  67 103 139 184 234 297 347 429
#     4  12  24  44  64 102 138 192 240 284 370 400
#     4  11  22  45  70  98 142 183 231 292 354 423
#     4  10  22  42  68 102 136 179 238 292 355 416
#     4  12  24  46  73 105 137 191 237 290 365 433
#
# _framework density 22.347757999999999
#
# number of rings (size 3 to 8) (size 9 to 14) (size 15 to 20)
#    0.000    1.091    4.545    2.727    2.545    0.727 
#    9.818    1.818    0.000    0.000    0.000    0.000 
#    0.000    0.000    0.000    0.000    0.000    0.000 
#
# Total GULP energy -272577.345250 kJ/mol
# GULP energy per Si atom -12389.879330 kJ/mol
# Density = 2.229689 g / cm^3
# Si number density = 22.347758 Si / 1000 Ang^3
#
#
#
# Elastic Constant Matrix: (Units=GPa)
#
#
# Indices 1 2 3 4 5 6 
#
# 1 102.5458 45.1547 69.2834 0.0000 -1.6722 0.0000
# 2 45.1547 98.4676 45.8151 0.0000 -2.7297 0.0000
# 3 69.2834 45.8151 127.9127 0.0000 15.4553 0.0000
# 4 0.0000 0.0000 0.0000 37.4759 0.0000 -8.3509
# 5 -1.6722 -2.7297 15.4553 0.0000 46.3004 0.0000
# 6 0.0000 0.0000 0.0000 -8.3509 0.0000 20.7955
#
#
#
# Elastic Compliance Matrix: (Units=1/GPa)
#
#
# Indices 1 2 3 4 5 6 
#
# 1 0.017091 -0.003921 -0.008232 0.000000 0.003134 0.000000
# 2 -0.003921 0.013319 -0.002839 0.000000 0.001591 0.000000
# 3 -0.008232 -0.002839 0.013911 0.000000 -0.005108 0.000000
# 4 0.000000 0.000000 0.000000 0.029306 0.000000 0.011769
# 5 0.003134 0.001591 -0.005108 0.000000 0.023510 0.000000
# 6 0.000000 0.000000 0.000000 0.011769 0.000000 0.052813
#
#
# Mechanical properties :
#
#
# Convention : Reuss Voigt Hill
#
# Bulk Modulus (GPa) = 69.74742 72.15915 70.95328
# Shear Modulus (GPa) = 27.06933 32.15920 29.61427
#
# Velocity S-wave (km/s) = 3.48412 3.79758 3.64422
# Velocity P-wave (km/s) = 6.88935 7.18249 7.03745
#
# Compressibility (1/GPa) = 0.01433745
#
# Stress axis : x y z
#
# Youngs Moduli (GPa) = 58.51139 75.08312 71.88812
#
# Poissons Ratio (x) = 0.29436 0.59175
# Poissons Ratio (y) = 0.22939 0.20410
# Poissons Ratio (z) = 0.48164 0.21317
#
# Static dielectric constant tensor:
#      x y z
#    x 4.146790 0.000000 0.224980 
#    y 0.000000 3.990750 0.000000 
#    z 0.224980 0.000000 4.452130 
# 
# 
# High freq. dielectric constant tensor:
#      x y z
#    x 1.867200 0.000000 0.010470 
#    y 0.000000 1.873730 0.000000 
#    z 0.010470 0.000000 1.894610 
# 
# From -- ./inp_files/189334.got.cif
#   From: 2010.06.25/outbox.cif.g09.slc.cpg/sg15_95_cif.got.tgz:189334.got - 2010.06.28 07:06:18.
