data_PCOD8140093
_publ_section_title
;
Structure prediction by ZEFSAII (Michael W. Deem and Ramdas Pophale) SiO2 
 PCOD8140093
Probable space group: C 2/C
;
_chemical_formula_sum "Si O2"
_cell_formula_units_Z 48
_cell_length_a 14.263049
_cell_length_b 27.851884
_cell_length_c 8.996334
_cell_angle_alpha 90.000000
_cell_angle_beta 137.206709
_cell_angle_gamma 90.000000
_cell_volume 2427.893008
_symmetry_space_group_name_H-M "C 2/C"
_symmetry_group_IT_number 15
_symmetry_cell_setting 'monoclinic'
loop_
_space_group_symop_operation_xyz
x,y,z
-x,y,1/2-z
-x,-y,-z
x,-y,1/2+z
1/2+x,1/2+y,z
1/2-x,1/2+y,1/2-z
1/2-x,1/2-y,-z
1/2+x,1/2-y,1/2+z
loop_
_atom_site_type_symbol
_atom_site_label
_atom_site_fract_x
_atom_site_fract_y
_atom_site_fract_z
Si Si1 0.609287 0.746192 0.248587
Si Si2 0.376427 0.899625 0.207483
Si Si3 0.231262 0.845522 0.792488
Si Si4 0.057335 0.069966 0.965669
Si Si5 0.497623 0.170027 0.425299
Si Si6 0.873879 0.035852 0.997548
O O1 0.500000 0.751077 0.250000
O O2 0.750000 0.750000 0.500000
O O3 0.610949 0.693957 0.171930
O O4 0.582904 0.784576 0.087450
O O5 0.500000 0.921241 0.250000
O O6 0.433533 0.878648 0.429602
O O7 0.269473 0.942243 0.113489
O O8 0.309729 0.854813 0.039998
O O9 0.161654 0.895336 0.668654
O O10 0.338702 0.827285 0.793162
O O11 0.000000 0.094639 0.750000
O O12 0.916639 0.057834 0.889584
O O13 0.143485 0.021448 0.032136
O O14 0.500000 0.169481 0.250000
O O15 0.000000 0.050442 0.250000
#
# Coordination Sequence:
#
# PCOD8140093 Si02
#       6
#     8   8   8   8   8   8
#     4  12  23  44  69  94 124 169 216 256 307 387
#     4  10  21  41  66  90 124 174 216 249 309 387
#     4  11  23  42  65  92 128 170 216 251 317 381
#     4  10  23  38  62  96 132 159 213 268 315 367
#     4  11  25  43  62  95 134 162 204 272 318 367
#     4  10  20  40  66  93 124 169 213 263 313 371
#
# _framework density 19.770229
#
# number of rings (size 3 to 8) (size 9 to 14) (size 15 to 20)
#    0.000    1.333    5.000    0.500    4.667    1.333 
#    0.000    4.167    0.000    0.000    0.000    0.000 
#    0.000    0.000    0.000    0.000    0.000    0.000 
#
# Total GULP energy -297578.866756 kJ/mol
# GULP energy per Si atom -12399.119448 kJ/mol
# Density = 1.972523 g / cm^3
# Si number density = 19.770229 Si / 1000 Ang^3
#
#
#
# Elastic Constant Matrix: (Units=GPa)
#
#
# Indices 1 2 3 4 5 6 
#
# 1 116.7289 53.3354 59.5978 0.0000 -7.3700 0.0000
# 2 53.3354 96.6857 47.2224 0.0000 5.0614 0.0000
# 3 59.5978 47.2224 107.7257 0.0000 -12.0366 0.0000
# 4 0.0000 0.0000 0.0000 25.6051 0.0000 -1.5928
# 5 -7.3700 5.0614 -12.0366 0.0000 39.4526 0.0000
# 6 0.0000 0.0000 0.0000 -1.5928 0.0000 30.2068
#
#
#
# Elastic Compliance Matrix: (Units=1/GPa)
#
#
# Indices 1 2 3 4 5 6 
#
# 1 0.013609 -0.005096 -0.005112 0.000000 0.001636 0.000000
# 2 -0.005096 0.015573 -0.004490 0.000000 -0.004320 0.000000
# 3 -0.005112 -0.004490 0.014532 0.000000 0.004055 0.000000
# 4 0.000000 0.000000 0.000000 0.039183 0.000000 0.002066
# 5 0.001636 -0.004320 0.004055 0.000000 0.027444 0.000000
# 6 0.000000 0.000000 0.000000 0.002066 0.000000 0.033214
#
#
# Mechanical properties :
#
#
# Convention : Reuss Voigt Hill
#
# Bulk Modulus (GPa) = 69.84236 71.27237 70.55737
# Shear Modulus (GPa) = 28.13359 29.78522 28.95940
#
# Velocity S-wave (km/s) = 3.77640 3.88567 3.83142
# Velocity P-wave (km/s) = 7.37690 7.50065 7.43903
#
# Compressibility (1/GPa) = 0.01431796
#
# Stress axis : x y z
#
# Youngs Moduli (GPa) = 73.48272 64.21407 68.81210
#
# Poissons Ratio (x) = 0.32722 0.35178
# Poissons Ratio (y) = 0.37446 0.30896
# Poissons Ratio (z) = 0.37566 0.28832
#
# Static dielectric constant tensor:
#      x y z
#    x 3.679310 0.000000 -0.124250 
#    y 0.000000 3.656220 0.000000 
#    z -0.124250 0.000000 3.564990 
# 
# 
# High freq. dielectric constant tensor:
#      x y z
#    x 1.774680 0.000000 -0.004770 
#    y 0.000000 1.767690 0.000000 
#    z -0.004770 0.000000 1.768110 
# 
# From -- ./inp_files/43944.got.cif
#   From: 2010.06.25/outbox.cif.g09.slc.cpg/sg15_22_cif.got.tgz:43944.got - 2010.06.28 07:06:18.
