data_PCOD8140885
_publ_section_title
;
Structure prediction by ZEFSAII (Michael W. Deem and Ramdas Pophale) SiO2 
 PCOD8140885
Probable space group: C 2/C
;
_chemical_formula_sum "Si O2"
_cell_formula_units_Z 44
_cell_length_a 6.553174
_cell_length_b 15.373982
_cell_length_c 24.368346
_cell_angle_alpha 90.000000
_cell_angle_beta 126.590445
_cell_angle_gamma 90.000000
_cell_volume 1971.218272
_symmetry_space_group_name_H-M "C 2/C"
_symmetry_group_IT_number 15
_symmetry_cell_setting 'monoclinic'
loop_
_space_group_symop_operation_xyz
x,y,z
-x,y,1/2-z
-x,-y,-z
x,-y,1/2+z
1/2+x,1/2+y,z
1/2-x,1/2+y,1/2-z
1/2-x,1/2-y,-z
1/2+x,1/2-y,1/2+z
loop_
_atom_site_type_symbol
_atom_site_label
_atom_site_fract_x
_atom_site_fract_y
_atom_site_fract_z
Si Si1 0.285250 0.888260 0.389255
Si Si2 0.231766 0.579479 0.827128
Si Si3 0.423440 0.761152 0.133296
Si Si4 0.067931 0.330854 0.972010
Si Si5 0.503111 0.949502 0.638063
Si Si6 0.000000 0.849933 0.750000
O O1 0.353647 0.794741 0.372105
O O2 0.365291 0.890687 0.465629
O O3 0.990180 0.912445 0.334297
O O4 0.436892 0.963076 0.384232
O O5 0.240194 0.655874 0.873464
O O6 0.000000 0.599180 0.750000
O O7 0.199596 0.482337 0.848386
O O8 0.544612 0.710072 0.203904
O O9 0.227475 0.697478 0.070510
O O10 0.121326 0.381627 0.923760
O O11 0.250000 0.250000 0.000000
O O12 0.751461 0.909817 0.706477
#
# Coordination Sequence:
#
# PCOD8140885 Si02
#       6
#     8   8   8   8   8   4
#     4  11  23  43  67  94 130 179 213 271 337 400
#     4  11  22  42  64  97 129 171 218 271 336 401
#     4  10  22  41  68  95 131 170 221 276 330 396
#     4  11  22  44  65  96 134 170 224 274 327 394
#     4  10  24  42  65  94 131 172 216 275 329 402
#     4  10  20  46  64  98 136 166 228 282 332 400
#
# _framework density 22.321221000000001
#
# number of rings (size 3 to 8) (size 9 to 14) (size 15 to 20)
#    0.000    1.455    2.727    2.182    0.000    2.909 
#   13.091    1.818    0.000    0.000    0.000    0.000 
#    0.000    0.000    0.000    0.000    0.000    0.000 
#
# Total GULP energy -272803.752834 kJ/mol
# GULP energy per Si atom -12400.170583 kJ/mol
# Density = 2.227042 g / cm^3
# Si number density = 22.321221 Si / 1000 Ang^3
#
#
#
# Elastic Constant Matrix: (Units=GPa)
#
#
# Indices 1 2 3 4 5 6 
#
# 1 99.7277 30.1124 32.6152 0.0000 12.8863 0.0001
# 2 30.1124 95.2195 38.2855 0.0000 4.0627 0.0000
# 3 32.6152 38.2855 125.8100 0.0003 2.4257 0.0007
# 4 0.0000 0.0000 0.0003 30.8335 0.0002 -37.4374
# 5 12.8863 4.0627 2.4257 0.0002 23.5387 0.0005
# 6 0.0001 0.0000 0.0007 -37.4374 0.0005 -26.3862
#
#
#
# Elastic Compliance Matrix: (Units=1/GPa)
#
#
# Indices 1 2 3 4 5 6 
#
# 1 0.012379 -0.002749 -0.002256 0.000000 -0.006070 0.000000
# 2 -0.002749 0.012644 -0.003128 0.000000 -0.000355 0.000000
# 3 -0.002256 -0.003128 0.009470 0.000000 0.000799 0.000000
# 4 0.000000 0.000000 0.000000 0.011912 0.000000 -0.016901
# 5 -0.006070 -0.000355 0.000799 0.000000 0.045785 0.000000
# 6 0.000000 0.000000 0.000000 -0.016901 0.000000 -0.013919
#
#
# Mechanical properties :
#
#
# Convention : Reuss Voigt Hill
#
# Bulk Modulus (GPa) = 54.86160 58.08704 56.47432
# Shear Modulus (GPa) = 49.69527 20.24681 34.97104
#
# Velocity S-wave (km/s) = 4.72356 3.01502 3.96247
# Velocity P-wave (km/s) = 7.37434 6.18063 6.80372
#
# Compressibility (1/GPa) = 0.01822769
#
# Stress axis : x y z
#
# Youngs Moduli (GPa) = 80.77926 79.08666 105.59826
#
# Poissons Ratio (x) = 0.21740 0.23820
# Poissons Ratio (y) = 0.22206 0.33035
# Poissons Ratio (z) = 0.18221 0.24741
#
# Static dielectric constant tensor:
#      x y z
#    x 4.705460 0.000000 -0.711960 
#    y 0.000000 4.299530 0.000000 
#    z -0.711960 0.000000 4.560760 
# 
# 
# High freq. dielectric constant tensor:
#      x y z
#    x 1.866930 0.000000 -0.008240 
#    y 0.000000 1.889310 0.000000 
#    z -0.008240 0.000000 1.884670 
# 
# From -- ./inp_files/227067.got.cif
#   From: 2010.06.25/outbox.cif.g09.slc.cpg/sg15_114_cif.got.tgz:227067.got - 2010.06.28 07:06:18.
