data_PCOD8140113
_publ_section_title
;
Structure prediction by ZEFSAII (Michael W. Deem and Ramdas Pophale) SiO2 
 PCOD8140113
Probable space group: C 2/C
;
_chemical_formula_sum "Si O2"
_cell_formula_units_Z 56
_cell_length_a 28.007069
_cell_length_b 6.289465
_cell_length_c 16.739468
_cell_angle_alpha 90.000000
_cell_angle_beta 117.676091
_cell_angle_gamma 90.000000
_cell_volume 2611.286399
_symmetry_space_group_name_H-M "C 2/C"
_symmetry_group_IT_number 15
_symmetry_cell_setting 'monoclinic'
loop_
_space_group_symop_operation_xyz
x,y,z
-x,y,1/2-z
-x,-y,-z
x,-y,1/2+z
1/2+x,1/2+y,z
1/2-x,1/2+y,1/2-z
1/2-x,1/2-y,-z
1/2+x,1/2-y,1/2+z
loop_
_atom_site_type_symbol
_atom_site_label
_atom_site_fract_x
_atom_site_fract_y
_atom_site_fract_z
Si Si1 0.808897 0.666701 0.776931
Si Si2 0.963382 0.688315 0.000930
Si Si3 0.804720 0.146710 0.011270
Si Si4 0.743447 0.844305 0.867124
Si Si5 0.560131 0.569476 0.621641
Si Si6 0.875683 0.381142 0.936251
Si Si7 0.348796 0.520006 0.697267
O O1 0.770670 0.701693 0.821907
O O2 0.774099 0.575998 0.677274
O O3 0.849579 0.481986 0.836072
O O4 0.833630 0.887360 0.765533
O O5 0.999397 0.836889 0.087576
O O6 0.911915 0.572992 0.003405
O O7 0.000000 0.500000 0.000000
O O8 0.943537 0.824016 0.908596
O O9 0.848406 0.124154 0.117096
O O10 0.750000 0.250000 0.000000
O O11 0.832124 0.295652 0.965628
O O12 0.788032 0.908557 0.968213
O O13 0.691637 0.712240 0.855727
O O14 0.588632 0.687679 0.568941
O O15 0.591325 0.598141 0.730878
#
# Coordination Sequence:
#
# PCOD8140113 Si02
#       7
#     8   8   8   8   8   8   8
#     4  12  21  37  64  91 120 167 231 269 312 377
#     4   9  20  38  71  98 121 151 218 291 333 382
#     4  12  26  42  57  96 143 183 216 255 336 403
#     4  12  23  40  59  91 131 171 224 270 308 387
#     4  10  20  40  67 101 118 163 228 277 337 386
#     4  11  22  40  65  97 128 169 218 278 328 394
#     4  12  23  38  62  92 130 175 214 272 325 395
#
# _framework density 21.445367999999998
#
# number of rings (size 3 to 8) (size 9 to 14) (size 15 to 20)
#    0.000    0.857    5.714    3.000    0.000    0.000 
#    0.000    0.000    0.000    9.429    0.000    0.000 
#    0.000    0.000    0.000    0.000    0.000    0.000 
#
# Total GULP energy -346982.643860 kJ/mol
# GULP energy per Si atom -12392.237281 kJ/mol
# Density = 2.139656 g / cm^3
# Si number density = 21.445368 Si / 1000 Ang^3
#
#
#
# Elastic Constant Matrix: (Units=GPa)
#
#
# Indices 1 2 3 4 5 6 
#
# 1 66.7734 32.7197 40.0937 0.0000 10.8169 0.0000
# 2 32.7197 103.1686 38.2851 0.0002 8.5265 0.0002
# 3 40.0937 38.2851 135.9505 0.0000 17.3714 0.0000
# 4 0.0000 0.0002 0.0000 37.6144 0.0000 15.6362
# 5 10.8169 8.5265 17.3714 0.0000 26.6621 0.0000
# 6 0.0000 0.0002 0.0000 15.6362 0.0000 37.1559
#
#
#
# Elastic Compliance Matrix: (Units=1/GPa)
#
#
# Indices 1 2 3 4 5 6 
#
# 1 0.020404 -0.004572 -0.004209 0.000000 -0.004073 0.000000
# 2 -0.004572 0.011912 -0.001916 0.000000 -0.000706 0.000000
# 3 -0.004209 -0.001916 0.009643 0.000000 -0.003962 0.000000
# 4 0.000000 0.000000 0.000000 0.032222 0.000000 -0.013560
# 5 -0.004073 -0.000706 -0.003962 0.000000 0.041966 0.000000
# 6 0.000000 0.000000 0.000000 -0.013560 0.000000 0.032620
#
#
# Mechanical properties :
#
#
# Convention : Reuss Voigt Hill
#
# Bulk Modulus (GPa) = 48.62916 58.67663 53.65289
# Shear Modulus (GPa) = 28.24576 33.27272 30.75924
#
# Velocity S-wave (km/s) = 3.63313 3.94320 3.79133
# Velocity P-wave (km/s) = 6.35016 6.93917 6.65119
#
# Compressibility (1/GPa) = 0.02056379
#
# Stress axis : x y z
#
# Youngs Moduli (GPa) = 49.01045 83.94646 103.70387
#
# Poissons Ratio (x) = 0.38383 0.43652
# Poissons Ratio (y) = 0.22409 0.19869
# Poissons Ratio (z) = 0.20630 0.16084
#
# Static dielectric constant tensor:
#      x y z
#    x 3.843230 0.000000 0.499820 
#    y 0.000000 4.151650 0.000000 
#    z 0.499820 0.000000 4.186110 
# 
# 
# High freq. dielectric constant tensor:
#      x y z
#    x 1.808820 0.000000 0.032710 
#    y 0.000000 1.860520 0.000000 
#    z 0.032710 0.000000 1.837650 
# 
# From -- ./inp_files/223934.got.cif
#   From: 2010.06.25/outbox.cif.g09.slc.cpg/sg15_112_cif.got.tgz:223934.got - 2010.06.28 07:06:18.
