data_PCOD8140577
_publ_section_title
;
Structure prediction by ZEFSAII (Michael W. Deem and Ramdas Pophale) SiO2 
 PCOD8140577
Probable space group: C 2/C
;
_chemical_formula_sum "Si O2"
_cell_formula_units_Z 44
_cell_length_a 23.898040
_cell_length_b 15.089395
_cell_length_c 5.601953
_cell_angle_alpha 90.000000
_cell_angle_beta 107.783405
_cell_angle_gamma 90.000000
_cell_volume 1923.578482
_symmetry_space_group_name_H-M "C 2/C"
_symmetry_group_IT_number 15
_symmetry_cell_setting 'monoclinic'
loop_
_space_group_symop_operation_xyz
x,y,z
-x,y,1/2-z
-x,-y,-z
x,-y,1/2+z
1/2+x,1/2+y,z
1/2-x,1/2+y,1/2-z
1/2-x,1/2-y,-z
1/2+x,1/2-y,1/2+z
loop_
_atom_site_type_symbol
_atom_site_label
_atom_site_fract_x
_atom_site_fract_y
_atom_site_fract_z
Si Si1 0.804272 0.022635 0.231933
Si Si2 0.000000 0.809234 0.750000
Si Si3 0.418912 0.770398 0.508270
Si Si4 0.185559 0.212448 0.393268
Si Si5 0.892138 0.871674 0.343513
Si Si6 0.932601 0.462599 0.673522
O O1 0.815367 0.126546 0.282214
O O2 0.770335 0.989894 0.429499
O O3 0.866518 0.970546 0.265820
O O4 0.976778 0.741119 0.921268
O O5 0.946769 0.873427 0.599562
O O6 0.359132 0.783932 0.276912
O O7 0.415260 0.677708 0.641934
O O8 0.425813 0.856383 0.682349
O O9 0.250000 0.250000 0.500000
O O10 0.162467 0.185133 0.623571
O O11 0.904042 0.497685 0.382800
O O12 0.000000 0.492876 0.750000
#
# Coordination Sequence:
#
# PCOD8140577 Si02
#       6
#     8   4   8   8   8   8
#     4  10  20  42  65  95 132 174 219 271 334 396
#     4  10  22  36  66 102 132 178 222 268 332 418
#     4  11  22  41  65  95 135 175 227 273 341 401
#     4  10  23  42  67  95 127 178 225 280 333 395
#     4  10  21  39  68  96 136 179 219 273 337 407
#     4  10  23  38  62  92 130 174 219 275 335 396
#
# _framework density 22.874036
#
# number of rings (size 3 to 8) (size 9 to 14) (size 15 to 20)
#    0.000    1.818    1.818    1.636    8.909    0.727 
#    0.000   11.818    0.000    0.000    0.000    0.000 
#    0.000    0.000    0.000    0.000    0.000    0.000 
#
# Total GULP energy -272561.973568 kJ/mol
# GULP energy per Si atom -12389.180617 kJ/mol
# Density = 2.282197 g / cm^3
# Si number density = 22.874036 Si / 1000 Ang^3
#
#
#
# Elastic Constant Matrix: (Units=GPa)
#
#
# Indices 1 2 3 4 5 6 
#
# 1 102.7821 25.8072 23.4126 0.0000 9.0247 0.0000
# 2 25.8072 106.0160 27.4955 0.0000 12.3056 0.0000
# 3 23.4126 27.4955 120.9491 0.0000 -22.5176 0.0000
# 4 0.0000 0.0000 0.0000 39.4717 0.0000 0.8608
# 5 9.0247 12.3056 -22.5176 0.0000 23.5400 0.0000
# 6 0.0000 0.0000 0.0000 0.8608 0.0000 26.4206
#
#
#
# Elastic Compliance Matrix: (Units=1/GPa)
#
#
# Indices 1 2 3 4 5 6 
#
# 1 0.011345 -0.001138 -0.003208 0.000000 -0.006823 0.000000
# 2 -0.001138 0.012009 -0.004377 0.000000 -0.010028 0.000000
# 3 -0.003208 -0.004377 0.012822 0.000000 0.015783 0.000000
# 4 0.000000 0.000000 0.000000 0.025353 0.000000 -0.000826
# 5 -0.006823 -0.010028 0.015783 0.000000 0.065436 0.000000
# 6 0.000000 0.000000 0.000000 -0.000826 0.000000 0.037876
#
#
# Mechanical properties :
#
#
# Convention : Reuss Voigt Hill
#
# Bulk Modulus (GPa) = 53.38615 53.68640 53.53628
# Shear Modulus (GPa) = 26.52125 34.75525 30.63825
#
# Velocity S-wave (km/s) = 3.40876 3.90220 3.66380
# Velocity P-wave (km/s) = 6.23560 6.61999 6.43067
#
# Compressibility (1/GPa) = 0.01873145
#
# Stress axis : x y z
#
# Youngs Moduli (GPa) = 88.14652 83.27414 77.98994
#
# Poissons Ratio (x) = 0.09475 0.25016
# Poissons Ratio (y) = 0.10029 0.34133
# Poissons Ratio (z) = 0.28274 0.36446
#
# Static dielectric constant tensor:
#      x y z
#    x 3.723870 0.000000 -0.101790 
#    y 0.000000 3.898780 0.000000 
#    z -0.101790 0.000000 4.638470 
# 
# 
# High freq. dielectric constant tensor:
#      x y z
#    x 1.856860 0.000000 -0.009740 
#    y 0.000000 1.891090 0.000000 
#    z -0.009740 0.000000 1.925340 
# 
# From -- ./inp_files/15137.got.cif
#   From: 2010.06.25/outbox.cif.g09.slc.cpg/sg15_8_cif.got.tgz:15137.got - 2010.06.28 07:06:18.
