data_PCOD8140148
_publ_section_title
;
Structure prediction by ZEFSAII (Michael W. Deem and Ramdas Pophale) SiO2 
 PCOD8140148
Probable space group: C 2/C
;
_chemical_formula_sum "Si O2"
_cell_formula_units_Z 64
_cell_length_a 29.451607
_cell_length_b 13.736457
_cell_length_c 9.254643
_cell_angle_alpha 90.000000
_cell_angle_beta 50.864800
_cell_angle_gamma 90.000000
_cell_volume 2904.117091
_symmetry_space_group_name_H-M "C 2/C"
_symmetry_group_IT_number 15
_symmetry_cell_setting 'monoclinic'
loop_
_space_group_symop_operation_xyz
x,y,z
-x,y,1/2-z
-x,-y,-z
x,-y,1/2+z
1/2+x,1/2+y,z
1/2-x,1/2+y,1/2-z
1/2-x,1/2-y,-z
1/2+x,1/2-y,1/2+z
loop_
_atom_site_type_symbol
_atom_site_label
_atom_site_fract_x
_atom_site_fract_y
_atom_site_fract_z
Si Si1 0.119509 0.608756 0.765167
Si Si2 0.365117 0.443477 0.224124
Si Si3 0.547453 0.607031 0.533388
Si Si4 0.845181 0.766499 0.601445
Si Si5 0.838968 0.447086 0.624718
Si Si6 0.291571 0.544885 0.149351
Si Si7 0.380585 0.778327 0.726480
Si Si8 0.492431 0.229858 0.593257
O O1 0.159614 0.695100 0.751790
O O2 0.116086 0.523736 0.892939
O O3 0.150459 0.560369 0.566605
O O4 0.056216 0.649386 0.848712
O O5 0.310109 0.468780 0.233676
O O6 0.342870 0.462675 0.429353
O O7 0.380575 0.331594 0.167598
O O8 0.423095 0.507858 0.082871
O O9 0.500000 0.580285 0.750000
O O10 0.594258 0.674653 0.518057
O O11 0.521455 0.664753 0.447940
O O12 0.791592 0.843518 0.711580
O O13 0.847984 0.706803 0.445312
O O14 0.772190 0.482689 0.782186
O O15 0.845555 0.341269 0.680898
O O16 0.448166 0.812175 0.596871
O O17 0.500000 0.241110 0.750000
#
# Coordination Sequence:
#
# PCOD8140148 Si02
#       8
#     8   8   8   8   8   8   8   8
#     4  11  25  43  67  95 126 168 227 274 332 388
#     4  10  24  40  65 101 134 172 216 267 330 396
#     4  10  20  40  67  98 135 177 207 258 333 403
#     4   9  21  42  63  95 131 167 212 268 329 392
#     4  12  25  43  67  93 124 177 228 273 325 385
#     4  10  23  43  64  95 135 171 218 271 327 386
#     4  11  23  41  64  95 131 174 219 265 327 395
#     4  11  23  42  65  99 137 169 216 279 328 392
#
# _framework density 22.037680000000002
#
# number of rings (size 3 to 8) (size 9 to 14) (size 15 to 20)
#    0.000    1.500    2.500    1.500    1.750    6.000 
#    0.000    0.000    0.000    0.000    0.000    0.000 
#    0.000    0.000    0.000    0.000    0.000    0.000 
#
# Total GULP energy -396839.174375 kJ/mol
# GULP energy per Si atom -12401.224199 kJ/mol
# Density = 2.198752 g / cm^3
# Si number density = 22.037680 Si / 1000 Ang^3
#
#
#
# Elastic Constant Matrix: (Units=GPa)
#
#
# Indices 1 2 3 4 5 6 
#
# 1 119.9045 52.5247 40.9384 0.0000 8.6622 0.0000
# 2 52.5247 102.2253 50.3761 0.0000 14.7178 0.0000
# 3 40.9384 50.3761 86.2639 0.0000 7.8060 0.0000
# 4 0.0000 0.0000 0.0000 29.1599 0.0000 7.6751
# 5 8.6622 14.7178 7.8060 0.0000 36.4342 0.0000
# 6 0.0000 0.0000 0.0000 7.6751 0.0000 40.8991
#
#
#
# Elastic Compliance Matrix: (Units=1/GPa)
#
#
# Indices 1 2 3 4 5 6 
#
# 1 0.011211 -0.004363 -0.002744 0.000000 -0.000315 0.000000
# 2 -0.004363 0.016000 -0.006916 0.000000 -0.003944 0.000000
# 3 -0.002744 -0.006916 0.016950 0.000000 -0.000185 0.000000
# 4 0.000000 0.000000 0.000000 0.036076 0.000000 -0.006770
# 5 -0.000315 -0.003944 -0.000185 0.000000 0.029155 0.000000
# 6 0.000000 0.000000 0.000000 -0.006770 0.000000 0.025721
#
#
# Mechanical properties :
#
#
# Convention : Reuss Voigt Hill
#
# Bulk Modulus (GPa) = 62.05398 66.23022 64.14210
# Shear Modulus (GPa) = 29.66828 32.26895 30.96862
#
# Velocity S-wave (km/s) = 3.67311 3.83072 3.75274
# Velocity P-wave (km/s) = 6.79767 7.04871 6.92433
#
# Compressibility (1/GPa) = 0.01611500
#
# Stress axis : x y z
#
# Youngs Moduli (GPa) = 89.20074 62.49966 58.99557
#
# Poissons Ratio (x) = 0.27266 0.16189
# Poissons Ratio (y) = 0.38914 0.40804
# Poissons Ratio (z) = 0.24478 0.43227
#
# Static dielectric constant tensor:
#      x y z
#    x 4.102510 0.000000 0.128900 
#    y 0.000000 4.178610 0.000000 
#    z 0.128900 0.000000 3.820980 
# 
# 
# High freq. dielectric constant tensor:
#      x y z
#    x 1.879750 0.000000 0.013000 
#    y 0.000000 1.865380 0.000000 
#    z 0.013000 0.000000 1.858600 
# 
# From -- ./inp_files/70132.got.cif
#   From: 2010.06.25/outbox.cif.g09.slc.cpg/sg15_36_cif.got.tgz:70132.got - 2010.06.28 07:06:18.
