data_PCOD8140478
_publ_section_title
;
Structure prediction by ZEFSAII (Michael W. Deem and Ramdas Pophale) SiO2 
 PCOD8140478
Probable space group: C 2/C
;
_chemical_formula_sum "Si O2"
_cell_formula_units_Z 48
_cell_length_a 25.045587
_cell_length_b 11.347718
_cell_length_c 14.868089
_cell_angle_alpha 90.000000
_cell_angle_beta 150.728233
_cell_angle_gamma 90.000000
_cell_volume 2066.149421
_symmetry_space_group_name_H-M "C 2/C"
_symmetry_group_IT_number 15
_symmetry_cell_setting 'monoclinic'
loop_
_space_group_symop_operation_xyz
x,y,z
-x,y,1/2-z
-x,-y,-z
x,-y,1/2+z
1/2+x,1/2+y,z
1/2-x,1/2+y,1/2-z
1/2-x,1/2-y,-z
1/2+x,1/2-y,1/2+z
loop_
_atom_site_type_symbol
_atom_site_label
_atom_site_fract_x
_atom_site_fract_y
_atom_site_fract_z
Si Si1 0.233501 0.479042 0.741964
Si Si2 0.494509 0.926997 0.645103
Si Si3 0.376486 0.479119 0.289653
Si Si4 0.083974 0.323228 0.253998
Si Si5 0.313670 0.387308 0.519496
Si Si6 0.392799 0.214875 0.344557
O O1 0.127205 0.561548 0.572522
O O2 0.294693 0.453922 0.738111
O O3 0.201111 0.354819 0.739309
O O4 0.320145 0.546508 0.933536
O O5 0.500000 0.861165 0.750000
O O6 0.572730 0.860800 0.691219
O O7 0.542498 0.056424 0.735561
O O8 0.500000 0.500000 0.500000
O O9 0.354142 0.526523 0.157726
O O10 0.346355 0.340544 0.245770
O O11 0.190196 0.346658 0.350907
O O12 0.110035 0.229300 0.371621
O O13 0.996955 0.263679 0.060074
#
# Coordination Sequence:
#
# PCOD8140478 Si02
#       6
#     8   8   8   8   8   8
#     4  11  25  45  72 103 137 188 247 285 351 426
#     4  11  22  44  74 108 135 187 240 288 354 427
#     4  12  28  47  66 104 148 184 233 296 363 417
#     4  10  20  41  73  97 137 177 231 292 333 420
#     4  11  22  43  71 103 136 181 237 287 351 412
#     4  11  23  48  72 102 148 181 229 299 356 428
#
# _framework density 23.231618999999998
#
# number of rings (size 3 to 8) (size 9 to 14) (size 15 to 20)
#    0.000    1.000    5.000    2.000    0.000    8.000 
#    3.000    0.000    0.000    0.000    0.000    0.000 
#    0.000    0.000    0.000    0.000    0.000    0.000 
#
# Total GULP energy -297684.943310 kJ/mol
# GULP energy per Si atom -12403.539305 kJ/mol
# Density = 2.317874 g / cm^3
# Si number density = 23.231619 Si / 1000 Ang^3
#
#
#
# Elastic Constant Matrix: (Units=GPa)
#
#
# Indices 1 2 3 4 5 6 
#
# 1 93.8207 27.1262 26.5157 0.0000 1.0049 0.0000
# 2 27.1262 102.3914 40.2901 0.0000 1.1793 0.0000
# 3 26.5157 40.2901 93.4228 0.0000 -8.5070 0.0000
# 4 0.0000 0.0000 0.0000 19.0161 0.0000 5.5064
# 5 1.0049 1.1793 -8.5070 0.0000 36.1762 0.0000
# 6 0.0000 0.0000 0.0000 5.5064 0.0000 5.1983
#
#
#
# Elastic Compliance Matrix: (Units=1/GPa)
#
#
# Indices 1 2 3 4 5 6 
#
# 1 0.012017 -0.002169 -0.002554 0.000000 -0.000864 0.000000
# 2 -0.002169 0.012246 -0.004800 0.000000 -0.001468 0.000000
# 3 -0.002554 -0.004800 0.013815 0.000000 0.003476 0.000000
# 4 0.000000 0.000000 0.000000 0.075854 0.000000 -0.080350
# 5 -0.000864 -0.001468 0.003476 0.000000 0.028532 0.000000
# 6 0.000000 0.000000 0.000000 -0.080350 0.000000 0.277482
#
#
# Mechanical properties :
#
#
# Convention : Reuss Voigt Hill
#
# Bulk Modulus (GPa) = 52.53751 53.05543 52.79647
# Shear Modulus (GPa) = 11.22749 25.12498 18.17624
#
# Velocity S-wave (km/s) = 2.20076 3.29218 2.80016
# Velocity P-wave (km/s) = 5.39644 6.11052 5.76455
#
# Compressibility (1/GPa) = 0.01903402
#
# Stress axis : x y z
#
# Youngs Moduli (GPa) = 83.21741 81.65603 72.38305
#
# Poissons Ratio (x) = 0.17708 0.18487
# Poissons Ratio (y) = 0.18047 0.34741
# Poissons Ratio (z) = 0.21254 0.39192
#
# Static dielectric constant tensor:
#      x y z
#    x 4.011160 0.000000 -0.007190 
#    y 0.000000 4.224120 0.000000 
#    z -0.007190 0.000000 4.361830 
# 
# 
# High freq. dielectric constant tensor:
#      x y z
#    x 1.917190 0.000000 -0.004600 
#    y 0.000000 1.911760 0.000000 
#    z -0.004600 0.000000 1.927430 
# 
# From -- ./inp_files/152468.got.cif
#   From: 2010.06.25/outbox.cif.g09.slc.cpg/sg15_77_cif.got.tgz:152468.got - 2010.06.28 07:06:18.
