data_PCOD8140423
_publ_section_title
;
Structure prediction by ZEFSAII (Michael W. Deem and Ramdas Pophale) SiO2 
 PCOD8140423
Probable space group: C 2/C
;
_chemical_formula_sum "Si O2"
_cell_formula_units_Z 48
_cell_length_a 24.348399
_cell_length_b 8.276012
_cell_length_c 24.585921
_cell_angle_alpha 90.000000
_cell_angle_beta 154.109363
_cell_angle_gamma 90.000000
_cell_volume 2163.297375
_symmetry_space_group_name_H-M "C 2/C"
_symmetry_group_IT_number 15
_symmetry_cell_setting 'monoclinic'
loop_
_space_group_symop_operation_xyz
x,y,z
-x,y,1/2-z
-x,-y,-z
x,-y,1/2+z
1/2+x,1/2+y,z
1/2-x,1/2+y,1/2-z
1/2-x,1/2-y,-z
1/2+x,1/2-y,1/2+z
loop_
_atom_site_type_symbol
_atom_site_label
_atom_site_fract_x
_atom_site_fract_y
_atom_site_fract_z
Si Si1 0.241509 0.150072 0.816660
Si Si2 0.081795 0.612866 0.237372
Si Si3 0.950189 0.284902 0.334963
Si Si4 0.177766 0.588092 0.435644
Si Si5 0.275240 0.121633 0.428185
Si Si6 0.878196 0.088507 0.371879
O O1 0.123708 0.218731 0.746891
O O2 0.317177 0.312727 0.867665
O O3 0.313091 0.026601 0.920773
O O4 0.207145 0.050596 0.731527
O O5 0.080693 0.474438 0.190880
O O6 0.166272 0.540791 0.362146
O O7 0.947762 0.637003 0.144684
O O8 0.857477 0.199540 0.208340
O O9 0.917454 0.223636 0.364655
O O10 0.101316 0.259930 0.459248
O O11 0.250000 0.750000 0.500000
O O12 0.247375 0.445160 0.530811
O O13 0.000000 0.000000 0.500000
#
# Coordination Sequence:
#
# PCOD8140423 Si02
#       6
#     8   8   8   8   8   8
#     4  11  24  43  65  99 134 179 225 284 337 404
#     4  10  22  40  70  95 137 174 219 285 338 400
#     4  10  24  44  66  99 138 175 228 278 338 400
#     4  10  20  41  68 101 128 172 225 270 338 410
#     4  10  23  44  70  99 139 180 224 279 344 399
#     4  11  27  41  67  96 132 182 233 272 345 399
#
# _framework density 22.188351000000001
#
# number of rings (size 3 to 8) (size 9 to 14) (size 15 to 20)
#    0.000    1.667    1.667    1.000   11.667    1.333 
#    3.000    0.000    0.000    0.000    0.000    0.000 
#    0.000    0.000    0.000    0.000    0.000    0.000 
#
# Total GULP energy -297317.765883 kJ/mol
# GULP energy per Si atom -12388.240245 kJ/mol
# Density = 2.213785 g / cm^3
# Si number density = 22.188351 Si / 1000 Ang^3
#
#
#
# Elastic Constant Matrix: (Units=GPa)
#
#
# Indices 1 2 3 4 5 6 
#
# 1 60.6272 41.6081 21.1346 0.0000 -7.6849 0.0000
# 2 41.6081 92.0855 42.9130 -0.0001 7.7106 -0.0001
# 3 21.1346 42.9130 124.3418 -0.0002 -8.2099 -0.0002
# 4 0.0000 -0.0001 -0.0002 35.6710 -0.0001 6.9522
# 5 -7.6849 7.7106 -8.2099 -0.0001 21.1349 -0.0002
# 6 0.0000 -0.0001 -0.0002 6.9522 -0.0002 47.7076
#
#
#
# Elastic Compliance Matrix: (Units=1/GPa)
#
#
# Indices 1 2 3 4 5 6 
#
# 1 0.028158 -0.014705 0.001354 0.000000 0.016129 0.000000
# 2 -0.014705 0.021592 -0.005979 0.000000 -0.015546 0.000000
# 3 0.001354 -0.005979 0.010317 0.000000 0.006681 0.000000
# 4 0.000000 0.000000 0.000000 0.028853 0.000000 -0.004205
# 5 0.016129 -0.015546 0.006681 0.000000 0.061447 0.000000
# 6 0.000000 0.000000 0.000000 -0.004205 0.000000 0.021574
#
#
# Mechanical properties :
#
#
# Convention : Reuss Voigt Hill
#
# Bulk Modulus (GPa) = 46.71279 54.26289 50.48784
# Shear Modulus (GPa) = 22.96358 32.32929 27.64643
#
# Velocity S-wave (km/s) = 3.22054 3.82126 3.53369
# Velocity P-wave (km/s) = 5.90996 6.63159 6.28115
#
# Compressibility (1/GPa) = 0.02140741
#
# Stress axis : x y z
#
# Youngs Moduli (GPa) = 35.51327 46.31446 96.92931
#
# Poissons Ratio (x) = 0.68103 -0.13121
# Poissons Ratio (y) = 0.52221 0.57952
# Poissons Ratio (z) = -0.04807 0.27690
#
# Static dielectric constant tensor:
#      x y z
#    x 4.157180 0.000000 -0.290000 
#    y 0.000000 4.087550 0.000000 
#    z -0.290000 0.000000 4.318220 
# 
# 
# High freq. dielectric constant tensor:
#      x y z
#    x 1.867390 0.000000 -0.015080 
#    y 0.000000 1.875260 0.000000 
#    z -0.015080 0.000000 1.882090 
# 
# From -- ./inp_files/281720.got.cif
#   From: 2010.06.25/outbox.cif.g09.slc.cpg/sg15_141_cif.got.tgz:281720.got - 2010.06.28 07:06:18.
