data_PCOD8140214
_publ_section_title
;
Structure prediction by ZEFSAII (Michael W. Deem and Ramdas Pophale) SiO2 
 PCOD8140214
Probable space group: C 2/C
;
_chemical_formula_sum "Si O2"
_cell_formula_units_Z 40
_cell_length_a 10.941788
_cell_length_b 11.634619
_cell_length_c 27.147315
_cell_angle_alpha 90.000000
_cell_angle_beta 29.093540
_cell_angle_gamma 90.000000
_cell_volume 1680.409868
_symmetry_space_group_name_H-M "C 2/C"
_symmetry_group_IT_number 15
_symmetry_cell_setting 'monoclinic'
loop_
_space_group_symop_operation_xyz
x,y,z
-x,y,1/2-z
-x,-y,-z
x,-y,1/2+z
1/2+x,1/2+y,z
1/2-x,1/2+y,1/2-z
1/2-x,1/2-y,-z
1/2+x,1/2-y,1/2+z
loop_
_atom_site_type_symbol
_atom_site_label
_atom_site_fract_x
_atom_site_fract_y
_atom_site_fract_z
Si Si1 0.342133 0.450847 0.249396
Si Si2 0.679883 0.834643 0.406011
Si Si3 0.438593 0.590358 0.086139
Si Si4 0.870134 0.420318 0.360239
Si Si5 0.127288 0.843876 0.627676
O O1 0.203992 0.395054 0.344350
O O2 0.574464 0.369629 0.148558
O O3 0.474353 0.571810 0.217579
O O4 0.146166 0.470712 0.274437
O O5 0.683138 0.697443 0.399886
O O6 0.422555 0.876276 0.522283
O O7 0.242273 0.483011 0.149141
O O8 0.504115 0.633426 0.117398
O O9 0.694991 0.553242 0.968869
O O10 0.904415 0.284154 0.340695
#
# Coordination Sequence:
#
# PCOD8140214 Si02
#       5
#     8   8   8   8   8
#     4  11  22  34  64  90 126 173 219 257 334 394
#     4  10  21  41  61  91 124 176 211 268 334 383
#     4  10  20  40  70  87 129 166 218 276 331 385
#     4  10  21  38  64 101 120 167 223 271 329 394
#     4  11  21  41  63  94 133 164 215 281 319 386
#
# _framework density 23.803716999999999
#
# number of rings (size 3 to 8) (size 9 to 14) (size 15 to 20)
#    0.000    1.600    4.000    1.800    2.800    0.800 
#    0.000    4.000    0.000    6.000    0.000    0.000 
#    0.000    0.000    0.000    0.000    0.000    0.000 
#
# Total GULP energy -247828.008807 kJ/mol
# GULP energy per Si atom -12391.400440 kJ/mol
# Density = 2.374954 g / cm^3
# Si number density = 23.803717 Si / 1000 Ang^3
#
#
#
# Elastic Constant Matrix: (Units=GPa)
#
#
# Indices 1 2 3 4 5 6 
#
# 1 100.5176 40.6694 33.2797 -0.0003 -26.3072 -0.0050
# 2 40.6694 152.1988 44.7189 0.0074 -25.0316 -0.0062
# 3 33.2797 44.7189 89.3548 -0.0285 -34.7897 0.0103
# 4 -0.0003 0.0074 -0.0285 21.6599 0.0057 -9.9368
# 5 -26.3072 -25.0316 -34.7897 0.0057 46.4504 0.0060
# 6 -0.0050 -0.0062 0.0103 -9.9368 0.0060 30.3284
#
#
#
# Elastic Compliance Matrix: (Units=1/GPa)
#
#
# Indices 1 2 3 4 5 6 
#
# 1 0.012612 -0.002061 -0.001860 -0.000003 0.004640 0.000001
# 2 -0.002061 0.008146 -0.002900 -0.000007 0.001050 0.000000
# 3 -0.001860 -0.002900 0.017387 0.000020 0.010406 -0.000002
# 4 -0.000003 -0.000007 0.000020 0.054335 0.000001 0.017802
# 5 0.004640 0.001050 0.010406 0.000001 0.032516 -0.000009
# 6 0.000001 0.000000 -0.000002 0.017802 -0.000009 0.038805
#
#
# Mechanical properties :
#
#
# Convention : Reuss Voigt Hill
#
# Bulk Modulus (GPa) = 40.80973 64.37859 52.59416
# Shear Modulus (GPa) = 26.93811 34.58130 30.75971
#
# Velocity S-wave (km/s) = 3.36769 3.81566 3.59865
# Velocity P-wave (km/s) = 5.68360 6.82031 6.27773
#
# Compressibility (1/GPa) = 0.02450396
#
# Stress axis : x y z
#
# Youngs Moduli (GPa) = 79.28812 122.76098 57.51436
#
# Poissons Ratio (x) = 0.25297 0.10696
# Poissons Ratio (y) = 0.16339 0.16681
# Poissons Ratio (z) = 0.14745 0.35604
#
# Static dielectric constant tensor:
#      x y z
#    x 4.122020 0.000010 -0.422670 
#    y 0.000010 4.475210 -0.000020 
#    z -0.422670 -0.000020 4.480710 
# 
# 
# High freq. dielectric constant tensor:
#      x y z
#    x 1.925120 0.000000 -0.021400 
#    y 0.000000 1.946490 0.000000 
#    z -0.021400 0.000000 1.956670 
# 
# From -- ./inp_files/141740.got.cif
#   From: 2010.06.25/outbox.cif.g09.slc.cpg/sg15_71_cif.got.tgz:141740.got - 2010.06.28 07:06:18.
