data_PCOD8140359
_publ_section_title
;
Structure prediction by ZEFSAII (Michael W. Deem and Ramdas Pophale) SiO2 
 PCOD8140359
Probable space group: C 2/C
;
_chemical_formula_sum "Si O2"
_cell_formula_units_Z 60
_cell_length_a 9.067874
_cell_length_b 16.390196
_cell_length_c 23.188189
_cell_angle_alpha 90.000000
_cell_angle_beta 128.152451
_cell_angle_gamma 90.000000
_cell_volume 2710.087413
_symmetry_space_group_name_H-M "C 2/C"
_symmetry_group_IT_number 15
_symmetry_cell_setting 'monoclinic'
loop_
_space_group_symop_operation_xyz
x,y,z
-x,y,1/2-z
-x,-y,-z
x,-y,1/2+z
1/2+x,1/2+y,z
1/2-x,1/2+y,1/2-z
1/2-x,1/2-y,-z
1/2+x,1/2-y,1/2+z
loop_
_atom_site_type_symbol
_atom_site_label
_atom_site_fract_x
_atom_site_fract_y
_atom_site_fract_z
Si Si1 0.168769 0.144917 0.943705
Si Si2 0.745974 0.040088 0.738041
Si Si3 0.979913 0.237590 0.494898
Si Si4 0.691598 0.693742 0.166508
Si Si5 0.195534 0.182138 0.370980
Si Si6 0.661889 0.498143 0.362252
Si Si7 0.330302 0.289472 0.298239
Si Si8 0.000000 0.431991 0.750000
O O1 0.367470 0.189123 0.998979
O O2 0.200411 0.051446 0.931172
O O3 0.047023 0.193938 0.866253
O O4 0.057162 0.153330 0.977937
O O5 0.746412 0.052451 0.668880
O O6 0.722809 0.124064 0.768156
O O7 0.937938 0.993714 0.801199
O O8 0.568913 0.985179 0.712616
O O9 0.912900 0.229544 0.413909
O O10 0.196282 0.266417 0.552809
O O11 0.525483 0.677999 0.171761
O O12 0.831809 0.754064 0.233972
O O13 0.821044 0.616920 0.181449
O O14 0.234979 0.226560 0.319755
O O15 0.259206 0.087105 0.386912
#
# Coordination Sequence:
#
# PCOD8140359 Si02
#       8
#     8   8   8   8   8   8   8   4
#     4   9  20  41  64  90 123 169 212 277 314 389
#     4  10  22  38  63  97 129 164 207 276 328 391
#     4  10  22  40  61  90 132 168 222 261 325 385
#     4  12  23  39  62  93 126 172 213 272 321 387
#     4  11  23  39  62  93 128 175 212 269 320 396
#     4  10  20  41  65  92 129 168 219 263 334 381
#     4  10  22  40  68  93 126 167 220 264 329 384
#     4  12  24  38  62  96 134 158 216 276 334 368
#
# _framework density 22.139506999999998
#
# number of rings (size 3 to 8) (size 9 to 14) (size 15 to 20)
#    0.000    1.600    1.333    3.200    3.733    4.800 
#    0.000    2.000    0.000    0.000    0.000    0.000 
#    0.000    0.000    0.000    0.000    0.000    0.000 
#
# Total GULP energy -371794.196679 kJ/mol
# GULP energy per Si atom -12393.139889 kJ/mol
# Density = 2.208912 g / cm^3
# Si number density = 22.139507 Si / 1000 Ang^3
#
#
#
# Elastic Constant Matrix: (Units=GPa)
#
#
# Indices 1 2 3 4 5 6 
#
# 1 100.2807 48.1064 18.7914 0.0000 3.6849 0.0000
# 2 48.1064 132.4669 35.9258 0.0000 -12.0229 0.0000
# 3 18.7914 35.9258 105.9010 0.0000 -14.4363 0.0000
# 4 0.0000 0.0000 0.0000 20.9643 0.0000 -0.9283
# 5 3.6849 -12.0229 -14.4363 0.0000 25.9515 0.0000
# 6 0.0000 0.0000 0.0000 -0.9283 0.0000 36.0250
#
#
#
# Elastic Compliance Matrix: (Units=1/GPa)
#
#
# Indices 1 2 3 4 5 6 
#
# 1 0.012620 -0.004655 -0.001297 0.000000 -0.004670 0.000000
# 2 -0.004655 0.010180 -0.002050 0.000000 0.004237 0.000000
# 3 -0.001297 -0.002050 0.011106 0.000000 0.005413 0.000000
# 4 0.000000 0.000000 0.000000 0.047755 0.000000 0.001231
# 5 -0.004670 0.004237 0.005413 0.000000 0.044170 0.000000
# 6 0.000000 0.000000 0.000000 0.001231 0.000000 0.027790
#
#
# Mechanical properties :
#
#
# Convention : Reuss Voigt Hill
#
# Bulk Modulus (GPa) = 55.85797 60.47730 58.16764
# Shear Modulus (GPa) = 28.47511 32.30983 30.39247
#
# Velocity S-wave (km/s) = 3.59021 3.82432 3.70911
# Velocity P-wave (km/s) = 6.51697 6.84663 6.68383
#
# Compressibility (1/GPa) = 0.01790255
#
# Stress axis : x y z
#
# Youngs Moduli (GPa) = 79.24096 98.23089 90.04057
#
# Poissons Ratio (x) = 0.45728 0.11675
# Poissons Ratio (y) = 0.36888 0.18457
# Poissons Ratio (z) = 0.10275 0.20136
#
# Static dielectric constant tensor:
#      x y z
#    x 3.964460 0.000000 0.049450 
#    y 0.000000 3.926940 0.000000 
#    z 0.049450 0.000000 3.829950 
# 
# 
# High freq. dielectric constant tensor:
#      x y z
#    x 1.871030 0.000000 0.000840 
#    y 0.000000 1.860850 0.000000 
#    z 0.000840 0.000000 1.860050 
# 
# From -- ./inp_files/233089.got.cif
#   From: 2010.06.25/outbox.cif.g09.slc.cpg/sg15_117_cif.got.tgz:233089.got - 2010.06.28 07:06:18.
