data_PCOD8140990
_publ_section_title
;
Structure prediction by ZEFSAII (Michael W. Deem and Ramdas Pophale) SiO2 
 PCOD8140990
Probable space group: C 2/C
;
_chemical_formula_sum "Si O2"
_cell_formula_units_Z 56
_cell_length_a 8.859971
_cell_length_b 23.121615
_cell_length_c 17.975243
_cell_angle_alpha 90.000000
_cell_angle_beta 46.632993
_cell_angle_gamma 90.000000
_cell_volume 2676.959772
_symmetry_space_group_name_H-M "C 2/C"
_symmetry_group_IT_number 15
_symmetry_cell_setting 'monoclinic'
loop_
_space_group_symop_operation_xyz
x,y,z
-x,y,1/2-z
-x,-y,-z
x,-y,1/2+z
1/2+x,1/2+y,z
1/2-x,1/2+y,1/2-z
1/2-x,1/2-y,-z
1/2+x,1/2-y,1/2+z
loop_
_atom_site_type_symbol
_atom_site_label
_atom_site_fract_x
_atom_site_fract_y
_atom_site_fract_z
Si Si1 0.767695 0.969216 0.834728
Si Si2 0.492123 0.923227 0.447820
Si Si3 0.678186 0.836362 0.494032
Si Si4 0.540584 0.276573 0.435608
Si Si5 0.064537 0.675007 0.642382
Si Si6 0.378376 0.876515 0.723649
Si Si7 0.296523 0.246541 0.272602
O O1 0.765020 0.922782 0.768673
O O2 0.000000 0.994244 0.750000
O O3 0.603761 0.020298 0.877186
O O4 0.708307 0.939384 0.933688
O O5 0.659541 0.887098 0.439929
O O6 0.415703 0.887273 0.403078
O O7 0.614196 0.773248 0.479662
O O8 0.540668 0.850372 0.611232
O O9 0.912996 0.831010 0.444837
O O10 0.705746 0.297015 0.441353
O O11 0.670508 0.247889 0.326350
O O12 0.000000 0.665842 0.750000
O O13 0.905079 0.713278 0.646836
O O14 0.500000 0.907930 0.750000
O O15 0.251685 0.821872 0.803550
O O16 0.500000 0.268868 0.250000
#
# Coordination Sequence:
#
# PCOD8140990 Si02
#       7
#     8   8   8   8   8   8   8
#     4  10  23  41  61  81 108 153 202 247 293 343
#     4  10  22  40  58  83 115 152 200 243 290 353
#     4   9  18  34  54  78 115 150 182 228 286 352
#     4   9  18  31  50  83 116 147 183 226 285 343
#     4  10  21  34  55  89 123 151 189 238 284 344
#     4   9  19  35  56  79 106 144 190 236 285 343
#     4   9  17  31  52  79 114 152 183 223 288 350
#
# _framework density 20.919253000000001
#
# number of rings (size 3 to 8) (size 9 to 14) (size 15 to 20)
#    0.000    2.571    0.000    0.857    0.000   10.286 
#    0.000    0.000    0.000    6.000    0.000    0.000 
#    0.000    0.000    0.000    0.000    0.000    0.000 
#
# Total GULP energy -346986.138722 kJ/mol
# GULP energy per Si atom -12392.362097 kJ/mol
# Density = 2.087164 g / cm^3
# Si number density = 20.919253 Si / 1000 Ang^3
#
#
#
# Elastic Constant Matrix: (Units=GPa)
#
#
# Indices 1 2 3 4 5 6 
#
# 1 121.9097 47.1200 38.7413 0.0000 -10.8912 0.0000
# 2 47.1200 92.0945 23.8190 0.0000 -1.0856 0.0000
# 3 38.7413 23.8190 41.7501 0.0000 -5.7011 0.0000
# 4 0.0000 0.0000 0.0000 24.0088 0.0000 8.8320
# 5 -10.8912 -1.0856 -5.7011 0.0000 32.8586 0.0000
# 6 0.0000 0.0000 0.0000 8.8320 0.0000 27.8211
#
#
#
# Elastic Compliance Matrix: (Units=1/GPa)
#
#
# Indices 1 2 3 4 5 6 
#
# 1 0.013029 -0.004223 -0.009331 0.000000 0.002560 0.000000
# 2 -0.004223 0.014130 -0.004374 0.000000 -0.001692 0.000000
# 3 -0.009331 -0.004374 0.035506 0.000000 0.002923 0.000000
# 4 0.000000 0.000000 0.000000 0.047159 0.000000 -0.014971
# 5 0.002560 -0.001692 0.002923 0.000000 0.031733 0.000000
# 6 0.000000 0.000000 0.000000 -0.014971 0.000000 0.040697
#
#
# Mechanical properties :
#
#
# Convention : Reuss Voigt Hill
#
# Bulk Modulus (GPa) = 37.30171 52.79056 45.04614
# Shear Modulus (GPa) = 22.02199 26.67597 24.34898
#
# Velocity S-wave (km/s) = 3.24808 3.57485 3.41537
# Velocity P-wave (km/s) = 5.65125 6.50612 6.09370
#
# Compressibility (1/GPa) = 0.02680842
#
# Stress axis : x y z
#
# Youngs Moduli (GPa) = 76.75177 70.76987 28.16460
#
# Poissons Ratio (x) = 0.29884 0.26281
# Poissons Ratio (y) = 0.32410 0.12320
# Poissons Ratio (z) = 0.71620 0.30956
#
# Static dielectric constant tensor:
#      x y z
#    x 3.752630 0.000000 0.046290 
#    y 0.000000 3.819790 0.000000 
#    z 0.046290 0.000000 3.727730 
# 
# 
# High freq. dielectric constant tensor:
#      x y z
#    x 1.813360 0.000000 0.012660 
#    y 0.000000 1.802690 0.000000 
#    z 0.012660 0.000000 1.816450 
# 
# From -- ./inp_files/137433.got.cif
#   From: 2010.06.25/outbox.cif.g09.slc.cpg/sg15_69_cif.got.tgz:137433.got - 2010.06.28 07:06:18.
