data_PCOD8140759
_publ_section_title
;
Structure prediction by ZEFSAII (Michael W. Deem and Ramdas Pophale) SiO2 
 PCOD8140759
Probable space group: C 2/C
;
_chemical_formula_sum "Si O2"
_cell_formula_units_Z 40
_cell_length_a 23.457094
_cell_length_b 6.196831
_cell_length_c 13.237917
_cell_angle_alpha 90.000000
_cell_angle_beta 75.453826
_cell_angle_gamma 90.000000
_cell_volume 1862.577879
_symmetry_space_group_name_H-M "C 2/C"
_symmetry_group_IT_number 15
_symmetry_cell_setting 'monoclinic'
loop_
_space_group_symop_operation_xyz
x,y,z
-x,y,1/2-z
-x,-y,-z
x,-y,1/2+z
1/2+x,1/2+y,z
1/2-x,1/2+y,1/2-z
1/2-x,1/2-y,-z
1/2+x,1/2-y,1/2+z
loop_
_atom_site_type_symbol
_atom_site_label
_atom_site_fract_x
_atom_site_fract_y
_atom_site_fract_z
Si Si1 0.835275 0.299728 0.385060
Si Si2 0.624638 0.359000 0.844587
Si Si3 0.720237 0.453648 0.956433
Si Si4 0.031487 0.815980 0.427354
Si Si5 0.926066 0.441714 0.962819
O O1 0.867420 0.247093 0.267221
O O2 0.769357 0.380331 0.397334
O O3 0.871045 0.504644 0.415389
O O4 0.829060 0.079008 0.453649
O O5 0.688319 0.393015 0.866533
O O6 0.586790 0.580237 0.842067
O O7 0.590752 0.195108 0.931672
O O8 0.750000 0.250000 0.000000
O O9 0.054607 0.673033 0.508272
O O10 0.981919 0.682055 0.383781
O O11 0.000000 0.000000 0.500000
#
# Coordination Sequence:
#
# PCOD8140759 Si02
#       5
#     8   8   8   8   8
#     4  11  25  40  67  98 130 172 223 267 332 405
#     4  11  23  41  68  97 129 174 218 264 342 394
#     4  11  24  42  61  96 137 172 216 282 320 390
#     4   9  20  41  68  89 129 170 208 280 321 384
#     4  10  20  43  65  94 132 163 219 275 322 386
#
# _framework density 21.475612000000002
#
# number of rings (size 3 to 8) (size 9 to 14) (size 15 to 20)
#    0.000    1.600    4.000    0.000    2.800    1.600 
#    0.000   11.000    0.000    0.000    0.000    0.000 
#    0.000    0.000    0.000    0.000    0.000    0.000 
#
# Total GULP energy -247761.008943 kJ/mol
# GULP energy per Si atom -12388.050447 kJ/mol
# Density = 2.142673 g / cm^3
# Si number density = 21.475612 Si / 1000 Ang^3
#
#
#
# Elastic Constant Matrix: (Units=GPa)
#
#
# Indices 1 2 3 4 5 6 
#
# 1 123.2533 44.3098 37.9887 0.0000 -2.9245 0.0000
# 2 44.3098 105.1976 36.4319 0.0000 -5.9058 0.0000
# 3 37.9887 36.4319 94.3302 0.0000 -9.4880 0.0000
# 4 0.0000 0.0000 0.0000 23.3944 0.0000 -2.6177
# 5 -2.9245 -5.9058 -9.4880 0.0000 16.1556 0.0000
# 6 0.0000 0.0000 0.0000 -2.6177 0.0000 58.5477
#
#
#
# Elastic Compliance Matrix: (Units=1/GPa)
#
#
# Indices 1 2 3 4 5 6 
#
# 1 0.010189 -0.003341 -0.002923 0.000000 -0.001094 0.000000
# 2 -0.003341 0.012109 -0.003132 0.000000 0.001982 0.000000
# 3 -0.002923 -0.003132 0.013624 0.000000 0.006327 0.000000
# 4 0.000000 0.000000 0.000000 0.042960 0.000000 0.001921
# 5 -0.001094 0.001982 0.006327 0.000000 0.066141 0.000000
# 6 0.000000 0.000000 0.000000 0.001921 0.000000 0.017166
#
#
# Mechanical properties :
#
#
# Convention : Reuss Voigt Hill
#
# Bulk Modulus (GPa) = 58.37403 62.24909 60.31156
# Shear Modulus (GPa) = 26.78207 33.22292 30.00250
#
# Velocity S-wave (km/s) = 3.53525 3.93747 3.74177
# Velocity P-wave (km/s) = 6.62605 7.05127 6.84196
#
# Compressibility (1/GPa) = 0.01713091
#
# Stress axis : x y z
#
# Youngs Moduli (GPa) = 98.14062 82.58291 73.39833
#
# Poissons Ratio (x) = 0.27590 0.21456
# Poissons Ratio (y) = 0.32788 0.22987
# Poissons Ratio (z) = 0.28688 0.25864
#
# Static dielectric constant tensor:
#      x y z
#    x 4.288030 0.000000 -0.358370 
#    y 0.000000 4.207070 0.000000 
#    z -0.358370 0.000000 3.169790 
# 
# 
# High freq. dielectric constant tensor:
#      x y z
#    x 1.869680 0.000000 -0.006470 
#    y 0.000000 1.864270 0.000000 
#    z -0.006470 0.000000 1.797080 
# 
# From -- ./inp_files/120733.got.cif
#   From: 2010.06.25/outbox.cif.g09.slc.cpg/sg15_61_cif.got.tgz:120733.got - 2010.06.28 07:06:18.
