data_PCOD8140287
_publ_section_title
;
Structure prediction by ZEFSAII (Michael W. Deem and Ramdas Pophale) SiO2 
 PCOD8140287
Probable space group: C 2/C
;
_chemical_formula_sum "Si O2"
_cell_formula_units_Z 40
_cell_length_a 12.386563
_cell_length_b 20.683078
_cell_length_c 12.329717
_cell_angle_alpha 90.000000
_cell_angle_beta 36.849376
_cell_angle_gamma 90.000000
_cell_volume 1894.361528
_symmetry_space_group_name_H-M "C 2/C"
_symmetry_group_IT_number 15
_symmetry_cell_setting 'monoclinic'
loop_
_space_group_symop_operation_xyz
x,y,z
-x,y,1/2-z
-x,-y,-z
x,-y,1/2+z
1/2+x,1/2+y,z
1/2-x,1/2+y,1/2-z
1/2-x,1/2-y,-z
1/2+x,1/2-y,1/2+z
loop_
_atom_site_type_symbol
_atom_site_label
_atom_site_fract_x
_atom_site_fract_y
_atom_site_fract_z
Si Si1 0.860536 0.318655 0.030702
Si Si2 0.000000 0.775084 0.250000
Si Si3 0.058016 0.572462 0.474895
Si Si4 0.379205 0.655115 0.243109
Si Si5 0.500000 0.132761 0.750000
Si Si6 0.714180 0.285969 0.379243
O O1 0.676005 0.320508 0.109316
O O2 0.818561 0.296688 0.184676
O O3 0.999110 0.269571 0.859366
O O4 0.950761 0.388594 0.967372
O O5 0.272230 0.590469 0.289846
O O6 0.000000 0.500000 0.500000
O O7 0.003695 0.587359 0.641808
O O8 0.500000 0.638559 0.250000
O O9 0.221940 0.708536 0.394381
O O10 0.511771 0.684834 0.043808
O O11 0.675219 0.178515 0.613873
#
# Coordination Sequence:
#
# PCOD8140287 Si02
#       6
#     8   4   8   8   4   8
#     4  10  22  38  63  89 126 162 211 260 313 373
#     4  10  20  41  62  93 118 164 210 268 318 358
#     4  11  25  43  59  89 126 173 208 249 304 377
#     4  12  21  35  63  98 130 159 199 260 327 373
#     4  10  20  41  64  87 128 154 210 264 312 370
#     4  11  20  36  64 101 125 155 200 275 331 367
#
# _framework density 21.115293000000001
#
# number of rings (size 3 to 8) (size 9 to 14) (size 15 to 20)
#    0.000    1.200    3.000    5.400    0.000    2.400 
#    1.800    4.000    0.000    0.000    0.000    0.000 
#    0.000    0.000    0.000    0.000    0.000    0.000 
#
# Total GULP energy -247855.808991 kJ/mol
# GULP energy per Si atom -12392.790450 kJ/mol
# Density = 2.106723 g / cm^3
# Si number density = 21.115293 Si / 1000 Ang^3
#
#
#
# Elastic Constant Matrix: (Units=GPa)
#
#
# Indices 1 2 3 4 5 6 
#
# 1 85.2376 65.9791 30.0512 0.0069 -12.4479 0.0077
# 2 65.9791 132.6296 33.9479 0.0028 -19.8045 0.0171
# 3 30.0512 33.9479 110.4610 0.0254 -9.2974 0.0198
# 4 0.0069 0.0028 0.0254 21.7228 -0.0101 -6.2026
# 5 -12.4479 -19.8045 -9.2974 -0.0101 48.0177 -0.0074
# 6 0.0077 0.0171 0.0198 -6.2026 -0.0074 29.7650
#
#
#
# Elastic Compliance Matrix: (Units=1/GPa)
#
#
# Indices 1 2 3 4 5 6 
#
# 1 0.019755 -0.009049 -0.002518 -0.000001 0.000902 0.000002
# 2 -0.009049 0.012757 -0.001233 0.000003 0.002677 -0.000003
# 3 -0.002518 -0.001233 0.010185 -0.000013 0.000811 -0.000008
# 4 -0.000001 0.000003 -0.000013 0.048947 0.000010 0.010200
# 5 0.000902 0.002677 0.000811 0.000010 0.022320 0.000005
# 6 0.000002 -0.000003 -0.000008 0.010200 0.000005 0.035722
#
#
# Mechanical properties :
#
#
# Convention : Reuss Voigt Hill
#
# Bulk Modulus (GPa) = 58.48747 65.36497 61.92622
# Shear Modulus (GPa) = 27.62650 33.12444 30.37547
#
# Velocity S-wave (km/s) = 3.62106 3.96503 3.79694
# Velocity P-wave (km/s) = 6.72621 7.21009 6.97235
#
# Compressibility (1/GPa) = 0.01709768
#
# Stress axis : x y z
#
# Youngs Moduli (GPa) = 50.61905 78.39068 98.18132
#
# Poissons Ratio (x) = 0.70933 0.24719
# Poissons Ratio (y) = 0.45803 0.12110
# Poissons Ratio (z) = 0.12744 0.09669
#
# Static dielectric constant tensor:
#      x y z
#    x 4.067310 0.000010 -0.154770 
#    y 0.000010 3.433520 0.000020 
#    z -0.154770 0.000020 3.967950 
# 
# 
# High freq. dielectric constant tensor:
#      x y z
#    x 1.845250 0.000000 -0.004210 
#    y 0.000000 1.774000 0.000000 
#    z -0.004210 0.000000 1.843800 
# 
# From -- ./inp_files/50478.got.cif
#   From: 2010.06.25/outbox.cif.g09.slc.cpg/sg15_26_cif.got.tgz:50478.got - 2010.06.28 07:06:18.
