data_PCOD8140183
_publ_section_title
;
Structure prediction by ZEFSAII (Michael W. Deem and Ramdas Pophale) SiO2 
 PCOD8140183
Probable space group: C 2/C
;
_chemical_formula_sum "Si O2"
_cell_formula_units_Z 48
_cell_length_a 8.796889
_cell_length_b 18.000462
_cell_length_c 29.672853
_cell_angle_alpha 90.000000
_cell_angle_beta 151.278454
_cell_angle_gamma 90.000000
_cell_volume 2257.946486
_symmetry_space_group_name_H-M "C 2/C"
_symmetry_group_IT_number 15
_symmetry_cell_setting 'monoclinic'
loop_
_space_group_symop_operation_xyz
x,y,z
-x,y,1/2-z
-x,-y,-z
x,-y,1/2+z
1/2+x,1/2+y,z
1/2-x,1/2+y,1/2-z
1/2-x,1/2-y,-z
1/2+x,1/2-y,1/2+z
loop_
_atom_site_type_symbol
_atom_site_label
_atom_site_fract_x
_atom_site_fract_y
_atom_site_fract_z
Si Si1 0.758983 0.745521 0.284081
Si Si2 0.903020 0.009140 0.025613
Si Si3 0.865599 0.098195 0.842414
Si Si4 0.128915 0.833396 0.586746
Si Si5 0.215470 0.934901 0.344671
Si Si6 0.508698 0.209656 0.880716
O O1 0.500000 0.707855 0.250000
O O2 0.921697 0.813174 0.353937
O O3 0.584640 0.783265 0.195742
O O4 0.017312 0.683808 0.338541
O O5 0.095491 0.081121 0.093541
O O6 0.529455 0.018140 0.932739
O O7 0.980196 0.934290 0.072413
O O8 0.000000 0.000000 0.000000
O O9 0.500000 0.077665 0.750000
O O10 0.022828 0.059252 0.840535
O O11 0.876382 0.813984 0.481511
O O12 0.052414 0.788324 0.611955
O O13 0.291041 0.850046 0.349936
O O14 0.000000 0.972013 0.250000
#
# Coordination Sequence:
#
# PCOD8140183 Si02
#       6
#     8   8   8   8   8   8
#     4  11  23  40  68 102 132 168 225 286 330 394
#     4  11  26  43  63  97 141 179 222 275 335 409
#     4  11  23  40  66  98 131 179 222 270 337 406
#     4  10  22  41  67  93 128 175 215 276 330 392
#     4  11  19  40  69  92 128 177 225 272 332 404
#     4  10  20  40  68  97 124 167 223 274 336 394
#
# _framework density 21.258254999999998
#
# number of rings (size 3 to 8) (size 9 to 14) (size 15 to 20)
#    0.000    1.333    3.333    2.000    7.000    2.000 
#    0.000    2.500    0.000    0.000    0.000    0.000 
#    0.000    0.000    0.000    0.000    0.000    0.000 
#
# Total GULP energy -297629.602776 kJ/mol
# GULP energy per Si atom -12401.233449 kJ/mol
# Density = 2.120987 g / cm^3
# Si number density = 21.258255 Si / 1000 Ang^3
#
#
#
# Elastic Constant Matrix: (Units=GPa)
#
#
# Indices 1 2 3 4 5 6 
#
# 1 124.4900 0.6641 34.8941 -0.0038 10.3305 -0.0016
# 2 0.6641 60.1992 24.1568 -0.0009 -5.3060 0.0001
# 3 34.8941 24.1568 99.4526 0.0102 9.0182 -0.0122
# 4 -0.0038 -0.0009 0.0102 18.7602 -0.0055 -11.1384
# 5 10.3305 -5.3060 9.0182 -0.0055 43.7074 -0.0093
# 6 -0.0016 0.0001 -0.0122 -11.1384 -0.0093 20.2654
#
#
#
# Elastic Compliance Matrix: (Units=1/GPa)
#
#
# Indices 1 2 3 4 5 6 
#
# 1 0.009071 0.001122 -0.003336 0.000003 -0.001320 0.000000
# 2 0.001122 0.018999 -0.005293 0.000006 0.003133 0.000001
# 3 -0.003336 -0.005293 0.012736 -0.000007 -0.002482 0.000002
# 4 0.000003 0.000006 -0.000007 0.079125 0.000021 0.043489
# 5 -0.001320 0.003133 -0.002482 0.000021 0.024084 0.000021
# 6 0.000000 0.000001 0.000002 0.043489 0.000021 0.073248
#
#
# Mechanical properties :
#
#
# Convention : Reuss Voigt Hill
#
# Bulk Modulus (GPa) = 38.76862 44.84131 41.80497
# Shear Modulus (GPa) = 20.75777 31.50838 26.13308
#
# Velocity S-wave (km/s) = 3.12822 3.85407 3.50996
# Velocity P-wave (km/s) = 5.59681 6.39880 6.01119
#
# Compressibility (1/GPa) = 0.02579406
#
# Stress axis : x y z
#
# Youngs Moduli (GPa) = 110.23819 52.63392 78.51727
#
# Poissons Ratio (x) = -0.05906 0.26191
# Poissons Ratio (y) = -0.12371 0.41557
# Poissons Ratio (z) = 0.36772 0.27858
#
# Static dielectric constant tensor:
#      x y z
#    x 3.857660 0.000000 0.105340 
#    y 0.000000 3.828710 -0.000040 
#    z 0.105340 -0.000040 4.015160 
# 
# 
# High freq. dielectric constant tensor:
#      x y z
#    x 1.844630 0.000000 0.008430 
#    y 0.000000 1.812230 0.000000 
#    z 0.008430 0.000000 1.836940 
# 
# From -- ./inp_files/308842.got.cif
#   From: 2010.06.25/outbox.cif.g09.slc.cpg/sg15_155_cif.got.tgz:308842.got - 2010.06.28 07:06:18.
