data_PCOD8140129
_publ_section_title
;
Structure prediction by ZEFSAII (Michael W. Deem and Ramdas Pophale) SiO2 
 PCOD8140129
Probable space group: C 2/C
;
_chemical_formula_sum "Si O2"
_cell_formula_units_Z 64
_cell_length_a 23.373408
_cell_length_b 8.859680
_cell_length_c 29.881124
_cell_angle_alpha 90.000000
_cell_angle_beta 28.729580
_cell_angle_gamma 90.000000
_cell_volume 2974.333715
_symmetry_space_group_name_H-M "C 2/C"
_symmetry_group_IT_number 15
_symmetry_cell_setting 'monoclinic'
loop_
_space_group_symop_operation_xyz
x,y,z
-x,y,1/2-z
-x,-y,-z
x,-y,1/2+z
1/2+x,1/2+y,z
1/2-x,1/2+y,1/2-z
1/2-x,1/2-y,-z
1/2+x,1/2-y,1/2+z
loop_
_atom_site_type_symbol
_atom_site_label
_atom_site_fract_x
_atom_site_fract_y
_atom_site_fract_z
Si Si1 0.812841 0.823970 0.184818
Si Si2 0.088467 0.808681 0.005610
Si Si3 0.653413 0.664891 0.360288
Si Si4 0.552578 0.370501 0.563074
Si Si5 0.807800 0.380375 0.988761
Si Si6 0.785538 0.176733 0.412886
Si Si7 0.136948 0.204905 0.237556
Si Si8 0.464850 0.929676 0.321959
O O1 0.741962 0.789652 0.279181
O O2 0.757669 0.723672 0.182781
O O3 0.948953 0.777087 0.096943
O O4 0.797289 0.999272 0.184591
O O5 0.147693 0.676823 0.993777
O O6 0.114661 0.968847 0.011580
O O7 0.149854 0.807645 0.915367
O O8 0.520943 0.681552 0.430432
O O9 0.652631 0.245481 0.503327
O O10 0.460523 0.391112 0.667658
O O11 0.918720 0.435062 0.883532
O O12 0.750000 0.250000 0.000000
O O13 0.717273 0.520120 0.057847
O O14 0.833167 0.132495 0.330932
O O15 0.872560 0.290348 0.379025
O O16 0.082326 0.370344 0.266209
O O17 0.500000 0.999001 0.250000
#
# Coordination Sequence:
#
# PCOD8140129 Si02
#       8
#     8   8   8   8   8   8   8   8
#     4  10  22  40  67  95 134 164 214 262 316 389
#     4  11  24  41  63  93 139 167 205 264 337 378
#     4  10  22  40  64  97 127 172 210 259 323 381
#     4  10  20  40  67  91 128 172 217 257 311 398
#     4  12  27  43  63  98 131 168 212 274 337 374
#     4  11  22  42  71  91 126 169 223 268 312 394
#     4  10  21  38  70  97 118 168 223 259 314 375
#     4  10  23  44  68  94 122 170 223 268 317 390
#
# _framework density 21.517423999999998
#
# number of rings (size 3 to 8) (size 9 to 14) (size 15 to 20)
#    0.000    1.500    1.250    4.125    3.500    4.000 
#    2.250    1.875    0.000    0.000    0.000    0.000 
#    0.000    0.000    0.000    0.000    0.000    0.000 
#
# Total GULP energy -396878.847723 kJ/mol
# GULP energy per Si atom -12402.463991 kJ/mol
# Density = 2.146845 g / cm^3
# Si number density = 21.517424 Si / 1000 Ang^3
#
#
#
# Elastic Constant Matrix: (Units=GPa)
#
#
# Indices 1 2 3 4 5 6 
#
# 1 85.5347 36.8133 37.7453 0.0210 19.3069 -0.0178
# 2 36.8133 84.7397 48.1679 0.0097 15.1420 -0.0112
# 3 37.7453 48.1679 103.7365 0.0034 22.5288 -0.0144
# 4 0.0210 0.0097 0.0034 30.7877 0.0001 6.9879
# 5 19.3069 15.1420 22.5288 0.0001 39.7801 0.0129
# 6 -0.0178 -0.0112 -0.0144 6.9879 0.0129 25.9742
#
#
#
# Elastic Compliance Matrix: (Units=1/GPa)
#
#
# Indices 1 2 3 4 5 6 
#
# 1 0.015839 -0.004565 -0.002681 -0.000012 -0.004431 0.000013
# 2 -0.004565 0.017511 -0.006275 -0.000002 -0.000896 0.000002
# 3 -0.002681 -0.006275 0.014513 0.000001 -0.004529 0.000006
# 4 -0.000012 -0.000002 0.000001 0.034593 0.000009 -0.009307
# 5 -0.004431 -0.000896 -0.004529 0.000009 0.030195 -0.000023
# 6 0.000013 0.000002 0.000006 -0.009307 -0.000023 0.041004
#
#
# Mechanical properties :
#
#
# Convention : Reuss Voigt Hill
#
# Bulk Modulus (GPa) = 48.03062 57.71823 52.87443
# Shear Modulus (GPa) = 26.64701 29.39401 28.02051
#
# Velocity S-wave (km/s) = 3.52290 3.70003 3.61255
# Velocity P-wave (km/s) = 6.23842 6.71832 6.48281
#
# Compressibility (1/GPa) = 0.02082005
#
# Stress axis : x y z
#
# Youngs Moduli (GPa) = 63.13370 57.10622 68.90473
#
# Poissons Ratio (x) = 0.26070 0.18474
# Poissons Ratio (y) = 0.28822 0.43240
# Poissons Ratio (z) = 0.16927 0.35836
#
# Static dielectric constant tensor:
#      x y z
#    x 4.081320 -0.000020 0.136410 
#    y -0.000020 3.694750 -0.000010 
#    z 0.136410 -0.000010 4.062010 
# 
# 
# High freq. dielectric constant tensor:
#      x y z
#    x 1.859070 -0.000010 0.010040 
#    y -0.000010 1.821740 0.000000 
#    z 0.010040 0.000000 1.854830 
# 
# From -- ./inp_files/318625.got.cif
#   From: 2010.06.25/outbox.cif.g09.slc.cpg/sg15_160_cif.got.tgz:318625.got - 2010.06.28 07:06:18.
