data_PCOD8140049
_publ_section_title
;
Structure prediction by ZEFSAII (Michael W. Deem and Ramdas Pophale) SiO2 
 PCOD8140049
Probable space group: C 2/C
;
_chemical_formula_sum "Si O2"
_cell_formula_units_Z 44
_cell_length_a 16.668589
_cell_length_b 16.156645
_cell_length_c 22.905180
_cell_angle_alpha 90.000000
_cell_angle_beta 161.202309
_cell_angle_gamma 90.000000
_cell_volume 1987.679656
_symmetry_space_group_name_H-M "C 2/C"
_symmetry_group_IT_number 15
_symmetry_cell_setting 'monoclinic'
loop_
_space_group_symop_operation_xyz
x,y,z
-x,y,1/2-z
-x,-y,-z
x,-y,1/2+z
1/2+x,1/2+y,z
1/2-x,1/2+y,1/2-z
1/2-x,1/2-y,-z
1/2+x,1/2-y,1/2+z
loop_
_atom_site_type_symbol
_atom_site_label
_atom_site_fract_x
_atom_site_fract_y
_atom_site_fract_z
Si Si1 0.421766 0.376291 0.133444
Si Si2 0.737532 0.525382 0.543575
Si Si3 0.933701 0.647574 0.593985
Si Si4 0.056084 0.904398 0.031399
Si Si5 0.000000 0.238016 0.250000
Si Si6 0.075736 0.301267 0.735149
O O1 0.500000 0.413963 0.250000
O O2 0.590856 0.297156 0.231099
O O3 0.434674 0.445356 0.090281
O O4 0.140290 0.344374 0.951113
O O5 0.782550 0.568724 0.513049
O O6 0.622641 0.595915 0.507720
O O7 0.000000 0.491778 0.750000
O O8 0.987235 0.711426 0.682566
O O9 0.758356 0.685024 0.422715
O O10 0.211063 0.619742 0.765981
O O11 0.833267 0.843994 0.894610
O O12 0.000000 0.000000 0.000000
O O13 0.000000 0.313657 0.750000
#
# Coordination Sequence:
#
# PCOD8140049 Si02
#       6
#     8   8   8   8   4   8
#     4  10  21  38  61  91 130 173 214 270 328 379
#     4  10  20  40  65  94 124 172 211 261 328 397
#     4  10  21  41  67  93 127 167 212 270 326 396
#     4  11  21  39  67  95 126 171 225 260 322 396
#     4  10  20  42  66  94 126 166 208 266 338 380
#     4  10  21  41  64  89 129 178 218 267 325 388
#
# _framework density 22.136362999999999
#
# number of rings (size 3 to 8) (size 9 to 14) (size 15 to 20)
#    0.000    1.818    2.727    3.818    1.273    0.727 
#   13.091    0.909    0.000    0.000    0.000    0.000 
#    0.000    0.000    0.000    0.000    0.000    0.000 
#
# Total GULP energy -272540.438781 kJ/mol
# GULP energy per Si atom -12388.201763 kJ/mol
# Density = 2.208598 g / cm^3
# Si number density = 22.136363 Si / 1000 Ang^3
#
#
#
# Elastic Constant Matrix: (Units=GPa)
#
#
# Indices 1 2 3 4 5 6 
#
# 1 57.3085 29.2719 40.7771 0.0208 12.9521 0.0693
# 2 29.2719 121.4629 68.4612 0.0773 9.7572 0.0851
# 3 40.7771 68.4612 146.2701 0.0234 8.3142 0.2117
# 4 0.0208 0.0773 0.0234 45.2953 -0.0011 7.7938
# 5 12.9521 9.7572 8.3142 -0.0011 41.7655 -0.0031
# 6 0.0693 0.0851 0.2117 7.7938 -0.0031 17.2383
#
#
#
# Elastic Compliance Matrix: (Units=1/GPa)
#
#
# Indices 1 2 3 4 5 6 
#
# 1 0.023611 -0.002312 -0.005173 -0.000001 -0.005752 -0.000021
# 2 -0.002312 0.011515 -0.004686 -0.000019 -0.001040 0.000019
# 3 -0.005173 -0.004686 0.010437 0.000021 0.000621 -0.000094
# 4 -0.000001 -0.000019 0.000021 0.023940 0.000000 -0.010824
# 5 -0.005752 -0.001040 0.000621 0.000000 0.025846 0.000025
# 6 -0.000021 0.000019 -0.000094 -0.010824 0.000025 0.062905
#
#
# Mechanical properties :
#
#
# Convention : Reuss Voigt Hill
#
# Bulk Modulus (GPa) = 47.12391 66.89576 57.00984
# Shear Modulus (GPa) = 26.36155 33.29526 29.82841
#
# Velocity S-wave (km/s) = 3.45464 3.88248 3.67479
# Velocity P-wave (km/s) = 6.10303 7.09814 6.61931
#
# Compressibility (1/GPa) = 0.02122065
#
# Stress axis : x y z
#
# Youngs Moduli (GPa) = 42.35240 86.84430 95.81506
#
# Poissons Ratio (x) = 0.20082 0.49566
# Poissons Ratio (y) = 0.09793 0.44896
# Poissons Ratio (z) = 0.21909 0.40693
#
# Static dielectric constant tensor:
#      x y z
#    x 0.412050 0.011330 -1.051370 
#    y 0.011330 4.492900 0.001860 
#    z -1.051370 0.001860 4.197070 
# 
# 
# High freq. dielectric constant tensor:
#      x y z
#    x 1.832310 -0.000010 -0.005520 
#    y -0.000010 1.886710 -0.000070 
#    z -0.005520 -0.000070 1.872310 
# 
# From -- ./inp_files/277822.got.cif
#   From: 2010.06.25/outbox.cif.g09.slc.cpg/sg15_139_cif.got.tgz:277822.got - 2010.06.28 07:06:18.
