data_PCOD8140956
_publ_section_title
;
Structure prediction by ZEFSAII (Michael W. Deem and Ramdas Pophale) SiO2 
 PCOD8140956
Probable space group: C 2/C
;
_chemical_formula_sum "Si O2"
_cell_formula_units_Z 64
_cell_length_a 31.059760
_cell_length_b 18.428324
_cell_length_c 14.899190
_cell_angle_alpha 90.000000
_cell_angle_beta 159.177060
_cell_angle_gamma 90.000000
_cell_volume 3031.539651
_symmetry_space_group_name_H-M "C 2/C"
_symmetry_group_IT_number 15
_symmetry_cell_setting 'monoclinic'
loop_
_space_group_symop_operation_xyz
x,y,z
-x,y,1/2-z
-x,-y,-z
x,-y,1/2+z
1/2+x,1/2+y,z
1/2-x,1/2+y,1/2-z
1/2-x,1/2-y,-z
1/2+x,1/2-y,1/2+z
loop_
_atom_site_type_symbol
_atom_site_label
_atom_site_fract_x
_atom_site_fract_y
_atom_site_fract_z
Si Si1 0.697903 0.868054 0.917523
Si Si2 0.820591 0.419768 0.315688
Si Si3 0.506975 0.796175 0.658979
Si Si4 0.466021 0.337520 0.405040
Si Si5 0.447286 0.542138 0.553623
Si Si6 0.453852 0.955592 0.993272
Si Si7 0.189833 0.505073 0.526856
Si Si8 0.951788 0.117502 0.248939
O O1 0.639839 0.819366 0.883221
O O2 0.601688 0.877714 0.646477
O O3 0.820266 0.830066 0.122126
O O4 0.722907 0.950518 0.000704
O O5 0.843972 0.500183 0.323828
O O6 0.834046 0.429470 0.448791
O O7 0.916546 0.362642 0.463483
O O8 0.690935 0.392079 0.033067
O O9 0.500000 0.774704 0.750000
O O10 0.471177 0.725535 0.531239
O O11 0.502252 0.413871 0.432066
O O12 0.515242 0.331771 0.602637
O O13 0.500000 0.573247 0.750000
O O14 0.301135 0.546423 0.271954
O O15 0.481962 0.458757 0.608590
O O16 0.500000 0.000000 0.000000
O O17 0.571830 0.952226 0.288750
O O18 0.000000 0.153510 0.250000
#
# Coordination Sequence:
#
# PCOD8140956 Si02
#       8
#     8   8   8   8   8   8   8   8
#     4  11  22  41  64  96 124 168 220 270 321 387
#     4  12  20  40  66  90 131 166 219 266 323 395
#     4  12  25  43  66  90 128 180 222 263 321 396
#     4  12  26  41  64  97 134 170 217 271 326 388
#     4  11  22  40  64 100 133 167 209 265 337 384
#     4  10  21  33  61 100 121 155 211 277 315 365
#     4  11  20  37  67  97 127 161 212 269 329 382
#     4  11  23  40  67  95 122 168 213 271 334 390
#
# _framework density 21.111384999999999
#
# number of rings (size 3 to 8) (size 9 to 14) (size 15 to 20)
#    0.000    0.750    7.500    2.250    3.500    0.500 
#    0.000    0.000    0.000    1.500    0.000    0.000 
#    0.000    0.000    0.000    0.000    0.000    0.000 
#
# Total GULP energy -396708.872731 kJ/mol
# GULP energy per Si atom -12397.152273 kJ/mol
# Density = 2.106333 g / cm^3
# Si number density = 21.111385 Si / 1000 Ang^3
#
#
#
# Elastic Constant Matrix: (Units=GPa)
#
#
# Indices 1 2 3 4 5 6 
#
# 1 116.0155 49.7214 49.3600 0.0000 -2.6382 0.0000
# 2 49.7214 41.9268 24.7624 0.0000 -6.2384 0.0000
# 3 49.3600 24.7624 147.5530 0.0000 -0.0791 0.0000
# 4 0.0000 0.0000 0.0000 16.7707 0.0000 2.9118
# 5 -2.6382 -6.2384 -0.0791 0.0000 40.0489 0.0000
# 6 0.0000 0.0000 0.0000 2.9118 0.0000 33.7925
#
#
#
# Elastic Compliance Matrix: (Units=1/GPa)
#
#
# Indices 1 2 3 4 5 6 
#
# 1 0.018661 -0.020805 -0.002752 0.000000 -0.002017 0.000000
# 2 -0.020805 0.050367 -0.001489 0.000000 0.006472 0.000000
# 3 -0.002752 -0.001489 0.007948 0.000000 -0.000398 0.000000
# 4 0.000000 0.000000 0.000000 0.060533 0.000000 -0.005216
# 5 -0.002017 0.006472 -0.000398 0.000000 0.025844 0.000000
# 6 0.000000 0.000000 0.000000 -0.005216 0.000000 0.030042
#
#
# Mechanical properties :
#
#
# Convention : Reuss Voigt Hill
#
# Bulk Modulus (GPa) = 37.19919 61.46478 49.33199
# Shear Modulus (GPa) = 19.80602 30.23251 25.01927
#
# Velocity S-wave (km/s) = 3.06628 3.78835 3.44627
# Velocity P-wave (km/s) = 5.49498 6.95077 6.26530
#
# Compressibility (1/GPa) = 0.02688230
#
# Stress axis : x y z
#
# Youngs Moduli (GPa) = 53.58720 19.85442 125.82401
#
# Poissons Ratio (x) = 0.41307 0.34629
# Poissons Ratio (y) = 1.11489 0.18739
# Poissons Ratio (z) = 0.14748 0.02957
#
# Static dielectric constant tensor:
#      x y z
#    x 3.412850 0.000000 -0.281950 
#    y 0.000000 3.177450 0.000000 
#    z -0.281950 0.000000 4.232320 
# 
# 
# High freq. dielectric constant tensor:
#      x y z
#    x 1.842140 0.000000 0.003930 
#    y 0.000000 1.780270 0.000000 
#    z 0.003930 0.000000 1.834590 
# 
# From -- ./inp_files/183167.got.cif
#   From: 2010.06.25/outbox.cif.g09.slc.cpg/sg15_92_cif.got.tgz:183167.got - 2010.06.28 07:06:18.
