data_PCOD8140943
_publ_section_title
;
Structure prediction by ZEFSAII (Michael W. Deem and Ramdas Pophale) SiO2 
 PCOD8140943
Probable space group: C 2/C
;
_chemical_formula_sum "Si O2"
_cell_formula_units_Z 64
_cell_length_a 20.765773
_cell_length_b 13.527417
_cell_length_c 15.936292
_cell_angle_alpha 90.000000
_cell_angle_beta 46.520597
_cell_angle_gamma 90.000000
_cell_volume 3248.333173
_symmetry_space_group_name_H-M "C 2/C"
_symmetry_group_IT_number 15
_symmetry_cell_setting 'monoclinic'
loop_
_space_group_symop_operation_xyz
x,y,z
-x,y,1/2-z
-x,-y,-z
x,-y,1/2+z
1/2+x,1/2+y,z
1/2-x,1/2+y,1/2-z
1/2-x,1/2-y,-z
1/2+x,1/2-y,1/2+z
loop_
_atom_site_type_symbol
_atom_site_label
_atom_site_fract_x
_atom_site_fract_y
_atom_site_fract_z
Si Si1 0.481737 0.089266 0.954622
Si Si2 0.773027 0.616320 0.537712
Si Si3 0.786729 0.858865 0.773795
Si Si4 0.208445 0.077550 0.771918
Si Si5 0.897055 0.243438 0.830883
Si Si6 0.343521 0.159513 0.774813
Si Si7 0.618936 0.774057 0.839300
Si Si8 0.678758 0.090556 0.525455
O O1 0.568549 0.101126 0.822657
O O2 0.457957 0.186246 0.031063
O O3 0.408056 0.067355 0.951453
O O4 0.500000 0.000000 0.000000
O O5 0.778073 0.597053 0.633403
O O6 0.856120 0.686816 0.440112
O O7 0.672942 0.653144 0.607749
O O8 0.784882 0.515265 0.475260
O O9 0.855500 0.768080 0.720783
O O10 0.710895 0.828549 0.776684
O O11 0.750589 0.860487 0.900729
O O12 0.826984 0.963806 0.705266
O O13 0.260211 0.098519 0.811822
O O14 0.126062 0.154403 0.842433
O O15 0.898783 0.301681 0.741274
O O16 0.000000 0.209006 0.750000
O O17 0.334894 0.163048 0.883543
#
# Coordination Sequence:
#
# PCOD8140943 Si02
#       8
#     8   8   8   8   8   8   8   8
#     4  11  23  36  54  87 123 147 189 248 306 348
#     4   9  20  37  53  83 116 153 191 240 294 356
#     4   9  19  38  58  79 111 149 192 242 291 348
#     4   9  19  38  57  78 113 154 195 239 296 354
#     4  10  21  33  57  84 118 151 196 239 296 353
#     4  11  21  34  60  86 109 151 196 242 296 357
#     4   9  20  36  54  80 116 152 189 241 297 359
#     4  10  21  36  58  83 115 148 195 241 294 352
#
# _framework density 19.702413
#
# number of rings (size 3 to 8) (size 9 to 14) (size 15 to 20)
#    0.000    2.250    0.000    3.000    7.000    0.000 
#    0.000    0.625    0.000   25.500    0.000    0.000 
#    0.000    0.000    0.000    0.000    0.000    0.000 
#
# Total GULP energy -396484.107728 kJ/mol
# GULP energy per Si atom -12390.128367 kJ/mol
# Density = 1.965757 g / cm^3
# Si number density = 19.702413 Si / 1000 Ang^3
#
#
#
# Elastic Constant Matrix: (Units=GPa)
#
#
# Indices 1 2 3 4 5 6 
#
# 1 77.6658 35.0487 34.0912 0.0000 9.9995 0.0000
# 2 35.0487 114.8159 20.4618 0.0000 4.3801 0.0000
# 3 34.0912 20.4618 61.8703 0.0000 -0.1523 0.0000
# 4 0.0000 0.0000 0.0000 24.9874 0.0000 3.9693
# 5 9.9995 4.3801 -0.1523 0.0000 34.2656 0.0000
# 6 0.0000 0.0000 0.0000 3.9693 0.0000 19.8730
#
#
#
# Elastic Compliance Matrix: (Units=1/GPa)
#
#
# Indices 1 2 3 4 5 6 
#
# 1 0.019525 -0.004082 -0.009421 0.000000 -0.005218 0.000000
# 2 -0.004082 0.010158 -0.001110 0.000000 -0.000112 0.000000
# 3 -0.009421 -0.001110 0.021729 0.000000 0.002988 0.000000
# 4 0.000000 0.000000 0.000000 0.041332 0.000000 -0.008255
# 5 -0.005218 -0.000112 0.002988 0.000000 0.030734 0.000000
# 6 0.000000 0.000000 0.000000 -0.008255 0.000000 0.051968
#
#
# Mechanical properties :
#
#
# Convention : Reuss Voigt Hill
#
# Bulk Modulus (GPa) = 45.07771 48.17283 46.62527
# Shear Modulus (GPa) = 23.57732 26.80856 25.19294
#
# Velocity S-wave (km/s) = 3.46305 3.69273 3.57973
# Velocity P-wave (km/s) = 6.23853 6.53338 6.38765
#
# Compressibility (1/GPa) = 0.02218391
#
# Stress axis : x y z
#
# Youngs Moduli (GPa) = 51.21599 98.44582 46.02207
#
# Poissons Ratio (x) = 0.40187 0.43359
# Poissons Ratio (y) = 0.20907 0.05110
# Poissons Ratio (z) = 0.48252 0.10931
#
# Static dielectric constant tensor:
#      x y z
#    x 3.461740 0.000000 0.136090 
#    y 0.000000 3.795090 0.000000 
#    z 0.136090 0.000000 3.540120 
# 
# 
# High freq. dielectric constant tensor:
#      x y z
#    x 1.757860 0.000000 0.018940 
#    y 0.000000 1.768010 0.000000 
#    z 0.018940 0.000000 1.756150 
# 
# From -- ./inp_files/162544.got.cif
#   From: 2010.06.25/outbox.cif.g09.slc.cpg/sg15_82_cif.got.tgz:162544.got - 2010.06.28 07:06:18.
