data_PCOD8140493
_publ_section_title
;
Structure prediction by ZEFSAII (Michael W. Deem and Ramdas Pophale) SiO2 
 PCOD8140493
Probable space group: C 2/C
;
_chemical_formula_sum "Si O2"
_cell_formula_units_Z 36
_cell_length_a 17.117788
_cell_length_b 8.468006
_cell_length_c 11.401208
_cell_angle_alpha 90.000000
_cell_angle_beta 65.802153
_cell_angle_gamma 90.000000
_cell_volume 1507.436536
_symmetry_space_group_name_H-M "C 2/C"
_symmetry_group_IT_number 15
_symmetry_cell_setting 'monoclinic'
loop_
_space_group_symop_operation_xyz
x,y,z
-x,y,1/2-z
-x,-y,-z
x,-y,1/2+z
1/2+x,1/2+y,z
1/2-x,1/2+y,1/2-z
1/2-x,1/2-y,-z
1/2+x,1/2-y,1/2+z
loop_
_atom_site_type_symbol
_atom_site_label
_atom_site_fract_x
_atom_site_fract_y
_atom_site_fract_z
Si Si1 0.900120 0.985638 0.822905
Si Si2 0.647189 0.239041 0.296752
Si Si3 0.366232 0.840336 0.429951
Si Si4 0.268010 0.593439 0.060119
Si Si5 0.500000 0.939526 0.750000
O O1 0.878777 0.799470 0.826660
O O2 0.000000 0.017823 0.750000
O O3 0.849168 0.078332 0.749882
O O4 0.867737 0.053447 0.971345
O O5 0.638094 0.239239 0.440434
O O6 0.733688 0.137969 0.211223
O O7 0.565226 0.164752 0.283712
O O8 0.280342 0.936542 0.456503
O O9 0.448039 0.954494 0.374589
O O10 0.250000 0.750000 0.000000
#
# Coordination Sequence:
#
# PCOD8140493 Si02
#       5
#     8   8   8   8   4
#     4  11  22  42  64  99 138 169 221 280 328 398
#     4  10  22  41  65  92 131 179 219 270 334 396
#     4  11  22  40  66  95 131 177 222 269 339 399
#     4   9  22  42  65  93 134 172 225 279 323 395
#     4  10  20  42  60  96 128 164 224 284 324 392
#
# _framework density 23.881603999999999
#
# number of rings (size 3 to 8) (size 9 to 14) (size 15 to 20)
#    0.000    1.778    2.222    1.333    0.000    4.444 
#    0.000    4.444    0.000    0.000    0.000    0.000 
#    0.000    0.000    0.000    0.000    0.000    0.000 
#
# Total GULP energy -222999.948864 kJ/mol
# GULP energy per Si atom -12388.886048 kJ/mol
# Density = 2.382725 g / cm^3
# Si number density = 23.881604 Si / 1000 Ang^3
#
#
#
# Elastic Constant Matrix: (Units=GPa)
#
#
# Indices 1 2 3 4 5 6 
#
# 1 71.4426 37.0657 49.4357 0.0000 -35.4877 0.0000
# 2 37.0657 159.9266 48.6363 0.0000 -0.4495 0.0000
# 3 49.4357 48.6363 117.8067 0.0000 -17.2473 0.0000
# 4 0.0000 0.0000 0.0000 38.1956 0.0000 -14.7913
# 5 -35.4877 -0.4495 -17.2473 0.0000 48.6674 0.0000
# 6 0.0000 0.0000 0.0000 -14.7913 0.0000 14.7959
#
#
#
# Elastic Compliance Matrix: (Units=1/GPa)
#
#
# Indices 1 2 3 4 5 6 
#
# 1 0.032998 -0.004928 -0.008751 0.000000 0.020915 0.000000
# 2 -0.004928 0.007936 -0.001818 0.000000 -0.004164 0.000000
# 3 -0.008751 -0.001818 0.012630 0.000000 -0.001922 0.000000
# 4 0.000000 0.000000 0.000000 0.042719 0.000000 0.042705
# 5 0.020915 -0.004164 -0.001922 0.000000 0.035079 0.000000
# 6 0.000000 0.000000 0.000000 0.042705 0.000000 0.110278
#
#
# Mechanical properties :
#
#
# Convention : Reuss Voigt Hill
#
# Bulk Modulus (GPa) = 44.30497 68.82793 56.56645
# Shear Modulus (GPa) = 17.84705 34.60098 26.22401
#
# Velocity S-wave (km/s) = 2.73667 3.81051 3.31733
# Velocity P-wave (km/s) = 5.34584 6.94572 6.19762
#
# Compressibility (1/GPa) = 0.02257083
#
# Stress axis : x y z
#
# Youngs Moduli (GPa) = 30.30446 126.00417 79.17738
#
# Poissons Ratio (x) = 0.62094 0.69286
# Poissons Ratio (y) = 0.14934 0.14396
# Poissons Ratio (z) = 0.26519 0.22910
#
# Static dielectric constant tensor:
#      x y z
#    x 4.093150 0.000000 -0.663270 
#    y 0.000000 4.910750 0.000000 
#    z -0.663270 0.000000 4.676280 
# 
# 
# High freq. dielectric constant tensor:
#      x y z
#    x 1.914400 0.000000 -0.044390 
#    y 0.000000 1.982320 0.000000 
#    z -0.044390 0.000000 1.949370 
# 
# From -- ./inp_files/102608.got.cif
#   From: 2010.06.25/outbox.cif.g09.slc.cpg/sg15_52_cif.got.tgz:102608.got - 2010.06.28 07:06:18.
