data_PCOD8140713
_publ_section_title
;
Structure prediction by ZEFSAII (Michael W. Deem and Ramdas Pophale) SiO2 
 PCOD8140713
Probable space group: C 2/C
;
_chemical_formula_sum "Si O2"
_cell_formula_units_Z 60
_cell_length_a 9.128153
_cell_length_b 22.449120
_cell_length_c 21.542583
_cell_angle_alpha 90.000000
_cell_angle_beta 36.530114
_cell_angle_gamma 90.000000
_cell_volume 2627.700786
_symmetry_space_group_name_H-M "C 2/C"
_symmetry_group_IT_number 15
_symmetry_cell_setting 'monoclinic'
loop_
_space_group_symop_operation_xyz
x,y,z
-x,y,1/2-z
-x,-y,-z
x,-y,1/2+z
1/2+x,1/2+y,z
1/2-x,1/2+y,1/2-z
1/2-x,1/2-y,-z
1/2+x,1/2-y,1/2+z
loop_
_atom_site_type_symbol
_atom_site_label
_atom_site_fract_x
_atom_site_fract_y
_atom_site_fract_z
Si Si1 0.730049 0.771069 0.710737
Si Si2 0.905878 0.298886 0.482239
Si Si3 0.788811 0.893175 0.652882
Si Si4 0.966293 0.419845 0.403360
Si Si5 0.098262 0.893198 0.427370
Si Si6 0.500000 0.452913 0.250000
Si Si7 0.590120 0.500510 0.591068
Si Si8 0.538249 0.740822 0.909057
O O1 0.500000 0.793642 0.750000
O O2 0.892404 0.832020 0.650882
O O3 0.683703 0.757994 0.797973
O O4 0.825673 0.714174 0.639366
O O5 0.750000 0.250000 0.500000
O O6 0.851202 0.367583 0.485991
O O7 0.880114 0.285614 0.564001
O O8 0.500000 0.901405 0.750000
O O9 0.882762 0.894905 0.550803
O O10 0.889381 0.949188 0.655733
O O11 0.862705 0.410340 0.368482
O O12 0.848473 0.480995 0.470927
O O13 0.264480 0.417019 0.301797
O O14 0.114080 0.826828 0.395439
O O15 0.019588 0.939308 0.401209
O O16 0.372211 0.489858 0.348469
O O17 0.250000 0.750000 0.000000
#
# Coordination Sequence:
#
# PCOD8140713 Si02
#       8
#     8   8   8   8   8   4   8   8
#     4  11  23  42  68 106 140 180 238 285 354 431
#     4  12  24  46  70 100 151 181 228 301 355 427
#     4  10  20  42  72 102 137 184 239 295 344 434
#     4  11  26  49  72 103 144 191 241 297 367 428
#     4  11  24  48  72 102 146 187 244 295 358 442
#     4  12  30  46  68 104 146 184 234 310 348 436
#     4  11  27  46  74 102 143 188 242 295 370 425
#     4  12  24  43  74 107 140 193 232 295 368 427
#
# _framework density 22.833649000000001
#
# number of rings (size 3 to 8) (size 9 to 14) (size 15 to 20)
#    0.000    0.800    4.000    3.600    8.400    1.600 
#    0.000    0.000    0.000    0.000    0.000    0.000 
#    0.000    0.000    0.000    0.000    0.000    0.000 
#
# Total GULP energy -371805.011015 kJ/mol
# GULP energy per Si atom -12393.500367 kJ/mol
# Density = 2.278168 g / cm^3
# Si number density = 22.833649 Si / 1000 Ang^3
#
#
#
# Elastic Constant Matrix: (Units=GPa)
#
#
# Indices 1 2 3 4 5 6 
#
# 1 111.0739 32.0414 41.9938 0.0052 16.4409 -0.0045
# 2 32.0414 104.8355 12.4963 0.0003 16.9236 -0.0007
# 3 41.9938 12.4963 79.3249 -0.0118 10.2968 -0.0009
# 4 0.0052 0.0003 -0.0118 28.8640 0.0023 3.3923
# 5 16.4409 16.9236 10.2968 0.0023 56.2905 0.0004
# 6 -0.0045 -0.0007 -0.0009 3.3923 0.0004 23.4457
#
#
#
# Elastic Compliance Matrix: (Units=1/GPa)
#
#
# Indices 1 2 3 4 5 6 
#
# 1 0.012259 -0.002781 -0.005834 -0.000005 -0.001677 0.000003
# 2 -0.002781 0.010772 0.000092 0.000001 -0.002443 0.000000
# 3 -0.005834 0.000092 0.015839 0.000008 -0.001221 -0.000002
# 4 -0.000005 0.000001 0.000008 0.035245 -0.000002 -0.005100
# 5 -0.001677 -0.002443 -0.001221 -0.000002 0.019213 -0.000001
# 6 0.000003 0.000000 -0.000002 -0.005100 -0.000001 0.043390
#
#
# Mechanical properties :
#
#
# Convention : Reuss Voigt Hill
#
# Bulk Modulus (GPa) = 45.81883 52.03303 48.92593
# Shear Modulus (GPa) = 31.04879 35.63356 33.34117
#
# Velocity S-wave (km/s) = 3.69152 3.95469 3.82537
# Velocity P-wave (km/s) = 6.18706 6.60985 6.40195
#
# Compressibility (1/GPa) = 0.02182509
#
# Stress axis : x y z
#
# Youngs Moduli (GPa) = 81.57193 92.83298 63.13584
#
# Poissons Ratio (x) = 0.25813 0.36834
# Poissons Ratio (y) = 0.22682 -0.00582
# Poissons Ratio (z) = 0.47590 -0.00856
#
# Static dielectric constant tensor:
#      x y z
#    x 4.430050 -0.000030 -0.042680 
#    y -0.000030 4.640150 0.000070 
#    z -0.042680 0.000070 4.547270 
# 
# 
# High freq. dielectric constant tensor:
#      x y z
#    x 1.905620 0.000000 -0.006860 
#    y 0.000000 1.908290 0.000000 
#    z -0.006860 0.000000 1.908330 
# 
# From -- ./inp_files/234551.got.cif
#   From: 2010.06.25/outbox.cif.g09.slc.cpg/sg15_118_cif.got.tgz:234551.got - 2010.06.28 07:06:18.
