data_PCOD8140212
_publ_section_title
;
Structure prediction by ZEFSAII (Michael W. Deem and Ramdas Pophale) SiO2 
 PCOD8140212
Probable space group: C 2/C
;
_chemical_formula_sum "Si O2"
_cell_formula_units_Z 48
_cell_length_a 13.331456
_cell_length_b 29.326242
_cell_length_c 7.794756
_cell_angle_alpha 90.000000
_cell_angle_beta 141.170256
_cell_angle_gamma 90.000000
_cell_volume 1910.776169
_symmetry_space_group_name_H-M "C 2/C"
_symmetry_group_IT_number 15
_symmetry_cell_setting 'monoclinic'
loop_
_space_group_symop_operation_xyz
x,y,z
-x,y,1/2-z
-x,-y,-z
x,-y,1/2+z
1/2+x,1/2+y,z
1/2-x,1/2+y,1/2-z
1/2-x,1/2-y,-z
1/2+x,1/2-y,1/2+z
loop_
_atom_site_type_symbol
_atom_site_label
_atom_site_fract_x
_atom_site_fract_y
_atom_site_fract_z
Si Si1 0.811123 0.141385 0.628253
Si Si2 0.613657 0.792757 0.061567
Si Si3 0.308440 0.797310 0.844095
Si Si4 0.816579 0.451447 0.460248
Si Si5 0.816211 0.550236 0.560455
Si Si6 0.112097 0.865893 0.736027
O O1 0.706584 0.159812 0.652286
O O2 0.761439 0.172752 0.404809
O O3 0.767961 0.088265 0.543046
O O4 0.000015 0.144338 0.920842
O O5 0.500000 0.779244 0.750000
O O6 0.502045 0.796276 0.084223
O O7 0.745709 0.753867 0.260982
O O8 0.240830 0.823965 0.923098
O O9 0.746144 0.500826 0.416196
O O10 0.793247 0.441852 0.230216
O O11 0.000000 0.451967 0.750000
O O12 0.707216 0.587811 0.322440
O O13 0.000000 0.556086 0.750000
O O14 0.000000 0.870014 0.750000
#
# Coordination Sequence:
#
# PCOD8140212 Si02
#       6
#     8   8   8   8   8   8
#     4  11  23  42  70 102 139 179 231 279 342 410
#     4  10  20  40  70 106 137 174 236 288 337 407
#     4  11  23  41  73 101 138 186 231 287 340 408
#     4  11  23  44  73 104 135 175 233 279 343 413
#     4  11  26  45  72  98 140 180 232 286 343 409
#     4  12  26  45  62  98 144 181 226 287 334 409
#
# _framework density 25.120681999999999
#
# number of rings (size 3 to 8) (size 9 to 14) (size 15 to 20)
#    0.000    1.000    1.667    8.000    7.000    0.667 
#    0.000    3.333    0.000    0.000    0.000    0.000 
#    0.000    0.000    0.000    0.000    0.000    0.000 
#
# Total GULP energy -297648.533450 kJ/mol
# GULP energy per Si atom -12402.022227 kJ/mol
# Density = 2.506351 g / cm^3
# Si number density = 25.120682 Si / 1000 Ang^3
#
#
#
# Elastic Constant Matrix: (Units=GPa)
#
#
# Indices 1 2 3 4 5 6 
#
# 1 101.8662 44.9488 4.9294 0.0000 25.2741 0.0000
# 2 44.9488 164.8334 19.6327 0.0000 37.5671 0.0000
# 3 4.9294 19.6327 39.6626 0.0000 26.7239 0.0000
# 4 0.0000 0.0000 0.0000 38.2771 0.0000 4.7162
# 5 25.2741 37.5671 26.7239 0.0000 47.6585 0.0000
# 6 0.0000 0.0000 0.0000 4.7162 0.0000 35.6454
#
#
#
# Elastic Compliance Matrix: (Units=1/GPa)
#
#
# Indices 1 2 3 4 5 6 
#
# 1 0.012413 -0.002249 0.004518 0.000000 -0.007343 0.000000
# 2 -0.002249 0.007807 -0.000389 0.000000 -0.004743 0.000000
# 3 0.004518 -0.000389 0.042192 0.000000 -0.025748 0.000000
# 4 0.000000 0.000000 0.000000 0.026558 0.000000 -0.003514
# 5 -0.007343 -0.004743 -0.025748 0.000000 0.043054 0.000000
# 6 0.000000 0.000000 0.000000 -0.003514 0.000000 0.028519
#
#
# Mechanical properties :
#
#
# Convention : Reuss Voigt Hill
#
# Bulk Modulus (GPa) = 15.11213 49.48710 32.29962
# Shear Modulus (GPa) = 27.95777 40.10630 34.03203
#
# Velocity S-wave (km/s) = 3.33969 4.00001 3.68467
# Velocity P-wave (km/s) = 4.57168 6.40906 5.56670
#
# Compressibility (1/GPa) = 0.06617200
#
# Stress axis : x y z
#
# Youngs Moduli (GPa) = 80.56312 128.08207 23.70097
#
# Poissons Ratio (x) = 0.28811 -0.10709
# Poissons Ratio (y) = 0.18122 0.00923
# Poissons Ratio (z) = -0.36402 0.04986
#
# Static dielectric constant tensor:
#      x y z
#    x 5.107120 0.000000 0.150960 
#    y 0.000000 4.841710 0.000000 
#    z 0.150960 0.000000 4.435610 
# 
# 
# High freq. dielectric constant tensor:
#      x y z
#    x 2.020270 0.000000 0.002970 
#    y 0.000000 2.009960 0.000000 
#    z 0.002970 0.000000 2.002540 
# 
# From -- ./inp_files/43929.got.cif
#   From: 2010.06.25/outbox.cif.g09.slc.cpg/sg15_22_cif.got.tgz:43929.got - 2010.06.28 07:06:18.
