data_PCOD8140114
_publ_section_title
;
Structure prediction by ZEFSAII (Michael W. Deem and Ramdas Pophale) SiO2 
 PCOD8140114
Probable space group: C 2/C
;
_chemical_formula_sum "Si O2"
_cell_formula_units_Z 60
_cell_length_a 11.260171
_cell_length_b 15.526885
_cell_length_c 17.189359
_cell_angle_alpha 90.000000
_cell_angle_beta 92.115971
_cell_angle_gamma 90.000000
_cell_volume 3003.258919
_symmetry_space_group_name_H-M "C 2/C"
_symmetry_group_IT_number 15
_symmetry_cell_setting 'monoclinic'
loop_
_space_group_symop_operation_xyz
x,y,z
-x,y,1/2-z
-x,-y,-z
x,-y,1/2+z
1/2+x,1/2+y,z
1/2-x,1/2+y,1/2-z
1/2-x,1/2-y,-z
1/2+x,1/2-y,1/2+z
loop_
_atom_site_type_symbol
_atom_site_label
_atom_site_fract_x
_atom_site_fract_y
_atom_site_fract_z
Si Si1 0.782841 0.636683 0.795548
Si Si2 0.506493 0.137060 0.469189
Si Si3 0.338522 0.985089 0.428208
Si Si4 0.000000 0.251304 0.250000
Si Si5 0.619192 0.448377 0.991321
Si Si6 0.105451 0.766756 0.911235
Si Si7 0.952975 0.233956 0.664342
Si Si8 0.311120 0.356356 0.369147
O O1 0.841035 0.557518 0.843456
O O2 0.892844 0.697234 0.784053
O O3 0.675264 0.687506 0.835290
O O4 0.736987 0.603207 0.711586
O O5 0.610153 0.076360 0.503810
O O6 0.466080 0.194982 0.541497
O O7 0.559817 0.188698 0.397467
O O8 0.400158 0.078463 0.432392
O O9 0.198003 0.995543 0.436039
O O10 0.048647 0.201649 0.327321
O O11 0.603747 0.351036 0.962581
O O12 0.500000 0.500000 0.000000
O O13 0.693581 0.437362 0.072980
O O14 0.236229 0.727061 0.897014
O O15 0.000000 0.267302 0.750000
O O16 0.050854 0.168562 0.634072
#
# Coordination Sequence:
#
# PCOD8140114 Si02
#       8
#     8   8   8   4   8   8   8   8
#     4  10  22  39  65  87 127 157 206 261 312 370
#     4  11  22  40  66  87 128 160 213 260 299 381
#     4  11  24  40  58  98 123 161 206 258 318 357
#     4  10  22  42  68  92 116 170 218 246 318 380
#     4  12  24  39  62  94 126 160 208 260 314 371
#     4  11  21  42  69  86 121 174 211 252 305 393
#     4  10  21  39  61  93 116 162 210 258 310 370
#     4  10  20  40  67  85 119 172 211 241 314 383
#
# _framework density 19.978297000000001
#
# number of rings (size 3 to 8) (size 9 to 14) (size 15 to 20)
#    0.000    1.333    4.000    2.000    0.000    1.600 
#    6.000    0.000    0.000    0.000    0.000    0.000 
#    0.000    0.000    0.000    0.000    0.000    0.000 
#
# Total GULP energy -371783.189576 kJ/mol
# GULP energy per Si atom -12392.772986 kJ/mol
# Density = 1.993283 g / cm^3
# Si number density = 19.978297 Si / 1000 Ang^3
#
#
#
# Elastic Constant Matrix: (Units=GPa)
#
#
# Indices 1 2 3 4 5 6 
#
# 1 85.7242 22.6671 9.1566 0.0000 -2.9427 0.0000
# 2 22.6671 65.4660 40.0427 0.0000 8.3559 0.0000
# 3 9.1566 40.0427 103.6874 0.0000 10.5852 0.0000
# 4 0.0000 0.0000 0.0000 -3.0508 0.0000 11.9565
# 5 -2.9427 8.3559 10.5852 0.0000 30.5213 0.0000
# 6 0.0000 0.0000 0.0000 11.9565 0.0000 9.0058
#
#
#
# Elastic Compliance Matrix: (Units=1/GPa)
#
#
# Indices 1 2 3 4 5 6 
#
# 1 0.013063 -0.005209 0.000605 0.000000 0.002476 0.000000
# 2 -0.005209 0.022327 -0.007762 0.000000 -0.003923 0.000000
# 3 0.000605 -0.007762 0.012819 0.000000 -0.002263 0.000000
# 4 0.000000 0.000000 0.000000 -0.052841 0.000000 0.070154
# 5 0.002476 -0.003923 -0.002263 0.000000 0.034861 0.000000
# 6 0.000000 0.000000 0.000000 0.070154 0.000000 0.017900
#
#
# Mechanical properties :
#
#
# Convention : Reuss Voigt Hill
#
# Bulk Modulus (GPa) = 42.59295 44.29003 43.44149
# Shear Modulus (GPa) = 61.96717 19.49601 40.73159
#
# Velocity S-wave (km/s) = 5.57535 3.12726 4.52020
# Velocity P-wave (km/s) = 7.92540 5.93775 7.00246
#
# Compressibility (1/GPa) = 0.02347806
#
# Stress axis : x y z
#
# Youngs Moduli (GPa) = 76.55175 44.78857 78.00648
#
# Poissons Ratio (x) = 0.23332 -0.04723
# Poissons Ratio (y) = 0.39878 0.60548
# Poissons Ratio (z) = -0.04635 0.34765
#
# Static dielectric constant tensor:
#      x y z
#    x 3.820560 0.000000 0.182310 
#    y 0.000000 3.364740 0.000000 
#    z 0.182310 0.000000 4.285190 
# 
# 
# High freq. dielectric constant tensor:
#      x y z
#    x 1.792650 0.000000 0.001690 
#    y 0.000000 1.752890 0.000000 
#    z 0.001690 0.000000 1.800680 
# 
# From -- ./inp_files/197819.got.cif
#   From: 2010.06.25/outbox.cif.g09.slc.cpg/sg15_99_cif.got.tgz:197819.got - 2010.06.28 07:06:18.
