data_PCOD8140243
_publ_section_title
;
Structure prediction by ZEFSAII (Michael W. Deem and Ramdas Pophale) SiO2 
 PCOD8140243
Probable space group: C 2/C
;
_chemical_formula_sum "Si O2"
_cell_formula_units_Z 60
_cell_length_a 16.921335
_cell_length_b 9.352595
_cell_length_c 19.970347
_cell_angle_alpha 90.000000
_cell_angle_beta 120.260949
_cell_angle_gamma 90.000000
_cell_volume 2729.826235
_symmetry_space_group_name_H-M "C 2/C"
_symmetry_group_IT_number 15
_symmetry_cell_setting 'monoclinic'
loop_
_space_group_symop_operation_xyz
x,y,z
-x,y,1/2-z
-x,-y,-z
x,-y,1/2+z
1/2+x,1/2+y,z
1/2-x,1/2+y,1/2-z
1/2-x,1/2-y,-z
1/2+x,1/2-y,1/2+z
loop_
_atom_site_type_symbol
_atom_site_label
_atom_site_fract_x
_atom_site_fract_y
_atom_site_fract_z
Si Si1 0.384987 0.076842 0.138972
Si Si2 0.094258 0.477535 0.705898
Si Si3 0.232873 0.589726 0.013935
Si Si4 0.312106 0.194732 0.363921
Si Si5 0.899286 0.102895 0.611437
Si Si6 0.934513 0.960634 0.411200
Si Si7 0.000000 0.928544 0.750000
Si Si8 0.625137 0.292078 0.703579
O O1 0.349999 0.044540 0.200068
O O2 0.490806 0.045516 0.180610
O O3 0.361288 0.238678 0.107440
O O4 0.341768 0.969308 0.068091
O O5 0.118120 0.362428 0.660876
O O6 0.116339 0.627595 0.678807
O O7 0.194319 0.593550 0.073396
O O8 0.322399 0.491227 0.041827
O O9 0.250000 0.750000 0.000000
O O10 0.355226 0.349895 0.400275
O O11 0.213325 0.195250 0.287822
O O12 0.997378 0.103647 0.615813
O O13 0.916602 0.029518 0.690767
O O14 0.877816 0.100336 0.361050
O O15 0.000000 0.000000 0.500000
O O16 0.965929 0.824966 0.793435
#
# Coordination Sequence:
#
# PCOD8140243 Si02
#       8
#     8   8   8   8   8   8   4   8
#     4  11  25  45  70 102 146 189 238 299 369 447
#     4  11  25  43  71 104 139 188 243 299 365 441
#     4  12  27  44  72 105 145 185 244 301 367 448
#     4  12  25  46  70 107 145 188 246 312 367 441
#     4  11  23  44  69  98 134 189 232 292 368 441
#     4  11  26  45  71 103 148 189 243 305 375 443
#     4  10  20  40  72  96 126 180 242 278 350 436
#     4  11  24  42  71 102 140 190 241 301 366 432
#
# _framework density 21.979422
#
# number of rings (size 3 to 8) (size 9 to 14) (size 15 to 20)
#    0.000    0.800    2.667    4.400    7.467    3.733 
#    0.000    0.000    0.000    0.000    0.000    0.000 
#    0.000    0.000    0.000    0.000    0.000    0.000 
#
# Total GULP energy -371940.706881 kJ/mol
# GULP energy per Si atom -12398.023563 kJ/mol
# Density = 2.192940 g / cm^3
# Si number density = 21.979422 Si / 1000 Ang^3
#
#
#
# Elastic Constant Matrix: (Units=GPa)
#
#
# Indices 1 2 3 4 5 6 
#
# 1 55.2192 20.8525 33.0385 0.0000 6.6658 0.0000
# 2 20.8525 146.4412 56.0745 0.0000 10.7153 0.0000
# 3 33.0385 56.0745 137.3196 0.0000 0.8809 0.0000
# 4 0.0000 0.0000 0.0000 33.2953 0.0000 10.0954
# 5 6.6658 10.7153 0.8809 0.0000 22.1163 0.0000
# 6 0.0000 0.0000 0.0000 10.0954 0.0000 29.0431
#
#
#
# Elastic Compliance Matrix: (Units=1/GPa)
#
#
# Indices 1 2 3 4 5 6 
#
# 1 0.022110 -0.000808 -0.004951 0.000000 -0.006075 0.000000
# 2 -0.000808 0.008455 -0.003234 0.000000 -0.003724 0.000000
# 3 -0.004951 -0.003234 0.009777 0.000000 0.002670 0.000000
# 4 0.000000 0.000000 0.000000 0.033573 0.000000 -0.011670
# 5 -0.006075 -0.003724 0.002670 0.000000 0.048745 0.000000
# 6 0.000000 0.000000 0.000000 -0.011670 0.000000 0.038488
#
#
# Mechanical properties :
#
#
# Convention : Reuss Voigt Hill
#
# Bulk Modulus (GPa) = 44.73087 62.10120 53.41604
# Shear Modulus (GPa) = 26.79746 32.15858 29.47802
#
# Velocity S-wave (km/s) = 3.49550 3.82923 3.66616
# Velocity P-wave (km/s) = 6.05696 6.91854 6.50204
#
# Compressibility (1/GPa) = 0.02235593
#
# Stress axis : x y z
#
# Youngs Moduli (GPa) = 45.22792 118.27834 102.28187
#
# Poissons Ratio (x) = 0.09559 0.50636
# Poissons Ratio (y) = 0.03655 0.33079
# Poissons Ratio (z) = 0.22391 0.38253
#
# Static dielectric constant tensor:
#      x y z
#    x 3.975770 0.000000 -0.149870 
#    y 0.000000 5.012100 0.000000 
#    z -0.149870 0.000000 4.325170 
# 
# 
# High freq. dielectric constant tensor:
#      x y z
#    x 1.860830 0.000000 0.002710 
#    y 0.000000 1.874280 0.000000 
#    z 0.002710 0.000000 1.872240 
# 
# From -- ./inp_files/247840.got.cif
#   From: 2010.06.25/outbox.cif.g09.slc.cpg/sg15_124_cif.got.tgz:247840.got - 2010.06.28 07:06:18.
