data_PCOD8140035
_publ_section_title
;
Structure prediction by ZEFSAII (Michael W. Deem and Ramdas Pophale) SiO2 
 PCOD8140035
Probable space group: C 2/C
;
_chemical_formula_sum "Si O2"
_cell_formula_units_Z 40
_cell_length_a 9.066402
_cell_length_b 23.593657
_cell_length_c 9.198531
_cell_angle_alpha 90.000000
_cell_angle_beta 83.052206
_cell_angle_gamma 90.000000
_cell_volume 1953.204984
_symmetry_space_group_name_H-M "C 2/C"
_symmetry_group_IT_number 15
_symmetry_cell_setting 'monoclinic'
loop_
_space_group_symop_operation_xyz
x,y,z
-x,y,1/2-z
-x,-y,-z
x,-y,1/2+z
1/2+x,1/2+y,z
1/2-x,1/2+y,1/2-z
1/2-x,1/2-y,-z
1/2+x,1/2-y,1/2+z
loop_
_atom_site_type_symbol
_atom_site_label
_atom_site_fract_x
_atom_site_fract_y
_atom_site_fract_z
Si Si1 0.687802 0.819981 0.448954
Si Si2 0.862801 0.858076 0.168839
Si Si3 0.132175 0.547380 0.627384
Si Si4 0.063382 0.573947 0.100671
Si Si5 0.031981 0.214606 0.415627
O O1 0.761968 0.817009 0.280237
O O2 0.654896 0.885139 0.486077
O O3 0.797830 0.801370 0.565655
O O4 0.535955 0.782026 0.457546
O O5 0.778986 0.915108 0.130944
O O6 0.000000 0.878932 0.250000
O O7 0.913516 0.820845 0.023789
O O8 0.163367 0.479838 0.642933
O O9 0.000000 0.567897 0.750000
O O10 0.081671 0.552979 0.467350
O O11 0.000000 0.606531 0.250000
O O12 0.000000 0.203673 0.250000
#
# Coordination Sequence:
#
# PCOD8140035 Si02
#       5
#     8   8   8   8   8
#     4  10  22  42  60  88 128 161 205 252 308 372
#     4  10  22  42  64  89 128 166 198 253 317 371
#     4  10  20  40  65  92 122 161 209 250 309 365
#     4  10  22  36  64  93 120 160 211 256 294 363
#     4  10  24  40  61  92 122 161 208 255 309 367
#
# _framework density 20.479161000000001
#
# number of rings (size 3 to 8) (size 9 to 14) (size 15 to 20)
#    0.000    2.000    2.000    0.000    5.600    4.800 
#    0.000    5.000    0.000    0.000    0.000    0.000 
#    0.000    0.000    0.000    0.000    0.000    0.000 
#
# Total GULP energy -247827.238626 kJ/mol
# GULP energy per Si atom -12391.361931 kJ/mol
# Density = 2.043255 g / cm^3
# Si number density = 20.479161 Si / 1000 Ang^3
#
#
#
# Elastic Constant Matrix: (Units=GPa)
#
#
# Indices 1 2 3 4 5 6 
#
# 1 79.2988 64.0833 50.6720 0.0000 -0.6931 0.0000
# 2 64.0833 128.2565 59.0290 0.0000 -5.9950 0.0000
# 3 50.6720 59.0290 155.3172 0.0000 3.8563 0.0000
# 4 0.0000 0.0000 0.0000 28.9680 0.0000 1.1417
# 5 -0.6931 -5.9950 3.8563 0.0000 29.9828 0.0000
# 6 0.0000 0.0000 0.0000 1.1417 0.0000 33.5194
#
#
#
# Elastic Compliance Matrix: (Units=1/GPa)
#
#
# Indices 1 2 3 4 5 6 
#
# 1 0.022868 -0.009753 -0.003731 0.000000 -0.000942 0.000000
# 2 -0.009753 0.013779 -0.002124 0.000000 0.002803 0.000000
# 3 -0.003731 -0.002124 0.008503 0.000000 -0.001605 0.000000
# 4 0.000000 0.000000 0.000000 0.034567 0.000000 -0.001177
# 5 -0.000942 0.002803 -0.001605 0.000000 0.034098 0.000000
# 6 0.000000 0.000000 0.000000 -0.001177 0.000000 0.029874
#
#
# Mechanical properties :
#
#
# Convention : Reuss Voigt Hill
#
# Bulk Modulus (GPa) = 71.76961 78.93790 75.35375
# Shear Modulus (GPa) = 27.84781 31.09991 29.47386
#
# Velocity S-wave (km/s) = 3.69156 3.90117 3.79781
# Velocity P-wave (km/s) = 7.30010 7.67602 7.49042
#
# Compressibility (1/GPa) = 0.01393347
#
# Stress axis : x y z
#
# Youngs Moduli (GPa) = 43.72991 72.57625 117.60924
#
# Poissons Ratio (x) = 0.70783 0.43875
# Poissons Ratio (y) = 0.42649 0.24984
# Poissons Ratio (z) = 0.16314 0.15418
#
# Static dielectric constant tensor:
#      x y z
#    x 3.526240 0.000000 0.115050 
#    y 0.000000 3.845170 0.000000 
#    z 0.115050 0.000000 3.835920 
# 
# 
# High freq. dielectric constant tensor:
#      x y z
#    x 1.771390 0.000000 0.015000 
#    y 0.000000 1.803420 0.000000 
#    z 0.015000 0.000000 1.815690 
# 
# From -- ./inp_files/23477.got.cif
#   From: 2010.06.25/outbox.cif.g09.slc.cpg/sg15_12_cif.got.tgz:23477.got - 2010.06.28 07:06:18.
