data_PCOD8140414
_publ_section_title
;
Structure prediction by ZEFSAII (Michael W. Deem and Ramdas Pophale) SiO2 
 PCOD8140414
Probable space group: C 2/C
;
_chemical_formula_sum "Si O2"
_cell_formula_units_Z 56
_cell_length_a 11.476018
_cell_length_b 8.608210
_cell_length_c 25.145135
_cell_angle_alpha 90.000000
_cell_angle_beta 100.695759
_cell_angle_gamma 90.000000
_cell_volume 2440.880591
_symmetry_space_group_name_H-M "C 2/C"
_symmetry_group_IT_number 15
_symmetry_cell_setting 'monoclinic'
loop_
_space_group_symop_operation_xyz
x,y,z
-x,y,1/2-z
-x,-y,-z
x,-y,1/2+z
1/2+x,1/2+y,z
1/2-x,1/2+y,1/2-z
1/2-x,1/2-y,-z
1/2+x,1/2-y,1/2+z
loop_
_atom_site_type_symbol
_atom_site_label
_atom_site_fract_x
_atom_site_fract_y
_atom_site_fract_z
Si Si1 0.890023 0.627727 0.412844
Si Si2 0.855124 0.602173 0.088559
Si Si3 0.722546 0.971443 0.803997
Si Si4 0.172399 0.885730 0.018144
Si Si5 0.152038 0.971289 0.413710
Si Si6 0.649047 0.763660 0.704866
Si Si7 0.019392 0.030910 0.192144
O O1 0.899319 0.801851 0.439969
O O2 0.790822 0.518453 0.430572
O O3 0.853914 0.637778 0.348632
O O4 0.020101 0.549457 0.427500
O O5 0.849630 0.537164 0.147775
O O6 0.749210 0.529080 0.046419
O O7 0.851444 0.787578 0.089813
O O8 0.649533 0.879352 0.753988
O O9 0.857047 0.900246 0.821175
O O10 0.734455 0.151171 0.786373
O O11 0.250000 0.750000 0.000000
O O12 0.092676 0.961205 0.963620
O O13 0.089432 0.057192 0.358012
O O14 0.531638 0.656468 0.698501
O O15 0.000000 0.101001 0.250000
#
# Coordination Sequence:
#
# PCOD8140414 Si02
#       7
#     8   8   8   8   8   8   8
#     4  11  24  45  71  98 145 179 224 292 345 402
#     4  12  23  47  67 104 134 183 230 284 341 410
#     4  10  23  38  68  97 135 176 229 277 344 411
#     4  10  24  47  68 102 141 179 235 285 339 411
#     4  11  24  43  72  99 134 187 227 282 346 408
#     4  10  21  41  64  98 136 173 223 284 339 405
#     4  10  20  41  67  95 134 177 222 280 345 402
#
# _framework density 22.942540000000001
#
# number of rings (size 3 to 8) (size 9 to 14) (size 15 to 20)
#    0.857    0.571    2.857    2.143    2.000    2.857 
#    7.714    0.000    3.143    0.000    0.000    0.000 
#    0.000    0.000    0.000    0.000    0.000    0.000 
#
# Total GULP energy -346947.297268 kJ/mol
# GULP energy per Si atom -12390.974902 kJ/mol
# Density = 2.289032 g / cm^3
# Si number density = 22.942540 Si / 1000 Ang^3
#
#
#
# Elastic Constant Matrix: (Units=GPa)
#
#
# Indices 1 2 3 4 5 6 
#
# 1 77.1147 -8.0290 11.7554 0.0000 -5.7595 0.0000
# 2 -8.0290 27.1578 16.5436 0.0000 8.8201 0.0000
# 3 11.7554 16.5436 150.1447 0.0000 -0.7692 0.0000
# 4 0.0000 0.0000 0.0000 29.6525 0.0000 1.8463
# 5 -5.7595 8.8201 -0.7692 0.0000 22.1657 0.0000
# 6 0.0000 0.0000 0.0000 1.8463 0.0000 27.3607
#
#
#
# Elastic Compliance Matrix: (Units=1/GPa)
#
#
# Indices 1 2 3 4 5 6 
#
# 1 0.013802 0.004462 -0.001563 0.000000 0.001756 0.000000
# 2 0.004462 0.047405 -0.005664 0.000000 -0.017900 0.000000
# 3 -0.001563 -0.005664 0.007418 0.000000 0.002105 0.000000
# 4 0.000000 0.000000 0.000000 0.033866 0.000000 -0.002285
# 5 0.001756 -0.017900 0.002105 0.000000 0.052767 0.000000
# 6 0.000000 0.000000 0.000000 -0.002285 0.000000 0.036703
#
#
# Mechanical properties :
#
#
# Convention : Reuss Voigt Hill
#
# Bulk Modulus (GPa) = 15.84943 32.77300 24.31121
# Shear Modulus (GPa) = 22.88092 31.44560 27.16326
#
# Velocity S-wave (km/s) = 3.16145 3.70621 3.44462
# Velocity P-wave (km/s) = 4.49997 5.71231 5.14199
#
# Compressibility (1/GPa) = 0.06309376
#
# Stress axis : x y z
#
# Youngs Moduli (GPa) = 72.45440 21.09475 134.81551
#
# Poissons Ratio (x) = -0.09413 0.21075
# Poissons Ratio (y) = -0.32331 0.76364
# Poissons Ratio (z) = 0.11327 0.11949
#
# Static dielectric constant tensor:
#      x y z
#    x 4.161110 0.000000 -0.250380 
#    y 0.000000 3.891270 0.000000 
#    z -0.250380 0.000000 4.374250 
# 
# 
# High freq. dielectric constant tensor:
#      x y z
#    x 1.896530 0.000000 -0.014270 
#    y 0.000000 1.883910 0.000000 
#    z -0.014270 0.000000 1.919270 
# 
# From -- ./inp_files/291629.got.cif
#   From: 2010.06.25/outbox.cif.g09.slc.cpg/sg15_146_cif.got.tgz:291629.got - 2010.06.28 07:06:18.
