data_PCOD8140334
_publ_section_title
;
Structure prediction by ZEFSAII (Michael W. Deem and Ramdas Pophale) SiO2 
 PCOD8140334
Probable space group: C 2/C
;
_chemical_formula_sum "Si O2"
_cell_formula_units_Z 52
_cell_length_a 28.887523
_cell_length_b 8.511093
_cell_length_c 13.759061
_cell_angle_alpha 90.000000
_cell_angle_beta 47.811976
_cell_angle_gamma 90.000000
_cell_volume 2506.515522
_symmetry_space_group_name_H-M "C 2/C"
_symmetry_group_IT_number 15
_symmetry_cell_setting 'monoclinic'
loop_
_space_group_symop_operation_xyz
x,y,z
-x,y,1/2-z
-x,-y,-z
x,-y,1/2+z
1/2+x,1/2+y,z
1/2-x,1/2+y,1/2-z
1/2-x,1/2-y,-z
1/2+x,1/2-y,1/2+z
loop_
_atom_site_type_symbol
_atom_site_label
_atom_site_fract_x
_atom_site_fract_y
_atom_site_fract_z
Si Si1 0.500000 0.353156 0.750000
Si Si2 0.669072 0.644627 0.147849
Si Si3 0.904254 0.606151 0.861887
Si Si4 0.332290 0.075808 0.143593
Si Si5 0.449256 0.547992 0.648282
Si Si6 0.238119 0.833836 0.360658
Si Si7 0.944049 0.586256 0.134582
O O1 0.445290 0.235495 0.863482
O O2 0.472848 0.470833 0.712003
O O3 0.636245 0.806709 0.163281
O O4 0.621735 0.518195 0.264082
O O5 0.718960 0.691180 0.159798
O O6 0.702474 0.580924 0.001665
O O7 0.944128 0.485158 0.742694
O O8 0.864897 0.512000 0.998445
O O9 0.309436 0.252806 0.149310
O O10 0.379628 0.070584 0.166725
O O11 0.274626 0.965098 0.249979
O O12 0.500000 0.500000 0.500000
O O13 0.454177 0.733029 0.642087
O O14 0.000000 0.500000 0.000000
#
# Coordination Sequence:
#
# PCOD8140334 Si02
#       7
#     4   8   8   8   8   8   8
#     4  10  22  44  64  92 130 172 218 274 332 402
#     4   9  20  43  64  86 131 176 217 271 337 389
#     4  10  20  41  64  91 128 170 215 275 329 393
#     4  11  24  40  66  96 126 174 224 271 336 393
#     4  11  24  41  67  96 129 173 222 276 335 403
#     4  10  22  41  65  93 131 177 222 277 331 399
#     4  12  25  42  66  99 135 174 219 278 343 400
#
# _framework density 20.745933000000001
#
# number of rings (size 3 to 8) (size 9 to 14) (size 15 to 20)
#    0.000    1.538    1.538    3.692    2.154    3.077 
#    0.000    1.538    0.000    0.000    0.000    0.000 
#    0.000    0.000    0.000    0.000    0.000    0.000 
#
# Total GULP energy -322174.446355 kJ/mol
# GULP energy per Si atom -12391.324860 kJ/mol
# Density = 2.069871 g / cm^3
# Si number density = 20.745933 Si / 1000 Ang^3
#
#
#
# Elastic Constant Matrix: (Units=GPa)
#
#
# Indices 1 2 3 4 5 6 
#
# 1 68.0850 17.1819 0.7684 0.0000 -14.7690 0.0000
# 2 17.1819 108.4056 64.6976 0.0000 -9.0363 -0.0001
# 3 0.7684 64.6976 143.1962 0.0000 -29.9824 0.0000
# 4 0.0000 0.0000 0.0000 42.3466 0.0000 -9.8401
# 5 -14.7690 -9.0363 -29.9824 0.0000 27.6721 0.0000
# 6 0.0000 -0.0001 0.0000 -9.8401 0.0000 24.6466
#
#
#
# Elastic Compliance Matrix: (Units=1/GPa)
#
#
# Indices 1 2 3 4 5 6 
#
# 1 0.018855 -0.004800 0.004975 0.000000 0.013886 0.000000
# 2 -0.004800 0.014006 -0.007607 0.000000 -0.006230 0.000000
# 3 0.004975 -0.007607 0.013490 0.000000 0.014787 0.000000
# 4 0.000000 0.000000 0.000000 0.026029 0.000000 0.010392
# 5 0.013886 -0.006230 0.014787 0.000000 0.057536 0.000000
# 6 0.000000 0.000000 0.000000 0.010392 0.000000 0.044723
#
#
# Mechanical properties :
#
#
# Convention : Reuss Voigt Hill
#
# Bulk Modulus (GPa) = 31.75929 53.88697 42.82313
# Shear Modulus (GPa) = 25.00032 34.73565 29.86799
#
# Velocity S-wave (km/s) = 3.47518 4.09630 3.79846
# Velocity P-wave (km/s) = 5.60753 6.95730 6.31856
#
# Compressibility (1/GPa) = 0.03148685
#
# Stress axis : x y z
#
# Youngs Moduli (GPa) = 53.03667 71.39873 74.13101
#
# Poissons Ratio (x) = 0.34272 -0.36880
# Poissons Ratio (y) = 0.25458 0.56389
# Poissons Ratio (z) = -0.26386 0.54311
#
# Static dielectric constant tensor:
#      x y z
#    x 3.834040 0.000000 -0.007450 
#    y 0.000000 3.526050 0.000000 
#    z -0.007450 0.000000 3.516380 
# 
# 
# High freq. dielectric constant tensor:
#      x y z
#    x 1.824820 0.000000 -0.009310 
#    y 0.000000 1.793410 0.000000 
#    z -0.009310 0.000000 1.822540 
# 
# From -- ./inp_files/121826.got.cif
#   From: 2010.06.25/outbox.cif.g09.slc.cpg/sg15_61_cif.got.tgz:121826.got - 2010.06.28 07:06:18.
