data_PCOD8140279
_publ_section_title
;
Structure prediction by ZEFSAII (Michael W. Deem and Ramdas Pophale) SiO2 
 PCOD8140279
Probable space group: C 2/C
;
_chemical_formula_sum "Si O2"
_cell_formula_units_Z 60
_cell_length_a 21.119692
_cell_length_b 8.557663
_cell_length_c 23.050947
_cell_angle_alpha 90.000000
_cell_angle_beta 42.875439
_cell_angle_gamma 90.000000
_cell_volume 2834.654740
_symmetry_space_group_name_H-M "C 2/C"
_symmetry_group_IT_number 15
_symmetry_cell_setting 'monoclinic'
loop_
_space_group_symop_operation_xyz
x,y,z
-x,y,1/2-z
-x,-y,-z
x,-y,1/2+z
1/2+x,1/2+y,z
1/2-x,1/2+y,1/2-z
1/2-x,1/2-y,-z
1/2+x,1/2-y,1/2+z
loop_
_atom_site_type_symbol
_atom_site_label
_atom_site_fract_x
_atom_site_fract_y
_atom_site_fract_z
Si Si1 0.500000 0.148787 0.250000
Si Si2 0.428803 0.103989 0.619326
Si Si3 0.130517 0.559486 0.452642
Si Si4 0.349108 0.080266 0.801862
Si Si5 0.463636 0.458291 0.601331
Si Si6 0.354928 0.578569 0.580551
Si Si7 0.290930 0.356701 0.921449
Si Si8 0.960554 0.951817 0.334321
O O1 0.465283 0.261718 0.326251
O O2 0.586775 0.041429 0.207741
O O3 0.530309 0.019451 0.549052
O O4 0.385283 0.095750 0.712017
O O5 0.443721 0.283494 0.594305
O O6 0.361634 0.031141 0.614360
O O7 0.144040 0.741413 0.434131
O O8 0.214978 0.528374 0.441123
O O9 0.245401 0.007293 0.867724
O O10 0.345238 0.245721 0.838616
O O11 0.379441 0.561407 0.632274
O O12 0.564652 0.513378 0.508878
O O13 0.466803 0.486590 0.667114
O O14 0.357785 0.477452 0.910709
O O15 0.250000 0.250000 0.000000
O O16 0.000000 0.030648 0.250000
#
# Coordination Sequence:
#
# PCOD8140279 Si02
#       8
#     4   8   8   8   8   8   8   8
#     4  10  28  40  60  94 132 168 216 266 338 388
#     4  10  21  37  63  92 128 163 214 264 323 387
#     4   9  21  39  59  96 124 167 208 264 326 385
#     4  11  24  41  63  96 121 172 219 271 328 393
#     4  10  20  41  62  88 120 169 204 258 327 384
#     4   9  21  39  63  87 124 157 209 260 315 387
#     4  11  23  41  70  95 129 171 225 271 328 412
#     4  10  23  41  60  89 126 169 204 268 329 385
#
# _framework density 21.166599000000001
#
# number of rings (size 3 to 8) (size 9 to 14) (size 15 to 20)
#    0.400    1.600    0.000    3.200    6.533    4.267 
#    0.000    2.667    0.000    0.000    0.000    0.000 
#    0.000    0.000    0.000    0.000    0.000    0.000 
#
# Total GULP energy -371699.206751 kJ/mol
# GULP energy per Si atom -12389.973558 kJ/mol
# Density = 2.111842 g / cm^3
# Si number density = 21.166599 Si / 1000 Ang^3
#
#
#
# Elastic Constant Matrix: (Units=GPa)
#
#
# Indices 1 2 3 4 5 6 
#
# 1 149.5019 38.0773 22.7711 0.0001 -7.1267 -0.0003
# 2 38.0773 39.2772 24.5481 0.0002 -13.0050 -0.0034
# 3 22.7711 24.5481 83.1528 -0.0002 6.5640 0.0006
# 4 0.0001 0.0002 -0.0002 21.5428 0.0003 -1.3377
# 5 -7.1267 -13.0050 6.5640 0.0003 38.8068 0.0001
# 6 -0.0003 -0.0034 0.0006 -1.3377 0.0001 44.7194
#
#
#
# Elastic Compliance Matrix: (Units=1/GPa)
#
#
# Indices 1 2 3 4 5 6 
#
# 1 0.008966 -0.009539 0.000490 0.000000 -0.001633 -0.000001
# 2 -0.009539 0.048318 -0.012965 0.000000 0.016634 0.000004
# 3 0.000490 -0.012965 0.016273 0.000000 -0.007007 -0.000001
# 4 0.000000 0.000000 0.000000 0.046506 -0.000001 0.001391
# 5 -0.001633 0.016634 -0.007007 -0.000001 0.032228 0.000001
# 6 -0.000001 0.000004 -0.000001 0.001391 0.000001 0.022403
#
#
# Mechanical properties :
#
#
# Convention : Reuss Voigt Hill
#
# Bulk Modulus (GPa) = 33.86608 49.19168 41.52888
# Shear Modulus (GPa) = 21.87559 33.44948 27.66253
#
# Velocity S-wave (km/s) = 3.21829 3.97961 3.61902
# Velocity P-wave (km/s) = 5.46300 6.66386 6.09309
#
# Compressibility (1/GPa) = 0.02952807
#
# Stress axis : x y z
#
# Youngs Moduli (GPa) = 111.53357 20.69620 61.45264
#
# Poissons Ratio (x) = 0.19741 -0.03009
# Poissons Ratio (y) = 1.06388 0.79675
# Poissons Ratio (z) = -0.05461 0.26833
#
# Static dielectric constant tensor:
#      x y z
#    x 4.336460 0.000000 -0.156610 
#    y 0.000000 3.575560 0.000000 
#    z -0.156610 0.000000 3.880780 
# 
# 
# High freq. dielectric constant tensor:
#      x y z
#    x 1.848140 0.000000 0.003180 
#    y 0.000000 1.805780 0.000000 
#    z 0.003180 0.000000 1.822670 
# 
# From -- ./inp_files/252117.got.cif
#   From: 2010.06.25/outbox.cif.g09.slc.cpg/sg15_127_cif.got.tgz:252117.got - 2010.06.28 07:06:18.
