data_PCOD8140518
_publ_section_title
;
Structure prediction by ZEFSAII (Michael W. Deem and Ramdas Pophale) SiO2 
 PCOD8140518
Probable space group: C 2/C
;
_chemical_formula_sum "Si O2"
_cell_formula_units_Z 52
_cell_length_a 23.585225
_cell_length_b 7.280258
_cell_length_c 22.174593
_cell_angle_alpha 90.000000
_cell_angle_beta 140.079080
_cell_angle_gamma 90.000000
_cell_volume 2443.400113
_symmetry_space_group_name_H-M "C 2/C"
_symmetry_group_IT_number 15
_symmetry_cell_setting 'monoclinic'
loop_
_space_group_symop_operation_xyz
x,y,z
-x,y,1/2-z
-x,-y,-z
x,-y,1/2+z
1/2+x,1/2+y,z
1/2-x,1/2+y,1/2-z
1/2-x,1/2-y,-z
1/2+x,1/2-y,1/2+z
loop_
_atom_site_type_symbol
_atom_site_label
_atom_site_fract_x
_atom_site_fract_y
_atom_site_fract_z
Si Si1 0.277289 0.566671 0.722864
Si Si2 0.000000 0.432407 0.750000
Si Si3 0.936387 0.336748 0.825283
Si Si4 0.704907 0.525910 0.520895
Si Si5 0.697331 0.143339 0.780064
Si Si6 0.142527 0.608266 0.935445
Si Si7 0.120816 0.318303 0.011933
O O1 0.355503 0.698870 0.766820
O O2 0.305795 0.364316 0.724827
O O3 0.264971 0.566676 0.784665
O O4 0.183950 0.647497 0.620708
O O5 0.025209 0.311384 0.711658
O O6 0.079887 0.569271 0.828245
O O7 0.898756 0.544521 0.805855
O O8 0.015201 0.282407 0.937638
O O9 0.765022 0.587135 0.625206
O O10 0.762123 0.526905 0.506060
O O11 0.632975 0.680187 0.446852
O O12 0.658823 0.334184 0.497213
O O13 0.113591 0.509242 0.972092
#
# Coordination Sequence:
#
# PCOD8140518 Si02
#       7
#     8   4   8   8   8   8   8
#     4  12  24  46  70  94 134 186 221 282 337 399
#     4  10  20  42  62  98 144 168 212 288 326 406
#     4  11  25  43  66 102 136 173 227 278 335 404
#     4  11  21  40  63  96 130 180 224 270 332 402
#     4  12  23  45  69  93 135 176 230 274 335 398
#     4  10  21  37  64  95 134 177 223 267 334 399
#     4  11  23  41  66  98 134 174 225 275 341 393
#
# _framework density 21.28182
#
# number of rings (size 3 to 8) (size 9 to 14) (size 15 to 20)
#    0.000    0.923    6.154    0.462    0.000    4.308 
#    0.000    3.077    0.000    0.000    0.000    0.000 
#    0.000    0.000    0.000    0.000    0.000    0.000 
#
# Total GULP energy -322145.605298 kJ/mol
# GULP energy per Si atom -12390.215588 kJ/mol
# Density = 2.123338 g / cm^3
# Si number density = 21.281820 Si / 1000 Ang^3
#
#
#
# Elastic Constant Matrix: (Units=GPa)
#
#
# Indices 1 2 3 4 5 6 
#
# 1 81.7241 21.9551 19.3902 -0.0004 6.9068 -0.0002
# 2 21.9551 91.9308 25.0073 -0.0011 18.6736 -0.0021
# 3 19.3902 25.0073 91.0926 -0.0002 27.7049 -0.0001
# 4 -0.0004 -0.0011 -0.0002 29.6771 0.0001 0.6070
# 5 6.9068 18.6736 27.7049 0.0001 32.1620 0.0001
# 6 -0.0002 -0.0021 -0.0001 0.6070 0.0001 26.4295
#
#
#
# Elastic Compliance Matrix: (Units=1/GPa)
#
#
# Indices 1 2 3 4 5 6 
#
# 1 0.013462 -0.002723 -0.002330 0.000000 0.000697 0.000000
# 2 -0.002723 0.013066 -0.001190 0.000000 -0.005977 0.000001
# 3 -0.002330 -0.001190 0.015499 0.000000 -0.012160 0.000000
# 4 0.000000 0.000000 0.000000 0.033712 0.000000 -0.000774
# 5 0.000697 -0.005977 -0.012160 0.000000 0.044888 -0.000001
# 6 0.000000 0.000001 0.000000 -0.000774 -0.000001 0.037854
#
#
# Mechanical properties :
#
#
# Convention : Reuss Voigt Hill
#
# Bulk Modulus (GPa) = 33.85090 44.16141 39.00615
# Shear Modulus (GPa) = 27.65313 30.88005 29.26659
#
# Velocity S-wave (km/s) = 3.60860 3.81334 3.71238
# Velocity P-wave (km/s) = 5.77089 6.33913 6.06167
#
# Compressibility (1/GPa) = 0.02954131
#
# Stress axis : x y z
#
# Youngs Moduli (GPa) = 74.28496 76.53693 64.52174
#
# Poissons Ratio (x) = 0.20839 0.15034
# Poissons Ratio (y) = 0.20226 0.07675
# Poissons Ratio (z) = 0.17309 0.09104
#
# Static dielectric constant tensor:
#      x y z
#    x 3.949040 0.000000 0.272430 
#    y 0.000000 3.999580 0.000000 
#    z 0.272430 0.000000 4.418610 
# 
# 
# High freq. dielectric constant tensor:
#      x y z
#    x 1.832830 0.000000 0.002210 
#    y 0.000000 1.834580 0.000000 
#    z 0.002210 0.000000 1.834250 
# 
# From -- ./inp_files/166363.got.cif
#   From: 2010.06.25/outbox.cif.g09.slc.cpg/sg15_84_cif.got.tgz:166363.got - 2010.06.28 07:06:18.
