data_PCOD8140465
_publ_section_title
;
Structure prediction by ZEFSAII (Michael W. Deem and Ramdas Pophale) SiO2 
 PCOD8140465
Probable space group: C 2/C
;
_chemical_formula_sum "Si O2"
_cell_formula_units_Z 40
_cell_length_a 25.210606
_cell_length_b 16.175867
_cell_length_c 13.573882
_cell_angle_alpha 90.000000
_cell_angle_beta 158.551221
_cell_angle_gamma 90.000000
_cell_volume 2024.153457
_symmetry_space_group_name_H-M "C 2/C"
_symmetry_group_IT_number 15
_symmetry_cell_setting 'monoclinic'
loop_
_space_group_symop_operation_xyz
x,y,z
-x,y,1/2-z
-x,-y,-z
x,-y,1/2+z
1/2+x,1/2+y,z
1/2-x,1/2+y,1/2-z
1/2-x,1/2-y,-z
1/2+x,1/2-y,1/2+z
loop_
_atom_site_type_symbol
_atom_site_label
_atom_site_fract_x
_atom_site_fract_y
_atom_site_fract_z
Si Si1 0.660633 0.685548 0.279483
Si Si2 0.529599 0.024807 0.441651
Si Si3 0.624073 0.195584 0.544242
Si Si4 0.226010 0.475720 0.623240
Si Si5 0.418622 0.377689 0.505379
O O1 0.750000 0.750000 0.500000
O O2 0.608773 0.726889 0.089279
O O3 0.754339 0.607103 0.405743
O O4 0.523612 0.653986 0.102206
O O5 0.605593 0.113408 0.577043
O O6 0.500000 0.000000 0.500000
O O7 0.639541 0.959848 0.577224
O O8 0.379237 0.034654 0.122833
O O9 0.784810 0.187136 0.775487
O O10 0.500000 0.208009 0.250000
O O11 0.371209 0.528377 0.895447
O O12 0.500000 0.379226 0.750000
#
# Coordination Sequence:
#
# PCOD8140465 Si02
#       5
#     8   8   8   8   8
#     4  12  25  41  67  99 135 173 220 275 337 391
#     4  10  20  41  70  90 128 176 218 262 322 396
#     4  11  23  45  63  96 133 167 216 280 328 390
#     4  10  23  42  64  99 128 169 229 261 322 407
#     4  11  23  44  69  91 136 175 215 273 334 395
#
# _framework density 19.761348999999999
#
# number of rings (size 3 to 8) (size 9 to 14) (size 15 to 20)
#    0.000    1.200    6.000    1.800    2.800    6.400 
#    3.600    0.000    0.000    0.000    0.000    0.000 
#    0.000    0.000    0.000    0.000    0.000    0.000 
#
# Total GULP energy -247947.024052 kJ/mol
# GULP energy per Si atom -12397.351203 kJ/mol
# Density = 1.971637 g / cm^3
# Si number density = 19.761349 Si / 1000 Ang^3
#
#
#
# Elastic Constant Matrix: (Units=GPa)
#
#
# Indices 1 2 3 4 5 6 
#
# 1 150.4711 51.2071 54.6351 0.0000 20.8026 0.0000
# 2 51.2071 90.2097 39.7090 0.0000 12.9852 0.0000
# 3 54.6351 39.7090 119.5575 0.0000 6.7068 0.0000
# 4 0.0000 0.0000 0.0000 21.8267 0.0000 -7.4146
# 5 20.8026 12.9852 6.7068 0.0000 30.4142 0.0000
# 6 0.0000 0.0000 0.0000 -7.4146 0.0000 31.9273
#
#
#
# Elastic Compliance Matrix: (Units=1/GPa)
#
#
# Indices 1 2 3 4 5 6 
#
# 1 0.009498 -0.003467 -0.002944 0.000000 -0.004367 0.000000
# 2 -0.003467 0.014933 -0.003190 0.000000 -0.003301 0.000000
# 3 -0.002944 -0.003190 0.010712 0.000000 0.001013 0.000000
# 4 0.000000 0.000000 0.000000 0.049739 0.000000 0.011551
# 5 -0.004367 -0.003301 0.001013 0.000000 0.037052 0.000000
# 6 0.000000 0.000000 0.000000 0.011551 0.000000 0.034004
#
#
# Mechanical properties :
#
#
# Convention : Reuss Voigt Hill
#
# Bulk Modulus (GPa) = 62.73206 72.37119 67.55163
# Shear Modulus (GPa) = 27.70775 31.14610 29.42692
#
# Velocity S-wave (km/s) = 3.74855 3.97433 3.86309
# Velocity P-wave (km/s) = 7.10980 7.60017 7.35907
#
# Compressibility (1/GPa) = 0.01594081
#
# Stress axis : x y z
#
# Youngs Moduli (GPa) = 105.28044 66.96694 93.35142
#
# Poissons Ratio (x) = 0.23219 0.27483
# Poissons Ratio (y) = 0.36503 0.29780
# Poissons Ratio (z) = 0.30995 0.21363
#
# Static dielectric constant tensor:
#      x y z
#    x 3.997320 0.000000 -0.208500 
#    y 0.000000 4.064020 0.000000 
#    z -0.208500 0.000000 4.051070 
# 
# 
# High freq. dielectric constant tensor:
#      x y z
#    x 1.784510 0.000000 0.002370 
#    y 0.000000 1.759010 0.000000 
#    z 0.002370 0.000000 1.778590 
# 
# From -- ./inp_files/134202.got.cif
#   From: 2010.06.25/outbox.cif.g09.slc.cpg/sg15_68_cif.got.tgz:134202.got - 2010.06.28 07:06:18.
