data_PCOD8140763
_publ_section_title
;
Structure prediction by ZEFSAII (Michael W. Deem and Ramdas Pophale) SiO2 
 PCOD8140763
Probable space group: C 2/C
;
_chemical_formula_sum "Si O2"
_cell_formula_units_Z 48
_cell_length_a 12.867524
_cell_length_b 11.342143
_cell_length_c 27.650479
_cell_angle_alpha 90.000000
_cell_angle_beta 33.455798
_cell_angle_gamma 90.000000
_cell_volume 2224.721433
_symmetry_space_group_name_H-M "C 2/C"
_symmetry_group_IT_number 15
_symmetry_cell_setting 'monoclinic'
loop_
_space_group_symop_operation_xyz
x,y,z
-x,y,1/2-z
-x,-y,-z
x,-y,1/2+z
1/2+x,1/2+y,z
1/2-x,1/2+y,1/2-z
1/2-x,1/2-y,-z
1/2+x,1/2-y,1/2+z
loop_
_atom_site_type_symbol
_atom_site_label
_atom_site_fract_x
_atom_site_fract_y
_atom_site_fract_z
Si Si1 0.637134 0.715739 0.790339
Si Si2 0.649817 0.909806 0.599277
Si Si3 0.302155 0.804562 0.530979
Si Si4 0.172544 0.810821 0.873458
Si Si5 0.574599 0.495281 0.085301
Si Si6 0.515463 0.851623 0.189258
O O1 0.498485 0.816618 0.864770
O O2 0.679566 0.741178 0.717534
O O3 0.538766 0.589066 0.834467
O O4 0.830321 0.719395 0.745336
O O5 0.718343 0.870864 0.625331
O O6 0.828744 0.919109 0.494563
O O7 0.545526 0.035531 0.643350
O O8 0.250000 0.750000 0.500000
O O9 0.525164 0.785652 0.452115
O O10 0.192605 0.736011 0.615928
O O11 0.237016 0.940882 0.554423
O O12 0.070188 0.912091 0.881964
O O13 0.500000 0.895070 0.250000
#
# Coordination Sequence:
#
# PCOD8140763 Si02
#       6
#     8   8   8   8   8   8
#     4  12  24  39  63  99 135 165 214 273 326 386
#     4  12  24  42  69  99 126 169 223 274 322 378
#     4  10  20  43  66  94 129 175 208 268 332 380
#     4  11  22  43  70  98 127 170 224 270 321 379
#     4  11  22  42  67  94 134 174 213 268 333 383
#     4  12  24  41  69  97 127 167 226 269 318 386
#
# _framework density 21.575735000000002
#
# number of rings (size 3 to 8) (size 9 to 14) (size 15 to 20)
#    0.000    0.667    6.667    4.500    2.333    0.000 
#    0.000    2.500    0.000    0.000    0.000    0.000 
#    0.000    0.000    0.000    0.000    0.000    0.000 
#
# Total GULP energy -297657.434511 kJ/mol
# GULP energy per Si atom -12402.393105 kJ/mol
# Density = 2.152663 g / cm^3
# Si number density = 21.575735 Si / 1000 Ang^3
#
#
#
# Elastic Constant Matrix: (Units=GPa)
#
#
# Indices 1 2 3 4 5 6 
#
# 1 52.0189 35.4253 22.9032 -0.0001 -9.0886 0.0001
# 2 35.4253 105.1230 64.9590 0.0002 -0.6895 0.0001
# 3 22.9032 64.9590 141.7332 -0.0017 0.4893 -0.0002
# 4 -0.0001 0.0002 -0.0017 49.9061 -0.0003 -1.9500
# 5 -9.0886 -0.6895 0.4893 -0.0003 20.6337 0.0000
# 6 0.0001 0.0001 -0.0002 -1.9500 0.0000 29.4166
#
#
#
# Elastic Compliance Matrix: (Units=1/GPa)
#
#
# Indices 1 2 3 4 5 6 
#
# 1 0.027579 -0.008980 -0.000382 0.000000 0.011857 0.000000
# 2 -0.008980 0.016202 -0.005963 0.000000 -0.003273 0.000000
# 3 -0.000382 -0.005963 0.009852 0.000000 -0.000601 0.000000
# 4 0.000000 0.000000 0.000000 0.020090 0.000000 0.001332
# 5 0.011857 -0.003273 -0.000601 0.000000 0.053592 0.000000
# 6 0.000000 0.000000 0.000000 0.001332 0.000000 0.034083
#
#
# Mechanical properties :
#
#
# Convention : Reuss Voigt Hill
#
# Bulk Modulus (GPa) = 43.51010 60.60557 52.05784
# Shear Modulus (GPa) = 25.03630 31.69711 28.36670
#
# Velocity S-wave (km/s) = 3.41015 3.83705 3.62988
# Velocity P-wave (km/s) = 5.97624 6.91240 6.46130
#
# Compressibility (1/GPa) = 0.02298317
#
# Stress axis : x y z
#
# Youngs Moduli (GPa) = 36.25941 61.71914 101.49773
#
# Poissons Ratio (x) = 0.55425 0.03875
# Poissons Ratio (y) = 0.32562 0.60528
# Poissons Ratio (z) = 0.01384 0.36806
#
# Static dielectric constant tensor:
#      x y z
#    x 3.669560 0.000000 -0.270960 
#    y 0.000000 4.106600 0.000000 
#    z -0.270960 0.000000 4.455570 
# 
# 
# High freq. dielectric constant tensor:
#      x y z
#    x 1.814120 0.000000 -0.011220 
#    y 0.000000 1.844070 0.000000 
#    z -0.011220 0.000000 1.871940 
# 
# From -- ./inp_files/313534.got.cif
#   From: 2010.06.25/outbox.cif.g09.slc.cpg/sg15_157_cif.got.tgz:313534.got - 2010.06.28 07:06:18.
