data_PCOD8140929
_publ_section_title
;
Structure prediction by ZEFSAII (Michael W. Deem and Ramdas Pophale) SiO2 
 PCOD8140929
Probable space group: C 2/C
;
_chemical_formula_sum "Si O2"
_cell_formula_units_Z 52
_cell_length_a 17.956227
_cell_length_b 25.290730
_cell_length_c 11.821122
_cell_angle_alpha 90.000000
_cell_angle_beta 31.642867
_cell_angle_gamma 90.000000
_cell_volume 2816.323085
_symmetry_space_group_name_H-M "C 2/C"
_symmetry_group_IT_number 15
_symmetry_cell_setting 'monoclinic'
loop_
_space_group_symop_operation_xyz
x,y,z
-x,y,1/2-z
-x,-y,-z
x,-y,1/2+z
1/2+x,1/2+y,z
1/2-x,1/2+y,1/2-z
1/2-x,1/2-y,-z
1/2+x,1/2-y,1/2+z
loop_
_atom_site_type_symbol
_atom_site_label
_atom_site_fract_x
_atom_site_fract_y
_atom_site_fract_z
Si Si1 0.833680 0.283255 0.800563
Si Si2 0.500000 0.448899 0.750000
Si Si3 0.816553 0.436780 0.090297
Si Si4 0.386818 0.096586 0.255731
Si Si5 0.011405 0.900200 0.503924
Si Si6 0.817761 0.028187 0.116610
Si Si7 0.557987 0.298379 0.046784
O O1 0.870011 0.341232 0.799675
O O2 0.980432 0.252080 0.589771
O O3 0.750000 0.250000 0.000000
O O4 0.727415 0.286809 0.830709
O O5 0.453494 0.410802 0.705969
O O6 0.631709 0.486604 0.544320
O O7 0.681815 0.399323 0.287781
O O8 0.781793 0.497206 0.166564
O O9 0.854289 0.435717 0.910377
O O10 0.950722 0.415756 0.990555
O O11 0.274215 0.077282 0.309033
O O12 0.957867 0.948566 0.495024
O O13 0.960359 0.845731 0.517112
O O14 0.500000 0.311600 0.250000
#
# Coordination Sequence:
#
# PCOD8140929 Si02
#       7
#     8   4   8   8   8   8   8
#     4  10  21  33  53  83 111 138 177 227 285 337
#     4  10  22  34  58  82 110 150 192 228 264 336
#     4  10  22  31  52  80 112 153 177 222 277 337
#     4  11  21  35  53  82 119 144 178 228 287 335
#     4  11  21  37  57  82 113 150 189 231 275 325
#     4  11  20  37  54  82 110 150 193 226 270 324
#     4  10  21  34  56  83 109 139 179 234 286 334
#
# _framework density 18.463791000000001
#
# number of rings (size 3 to 8) (size 9 to 14) (size 15 to 20)
#    0.000    1.538    1.538    6.000    9.692    0.000 
#    0.000    0.000    0.000    0.923    0.000    0.000 
#    0.000    0.000    0.000    0.000    0.000    0.000 
#
# Total GULP energy -322268.203699 kJ/mol
# GULP energy per Si atom -12394.930912 kJ/mol
# Density = 1.842177 g / cm^3
# Si number density = 18.463791 Si / 1000 Ang^3
#
#
#
# Elastic Constant Matrix: (Units=GPa)
#
#
# Indices 1 2 3 4 5 6 
#
# 1 102.5003 49.1803 44.9589 -0.0051 -7.3463 0.0014
# 2 49.1803 131.4336 40.9628 -0.0001 3.7016 -0.0017
# 3 44.9589 40.9628 79.3203 -0.0049 -11.8704 0.0030
# 4 -0.0051 -0.0001 -0.0049 24.7165 0.0056 -5.4090
# 5 -7.3463 3.7016 -11.8704 0.0056 27.8389 -0.0035
# 6 0.0014 -0.0017 0.0030 -5.4090 -0.0035 37.1208
#
#
#
# Elastic Compliance Matrix: (Units=1/GPa)
#
#
# Indices 1 2 3 4 5 6 
#
# 1 0.014172 -0.003483 -0.005987 0.000001 0.001650 0.000000
# 2 -0.003483 0.010240 -0.003904 0.000000 -0.003945 0.000000
# 3 -0.005987 -0.003904 0.019075 0.000001 0.007073 -0.000001
# 4 0.000001 0.000000 0.000001 0.041791 -0.000007 0.006090
# 5 0.001650 -0.003945 0.007073 -0.000007 0.039897 0.000002
# 6 0.000000 0.000000 -0.000001 0.006090 0.000002 0.027826
#
#
# Mechanical properties :
#
#
# Convention : Reuss Voigt Hill
#
# Bulk Modulus (GPa) = 59.74411 64.82867 62.28639
# Shear Modulus (GPa) = 26.97915 29.81206 28.39560
#
# Velocity S-wave (km/s) = 3.82670 4.02260 3.92587
# Velocity P-wave (km/s) = 7.20781 7.53409 7.37276
#
# Compressibility (1/GPa) = 0.01673805
#
# Stress axis : x y z
#
# Youngs Moduli (GPa) = 70.56375 97.65906 52.42489
#
# Poissons Ratio (x) = 0.34019 0.31385
# Poissons Ratio (y) = 0.24581 0.20467
# Poissons Ratio (z) = 0.42244 0.38126
#
# Static dielectric constant tensor:
#      x y z
#    x 3.549030 -0.000020 -0.444560 
#    y -0.000020 3.458890 0.000000 
#    z -0.444560 0.000000 3.531230 
# 
# 
# High freq. dielectric constant tensor:
#      x y z
#    x 1.716970 0.000000 -0.034440 
#    y 0.000000 1.717250 0.000000 
#    z -0.034440 0.000000 1.690790 
# 
# From -- ./inp_files/108322.got.cif
#   From: 2010.06.25/outbox.cif.g09.slc.cpg/sg15_55_cif.got.tgz:108322.got - 2010.06.28 07:06:18.
