data_PCOD8140755
_publ_section_title
;
Structure prediction by ZEFSAII (Michael W. Deem and Ramdas Pophale) SiO2 
 PCOD8140755
Probable space group: C 2/C
;
_chemical_formula_sum "Si O2"
_cell_formula_units_Z 40
_cell_length_a 9.283646
_cell_length_b 27.681600
_cell_length_c 15.591920
_cell_angle_alpha 90.000000
_cell_angle_beta 29.342128
_cell_angle_gamma 90.000000
_cell_volume 1963.479137
_symmetry_space_group_name_H-M "C 2/C"
_symmetry_group_IT_number 15
_symmetry_cell_setting 'monoclinic'
loop_
_space_group_symop_operation_xyz
x,y,z
-x,y,1/2-z
-x,-y,-z
x,-y,1/2+z
1/2+x,1/2+y,z
1/2-x,1/2+y,1/2-z
1/2-x,1/2-y,-z
1/2+x,1/2-y,1/2+z
loop_
_atom_site_type_symbol
_atom_site_label
_atom_site_fract_x
_atom_site_fract_y
_atom_site_fract_z
Si Si1 0.171252 0.643153 0.400204
Si Si2 0.375427 0.375765 0.218995
Si Si3 0.134400 0.465568 0.860704
Si Si4 0.421903 0.475264 0.452107
Si Si5 0.347793 0.197318 0.421723
O O1 0.500000 0.659727 0.250000
O O2 0.160985 0.588961 0.373416
O O3 0.957175 0.644747 0.595395
O O4 0.073247 0.678811 0.375972
O O5 0.500000 0.385269 0.250000
O O6 0.392158 0.425595 0.156956
O O7 0.559913 0.336492 0.070160
O O8 0.460998 0.484896 0.675446
O O9 0.000000 0.500000 0.000000
O O10 0.924403 0.467126 0.884559
O O11 0.500000 0.500000 0.500000
O O12 0.500000 0.197288 0.250000
O O13 0.250000 0.250000 0.500000
#
# Coordination Sequence:
#
# PCOD8140755 Si02
#       5
#     8   8   8   8   8
#     4  11  23  42  71  98 134 175 231 278 337 399
#     4  10  20  43  65  91 135 176 224 278 335 402
#     4  12  22  40  60  90 130 186 225 267 330 395
#     4  12  24  36  58  92 134 175 225 276 325 389
#     4  11  24  46  76 102 130 174 221 279 349 406
#
# _framework density 20.372001999999998
#
# number of rings (size 3 to 8) (size 9 to 14) (size 15 to 20)
#    0.000    0.800    6.000    4.200    2.800    0.000 
#    0.000    5.000    0.000    0.000    0.000    0.000 
#    0.000    0.000    0.000    0.000    0.000    0.000 
#
# Total GULP energy -247906.451170 kJ/mol
# GULP energy per Si atom -12395.322558 kJ/mol
# Density = 2.032563 g / cm^3
# Si number density = 20.372002 Si / 1000 Ang^3
#
#
#
# Elastic Constant Matrix: (Units=GPa)
#
#
# Indices 1 2 3 4 5 6 
#
# 1 72.1758 45.5848 43.8460 0.0000 -2.2459 0.0000
# 2 45.5848 150.0881 63.2379 0.0000 16.5764 0.0000
# 3 43.8460 63.2379 145.5305 0.0000 -4.4812 0.0000
# 4 0.0000 0.0000 0.0000 41.2443 0.0000 5.1325
# 5 -2.2459 16.5764 -4.4812 0.0000 43.0493 0.0000
# 6 0.0000 0.0000 0.0000 5.1325 0.0000 30.8016
#
#
#
# Elastic Compliance Matrix: (Units=1/GPa)
#
#
# Indices 1 2 3 4 5 6 
#
# 1 0.019002 -0.004463 -0.003714 0.000000 0.002323 0.000000
# 2 -0.004463 0.009773 -0.003035 0.000000 -0.004312 0.000000
# 3 -0.003714 -0.003035 0.009369 0.000000 0.001950 0.000000
# 4 0.000000 0.000000 0.000000 0.024759 0.000000 -0.004126
# 5 0.002323 -0.004312 0.001950 0.000000 0.025214 0.000000
# 6 0.000000 0.000000 0.000000 -0.004126 0.000000 0.033153
#
#
# Mechanical properties :
#
#
# Convention : Reuss Voigt Hill
#
# Bulk Modulus (GPa) = 63.61114 74.79243 69.20179
# Shear Modulus (GPa) = 33.57147 37.36075 35.46611
#
# Velocity S-wave (km/s) = 4.06386 4.28708 4.17697
# Velocity P-wave (km/s) = 7.30155 7.82933 7.57004
#
# Compressibility (1/GPa) = 0.01572052
#
# Stress axis : x y z
#
# Youngs Moduli (GPa) = 52.62466 102.32008 106.73176
#
# Poissons Ratio (x) = 0.45666 0.39643
# Poissons Ratio (y) = 0.23487 0.32392
# Poissons Ratio (z) = 0.19546 0.31053
#
# Static dielectric constant tensor:
#      x y z
#    x 3.757160 0.000000 -1.108720 
#    y 0.000000 3.687640 0.000000 
#    z -1.108720 0.000000 7.482870 
# 
# 
# High freq. dielectric constant tensor:
#      x y z
#    x 1.773830 0.000000 -0.000920 
#    y 0.000000 1.797930 0.000000 
#    z -0.000920 0.000000 1.817060 
# 
# From -- ./inp_files/51656.got.cif
#   From: 2010.06.25/outbox.cif.g09.slc.cpg/sg15_26_cif.got.tgz:51656.got - 2010.06.28 07:06:18.
