data_PCOD8140773
_publ_section_title
;
Structure prediction by ZEFSAII (Michael W. Deem and Ramdas Pophale) SiO2 
 PCOD8140773
Probable space group: C 2/C
;
_chemical_formula_sum "Si O2"
_cell_formula_units_Z 52
_cell_length_a 11.740747
_cell_length_b 16.102359
_cell_length_c 14.788412
_cell_angle_alpha 90.000000
_cell_angle_beta 60.044474
_cell_angle_gamma 90.000000
_cell_volume 2422.321936
_symmetry_space_group_name_H-M "C 2/C"
_symmetry_group_IT_number 15
_symmetry_cell_setting 'monoclinic'
loop_
_space_group_symop_operation_xyz
x,y,z
-x,y,1/2-z
-x,-y,-z
x,-y,1/2+z
1/2+x,1/2+y,z
1/2-x,1/2+y,1/2-z
1/2-x,1/2-y,-z
1/2+x,1/2-y,1/2+z
loop_
_atom_site_type_symbol
_atom_site_label
_atom_site_fract_x
_atom_site_fract_y
_atom_site_fract_z
Si Si1 0.231841 0.342286 0.175941
Si Si2 0.340499 0.384935 0.939872
Si Si3 0.878306 0.546543 0.645891
Si Si4 0.984048 0.778107 0.154501
Si Si5 0.076717 0.374505 0.942616
Si Si6 0.119520 0.061825 0.633483
Si Si7 0.000000 0.216622 0.250000
O O1 0.161656 0.427840 0.236202
O O2 0.341443 0.320803 0.206901
O O3 0.126342 0.270449 0.221177
O O4 0.301758 0.350128 0.052250
O O5 0.226694 0.360269 0.913083
O O6 0.372939 0.482841 0.936830
O O7 0.470776 0.339761 0.850174
O O8 0.926603 0.451460 0.626342
O O9 0.759819 0.563354 0.624872
O O10 0.997720 0.605010 0.565449
O O11 0.990550 0.704281 0.079044
O O12 0.000000 0.743174 0.250000
O O13 0.092793 0.850844 0.091254
O O14 0.000000 0.047707 0.750000
#
# Coordination Sequence:
#
# PCOD8140773 Si02
#       7
#     8   8   8   8   8   8   4
#     4  12  24  41  68 102 136 169 238 286 344 417
#     4  11  24  43  70 100 132 180 234 287 347 416
#     4  10  22  44  68  93 139 184 221 289 350 409
#     4  11  23  44  66  98 141 175 225 285 339 420
#     4  10  23  45  68  96 137 183 231 282 350 415
#     4  10  20  43  67  93 136 179 221 285 346 409
#     4  12  24  40  70 100 132 180 224 298 348 402
#
# _framework density 21.467006999999999
#
# number of rings (size 3 to 8) (size 9 to 14) (size 15 to 20)
#    0.000    1.231    5.385    1.385    2.154    1.231 
#    9.692    0.000    0.000    0.000    0.000    0.000 
#    0.000    0.000    0.000    0.000    0.000    0.000 
#
# Total GULP energy -322304.049072 kJ/mol
# GULP energy per Si atom -12396.309580 kJ/mol
# Density = 2.141815 g / cm^3
# Si number density = 21.467007 Si / 1000 Ang^3
#
#
#
# Elastic Constant Matrix: (Units=GPa)
#
#
# Indices 1 2 3 4 5 6 
#
# 1 53.2640 40.0872 14.2143 0.0000 -4.4484 0.0000
# 2 40.0872 146.4576 56.2855 0.0000 1.4770 0.0000
# 3 14.2143 56.2855 136.3968 0.0000 -2.3511 0.0000
# 4 0.0000 0.0000 0.0000 28.6034 0.0000 -2.9325
# 5 -4.4484 1.4770 -2.3511 0.0000 30.9240 0.0000
# 6 0.0000 0.0000 0.0000 -2.9325 0.0000 33.9146
#
#
#
# Elastic Compliance Matrix: (Units=1/GPa)
#
#
# Indices 1 2 3 4 5 6 
#
# 1 0.024093 -0.006766 0.000347 0.000000 0.003815 0.000000
# 2 -0.006766 0.010028 -0.003463 0.000000 -0.001716 0.000000
# 3 0.000347 -0.003463 0.008739 0.000000 0.000880 0.000000
# 4 0.000000 0.000000 0.000000 0.035274 0.000000 0.003050
# 5 0.003815 -0.001716 0.000880 0.000000 0.033035 0.000000
# 6 0.000000 0.000000 0.000000 0.003050 0.000000 0.029750
#
#
# Mechanical properties :
#
#
# Convention : Reuss Voigt Hill
#
# Bulk Modulus (GPa) = 43.29625 61.92138 52.60882
# Shear Modulus (GPa) = 29.69459 33.72383 31.70921
#
# Velocity S-wave (km/s) = 3.72326 3.96783 3.84749
# Velocity P-wave (km/s) = 6.22062 7.06393 6.65565
#
# Compressibility (1/GPa) = 0.02309669
#
# Stress axis : x y z
#
# Youngs Moduli (GPa) = 41.50604 99.72099 114.42444
#
# Poissons Ratio (x) = 0.67476 -0.03973
# Poissons Ratio (y) = 0.28085 0.39620
# Poissons Ratio (z) = -0.01441 0.34529
#
# Static dielectric constant tensor:
#      x y z
#    x 3.912620 0.000000 -0.327830 
#    y 0.000000 4.238500 0.000000 
#    z -0.327830 0.000000 3.820110 
# 
# 
# High freq. dielectric constant tensor:
#      x y z
#    x 1.840120 0.000000 -0.018500 
#    y 0.000000 1.855630 0.000000 
#    z -0.018500 0.000000 1.827700 
# 
# From -- ./inp_files/145487.got.cif
#   From: 2010.06.25/outbox.cif.g09.slc.cpg/sg15_73_cif.got.tgz:145487.got - 2010.06.28 07:06:18.
