data_PCOD8140667
_publ_section_title
;
Structure prediction by ZEFSAII (Michael W. Deem and Ramdas Pophale) SiO2 
 PCOD8140667
Probable space group: C 2/C
;
_chemical_formula_sum "Si O2"
_cell_formula_units_Z 64
_cell_length_a 13.387898
_cell_length_b 27.909837
_cell_length_c 9.318474
_cell_angle_alpha 90.000000
_cell_angle_beta 61.943517
_cell_angle_gamma 90.000000
_cell_volume 3072.709521
_symmetry_space_group_name_H-M "C 2/C"
_symmetry_group_IT_number 15
_symmetry_cell_setting 'monoclinic'
loop_
_space_group_symop_operation_xyz
x,y,z
-x,y,1/2-z
-x,-y,-z
x,-y,1/2+z
1/2+x,1/2+y,z
1/2-x,1/2+y,1/2-z
1/2-x,1/2-y,-z
1/2+x,1/2-y,1/2+z
loop_
_atom_site_type_symbol
_atom_site_label
_atom_site_fract_x
_atom_site_fract_y
_atom_site_fract_z
Si Si1 0.865138 0.202447 0.815364
Si Si2 0.045991 0.455325 0.377552
Si Si3 0.716423 0.198689 0.201053
Si Si4 0.573162 0.893990 0.835561
Si Si5 0.410421 0.648214 0.199241
Si Si6 0.789218 0.053249 0.300083
Si Si7 0.442490 0.386961 0.143932
Si Si8 0.206102 0.032954 0.881350
O O1 0.832519 0.248326 0.740090
O O2 0.845930 0.152773 0.743071
O O3 0.000000 0.206358 0.750000
O O4 0.781527 0.198407 0.006339
O O5 0.181729 0.455525 0.285726
O O6 0.000000 0.459629 0.250000
O O7 0.000000 0.500000 0.500000
O O8 0.005947 0.404049 0.471883
O O9 0.612388 0.160832 0.282852
O O10 0.806293 0.185421 0.264189
O O11 0.500000 0.911826 0.750000
O O12 0.680532 0.928177 0.786580
O O13 0.500000 0.670095 0.250000
O O14 0.371771 0.596604 0.283041
O O15 0.459166 0.641129 0.007440
O O16 0.763471 0.028172 0.470775
O O17 0.845869 0.016046 0.150000
O O18 0.500000 0.408122 0.250000
O O19 0.388507 0.427189 0.081504
#
# Coordination Sequence:
#
# PCOD8140667 Si02
#       8
#     8   8   8   8   8   8   8   8
#     4  10  20  42  68  99 123 161 206 268 314 378
#     4  12  23  41  60  88 130 176 215 264 325 376
#     4  10  22  40  70  95 128 160 215 258 318 381
#     4  11  24  39  63  95 127 171 214 266 318 382
#     4  11  22  44  64  91 134 171 199 262 321 378
#     4  11  26  40  63  91 127 171 218 259 320 371
#     4  11  24  42  66  94 127 167 215 257 320 377
#     4  12  25  41  62  92 127 172 218 265 309 385
#
# _framework density 20.828522
#
# number of rings (size 3 to 8) (size 9 to 14) (size 15 to 20)
#    0.000    1.000    6.250    0.750    5.250    1.000 
#    0.000    0.625    0.000    1.500    0.000    0.000 
#    0.000    0.000    0.000    0.000    0.000    0.000 
#
# Total GULP energy -396618.551575 kJ/mol
# GULP energy per Si atom -12394.329737 kJ/mol
# Density = 2.078112 g / cm^3
# Si number density = 20.828522 Si / 1000 Ang^3
#
#
#
# Elastic Constant Matrix: (Units=GPa)
#
#
# Indices 1 2 3 4 5 6 
#
# 1 91.2803 31.7493 27.4115 0.0000 22.9679 0.0000
# 2 31.7493 109.1877 22.6371 0.0000 16.9359 0.0000
# 3 27.4115 22.6371 85.4918 0.0000 16.5467 0.0000
# 4 0.0000 0.0000 0.0000 29.5617 0.0000 -1.3158
# 5 22.9679 16.9359 16.5467 0.0000 35.5332 0.0000
# 6 0.0000 0.0000 0.0000 -1.3158 0.0000 22.0490
#
#
#
# Elastic Compliance Matrix: (Units=1/GPa)
#
#
# Indices 1 2 3 4 5 6 
#
# 1 0.014351 -0.002574 -0.002596 0.000000 -0.006841 0.000000
# 2 -0.002574 0.010633 -0.001463 0.000000 -0.002723 0.000000
# 3 -0.002596 -0.001463 0.013691 0.000000 -0.004000 0.000000
# 4 0.000000 0.000000 0.000000 0.033918 0.000000 0.002024
# 5 -0.006841 -0.002723 -0.004000 0.000000 0.035725 0.000000
# 6 0.000000 0.000000 0.000000 0.002024 0.000000 0.045474
#
#
# Mechanical properties :
#
#
# Convention : Reuss Voigt Hill
#
# Bulk Modulus (GPa) = 39.35588 49.95060 44.65324
# Shear Modulus (GPa) = 28.48559 31.03958 29.76258
#
# Velocity S-wave (km/s) = 3.70215 3.86456 3.78423
# Velocity P-wave (km/s) = 6.10006 6.62925 6.37015
#
# Compressibility (1/GPa) = 0.02540916
#
# Stress axis : x y z
#
# Youngs Moduli (GPa) = 69.67989 94.05033 73.04051
#
# Poissons Ratio (x) = 0.24206 0.18961
# Poissons Ratio (y) = 0.17934 0.10687
# Poissons Ratio (z) = 0.18089 0.13761
#
# Static dielectric constant tensor:
#      x y z
#    x 3.812860 0.000000 -0.182720 
#    y 0.000000 3.980940 0.000000 
#    z -0.182720 0.000000 3.832120 
# 
# 
# High freq. dielectric constant tensor:
#      x y z
#    x 1.821650 0.000000 -0.004110 
#    y 0.000000 1.806350 0.000000 
#    z -0.004110 0.000000 1.812010 
# 
# From -- ./inp_files/43506.got.cif
#   From: 2010.06.25/outbox.cif.g09.slc.cpg/sg15_22_cif.got.tgz:43506.got - 2010.06.28 07:06:18.
