data_PCOD8140109
_publ_section_title
;
Structure prediction by ZEFSAII (Michael W. Deem and Ramdas Pophale) SiO2 
 PCOD8140109
Probable space group: C 2/C
;
_chemical_formula_sum "Si O2"
_cell_formula_units_Z 52
_cell_length_a 20.439669
_cell_length_b 13.999354
_cell_length_c 19.329861
_cell_angle_alpha 90.000000
_cell_angle_beta 26.574527
_cell_angle_gamma 90.000000
_cell_volume 2474.395997
_symmetry_space_group_name_H-M "C 2/C"
_symmetry_group_IT_number 15
_symmetry_cell_setting 'monoclinic'
loop_
_space_group_symop_operation_xyz
x,y,z
-x,y,1/2-z
-x,-y,-z
x,-y,1/2+z
1/2+x,1/2+y,z
1/2-x,1/2+y,1/2-z
1/2-x,1/2-y,-z
1/2+x,1/2-y,1/2+z
loop_
_atom_site_type_symbol
_atom_site_label
_atom_site_fract_x
_atom_site_fract_y
_atom_site_fract_z
Si Si1 0.013053 0.166388 0.158405
Si Si2 0.512586 0.014077 0.659855
Si Si3 0.990615 0.304792 0.638282
Si Si4 0.690937 0.826739 0.200297
Si Si5 0.000000 0.164594 0.750000
Si Si6 0.836555 0.020791 0.817822
Si Si7 0.263473 0.324909 0.288071
O O1 0.910406 0.233795 0.209804
O O2 0.963454 0.057247 0.195571
O O3 0.000000 0.198952 0.250000
O O4 0.181852 0.174336 0.977182
O O5 0.500000 0.050467 0.750000
O O6 0.457858 0.905432 0.705809
O O7 0.409373 0.079575 0.710390
O O8 0.680074 0.028115 0.477875
O O9 0.100951 0.320985 0.471229
O O10 0.054352 0.230844 0.635110
O O11 0.843538 0.268096 0.742085
O O12 0.767427 0.825536 0.202214
O O13 0.865654 0.097505 0.852115
O O14 0.840935 0.077654 0.741086
#
# Coordination Sequence:
#
# PCOD8140109 Si02
#       7
#     8   8   8   8   4   8   8
#     4  12  24  44  67  91 118 174 210 277 303 373
#     4  11  23  38  62  99 124 170 206 267 309 379
#     4  10  22  38  67  91 134 162 219 251 325 365
#     4  12  26  42  66  88 136 163 219 253 322 371
#     4  10  20  40  66  98 130 164 204 276 304 376
#     4  10  23  39  65  92 133 158 219 256 324 363
#     4  10  24  41  60  99 125 179 200 262 309 395
#
# _framework density 21.015229000000001
#
# number of rings (size 3 to 8) (size 9 to 14) (size 15 to 20)
#    0.000    1.231    1.538    3.692    2.154    7.385 
#    0.000    0.000    0.000    0.000    0.000    0.000 
#    0.000    0.000    0.000    0.000    0.000    0.000 
#
# Total GULP energy -322528.262687 kJ/mol
# GULP energy per Si atom -12404.933180 kJ/mol
# Density = 2.096740 g / cm^3
# Si number density = 21.015229 Si / 1000 Ang^3
#
#
#
# Elastic Constant Matrix: (Units=GPa)
#
#
# Indices 1 2 3 4 5 6 
#
# 1 119.4535 32.8859 14.2236 0.0031 4.8236 -0.0009
# 2 32.8859 113.0694 21.1940 0.0123 -8.9471 -0.0061
# 3 14.2236 21.1940 81.1306 0.0241 -0.8524 -0.0113
# 4 0.0031 0.0123 0.0241 28.6297 -0.0108 -9.8830
# 5 4.8236 -8.9471 -0.8524 -0.0108 29.7188 0.0037
# 6 -0.0009 -0.0061 -0.0113 -9.8830 0.0037 33.1659
#
#
#
# Elastic Compliance Matrix: (Units=1/GPa)
#
#
# Indices 1 2 3 4 5 6 
#
# 1 0.009329 -0.002722 -0.000949 0.000000 -0.002361 0.000000
# 2 -0.002722 0.010321 -0.002182 -0.000001 0.003486 0.000000
# 3 -0.000949 -0.002182 0.013061 -0.000010 -0.000128 0.000001
# 4 0.000000 -0.000001 -0.000010 0.038934 0.000012 0.011602
# 5 -0.002361 0.003486 -0.000128 0.000012 0.035078 0.000000
# 6 0.000000 0.000000 0.000001 0.011602 0.000000 0.033609
#
#
# Mechanical properties :
#
#
# Convention : Reuss Voigt Hill
#
# Bulk Modulus (GPa) = 47.61108 50.02892 48.82000
# Shear Modulus (GPa) = 31.43866 34.65955 33.04910
#
# Velocity S-wave (km/s) = 3.87200 4.06551 3.96994
# Velocity P-wave (km/s) = 6.53411 6.77463 6.65545
#
# Compressibility (1/GPa) = 0.02100351
#
# Stress axis : x y z
#
# Youngs Moduli (GPa) = 107.18935 96.89153 76.56410
#
# Poissons Ratio (x) = 0.26377 0.07268
# Poissons Ratio (y) = 0.29180 0.16708
# Poissons Ratio (z) = 0.10175 0.21144
#
# Static dielectric constant tensor:
#      x y z
#    x 3.800910 0.000000 -0.092680 
#    y 0.000000 3.912870 0.000000 
#    z -0.092680 0.000000 3.595310 
# 
# 
# High freq. dielectric constant tensor:
#      x y z
#    x 1.828050 0.000000 -0.007910 
#    y 0.000000 1.833900 0.000000 
#    z -0.007910 0.000000 1.815630 
# 
# From -- ./inp_files/252729.got.cif
#   From: 2010.06.25/outbox.cif.g09.slc.cpg/sg15_127_cif.got.tgz:252729.got - 2010.06.28 07:06:18.
