data_PCOD8140816
_publ_section_title
;
Structure prediction by ZEFSAII (Michael W. Deem and Ramdas Pophale) SiO2 
 PCOD8140816
Probable space group: C 2/C
;
_chemical_formula_sum "Si O2"
_cell_formula_units_Z 36
_cell_length_a 16.939767
_cell_length_b 8.108834
_cell_length_c 18.297219
_cell_angle_alpha 90.000000
_cell_angle_beta 135.848524
_cell_angle_gamma 90.000000
_cell_volume 1750.685058
_symmetry_space_group_name_H-M "C 2/C"
_symmetry_group_IT_number 15
_symmetry_cell_setting 'monoclinic'
loop_
_space_group_symop_operation_xyz
x,y,z
-x,y,1/2-z
-x,-y,-z
x,-y,1/2+z
1/2+x,1/2+y,z
1/2-x,1/2+y,1/2-z
1/2-x,1/2-y,-z
1/2+x,1/2-y,1/2+z
loop_
_atom_site_type_symbol
_atom_site_label
_atom_site_fract_x
_atom_site_fract_y
_atom_site_fract_z
Si Si1 0.640852 0.728835 0.237823
Si Si2 0.500000 0.474298 0.750000
Si Si3 0.220921 0.963733 0.655079
Si Si4 0.031890 0.455117 0.686507
Si Si5 0.132066 0.809795 0.453603
O O1 0.602945 0.632340 0.285138
O O2 0.654005 0.597807 0.181831
O O3 0.756366 0.837089 0.328266
O O4 0.540721 0.862795 0.155100
O O5 0.441215 0.586315 0.651109
O O6 0.342822 0.870475 0.732439
O O7 0.146108 0.917513 0.535456
O O8 0.000000 0.471075 0.750000
O O9 0.941649 0.353921 0.578821
O O10 0.250000 0.750000 0.500000
#
# Coordination Sequence:
#
# PCOD8140816 Si02
#       5
#     8   4   8   8   8
#     4  10  24  45  66  96 139 171 220 274 324 392
#     4  12  26  44  72  94 134 178 218 276 328 396
#     4  10  24  42  66  98 136 171 219 276 328 386
#     4  10  20  44  64  96 133 169 221 273 309 402
#     4  12  23  40  72  98 130 177 223 268 336 388
#
# _framework density 20.563379999999999
#
# number of rings (size 3 to 8) (size 9 to 14) (size 15 to 20)
#    1.333    0.000    4.444    0.000    6.222    2.667 
#    0.000    0.000    0.000    0.000    0.000    0.000 
#    0.000    0.000    0.000    0.000    0.000    0.000 
#
# Total GULP energy -223011.942106 kJ/mol
# GULP energy per Si atom -12389.552339 kJ/mol
# Density = 2.051658 g / cm^3
# Si number density = 20.563380 Si / 1000 Ang^3
#
#
#
# Elastic Constant Matrix: (Units=GPa)
#
#
# Indices 1 2 3 4 5 6 
#
# 1 121.7849 37.1480 26.1170 0.0000 -8.6121 0.0000
# 2 37.1480 82.2991 11.2218 0.0000 5.2926 0.0000
# 3 26.1170 11.2218 72.0123 0.0000 3.4385 0.0000
# 4 0.0000 0.0000 0.0000 -165.7426 0.0000 54.3253
# 5 -8.6121 5.2926 3.4385 0.0000 25.8716 0.0000
# 6 0.0000 0.0000 0.0000 54.3253 0.0000 39.1965
#
#
#
# Elastic Compliance Matrix: (Units=1/GPa)
#
#
# Indices 1 2 3 4 5 6 
#
# 1 0.010725 -0.004698 -0.003395 0.000000 0.004982 0.000000
# 2 -0.004698 0.014610 -0.000358 0.000000 -0.004505 0.000000
# 3 -0.003395 -0.000358 0.015321 0.000000 -0.003093 0.000000
# 4 0.000000 0.000000 0.000000 -0.004149 0.000000 0.005750
# 5 0.004982 -0.004505 -0.003093 0.000000 0.041644 0.000000
# 6 0.000000 0.000000 0.000000 0.005750 0.000000 0.017543
#
#
# Mechanical properties :
#
#
# Convention : Reuss Voigt Hill
#
# Bulk Modulus (GPa) = 42.09903 47.22996 44.66450
# Shear Modulus (GPa) = 41.48873 -6.69424 17.39724
#
# Velocity S-wave (km/s) = 4.49665 -1.80624 2.91182
# Velocity P-wave (km/s) = 6.89036 4.32063 5.75087
#
# Compressibility (1/GPa) = 0.02375351
#
# Stress axis : x y z
#
# Youngs Moduli (GPa) = 93.24165 68.44607 65.26841
#
# Poissons Ratio (x) = 0.32159 0.22161
# Poissons Ratio (y) = 0.43809 0.02334
# Poissons Ratio (z) = 0.31659 0.02448
#
# Static dielectric constant tensor:
#      x y z
#    x 3.841220 0.000000 0.199770 
#    y 0.000000 3.845010 0.000000 
#    z 0.199770 0.000000 3.564080 
# 
# 
# High freq. dielectric constant tensor:
#      x y z
#    x 1.815520 0.000000 0.009950 
#    y 0.000000 1.807700 0.000000 
#    z 0.009950 0.000000 1.773770 
# 
# From -- ./inp_files/208846.got.cif
#   From: 2010.06.25/outbox.cif.g09.slc.cpg/sg15_105_cif.got.tgz:208846.got - 2010.06.28 07:06:18.
