data_PCOD8140583
_publ_section_title
;
Structure prediction by ZEFSAII (Michael W. Deem and Ramdas Pophale) SiO2 
 PCOD8140583
Probable space group: C 2/C
;
_chemical_formula_sum "Si O2"
_cell_formula_units_Z 48
_cell_length_a 21.171347
_cell_length_b 13.707657
_cell_length_c 12.701352
_cell_angle_alpha 90.000000
_cell_angle_beta 140.368774
_cell_angle_gamma 90.000000
_cell_volume 2351.126652
_symmetry_space_group_name_H-M "C 2/C"
_symmetry_group_IT_number 15
_symmetry_cell_setting 'monoclinic'
loop_
_space_group_symop_operation_xyz
x,y,z
-x,y,1/2-z
-x,-y,-z
x,-y,1/2+z
1/2+x,1/2+y,z
1/2-x,1/2+y,1/2-z
1/2-x,1/2-y,-z
1/2+x,1/2-y,1/2+z
loop_
_atom_site_type_symbol
_atom_site_label
_atom_site_fract_x
_atom_site_fract_y
_atom_site_fract_z
Si Si1 0.884576 0.517312 0.581773
Si Si2 0.746890 0.633353 0.991547
Si Si3 0.595484 0.692630 0.307720
Si Si4 0.227244 0.469675 0.754086
Si Si5 0.103477 0.003749 0.191215
Si Si6 0.798480 0.349918 0.149594
O O1 0.840078 0.408215 0.543842
O O2 0.867290 0.556937 0.440511
O O3 0.819271 0.584662 0.573615
O O4 0.000000 0.519525 0.750000
O O5 0.645050 0.593540 0.804691
O O6 0.750000 0.750000 0.000000
O O7 0.757760 0.598557 0.126402
O O8 0.500000 0.727237 0.250000
O O9 0.586303 0.582086 0.260499
O O10 0.691633 0.702734 0.505869
O O11 0.614823 0.767393 0.234511
O O12 0.322749 0.460494 0.803812
O O13 0.204710 0.582408 0.753007
O O14 0.000000 0.000000 0.000000
#
# Coordination Sequence:
#
# PCOD8140583 Si02
#       6
#     8   8   8   8   8   8
#     4  10  21  42  63  93 127 167 221 269 327 391
#     4  10  23  44  60  93 133 175 219 268 332 402
#     4  11  21  39  63  94 125 162 212 267 321 385
#     4  10  20  42  66  83 132 173 204 279 320 386
#     4  11  23  40  63  97 126 173 217 263 330 390
#     4  10  21  39  63  92 125 164 215 266 317 385
#
# _framework density 20.415742000000002
#
# number of rings (size 3 to 8) (size 9 to 14) (size 15 to 20)
#    0.000    1.667    5.000    1.500    0.000    5.333 
#   12.000    0.000    0.000    0.000    0.000    0.000 
#    0.000    0.000    0.000    0.000    0.000    0.000 
#
# Total GULP energy -297330.461808 kJ/mol
# GULP energy per Si atom -12388.769242 kJ/mol
# Density = 2.036928 g / cm^3
# Si number density = 20.415742 Si / 1000 Ang^3
#
#
#
# Elastic Constant Matrix: (Units=GPa)
#
#
# Indices 1 2 3 4 5 6 
#
# 1 92.8517 17.5273 57.2041 0.0000 12.2838 0.0000
# 2 17.5273 108.1557 35.2312 0.0000 5.6500 0.0000
# 3 57.2041 35.2312 160.8876 0.0000 12.0319 0.0000
# 4 0.0000 0.0000 0.0000 17.4553 0.0000 0.2872
# 5 12.2838 5.6500 12.0319 0.0000 40.6453 0.0000
# 6 0.0000 0.0000 0.0000 0.2872 0.0000 30.1226
#
#
#
# Elastic Compliance Matrix: (Units=1/GPa)
#
#
# Indices 1 2 3 4 5 6 
#
# 1 0.014143 -0.000620 -0.004683 0.000000 -0.002802 0.000000
# 2 -0.000620 0.010006 -0.001923 0.000000 -0.000634 0.000000
# 3 -0.004683 -0.001923 0.008361 0.000000 -0.000792 0.000000
# 4 0.000000 0.000000 0.000000 0.057298 0.000000 -0.000546
# 5 -0.002802 -0.000634 -0.000792 0.000000 0.025773 0.000000
# 6 0.000000 0.000000 0.000000 -0.000546 0.000000 0.033203
#
#
# Mechanical properties :
#
#
# Convention : Reuss Voigt Hill
#
# Bulk Modulus (GPa) = 55.38044 64.64667 60.01356
# Shear Modulus (GPa) = 29.54117 34.44013 31.99065
#
# Velocity S-wave (km/s) = 3.80805 4.11169 3.96278
# Velocity P-wave (km/s) = 6.82057 7.36717 7.09913
#
# Compressibility (1/GPa) = 0.01805692
#
# Stress axis : x y z
#
# Youngs Moduli (GPa) = 70.70735 99.93976 119.60201
#
# Poissons Ratio (x) = 0.06197 0.56012
# Poissons Ratio (y) = 0.04384 0.23002
# Poissons Ratio (z) = 0.33114 0.19221
#
# Static dielectric constant tensor:
#      x y z
#    x 3.738730 0.000000 -0.000060 
#    y 0.000000 3.575570 0.000000 
#    z -0.000060 0.000000 3.874030 
# 
# 
# High freq. dielectric constant tensor:
#      x y z
#    x 1.799810 0.000000 0.001380 
#    y 0.000000 1.794760 0.000000 
#    z 0.001380 0.000000 1.792970 
# 
# From -- ./inp_files/112924.got.cif
#   From: 2010.06.25/outbox.cif.g09.slc.cpg/sg15_57_cif.got.tgz:112924.got - 2010.06.28 07:06:18.
