data_PCOD8140840
_publ_section_title
;
Structure prediction by ZEFSAII (Michael W. Deem and Ramdas Pophale) SiO2 
 PCOD8140840
Probable space group: C 2/C
;
_chemical_formula_sum "Si O2"
_cell_formula_units_Z 40
_cell_length_a 7.679428
_cell_length_b 22.682846
_cell_length_c 14.047186
_cell_angle_alpha 90.000000
_cell_angle_beta 134.399428
_cell_angle_gamma 90.000000
_cell_volume 1748.258396
_symmetry_space_group_name_H-M "C 2/C"
_symmetry_group_IT_number 15
_symmetry_cell_setting 'monoclinic'
loop_
_space_group_symop_operation_xyz
x,y,z
-x,y,1/2-z
-x,-y,-z
x,-y,1/2+z
1/2+x,1/2+y,z
1/2-x,1/2+y,1/2-z
1/2-x,1/2-y,-z
1/2+x,1/2-y,1/2+z
loop_
_atom_site_type_symbol
_atom_site_label
_atom_site_fract_x
_atom_site_fract_y
_atom_site_fract_z
Si Si1 0.000000 0.441221 0.750000
Si Si2 0.168313 0.887014 0.463182
Si Si3 0.092874 0.678896 0.038853
Si Si4 0.261264 0.309162 0.395342
Si Si5 0.956541 0.995050 0.871751
Si Si6 0.000000 0.103275 0.250000
O O1 0.830058 0.400432 0.618656
O O2 0.834815 0.484604 0.753119
O O3 0.320090 0.846948 0.446678
O O4 0.918897 0.855856 0.398230
O O5 0.075619 0.945999 0.372596
O O6 0.084449 0.748770 0.050925
O O7 0.266889 0.645151 0.181893
O O8 0.215103 0.666611 0.983420
O O9 0.000000 0.297669 0.250000
O O10 0.078582 0.938334 0.868724
O O11 0.000000 0.000000 0.000000
#
# Coordination Sequence:
#
# PCOD8140840 Si02
#       6
#     4   8   8   8   8   4
#     4  10  20  44  67  99 144 180 240 292 356 430
#     4  11  24  43  70 103 138 191 234 294 359 425
#     4  11  24  45  73 104 137 191 241 290 366 427
#     4  11  26  45  71 107 146 182 237 306 356 422
#     4  10  23  40  66 104 135 184 235 295 353 420
#     4  12  22  46  73  99 144 188 244 290 366 444
#
# _framework density 22.879915
#
# number of rings (size 3 to 8) (size 9 to 14) (size 15 to 20)
#    0.000    1.200    3.000    3.000    1.400    3.200 
#    0.000    0.000    0.000    0.000    0.000    0.000 
#    0.000    0.000    0.000    0.000    0.000    0.000 
#
# Total GULP energy -247861.659674 kJ/mol
# GULP energy per Si atom -12393.082984 kJ/mol
# Density = 2.282784 g / cm^3
# Si number density = 22.879915 Si / 1000 Ang^3
#
#
#
# Elastic Constant Matrix: (Units=GPa)
#
#
# Indices 1 2 3 4 5 6 
#
# 1 99.8018 56.4224 27.5312 0.0000 22.5516 0.0000
# 2 56.4224 124.0972 22.8190 0.0000 8.0262 0.0000
# 3 27.5312 22.8190 37.6340 0.0000 4.3622 0.0000
# 4 0.0000 0.0000 0.0000 46.0292 0.0000 15.7061
# 5 22.5516 8.0262 4.3622 0.0000 40.4198 0.0000
# 6 0.0000 0.0000 0.0000 15.7061 0.0000 43.1532
#
#
#
# Elastic Compliance Matrix: (Units=1/GPa)
#
#
# Indices 1 2 3 4 5 6 
#
# 1 0.017334 -0.005874 -0.008236 0.000000 -0.007616 0.000000
# 2 -0.005874 0.011120 -0.002602 0.000000 0.001350 0.000000
# 3 -0.008236 -0.002602 0.034007 0.000000 0.001442 0.000000
# 4 0.000000 0.000000 0.000000 0.024806 0.000000 -0.009028
# 5 -0.007616 0.001350 0.001442 0.000000 0.028566 0.000000
# 6 0.000000 0.000000 0.000000 -0.009028 0.000000 0.026459
#
#
# Mechanical properties :
#
#
# Convention : Reuss Voigt Hill
#
# Bulk Modulus (GPa) = 34.43866 52.78646 43.61256
# Shear Modulus (GPa) = 26.96950 36.23779 31.60365
#
# Velocity S-wave (km/s) = 3.43700 3.98405 3.72059
# Velocity P-wave (km/s) = 5.55295 6.65467 6.12862
#
# Compressibility (1/GPa) = 0.02903714
#
# Stress axis : x y z
#
# Youngs Moduli (GPa) = 57.69169 89.92832 29.40545
#
# Poissons Ratio (x) = 0.52823 0.24218
# Poissons Ratio (y) = 0.33888 0.07651
# Poissons Ratio (z) = 0.47515 0.23398
#
# Static dielectric constant tensor:
#      x y z
#    x 4.304390 0.000000 0.253160 
#    y 0.000000 4.410450 0.000000 
#    z 0.253160 0.000000 4.097800 
# 
# 
# High freq. dielectric constant tensor:
#      x y z
#    x 1.908800 0.000000 0.012150 
#    y 0.000000 1.913460 0.000000 
#    z 0.012150 0.000000 1.887840 
# 
# From -- ./inp_files/192393.got.cif
#   From: 2010.06.25/outbox.cif.g09.slc.cpg/sg15_97_cif.got.tgz:192393.got - 2010.06.28 07:06:18.
