data_PCOD8140074
_publ_section_title
;
Structure prediction by ZEFSAII (Michael W. Deem and Ramdas Pophale) SiO2 
 PCOD8140074
Probable space group: C 2/C
;
_chemical_formula_sum "Si O2"
_cell_formula_units_Z 56
_cell_length_a 25.122137
_cell_length_b 8.995704
_cell_length_c 18.114736
_cell_angle_alpha 90.000000
_cell_angle_beta 138.134012
_cell_angle_gamma 90.000000
_cell_volume 2732.145538
_symmetry_space_group_name_H-M "C 2/C"
_symmetry_group_IT_number 15
_symmetry_cell_setting 'monoclinic'
loop_
_space_group_symop_operation_xyz
x,y,z
-x,y,1/2-z
-x,-y,-z
x,-y,1/2+z
1/2+x,1/2+y,z
1/2-x,1/2+y,1/2-z
1/2-x,1/2-y,-z
1/2+x,1/2-y,1/2+z
loop_
_atom_site_type_symbol
_atom_site_label
_atom_site_fract_x
_atom_site_fract_y
_atom_site_fract_z
Si Si1 0.422313 0.865744 0.259805
Si Si2 0.500000 0.111072 0.250000
Si Si3 0.465132 0.202054 0.491175
Si Si4 0.500000 0.378722 0.750000
Si Si5 0.811066 0.476222 0.852683
Si Si6 0.598901 0.539393 0.485278
Si Si7 0.741877 0.819141 0.331353
Si Si8 0.418458 0.212382 0.025253
O O1 0.487154 0.875491 0.392542
O O2 0.434177 0.722229 0.221702
O O3 0.332977 0.855045 0.195905
O O4 0.432887 0.011164 0.220647
O O5 0.457762 0.214902 0.146336
O O6 0.382828 0.116222 0.389001
O O7 0.446031 0.372261 0.494845
O O8 0.515975 0.187160 0.470155
O O9 0.456521 0.477910 0.643920
O O10 0.748268 0.358300 0.822228
O O11 0.763946 0.582987 0.748633
O O12 0.850291 0.585735 0.954064
O O13 0.678237 0.629204 0.544359
O O14 0.620485 0.372719 0.532648
#
# Coordination Sequence:
#
# PCOD8140074 Si02
#       8
#     8   4   8   4   8   8   8   8
#     4  10  20  40  66  89 120 164 215 252 299 374
#     4  11  23  36  66  96 118 172 210 256 308 368
#     4  10  20  40  68  89 113 170 215 255 299 362
#     4   9  21  42  62  88 124 160 216 244 304 368
#     4  11  22  39  60  92 126 157 206 260 311 368
#     4  10  23  39  62  95 125 161 203 262 308 372
#     4  11  23  38  63  93 126 162 203 259 320 359
#     4  12  21  39  64  90 128 157 212 258 307 360
#
# _framework density 20.496711000000001
#
# number of rings (size 3 to 8) (size 9 to 14) (size 15 to 20)
#    0.000    1.429    2.857    3.000    2.000    0.571 
#    2.571    0.714    0.000    0.000    0.000    0.000 
#    0.000    0.000    0.000    0.000    0.000    0.000 
#
# Total GULP energy -347166.969717 kJ/mol
# GULP energy per Si atom -12398.820347 kJ/mol
# Density = 2.045006 g / cm^3
# Si number density = 20.496711 Si / 1000 Ang^3
#
#
#
# Elastic Constant Matrix: (Units=GPa)
#
#
# Indices 1 2 3 4 5 6 
#
# 1 85.5556 26.5776 20.2165 0.0000 2.9913 0.0000
# 2 26.5776 130.4264 32.5264 0.0000 -2.6354 0.0000
# 3 20.2165 32.5264 76.8907 0.0000 -7.9148 0.0000
# 4 0.0000 0.0000 0.0000 15.0875 0.0000 13.1623
# 5 2.9913 -2.6354 -7.9148 0.0000 29.7066 0.0000
# 6 0.0000 0.0000 0.0000 13.1623 0.0000 4.0052
#
#
#
# Elastic Compliance Matrix: (Units=1/GPa)
#
#
# Indices 1 2 3 4 5 6 
#
# 1 0.013054 -0.002003 -0.002816 0.000000 -0.002242 0.000000
# 2 -0.002003 0.008880 -0.003216 0.000000 0.000133 0.000000
# 3 -0.002816 -0.003216 0.015532 0.000000 0.004136 0.000000
# 4 0.000000 0.000000 0.000000 -0.035502 0.000000 0.116669
# 5 -0.002242 0.000133 0.004136 0.000000 0.035002 0.000000
# 6 0.000000 0.000000 0.000000 0.116669 0.000000 -0.133735
#
#
# Mechanical properties :
#
#
# Convention : Reuss Voigt Hill
#
# Bulk Modulus (GPa) = 46.73698 50.16821 48.45259
# Shear Modulus (GPa) = -67.96663 23.99667 -21.98498
#
# Velocity S-wave (km/s) = -5.76470 3.42535 -3.27863
# Velocity P-wave (km/s) = 4.63221 6.33824 3.05909
#
# Compressibility (1/GPa) = 0.02139633
#
# Stress axis : x y z
#
# Youngs Moduli (GPa) = 76.60274 112.61132 64.38291
#
# Poissons Ratio (x) = 0.22559 0.18128
# Poissons Ratio (y) = 0.15345 0.20706
# Poissons Ratio (z) = 0.21569 0.36217
#
# Static dielectric constant tensor:
#      x y z
#    x 3.564730 0.000000 -0.023770 
#    y 0.000000 3.864090 0.000000 
#    z -0.023770 0.000000 3.755380 
# 
# 
# High freq. dielectric constant tensor:
#      x y z
#    x 1.779610 0.000000 0.000570 
#    y 0.000000 1.815480 0.000000 
#    z 0.000570 0.000000 1.801410 
# 
# From -- ./inp_files/218553.got.cif
#   From: 2010.06.25/outbox.cif.g09.slc.cpg/sg15_110_cif.got.tgz:218553.got - 2010.06.28 07:06:18.
