data_PCOD8140514
_publ_section_title
;
Structure prediction by ZEFSAII (Michael W. Deem and Ramdas Pophale) SiO2 
 PCOD8140514
Probable space group: C 2/C
;
_chemical_formula_sum "Si O2"
_cell_formula_units_Z 44
_cell_length_a 28.314416
_cell_length_b 12.258958
_cell_length_c 17.152788
_cell_angle_alpha 90.000000
_cell_angle_beta 158.133044
_cell_angle_gamma 90.000000
_cell_volume 2217.516759
_symmetry_space_group_name_H-M "C 2/C"
_symmetry_group_IT_number 15
_symmetry_cell_setting 'monoclinic'
loop_
_space_group_symop_operation_xyz
x,y,z
-x,y,1/2-z
-x,-y,-z
x,-y,1/2+z
1/2+x,1/2+y,z
1/2-x,1/2+y,1/2-z
1/2-x,1/2-y,-z
1/2+x,1/2-y,1/2+z
loop_
_atom_site_type_symbol
_atom_site_label
_atom_site_fract_x
_atom_site_fract_y
_atom_site_fract_z
Si Si1 0.374081 0.028521 0.848616
Si Si2 0.626937 0.136796 0.491363
Si Si3 0.824477 0.881694 0.899970
Si Si4 0.204312 0.865357 0.958874
Si Si5 0.000000 0.057577 0.250000
Si Si6 0.849698 0.019801 0.279706
O O1 0.294255 0.091529 0.662952
O O2 0.317097 0.913100 0.790506
O O3 0.397415 0.107669 0.956801
O O4 0.500000 0.000000 0.000000
O O5 0.500000 0.100711 0.250000
O O6 0.639448 0.267414 0.506375
O O7 0.759952 0.083513 0.665594
O O8 0.834714 0.884446 0.821448
O O9 0.907481 0.980717 0.059857
O O10 0.065748 0.863282 0.787053
O O11 0.206202 0.944946 0.888275
O O12 0.250000 0.750000 0.000000
O O13 0.000000 0.000000 0.500000
#
# Coordination Sequence:
#
# PCOD8140514 Si02
#       6
#     8   8   8   8   4   8
#     4  10  23  43  58  92 132 160 209 266 316 379
#     4  11  23  41  67  96 124 173 218 264 325 383
#     4  10  21  40  66  91 128 164 208 270 320 370
#     4  11  23  42  65  91 125 172 207 258 322 377
#     4  10  20  42  62  92 128 156 212 268 306 376
#     4  11  23  42  65  97 132 167 221 264 314 398
#
# _framework density 19.842015
#
# number of rings (size 3 to 8) (size 9 to 14) (size 15 to 20)
#    0.000    1.455    2.727    2.182    0.000    2.909 
#    8.182    3.636    0.000    0.000    0.000    0.000 
#    0.000    0.000    0.000    0.000    0.000    0.000 
#
# Total GULP energy -272649.270915 kJ/mol
# GULP energy per Si atom -12393.148678 kJ/mol
# Density = 1.979685 g / cm^3
# Si number density = 19.842015 Si / 1000 Ang^3
#
#
#
# Elastic Constant Matrix: (Units=GPa)
#
#
# Indices 1 2 3 4 5 6 
#
# 1 171.5396 60.1647 66.7767 0.0000 7.0890 0.0000
# 2 60.1647 105.8679 42.8398 0.0000 12.2527 0.0000
# 3 66.7767 42.8398 113.9938 0.0000 4.3408 0.0000
# 4 0.0000 0.0000 0.0000 23.8124 0.0000 -2.3390
# 5 7.0890 12.2527 4.3408 0.0000 55.5867 0.0000
# 6 0.0000 0.0000 0.0000 -2.3390 0.0000 26.4112
#
#
#
# Elastic Compliance Matrix: (Units=1/GPa)
#
#
# Indices 1 2 3 4 5 6 
#
# 1 0.008423 -0.003283 -0.003698 0.000000 -0.000062 0.000000
# 2 -0.003283 0.012678 -0.002759 0.000000 -0.002160 0.000000
# 3 -0.003698 -0.002759 0.011970 0.000000 0.000145 0.000000
# 4 0.000000 0.000000 0.000000 0.042363 0.000000 0.003752
# 5 -0.000062 -0.002160 0.000145 0.000000 0.018463 0.000000
# 6 0.000000 0.000000 0.000000 0.003752 0.000000 0.038195
#
#
# Mechanical properties :
#
#
# Convention : Reuss Voigt Hill
#
# Bulk Modulus (GPa) = 73.57935 81.21819 77.39877
# Shear Modulus (GPa) = 32.03008 35.93673 33.98341
#
# Velocity S-wave (km/s) = 4.02214 4.26037 4.14297
# Velocity P-wave (km/s) = 7.66376 8.07603 7.87260
#
# Compressibility (1/GPa) = 0.01359077
#
# Stress axis : x y z
#
# Youngs Moduli (GPa) = 118.71896 78.87608 83.54244
#
# Poissons Ratio (x) = 0.25898 0.30894
# Poissons Ratio (y) = 0.38980 0.23048
# Poissons Ratio (z) = 0.43902 0.21761
#
# Static dielectric constant tensor:
#      x y z
#    x 0.318180 0.000000 0.471140 
#    y 0.000000 3.507730 0.000000 
#    z 0.471140 0.000000 3.815170 
# 
# 
# High freq. dielectric constant tensor:
#      x y z
#    x 1.799750 0.000000 -0.004250 
#    y 0.000000 1.756010 0.000000 
#    z -0.004250 0.000000 1.787840 
# 
# From -- ./inp_files/95019.got.cif
#   From: 2010.06.25/outbox.cif.g09.slc.cpg/sg15_48_cif.got.tgz:95019.got - 2010.06.28 07:06:18.
