data_PCOD8140587
_publ_section_title
;
Structure prediction by ZEFSAII (Michael W. Deem and Ramdas Pophale) SiO2 
 PCOD8140587
Probable space group: C 2/C
;
_chemical_formula_sum "Si O2"
_cell_formula_units_Z 44
_cell_length_a 11.687954
_cell_length_b 30.298965
_cell_length_c 8.736151
_cell_angle_alpha 90.000000
_cell_angle_beta 50.153636
_cell_angle_gamma 90.000000
_cell_volume 2375.280452
_symmetry_space_group_name_H-M "C 2/C"
_symmetry_group_IT_number 15
_symmetry_cell_setting 'monoclinic'
loop_
_space_group_symop_operation_xyz
x,y,z
-x,y,1/2-z
-x,-y,-z
x,-y,1/2+z
1/2+x,1/2+y,z
1/2-x,1/2+y,1/2-z
1/2-x,1/2-y,-z
1/2+x,1/2-y,1/2+z
loop_
_atom_site_type_symbol
_atom_site_label
_atom_site_fract_x
_atom_site_fract_y
_atom_site_fract_z
Si Si1 0.608550 0.635943 0.779974
Si Si2 0.338578 0.876096 0.827921
Si Si3 0.787878 0.295160 0.300140
Si Si4 0.000000 0.006067 0.250000
Si Si5 0.375653 0.795714 0.570886
Si Si6 0.611792 0.439175 0.921799
O O1 0.500000 0.660247 0.750000
O O2 0.748369 0.620852 0.562089
O O3 0.669595 0.667762 0.857207
O O4 0.523940 0.595076 0.931904
O O5 0.500000 0.887265 0.750000
O O6 0.324678 0.830588 0.743410
O O7 0.271448 0.914688 0.778985
O O8 0.702225 0.250633 0.328564
O O9 0.819463 0.306840 0.449049
O O10 0.944280 0.293950 0.075123
O O11 0.099621 0.037572 0.269486
O O12 0.889175 0.976061 0.444991
#
# Coordination Sequence:
#
# PCOD8140587 Si02
#       6
#     8   8   8   4   8   8
#     4  10  21  38  57  86 115 155 194 236 288 348
#     4  11  21  39  57  87 120 154 193 242 295 344
#     4  10  22  40  54  84 118 156 207 243 283 349
#     4  10  20  42  66  88 120 144 202 232 302 352
#     4  10  23  37  58  81 119 159 199 249 286 337
#     4  10  22  39  65  90 116 156 188 247 286 363
#
# _framework density 18.524128000000001
#
# number of rings (size 3 to 8) (size 9 to 14) (size 15 to 20)
#    0.000    1.818    4.545    0.000    7.636    1.455 
#    0.000    0.909    0.000    0.000    0.000    0.000 
#    0.000    0.000    0.000    0.000    0.000    0.000 
#
# Total GULP energy -272581.696349 kJ/mol
# GULP energy per Si atom -12390.077107 kJ/mol
# Density = 1.848197 g / cm^3
# Si number density = 18.524128 Si / 1000 Ang^3
#
#
#
# Elastic Constant Matrix: (Units=GPa)
#
#
# Indices 1 2 3 4 5 6 
#
# 1 131.0676 84.6441 46.6434 0.0000 -11.7326 0.0000
# 2 84.6441 126.1515 44.4592 0.0000 2.1988 0.0000
# 3 46.6434 44.4592 59.0379 0.0000 -5.3604 0.0000
# 4 0.0000 0.0000 0.0000 20.9030 0.0000 -0.7228
# 5 -11.7326 2.1988 -5.3604 0.0000 31.0373 0.0000
# 6 0.0000 0.0000 0.0000 -0.7228 0.0000 27.3570
#
#
#
# Elastic Compliance Matrix: (Units=1/GPa)
#
#
# Indices 1 2 3 4 5 6 
#
# 1 0.015658 -0.008746 -0.005274 0.000000 0.005628 0.000000
# 2 -0.008746 0.015826 -0.005496 0.000000 -0.005376 0.000000
# 3 -0.005274 -0.005496 0.025498 0.000000 0.002799 0.000000
# 4 0.000000 0.000000 0.000000 0.047884 0.000000 0.001265
# 5 0.005628 -0.005376 0.002799 0.000000 0.035211 0.000000
# 6 0.000000 0.000000 0.000000 0.001265 0.000000 0.036587
#
#
# Mechanical properties :
#
#
# Convention : Reuss Voigt Hill
#
# Bulk Modulus (GPa) = 55.70910 74.19449 64.95179
# Shear Modulus (GPa) = 22.55504 25.22683 23.89093
#
# Velocity S-wave (km/s) = 3.49320 3.69431 3.59516
# Velocity P-wave (km/s) = 6.81242 7.63787 7.23692
#
# Compressibility (1/GPa) = 0.01795039
#
# Stress axis : x y z
#
# Youngs Moduli (GPa) = 63.86393 63.18759 39.21829
#
# Poissons Ratio (x) = 0.55262 0.20683
# Poissons Ratio (y) = 0.55853 0.21556
# Poissons Ratio (z) = 0.33681 0.34731
#
# Static dielectric constant tensor:
#      x y z
#    x 3.871470 0.000000 -0.234820 
#    y 0.000000 3.553560 0.000000 
#    z -0.234820 0.000000 3.634610 
# 
# 
# High freq. dielectric constant tensor:
#      x y z
#    x 1.730560 0.000000 0.004320 
#    y 0.000000 1.713770 0.000000 
#    z 0.004320 0.000000 1.714990 
# 
# From -- ./inp_files/34015.got.cif
#   From: 2010.06.25/outbox.cif.g09.slc.cpg/sg15_18_cif.got.tgz:34015.got - 2010.06.28 07:06:18.
