data_PCOD8140436
_publ_section_title
;
Structure prediction by ZEFSAII (Michael W. Deem and Ramdas Pophale) SiO2 
 PCOD8140436
Probable space group: C 2/C
;
_chemical_formula_sum "Si O2"
_cell_formula_units_Z 56
_cell_length_a 17.556438
_cell_length_b 8.889733
_cell_length_c 19.640031
_cell_angle_alpha 90.000000
_cell_angle_beta 121.403597
_cell_angle_gamma 90.000000
_cell_volume 2616.254703
_symmetry_space_group_name_H-M "C 2/C"
_symmetry_group_IT_number 15
_symmetry_cell_setting 'monoclinic'
loop_
_space_group_symop_operation_xyz
x,y,z
-x,y,1/2-z
-x,-y,-z
x,-y,1/2+z
1/2+x,1/2+y,z
1/2-x,1/2+y,1/2-z
1/2-x,1/2-y,-z
1/2+x,1/2-y,1/2+z
loop_
_atom_site_type_symbol
_atom_site_label
_atom_site_fract_x
_atom_site_fract_y
_atom_site_fract_z
Si Si1 0.912014 0.623932 0.553334
Si Si2 0.604927 0.753504 0.312352
Si Si3 0.972165 0.780854 0.329003
Si Si4 0.497890 0.323401 0.002944
Si Si5 0.137016 0.087503 0.826797
Si Si6 0.899403 0.529471 0.808166
Si Si7 0.334421 0.888879 0.414409
O O1 0.867869 0.659976 0.605562
O O2 0.859862 0.493439 0.490049
O O3 0.923016 0.770102 0.510526
O O4 0.012429 0.577084 0.611767
O O5 0.500000 0.735361 0.250000
O O6 0.648329 0.590587 0.344203
O O7 0.640822 0.851118 0.265228
O O8 0.903611 0.905095 0.268507
O O9 0.927029 0.624032 0.281967
O O10 0.972881 0.771150 0.409419
O O11 0.070647 0.820480 0.346225
O O12 0.500000 0.500000 0.000000
O O13 0.399655 0.256035 0.940699
O O14 0.233155 0.166175 0.879698
O O15 0.831466 0.519883 0.840675
#
# Coordination Sequence:
#
# PCOD8140436 Si02
#       7
#     8   8   8   8   8   8   8
#     4  10  20  41  68  93 123 174 223 272 330 402
#     4  10  21  40  68  93 124 177 222 265 330 413
#     4  11  22  43  62  95 130 183 213 274 342 408
#     4  11  22  40  69  93 130 173 224 268 341 398
#     4  11  26  39  64  96 141 166 223 278 339 398
#     4  10  21  40  70  90 126 176 226 268 335 406
#     4  11  23  44  64  99 133 173 224 287 327 397
#
# _framework density 21.404644000000001
#
# number of rings (size 3 to 8) (size 9 to 14) (size 15 to 20)
#    0.000    1.429    4.286    1.714   10.000    2.286 
#    0.000    0.000    0.000    0.000    0.000    0.000 
#    0.000    0.000    0.000    0.000    0.000    0.000 
#
# Total GULP energy -346914.267144 kJ/mol
# GULP energy per Si atom -12389.795255 kJ/mol
# Density = 2.135593 g / cm^3
# Si number density = 21.404644 Si / 1000 Ang^3
#
#
#
# Elastic Constant Matrix: (Units=GPa)
#
#
# Indices 1 2 3 4 5 6 
#
# 1 67.2343 35.9139 61.4613 0.0000 -2.7168 0.0000
# 2 35.9139 107.6906 19.9342 0.0000 -0.1285 0.0000
# 3 61.4613 19.9342 104.6856 0.0000 -19.5584 0.0000
# 4 0.0000 0.0000 0.0000 35.2083 0.0000 -6.0953
# 5 -2.7168 -0.1285 -19.5584 0.0000 30.9778 0.0000
# 6 0.0000 0.0000 0.0000 -6.0953 0.0000 25.7241
#
#
#
# Elastic Compliance Matrix: (Units=1/GPa)
#
#
# Indices 1 2 3 4 5 6 
#
# 1 0.043108 -0.009611 -0.025826 0.000000 -0.012565 0.000000
# 2 -0.009611 0.011812 0.003679 0.000000 0.001529 0.000000
# 3 -0.025826 0.003679 0.026750 0.000000 0.014639 0.000000
# 4 0.000000 0.000000 0.000000 0.029617 0.000000 0.007018
# 5 -0.012565 0.001529 0.014639 0.000000 0.040428 0.000000
# 6 0.000000 0.000000 0.000000 0.007018 0.000000 0.040537
#
#
# Mechanical properties :
#
#
# Convention : Reuss Voigt Hill
#
# Bulk Modulus (GPa) = 55.08656 57.13658 56.11157
# Shear Modulus (GPa) = 19.09715 29.20213 24.14964
#
# Velocity S-wave (km/s) = 2.99021 3.69764 3.36258
# Velocity P-wave (km/s) = 6.14113 6.70683 6.43020
#
# Compressibility (1/GPa) = 0.01815325
#
# Stress axis : x y z
#
# Youngs Moduli (GPa) = 23.19753 84.66155 37.38362
#
# Poissons Ratio (x) = 0.81364 0.96548
# Poissons Ratio (y) = 0.22294 -0.13753
# Poissons Ratio (z) = 0.59911 -0.31145
#
# Static dielectric constant tensor:
#      x y z
#    x 3.975830 0.000000 -0.372490 
#    y 0.000000 3.420550 0.000000 
#    z -0.372490 0.000000 3.953600 
# 
# 
# High freq. dielectric constant tensor:
#      x y z
#    x 1.817500 0.000000 -0.020950 
#    y 0.000000 1.838610 0.000000 
#    z -0.020950 0.000000 1.845820 
# 
# From -- ./inp_files/247592.got.cif
#   From: 2010.06.25/outbox.cif.g09.slc.cpg/sg15_124_cif.got.tgz:247592.got - 2010.06.28 07:06:18.
