data_PCOD8140377
_publ_section_title
;
Structure prediction by ZEFSAII (Michael W. Deem and Ramdas Pophale) SiO2 
 PCOD8140377
Probable space group: C 2/C
;
_chemical_formula_sum "Si O2"
_cell_formula_units_Z 52
_cell_length_a 9.864708
_cell_length_b 23.557671
_cell_length_c 11.608323
_cell_angle_alpha 90.000000
_cell_angle_beta 121.534448
_cell_angle_gamma 90.000000
_cell_volume 2299.279355
_symmetry_space_group_name_H-M "C 2/C"
_symmetry_group_IT_number 15
_symmetry_cell_setting 'monoclinic'
loop_
_space_group_symop_operation_xyz
x,y,z
-x,y,1/2-z
-x,-y,-z
x,-y,1/2+z
1/2+x,1/2+y,z
1/2-x,1/2+y,1/2-z
1/2-x,1/2-y,-z
1/2+x,1/2-y,1/2+z
loop_
_atom_site_type_symbol
_atom_site_label
_atom_site_fract_x
_atom_site_fract_y
_atom_site_fract_z
Si Si1 0.670560 0.209386 0.776101
Si Si2 0.846435 0.852408 0.541624
Si Si3 0.715059 0.330924 0.737752
Si Si4 0.785972 0.585902 0.081904
Si Si5 0.162684 0.409950 0.151461
Si Si6 0.938226 0.942052 0.420288
Si Si7 0.500000 0.987030 0.250000
O O1 0.500000 0.227680 0.750000
O O2 0.742350 0.263176 0.738170
O O3 0.660169 0.155160 0.689783
O O4 0.785256 0.198544 0.934780
O O5 0.744343 0.852400 0.614321
O O6 0.823199 0.912218 0.464332
O O7 0.032018 0.845447 0.641287
O O8 0.823737 0.364364 0.692356
O O9 0.842435 0.525980 0.162194
O O10 0.876970 0.592630 0.001630
O O11 0.600132 0.591951 0.968314
O O12 0.331953 0.441645 0.256334
O O13 0.023962 0.446415 0.150270
O O14 0.000000 0.000000 0.500000
#
# Coordination Sequence:
#
# PCOD8140377 Si02
#       7
#     8   8   8   8   8   8   4
#     4  11  21  37  67  94 123 170 213 265 321 380
#     4   9  20  36  61  94 123 161 218 259 305 390
#     4  10  21  40  62  91 126 164 212 264 314 373
#     4  11  25  42  62  95 133 168 212 268 325 383
#     4  11  24  43  65  96 128 168 217 266 322 393
#     4  10  20  41  66  92 122 170 213 261 321 379
#     4  12  24  44  62  96 132 174 212 256 326 396
#
# _framework density 22.615781999999999
#
# number of rings (size 3 to 8) (size 9 to 14) (size 15 to 20)
#    0.000    1.538    3.846    1.385    0.000    3.077 
#    5.538    0.000    3.385    0.000    0.000    0.000 
#    0.000    0.000    0.000    0.000    0.000    0.000 
#
# Total GULP energy -322247.188686 kJ/mol
# GULP energy per Si atom -12394.122642 kJ/mol
# Density = 2.256431 g / cm^3
# Si number density = 22.615782 Si / 1000 Ang^3
#
#
#
# Elastic Constant Matrix: (Units=GPa)
#
#
# Indices 1 2 3 4 5 6 
#
# 1 73.8129 38.0647 26.6889 0.0000 -26.9776 0.0000
# 2 38.0647 155.3742 44.5709 0.0000 -43.3383 0.0000
# 3 26.6889 44.5709 94.2738 0.0000 -43.2296 0.0000
# 4 0.0000 0.0000 0.0000 -44.5223 0.0000 -63.3625
# 5 -26.9776 -43.3383 -43.2296 0.0000 41.7962 0.0000
# 6 0.0000 0.0000 0.0000 -63.3625 0.0000 -14.8998
#
#
#
# Elastic Compliance Matrix: (Units=1/GPa)
#
#
# Indices 1 2 3 4 5 6 
#
# 1 0.018034 -0.001647 0.000433 0.000000 0.010381 0.000000
# 2 -0.001647 0.009205 0.000007 0.000000 0.008489 0.000000
# 3 0.000433 0.000007 0.020188 0.000000 0.021167 0.000000
# 4 0.000000 0.000000 0.000000 0.004446 0.000000 -0.018906
# 5 0.010381 0.008489 0.021167 0.000000 0.061321 0.000000
# 6 0.000000 0.000000 0.000000 -0.018906 0.000000 0.013285
#
#
# Mechanical properties :
#
#
# Convention : Reuss Voigt Hill
#
# Bulk Modulus (GPa) = 22.21553 60.23442 41.22497
# Shear Modulus (GPa) = 34.74708 10.75057 22.74883
#
# Velocity S-wave (km/s) = 3.92396 2.18263 3.17501
# Velocity P-wave (km/s) = 5.51129 5.74835 5.63106
#
# Compressibility (1/GPa) = 0.04501356
#
# Stress axis : x y z
#
# Youngs Moduli (GPa) = 55.44933 108.63121 49.53546
#
# Poissons Ratio (x) = 0.17892 -0.02146
# Poissons Ratio (y) = 0.09133 -0.00034
# Poissons Ratio (z) = -0.02402 -0.00074
#
# Static dielectric constant tensor:
#      x y z
#    x 4.034910 0.000000 -0.021720 
#    y 0.000000 4.103300 0.000000 
#    z -0.021720 0.000000 4.531350 
# 
# 
# High freq. dielectric constant tensor:
#      x y z
#    x 1.872870 0.000000 0.008150 
#    y 0.000000 1.893000 0.000000 
#    z 0.008150 0.000000 1.899760 
# 
# From -- ./inp_files/89714.got.cif
#   From: 2010.06.25/outbox.cif.g09.slc.cpg/sg15_45_cif.got.tgz:89714.got - 2010.06.28 07:06:18.
