data_PCOD8140147
_publ_section_title
;
Structure prediction by ZEFSAII (Michael W. Deem and Ramdas Pophale) SiO2 
 PCOD8140147
Probable space group: C 2/C
;
_chemical_formula_sum "Si O2"
_cell_formula_units_Z 52
_cell_length_a 15.916957
_cell_length_b 9.533249
_cell_length_c 24.276792
_cell_angle_alpha 90.000000
_cell_angle_beta 136.191943
_cell_angle_gamma 90.000000
_cell_volume 2550.068768
_symmetry_space_group_name_H-M "C 2/C"
_symmetry_group_IT_number 15
_symmetry_cell_setting 'monoclinic'
loop_
_space_group_symop_operation_xyz
x,y,z
-x,y,1/2-z
-x,-y,-z
x,-y,1/2+z
1/2+x,1/2+y,z
1/2-x,1/2+y,1/2-z
1/2-x,1/2-y,-z
1/2+x,1/2-y,1/2+z
loop_
_atom_site_type_symbol
_atom_site_label
_atom_site_fract_x
_atom_site_fract_y
_atom_site_fract_z
Si Si1 0.000000 0.148262 0.750000
Si Si2 0.772152 0.691857 0.096452
Si Si3 0.574566 0.406291 0.577004
Si Si4 0.634022 0.077614 0.465576
Si Si5 0.359882 0.843889 0.839012
Si Si6 0.646921 0.554046 0.718623
Si Si7 0.070259 0.637693 0.011464
O O1 0.900555 0.245823 0.674373
O O2 0.936632 0.051363 0.766277
O O3 0.712059 0.610208 0.119231
O O4 0.789657 0.583259 0.054408
O O5 0.679194 0.810591 0.032166
O O6 0.500000 0.500000 0.500000
O O7 0.571528 0.479970 0.634641
O O8 0.516811 0.253133 0.555981
O O9 0.494398 0.110538 0.385187
O O10 0.653117 0.922249 0.500706
O O11 0.318714 0.712888 0.782235
O O12 0.354446 0.799686 0.901285
O O13 0.271825 0.974656 0.788377
O O14 0.000000 0.500000 0.000000
#
# Coordination Sequence:
#
# PCOD8140147 Si02
#       7
#     4   8   8   8   8   8   8
#     4  12  26  44  66 108 132 184 230 284 348 416
#     4  11  22  42  71  99 135 179 236 282 332 424
#     4  12  24  44  68 103 136 186 230 290 342 416
#     4  10  21  39  71  98 132 173 239 278 327 407
#     4  11  22  43  65 105 130 183 226 281 340 411
#     4  12  26  42  71  97 142 176 235 282 345 414
#     4  10  20  40  67  98 133 174 235 271 340 409
#
# _framework density 20.391607
#
# number of rings (size 3 to 8) (size 9 to 14) (size 15 to 20)
#    0.000    0.923    6.154    1.846    8.615    0.000 
#    0.000    2.308    0.000    0.000    0.000    0.000 
#    0.000    0.000    0.000    0.000    0.000    0.000 
#
# Total GULP energy -322402.293473 kJ/mol
# GULP energy per Si atom -12400.088211 kJ/mol
# Density = 2.034519 g / cm^3
# Si number density = 20.391607 Si / 1000 Ang^3
#
#
#
# Elastic Constant Matrix: (Units=GPa)
#
#
# Indices 1 2 3 4 5 6 
#
# 1 120.8427 56.6365 36.9759 0.0000 -15.3121 0.0000
# 2 56.6365 87.5011 21.4529 0.0000 -0.3819 0.0000
# 3 36.9759 21.4529 90.7836 0.0000 3.7980 0.0000
# 4 0.0000 0.0000 0.0000 40.6518 0.0000 -3.1795
# 5 -15.3121 -0.3819 3.7980 0.0000 38.6638 0.0000
# 6 0.0000 0.0000 0.0000 -3.1795 0.0000 33.3500
#
#
#
# Elastic Compliance Matrix: (Units=1/GPa)
#
#
# Indices 1 2 3 4 5 6 
#
# 1 0.014045 -0.008070 -0.004059 0.000000 0.005881 0.000000
# 2 -0.008070 0.016774 -0.000553 0.000000 -0.002976 0.000000
# 3 -0.004059 -0.000553 0.012920 0.000000 -0.002882 0.000000
# 4 0.000000 0.000000 0.000000 0.024784 0.000000 0.002363
# 5 0.005881 -0.002976 -0.002882 0.000000 0.028447 0.000000
# 6 0.000000 0.000000 0.000000 0.002363 0.000000 0.030210
#
#
# Mechanical properties :
#
#
# Convention : Reuss Voigt Hill
#
# Bulk Modulus (GPa) = 54.42153 58.80643 56.61398
# Shear Modulus (GPa) = 31.51228 34.80392 33.15810
#
# Velocity S-wave (km/s) = 3.93537 4.13580 4.03683
# Velocity P-wave (km/s) = 6.88445 7.19080 7.03929
#
# Compressibility (1/GPa) = 0.01837508
#
# Stress axis : x y z
#
# Youngs Moduli (GPa) = 71.20138 59.61549 77.40065
#
# Poissons Ratio (x) = 0.48108 0.31421
# Poissons Ratio (y) = 0.57457 0.04277
# Poissons Ratio (z) = 0.28904 0.03294
#
# Static dielectric constant tensor:
#      x y z
#    x 4.045750 0.000000 -0.320500 
#    y 0.000000 3.804570 0.000000 
#    z -0.320500 0.000000 3.876230 
# 
# 
# High freq. dielectric constant tensor:
#      x y z
#    x 1.794150 0.000000 -0.013150 
#    y 0.000000 1.785820 0.000000 
#    z -0.013150 0.000000 1.807050 
# 
# From -- ./inp_files/298446.got.cif
#   From: 2010.06.25/outbox.cif.g09.slc.cpg/sg15_150_cif.got.tgz:298446.got - 2010.06.28 07:06:18.
