data_PCOD8140499
_publ_section_title
;
Structure prediction by ZEFSAII (Michael W. Deem and Ramdas Pophale) SiO2 
 PCOD8140499
Probable space group: C 2/C
;
_chemical_formula_sum "Si O2"
_cell_formula_units_Z 60
_cell_length_a 25.296630
_cell_length_b 13.197577
_cell_length_c 15.205788
_cell_angle_alpha 90.000000
_cell_angle_beta 36.554608
_cell_angle_gamma 90.000000
_cell_volume 3023.515696
_symmetry_space_group_name_H-M "C 2/C"
_symmetry_group_IT_number 15
_symmetry_cell_setting 'monoclinic'
loop_
_space_group_symop_operation_xyz
x,y,z
-x,y,1/2-z
-x,-y,-z
x,-y,1/2+z
1/2+x,1/2+y,z
1/2-x,1/2+y,1/2-z
1/2-x,1/2-y,-z
1/2+x,1/2-y,1/2+z
loop_
_atom_site_type_symbol
_atom_site_label
_atom_site_fract_x
_atom_site_fract_y
_atom_site_fract_z
Si Si1 0.443410 0.421240 0.017203
Si Si2 0.161590 0.765691 0.236621
Si Si3 0.065693 0.783947 0.739666
Si Si4 0.619014 0.101736 0.789676
Si Si5 0.500000 0.774468 0.750000
Si Si6 0.667430 0.670581 0.529856
Si Si7 0.321779 0.444478 0.017359
Si Si8 0.030140 0.608444 0.379760
O O1 0.367536 0.368187 0.177007
O O2 0.386312 0.468547 0.013873
O O3 0.500000 0.500000 0.000000
O O4 0.513123 0.341936 0.885885
O O5 0.162349 0.780454 0.132040
O O6 0.094328 0.676364 0.355284
O O7 0.259305 0.724360 0.130699
O O8 0.112402 0.688774 0.724054
O O9 0.138627 0.859040 0.599818
O O10 0.000000 0.745970 0.750000
O O11 0.722160 0.087448 0.676648
O O12 0.568265 0.004126 0.819588
O O13 0.568638 0.121896 0.948905
O O14 0.573903 0.698799 0.610189
O O15 0.464551 0.849266 0.724331
O O16 0.684170 0.551930 0.523192
#
# Coordination Sequence:
#
# PCOD8140499 Si02
#       8
#     8   8   8   8   4   8   8   8
#     4  11  24  41  65  92 126 165 211 264 321 385
#     4  10  20  42  61  90 123 160 205 265 308 375
#     4  10  23  41  64  91 129 172 215 259 323 386
#     4  11  22  42  64  89 129 170 208 268 315 383
#     4  10  24  38  64  94 122 166 204 266 314 380
#     4  10  22  38  66  89 124 159 206 260 319 366
#     4  11  24  40  62  96 125 167 214 260 315 392
#     4  10  22  40  64  90 124 163 214 255 323 373
#
# _framework density 19.844448
#
# number of rings (size 3 to 8) (size 9 to 14) (size 15 to 20)
#    0.000    1.600    2.667    1.200    9.333    0.000 
#    0.000    0.000    2.933    0.000    0.000    0.000 
#    0.000    0.000    0.000    0.000    0.000    0.000 
#
# Total GULP energy -371752.188612 kJ/mol
# GULP energy per Si atom -12391.739620 kJ/mol
# Density = 1.979928 g / cm^3
# Si number density = 19.844448 Si / 1000 Ang^3
#
#
#
# Elastic Constant Matrix: (Units=GPa)
#
#
# Indices 1 2 3 4 5 6 
#
# 1 75.6482 40.3579 39.5269 0.0000 -11.9766 0.0000
# 2 40.3579 117.2760 53.0800 0.0000 -6.4457 0.0000
# 3 39.5269 53.0800 138.5866 0.0000 -21.5243 0.0000
# 4 0.0000 0.0000 0.0000 38.2175 0.0000 -0.3064
# 5 -11.9766 -6.4457 -21.5243 0.0000 31.9425 0.0000
# 6 0.0000 0.0000 0.0000 -0.3064 0.0000 28.0885
#
#
#
# Elastic Compliance Matrix: (Units=1/GPa)
#
#
# Indices 1 2 3 4 5 6 
#
# 1 0.017723 -0.004683 -0.002654 0.000000 0.003912 0.000000
# 2 -0.004683 0.011564 -0.003355 0.000000 -0.001683 0.000000
# 3 -0.002654 -0.003355 0.010050 0.000000 0.005100 0.000000
# 4 0.000000 0.000000 0.000000 0.026168 0.000000 0.000285
# 5 0.003912 -0.001683 0.005100 0.000000 0.035870 0.000000
# 6 0.000000 0.000000 0.000000 0.000285 0.000000 0.035605
#
#
# Mechanical properties :
#
#
# Convention : Reuss Voigt Hill
#
# Bulk Modulus (GPa) = 55.69797 66.38229 61.04013
# Shear Modulus (GPa) = 30.42309 32.88610 31.65460
#
# Velocity S-wave (km/s) = 3.91970 4.07528 3.99825
# Velocity P-wave (km/s) = 6.97235 7.46109 7.22085
#
# Compressibility (1/GPa) = 0.01795398
#
# Stress axis : x y z
#
# Youngs Moduli (GPa) = 56.42262 86.47188 99.50558
#
# Poissons Ratio (x) = 0.40495 0.26406
# Poissons Ratio (y) = 0.26423 0.33384
# Poissons Ratio (z) = 0.14973 0.29012
#
# Static dielectric constant tensor:
#      x y z
#    x 3.553200 0.000000 -0.350020 
#    y 0.000000 3.733330 0.000000 
#    z -0.350020 0.000000 4.056940 
# 
# 
# High freq. dielectric constant tensor:
#      x y z
#    x 1.755960 0.000000 -0.012080 
#    y 0.000000 1.780630 0.000000 
#    z -0.012080 0.000000 1.791250 
# 
# From -- ./inp_files/224988.got.cif
#   From: 2010.06.25/outbox.cif.g09.slc.cpg/sg15_113_cif.got.tgz:224988.got - 2010.06.28 07:06:18.
