data_PCOD8140401
_publ_section_title
;
Structure prediction by ZEFSAII (Michael W. Deem and Ramdas Pophale) SiO2 
 PCOD8140401
Probable space group: C 2/C
;
_chemical_formula_sum "Si O2"
_cell_formula_units_Z 56
_cell_length_a 8.175206
_cell_length_b 24.282482
_cell_length_c 14.481271
_cell_angle_alpha 90.000000
_cell_angle_beta 71.287715
_cell_angle_gamma 90.000000
_cell_volume 2722.784897
_symmetry_space_group_name_H-M "C 2/C"
_symmetry_group_IT_number 15
_symmetry_cell_setting 'monoclinic'
loop_
_space_group_symop_operation_xyz
x,y,z
-x,y,1/2-z
-x,-y,-z
x,-y,1/2+z
1/2+x,1/2+y,z
1/2-x,1/2+y,1/2-z
1/2-x,1/2-y,-z
1/2+x,1/2-y,1/2+z
loop_
_atom_site_type_symbol
_atom_site_label
_atom_site_fract_x
_atom_site_fract_y
_atom_site_fract_z
Si Si1 0.849856 0.224070 0.204391
Si Si2 0.247955 0.909131 0.542110
Si Si3 0.147830 0.828194 0.295928
Si Si4 0.603201 0.294831 0.506472
Si Si5 0.330494 0.885269 0.727481
Si Si6 0.828813 0.436333 0.333612
Si Si7 0.063618 0.972629 0.834700
O O1 0.777066 0.284943 0.227586
O O2 0.699080 0.179716 0.250713
O O3 0.000000 0.212204 0.250000
O O4 0.923671 0.222381 0.086871
O O5 0.155588 0.851745 0.542507
O O6 0.359005 0.902710 0.615429
O O7 0.372788 0.923411 0.433070
O O8 0.103182 0.957145 0.574207
O O9 0.068706 0.802205 0.403797
O O10 0.257277 0.882588 0.296005
O O11 0.000000 0.843195 0.250000
O O12 0.750000 0.250000 0.500000
O O13 0.500000 0.904830 0.750000
O O14 0.164018 0.915883 0.797594
O O15 0.684458 0.483458 0.362575
O O16 0.000000 0.457112 0.250000
O O17 0.000000 0.999016 0.750000
#
# Coordination Sequence:
#
# PCOD8140401 Si02
#       7
#     8   8   8   8   8   8   8
#     4  12  20  39  65  89 122 164 208 253 308 358
#     4  10  21  40  64  91 120 168 206 247 310 366
#     4  11  25  41  58  91 129 163 203 251 310 371
#     4  11  21  37  66  91 122 165 208 246 305 371
#     4  11  21  38  63  96 122 153 207 268 303 355
#     4  11  24  42  62  89 126 166 204 251 309 373
#     4  10  20  41  67  89 119 162 207 256 306 361
#
# _framework density 20.567176
#
# number of rings (size 3 to 8) (size 9 to 14) (size 15 to 20)
#    0.000    1.143    4.286    2.571    2.000    0.571 
#    2.571    7.857    0.000    0.000    0.000    0.000 
#    0.000    0.000    0.000    0.000    0.000    0.000 
#
# Total GULP energy -347257.249244 kJ/mol
# GULP energy per Si atom -12402.044616 kJ/mol
# Density = 2.052036 g / cm^3
# Si number density = 20.567176 Si / 1000 Ang^3
#
#
#
# Elastic Constant Matrix: (Units=GPa)
#
#
# Indices 1 2 3 4 5 6 
#
# 1 94.8318 15.4780 54.9505 0.0000 15.7621 0.0000
# 2 15.4780 92.0155 30.0884 0.0000 1.1566 0.0000
# 3 54.9505 30.0884 133.0229 0.0000 1.4026 0.0000
# 4 0.0000 0.0000 0.0000 20.3439 0.0000 0.2524
# 5 15.7621 1.1566 1.4026 0.0000 28.9272 0.0000
# 6 0.0000 0.0000 0.0000 0.2524 0.0000 20.8107
#
#
#
# Elastic Compliance Matrix: (Units=1/GPa)
#
#
# Indices 1 2 3 4 5 6 
#
# 1 0.015606 -0.000478 -0.006252 0.000000 -0.008181 0.000000
# 2 -0.000478 0.011754 -0.002460 0.000000 -0.000090 0.000000
# 3 -0.006252 -0.002460 0.010625 0.000000 0.002990 0.000000
# 4 0.000000 0.000000 0.000000 0.049162 0.000000 -0.000596
# 5 -0.008181 -0.000090 0.002990 0.000000 0.038886 0.000000
# 6 0.000000 0.000000 0.000000 -0.000596 0.000000 0.048059
#
#
# Mechanical properties :
#
#
# Convention : Reuss Voigt Hill
#
# Bulk Modulus (GPa) = 51.00984 57.87823 54.44404
# Shear Modulus (GPa) = 25.12469 28.63989 26.88229
#
# Velocity S-wave (km/s) = 3.49892 3.73568 3.61923
# Velocity P-wave (km/s) = 6.41706 6.84173 6.63279
#
# Compressibility (1/GPa) = 0.01960406
#
# Stress axis : x y z
#
# Youngs Moduli (GPa) = 64.07956 85.07945 94.11596
#
# Poissons Ratio (x) = 0.04065 0.58843
# Poissons Ratio (y) = 0.03061 0.23155
# Poissons Ratio (z) = 0.40064 0.20932
#
# Static dielectric constant tensor:
#      x y z
#    x 3.350350 0.000000 0.098400 
#    y 0.000000 3.714480 0.000000 
#    z 0.098400 0.000000 3.995460 
# 
# 
# High freq. dielectric constant tensor:
#      x y z
#    x 1.782590 0.000000 0.006210 
#    y 0.000000 1.813700 0.000000 
#    z 0.006210 0.000000 1.814910 
# 
# From -- ./inp_files/137274.got.cif
#   From: 2010.06.25/outbox.cif.g09.slc.cpg/sg15_69_cif.got.tgz:137274.got - 2010.06.28 07:06:18.
