data_PCOD8140246
_publ_section_title
;
Structure prediction by ZEFSAII (Michael W. Deem and Ramdas Pophale) SiO2 
 PCOD8140246
Probable space group: C 2/C
;
_chemical_formula_sum "Si O2"
_cell_formula_units_Z 32
_cell_length_a 7.421377
_cell_length_b 22.476530
_cell_length_c 11.675922
_cell_angle_alpha 90.000000
_cell_angle_beta 41.983090
_cell_angle_gamma 90.000000
_cell_volume 1302.787080
_symmetry_space_group_name_H-M "C 2/C"
_symmetry_group_IT_number 15
_symmetry_cell_setting 'monoclinic'
loop_
_space_group_symop_operation_xyz
x,y,z
-x,y,1/2-z
-x,-y,-z
x,-y,1/2+z
1/2+x,1/2+y,z
1/2-x,1/2+y,1/2-z
1/2-x,1/2-y,-z
1/2+x,1/2-y,1/2+z
loop_
_atom_site_type_symbol
_atom_site_label
_atom_site_fract_x
_atom_site_fract_y
_atom_site_fract_z
Si Si1 0.124939 0.095144 0.429738
Si Si2 0.711140 0.982930 0.248464
Si Si3 0.712896 0.317584 0.550795
Si Si4 0.698157 0.113772 0.924231
O O1 0.990950 0.047907 0.580963
O O2 0.910671 0.144953 0.496012
O O3 0.245328 0.055368 0.266891
O O4 0.650253 0.120397 0.085917
O O5 0.500000 0.966242 0.250000
O O6 0.633578 0.953843 0.408163
O O7 0.500000 0.324678 0.750000
O O8 0.750000 0.250000 0.500000
O O9 0.001128 0.341193 0.452937
O O10 0.000000 0.135060 0.750000
#
# Coordination Sequence:
#
# PCOD8140246 Si02
#       4
#     8   8   8   8
#     4  10  24  43  69 110 144 193 242 296 375 441
#     4  10  20  40  73 104 153 185 234 303 372 441
#     4  12  30  50  76 105 149 197 253 308 362 438
#     4  10  24  47  75 107 148 194 245 303 371 437
#
# _framework density 24.562723999999999
#
# number of rings (size 3 to 8) (size 9 to 14) (size 15 to 20)
#    0.000    1.500    2.500    0.000   10.500    7.000 
#    0.000    0.000    0.000    0.000    0.000    0.000 
#    0.000    0.000    0.000    0.000    0.000    0.000 
#
# Total GULP energy -198297.214983 kJ/mol
# GULP energy per Si atom -12393.575936 kJ/mol
# Density = 2.450682 g / cm^3
# Si number density = 24.562724 Si / 1000 Ang^3
#
#
#
# Elastic Constant Matrix: (Units=GPa)
#
#
# Indices 1 2 3 4 5 6 
#
# 1 215.8743 100.4034 34.2606 0.0000 -15.0859 0.0000
# 2 100.4034 180.0701 36.4068 0.0000 -11.8310 0.0000
# 3 34.2606 36.4068 50.1197 0.0000 -5.0900 0.0000
# 4 0.0000 0.0000 0.0000 27.0798 0.0000 -35.0939
# 5 -15.0859 -11.8310 -5.0900 0.0000 39.0210 0.0000
# 6 0.0000 0.0000 0.0000 -35.0939 0.0000 -60.9640
#
#
#
# Elastic Compliance Matrix: (Units=1/GPa)
#
#
# Indices 1 2 3 4 5 6 
#
# 1 0.006501 -0.003127 -0.002041 0.000000 0.001299 0.000000
# 2 -0.003127 0.008087 -0.003659 0.000000 0.000766 0.000000
# 3 -0.002041 -0.003659 0.024132 0.000000 0.001249 0.000000
# 4 0.000000 0.000000 0.000000 0.021150 0.000000 -0.012175
# 5 0.001299 0.000766 0.001249 0.000000 0.026525 0.000000
# 6 0.000000 0.000000 0.000000 -0.012175 0.000000 -0.009395
#
#
# Mechanical properties :
#
#
# Convention : Reuss Voigt Hill
#
# Bulk Modulus (GPa) = 47.46819 87.57841 67.52330
# Shear Modulus (GPa) = 49.17553 19.36025 34.26789
#
# Velocity S-wave (km/s) = 4.47927 2.81053 3.73918
# Velocity P-wave (km/s) = 6.79110 6.80180 6.79645
#
# Compressibility (1/GPa) = 0.02106674
#
# Stress axis : x y z
#
# Youngs Moduli (GPa) = 153.81277 123.65374 41.43861
#
# Poissons Ratio (x) = 0.38668 0.08457
# Poissons Ratio (y) = 0.48099 0.15163
# Poissons Ratio (z) = 0.31389 0.45246
#
# Static dielectric constant tensor:
#      x y z
#    x 4.739690 0.000000 0.237310 
#    y 0.000000 4.142560 0.000000 
#    z 0.237310 0.000000 4.440750 
# 
# 
# High freq. dielectric constant tensor:
#      x y z
#    x 1.999010 0.000000 -0.009150 
#    y 0.000000 1.944490 0.000000 
#    z -0.009150 0.000000 1.992070 
# 
# From -- ./inp_files/137071.got.cif
#   From: 2010.06.25/outbox.cif.g09.slc.cpg/sg15_69_cif.got.tgz:137071.got - 2010.06.28 07:06:18.
