data_PCOD8140544
_publ_section_title
;
Structure prediction by ZEFSAII (Michael W. Deem and Ramdas Pophale) SiO2 
 PCOD8140544
Probable space group: C 2/C
;
_chemical_formula_sum "Si O2"
_cell_formula_units_Z 40
_cell_length_a 16.100104
_cell_length_b 8.466723
_cell_length_c 14.050172
_cell_angle_alpha 90.000000
_cell_angle_beta 81.929676
_cell_angle_gamma 90.000000
_cell_volume 1896.283214
_symmetry_space_group_name_H-M "C 2/C"
_symmetry_group_IT_number 15
_symmetry_cell_setting 'monoclinic'
loop_
_space_group_symop_operation_xyz
x,y,z
-x,y,1/2-z
-x,-y,-z
x,-y,1/2+z
1/2+x,1/2+y,z
1/2-x,1/2+y,1/2-z
1/2-x,1/2-y,-z
1/2+x,1/2-y,1/2+z
loop_
_atom_site_type_symbol
_atom_site_label
_atom_site_fract_x
_atom_site_fract_y
_atom_site_fract_z
Si Si1 0.562686 0.853122 0.008786
Si Si2 0.781986 0.470969 0.959279
Si Si3 0.175663 0.148742 0.637011
Si Si4 0.859726 0.881584 0.149742
Si Si5 0.515330 0.450360 0.604262
O O1 0.588852 0.763999 0.906372
O O2 0.524953 0.738837 0.096593
O O3 0.500000 0.000000 0.000000
O O4 0.649030 0.896422 0.045322
O O5 0.830016 0.323122 0.905424
O O6 0.702405 0.533100 0.913493
O O7 0.753854 0.434235 0.072240
O O8 0.191532 0.168537 0.747775
O O9 0.092889 0.047159 0.632908
O O10 0.930161 0.007681 0.174912
O O11 0.500000 0.500000 0.500000
#
# Coordination Sequence:
#
# PCOD8140544 Si02
#       5
#     8   8   8   8   8
#     4  11  24  42  67  93 132 174 217 269 325 378
#     4  11  24  42  68  95 133 169 211 281 322 382
#     4  11  24  41  68  97 133 168 220 264 336 385
#     4  11  24  42  69  96 130 175 219 264 327 396
#     4  10  20  42  64  91 129 173 207 266 324 381
#
# _framework density 21.093895
#
# number of rings (size 3 to 8) (size 9 to 14) (size 15 to 20)
#    0.000    1.200    4.000    3.600    5.600    0.000 
#    0.000    4.000    0.000    0.000    0.000    0.000 
#    0.000    0.000    0.000    0.000    0.000    0.000 
#
# Total GULP energy -247814.936717 kJ/mol
# GULP energy per Si atom -12390.746836 kJ/mol
# Density = 2.104588 g / cm^3
# Si number density = 21.093895 Si / 1000 Ang^3
#
#
#
# Elastic Constant Matrix: (Units=GPa)
#
#
# Indices 1 2 3 4 5 6 
#
# 1 96.7799 74.7984 24.4446 0.0000 -5.5616 0.0000
# 2 74.7984 138.2589 45.3040 0.0000 -6.2857 0.0000
# 3 24.4446 45.3040 121.2513 0.0000 -26.5126 0.0000
# 4 0.0000 0.0000 0.0000 11.9601 0.0000 2.3010
# 5 -5.5616 -6.2857 -26.5126 0.0000 21.9317 0.0000
# 6 0.0000 0.0000 0.0000 2.3010 0.0000 38.9670
#
#
#
# Elastic Compliance Matrix: (Units=1/GPa)
#
#
# Indices 1 2 3 4 5 6 
#
# 1 0.017851 -0.009733 0.000568 0.000000 0.002424 0.000000
# 2 -0.009733 0.013605 -0.003817 0.000000 -0.003183 0.000000
# 3 0.000568 -0.003817 0.012711 0.000000 0.014416 0.000000
# 4 0.000000 0.000000 0.000000 0.084572 0.000000 -0.004994
# 5 0.002424 -0.003183 0.014416 0.000000 0.062726 0.000000
# 6 0.000000 0.000000 0.000000 -0.004994 0.000000 0.025958
#
#
# Mechanical properties :
#
#
# Convention : Reuss Voigt Hill
#
# Bulk Modulus (GPa) = 54.93892 71.70934 63.32413
# Shear Modulus (GPa) = 20.04367 28.68797 24.36582
#
# Velocity S-wave (km/s) = 3.08589 3.69184 3.40238
# Velocity P-wave (km/s) = 6.22884 7.22786 6.74687
#
# Compressibility (1/GPa) = 0.01820203
#
# Stress axis : x y z
#
# Youngs Moduli (GPa) = 56.01831 73.50425 78.67043
#
# Poissons Ratio (x) = 0.71545 -0.04468
# Poissons Ratio (y) = 0.54525 0.30028
# Poissons Ratio (z) = -0.03181 0.28056
#
# Static dielectric constant tensor:
#      x y z
#    x 4.270760 0.000000 -0.316140 
#    y 0.000000 4.323820 0.000000 
#    z -0.316140 0.000000 4.172050 
# 
# 
# High freq. dielectric constant tensor:
#      x y z
#    x 1.835340 0.000000 -0.006330 
#    y 0.000000 1.831890 0.000000 
#    z -0.006330 0.000000 1.820460 
# 
# From -- ./inp_files/150694.got.cif
#   From: 2010.06.25/outbox.cif.g09.slc.cpg/sg15_76_cif.got.tgz:150694.got - 2010.06.28 07:06:18.
