data_PCOD8140066
_publ_section_title
;
Structure prediction by ZEFSAII (Michael W. Deem and Ramdas Pophale) SiO2 
 PCOD8140066
Probable space group: C 2/C
;
_chemical_formula_sum "Si O2"
_cell_formula_units_Z 64
_cell_length_a 17.219528
_cell_length_b 29.649079
_cell_length_c 11.603345
_cell_angle_alpha 90.000000
_cell_angle_beta 146.802134
_cell_angle_gamma 90.000000
_cell_volume 3243.584432
_symmetry_space_group_name_H-M "C 2/C"
_symmetry_group_IT_number 15
_symmetry_cell_setting 'monoclinic'
loop_
_space_group_symop_operation_xyz
x,y,z
-x,y,1/2-z
-x,-y,-z
x,-y,1/2+z
1/2+x,1/2+y,z
1/2-x,1/2+y,1/2-z
1/2-x,1/2-y,-z
1/2+x,1/2-y,1/2+z
loop_
_atom_site_type_symbol
_atom_site_label
_atom_site_fract_x
_atom_site_fract_y
_atom_site_fract_z
Si Si1 0.208009 0.368795 0.791596
Si Si2 0.121919 0.295728 0.082873
Si Si3 0.654037 0.591466 0.428943
Si Si4 0.637781 0.441649 0.657206
Si Si5 0.684380 0.233129 0.300395
Si Si6 0.058460 0.644272 0.692524
Si Si7 0.671263 0.460150 0.171908
Si Si8 0.852081 0.388143 0.528352
O O1 0.326383 0.399898 0.880678
O O2 0.238251 0.315385 0.820694
O O3 0.057710 0.378754 0.538410
O O4 0.225996 0.379577 0.948426
O O5 0.265357 0.267763 0.237355
O O6 0.099647 0.306830 0.191131
O O7 0.125350 0.341583 0.012501
O O8 0.982993 0.266290 0.879610
O O9 0.500000 0.617496 0.250000
O O10 0.680387 0.572747 0.336571
O O11 0.790887 0.620173 0.629629
O O12 0.644271 0.549809 0.504520
O O13 0.472705 0.452846 0.434451
O O14 0.724758 0.487999 0.742048
O O15 0.750000 0.250000 0.500000
O O16 0.000000 0.648031 0.750000
O O17 0.782463 0.425600 0.362448
O O18 0.000000 0.409403 0.750000
#
# Coordination Sequence:
#
# PCOD8140066 Si02
#       8
#     8   8   8   8   8   8   8   8
#     4  11  23  38  66  92 132 164 215 264 326 391
#     4  11  23  41  65  95 133 166 208 261 329 387
#     4  10  20  40  66  88 121 172 217 259 312 383
#     4  10  23  42  60  96 126 171 218 271 324 384
#     4  11  21  40  63  94 130 165 202 264 323 389
#     4  11  21  42  67  87 128 173 208 264 316 376
#     4  10  23  40  64  90 133 168 217 273 328 382
#     4  12  20  40  62  94 130 168 204 268 332 382
#
# _framework density 19.731258
#
# number of rings (size 3 to 8) (size 9 to 14) (size 15 to 20)
#    0.000    1.250    6.250    0.375    1.750    1.500 
#    4.500    3.750    0.000    0.000    0.000    0.000 
#    0.000    0.000    0.000    0.000    0.000    0.000 
#
# Total GULP energy -396420.088612 kJ/mol
# GULP energy per Si atom -12388.127769 kJ/mol
# Density = 1.968635 g / cm^3
# Si number density = 19.731258 Si / 1000 Ang^3
#
#
#
# Elastic Constant Matrix: (Units=GPa)
#
#
# Indices 1 2 3 4 5 6 
#
# 1 115.6564 38.8525 15.8417 0.0000 -2.6798 0.0000
# 2 38.8525 91.1676 36.5377 0.0000 13.0130 0.0000
# 3 15.8417 36.5377 70.7481 0.0000 6.8349 0.0000
# 4 0.0000 0.0000 0.0000 12.6528 0.0000 31.6167
# 5 -2.6798 13.0130 6.8349 0.0000 28.8900 0.0000
# 6 0.0000 0.0000 0.0000 31.6167 0.0000 -8.0331
#
#
#
# Elastic Compliance Matrix: (Units=1/GPa)
#
#
# Indices 1 2 3 4 5 6 
#
# 1 0.010354 -0.004807 -0.000141 0.000000 0.003159 0.000000
# 2 -0.004807 0.016701 -0.006938 0.000000 -0.006327 0.000000
# 3 -0.000141 -0.006938 0.017857 0.000000 -0.001113 0.000000
# 4 0.000000 0.000000 0.000000 0.007294 0.000000 0.028710
# 5 0.003159 -0.006327 -0.001113 0.000000 0.038020 0.000000
# 6 0.000000 0.000000 0.000000 0.028710 0.000000 -0.011489
#
#
# Mechanical properties :
#
#
# Convention : Reuss Voigt Hill
#
# Bulk Modulus (GPa) = 47.30296 51.11509 49.20902
# Shear Modulus (GPa) = 45.63975 19.12461 32.38218
#
# Velocity S-wave (km/s) = 4.81465 3.11666 4.05552
# Velocity P-wave (km/s) = 7.41172 6.23805 6.85007
#
# Compressibility (1/GPa) = 0.02114033
#
# Stress axis : x y z
#
# Youngs Moduli (GPa) = 96.58551 59.87757 56.00160
#
# Poissons Ratio (x) = 0.28781 0.00790
# Poissons Ratio (y) = 0.46425 0.38851
# Poissons Ratio (z) = 0.01363 0.41540
#
# Static dielectric constant tensor:
#      x y z
#    x 3.984550 0.000000 0.036980 
#    y 0.000000 3.611840 0.000000 
#    z 0.036980 0.000000 3.716260 
# 
# 
# High freq. dielectric constant tensor:
#      x y z
#    x 1.784960 0.000000 -0.004550 
#    y 0.000000 1.752720 0.000000 
#    z -0.004550 0.000000 1.766420 
# 
# From -- ./inp_files/108656.got.cif
#   From: 2010.06.25/outbox.cif.g09.slc.cpg/sg15_55_cif.got.tgz:108656.got - 2010.06.28 07:06:18.
