data_PCOD8140680
_publ_section_title
;
Structure prediction by ZEFSAII (Michael W. Deem and Ramdas Pophale) SiO2 
 PCOD8140680
Probable space group: C 2/C
;
_chemical_formula_sum "Si O2"
_cell_formula_units_Z 44
_cell_length_a 18.380690
_cell_length_b 5.351082
_cell_length_c 18.859475
_cell_angle_alpha 90.000000
_cell_angle_beta 69.980698
_cell_angle_gamma 90.000000
_cell_volume 1742.872241
_symmetry_space_group_name_H-M "C 2/C"
_symmetry_group_IT_number 15
_symmetry_cell_setting 'monoclinic'
loop_
_space_group_symop_operation_xyz
x,y,z
-x,y,1/2-z
-x,-y,-z
x,-y,1/2+z
1/2+x,1/2+y,z
1/2-x,1/2+y,1/2-z
1/2-x,1/2-y,-z
1/2+x,1/2-y,1/2+z
loop_
_atom_site_type_symbol
_atom_site_label
_atom_site_fract_x
_atom_site_fract_y
_atom_site_fract_z
Si Si1 0.259743 0.470289 0.580163
Si Si2 0.534952 0.753941 0.886561
Si Si3 0.622552 0.734013 0.361307
Si Si4 0.365570 0.263321 0.809525
Si Si5 0.631537 0.628372 0.569166
Si Si6 0.500000 0.893933 0.750000
O O1 0.296855 0.265160 0.622165
O O2 0.222390 0.694116 0.637989
O O3 0.325163 0.559465 0.501088
O O4 0.188615 0.358138 0.560329
O O5 0.579566 0.516402 0.903287
O O6 0.446010 0.735873 0.942139
O O7 0.573692 0.017290 0.895986
O O8 0.536277 0.728246 0.800334
O O9 0.637954 0.698121 0.273077
O O10 0.389065 0.506327 0.847679
O O11 0.431291 0.060420 0.807425
#
# Coordination Sequence:
#
# PCOD8140680 Si02
#       6
#     8   8   8   8   8   4
#     4  11  27  44  67 107 141 188 228 294 358 422
#     4  11  23  46  70 104 140 187 237 290 346 424
#     4  11  28  43  74 107 141 184 236 300 354 401
#     4  11  23  42  73 101 141 183 241 292 350 419
#     4  11  24  46  72  97 145 189 237 280 354 429
#     4  10  20  42  70 106 128 182 238 286 344 406
#
# _framework density 25.245684000000001
#
# number of rings (size 3 to 8) (size 9 to 14) (size 15 to 20)
#    0.000    1.091    1.818    3.818    7.636    2.182 
#    0.000    0.000    0.000    0.000    0.000    0.000 
#    0.000    0.000    0.000    0.000    0.000    0.000 
#
# Total GULP energy -272715.281664 kJ/mol
# GULP energy per Si atom -12396.149167 kJ/mol
# Density = 2.518822 g / cm^3
# Si number density = 25.245684 Si / 1000 Ang^3
#
#
#
# Elastic Constant Matrix: (Units=GPa)
#
#
# Indices 1 2 3 4 5 6 
#
# 1 96.5606 28.9386 35.3389 -0.0031 -5.8012 -0.0010
# 2 28.9386 108.3238 9.3225 -0.0147 -8.7639 -0.0266
# 3 35.3389 9.3225 89.8859 -0.0008 -20.1587 0.0005
# 4 -0.0031 -0.0147 -0.0008 26.8581 -0.0057 -6.8277
# 5 -5.8012 -8.7639 -20.1587 -0.0057 35.3603 -0.0079
# 6 -0.0010 -0.0266 0.0005 -6.8277 -0.0079 31.8545
#
#
#
# Elastic Compliance Matrix: (Units=1/GPa)
#
#
# Indices 1 2 3 4 5 6 
#
# 1 0.013112 -0.003186 -0.005182 -0.000001 -0.001592 -0.000003
# 2 -0.003186 0.010216 0.000738 0.000009 0.002430 0.000011
# 3 -0.005182 0.000738 0.014833 0.000003 0.007789 0.000003
# 4 -0.000001 0.000009 0.000003 0.039378 0.000012 0.008440
# 5 -0.001592 0.002430 0.007789 0.000012 0.033062 0.000013
# 6 -0.000003 0.000011 0.000003 0.008440 0.000013 0.033202
#
#
# Mechanical properties :
#
#
# Convention : Reuss Voigt Hill
#
# Bulk Modulus (GPa) = 43.66579 49.10782 46.38681
# Shear Modulus (GPa) = 29.99501 33.55926 31.77713
#
# Velocity S-wave (km/s) = 3.45066 3.64992 3.55169
# Velocity P-wave (km/s) = 5.76281 6.10383 5.93577
#
# Compressibility (1/GPa) = 0.02290122
#
# Stress axis : x y z
#
# Youngs Moduli (GPa) = 76.26838 97.88828 67.41890
#
# Poissons Ratio (x) = 0.31184 0.34934
# Poissons Ratio (y) = 0.24296 -0.04975
# Poissons Ratio (z) = 0.39519 -0.07223
#
# Static dielectric constant tensor:
#      x y z
#    x 4.714100 0.000000 -0.255060 
#    y 0.000000 4.139540 0.000010 
#    z -0.255060 0.000010 4.730150 
# 
# 
# High freq. dielectric constant tensor:
#      x y z
#    x 2.018520 0.000000 -0.006810 
#    y 0.000000 1.982780 0.000000 
#    z -0.006810 0.000000 2.015980 
# 
# From -- ./inp_files/246404.got.cif
#   From: 2010.06.25/outbox.cif.g09.slc.cpg/sg15_124_cif.got.tgz:246404.got - 2010.06.28 07:06:18.
