data_PCOD8140872
_publ_section_title
;
Structure prediction by ZEFSAII (Michael W. Deem and Ramdas Pophale) SiO2 
 PCOD8140872
Probable space group: C 2/C
;
_chemical_formula_sum "Si O2"
_cell_formula_units_Z 44
_cell_length_a 21.533113
_cell_length_b 7.994847
_cell_length_c 14.598474
_cell_angle_alpha 90.000000
_cell_angle_beta 46.985866
_cell_angle_gamma 90.000000
_cell_volume 1837.604189
_symmetry_space_group_name_H-M "C 2/C"
_symmetry_group_IT_number 15
_symmetry_cell_setting 'monoclinic'
loop_
_space_group_symop_operation_xyz
x,y,z
-x,y,1/2-z
-x,-y,-z
x,-y,1/2+z
1/2+x,1/2+y,z
1/2-x,1/2+y,1/2-z
1/2-x,1/2-y,-z
1/2+x,1/2-y,1/2+z
loop_
_atom_site_type_symbol
_atom_site_label
_atom_site_fract_x
_atom_site_fract_y
_atom_site_fract_z
Si Si1 0.704974 0.711482 0.304659
Si Si2 0.109351 0.116648 0.228491
Si Si3 0.500000 0.625531 0.750000
Si Si4 0.877160 0.424756 0.610737
Si Si5 0.022934 0.459352 0.324471
Si Si6 0.678486 0.365316 0.029521
O O1 0.653217 0.605491 0.282586
O O2 0.805262 0.718216 0.178513
O O3 0.698790 0.603887 0.403547
O O4 0.667728 0.895502 0.354985
O O5 0.082933 0.306318 0.233815
O O6 0.026474 0.996331 0.309056
O O7 0.175190 0.045344 0.084750
O O8 0.584834 0.726126 0.632830
O O9 0.926426 0.413214 0.659517
O O10 0.941332 0.393171 0.462539
O O11 0.000000 0.549271 0.250000
O O12 0.750000 0.250000 0.000000
#
# Coordination Sequence:
#
# PCOD8140872 Si02
#       6
#     8   8   4   8   8   8
#     4  11  23  43  66  99 140 178 223 290 336 405
#     4   9  20  41  69  96 130 178 231 271 340 404
#     4   8  20  40  62 100 130 176 228 274 332 410
#     4  10  25  41  66 101 134 178 231 276 348 404
#     4  10  20  45  68  95 131 180 229 283 334 407
#     4  10  21  41  64 101 140 172 229 281 344 408
#
# _framework density 23.944220000000001
#
# number of rings (size 3 to 8) (size 9 to 14) (size 15 to 20)
#    1.091    1.091    0.909    1.091    0.000    6.545 
#   11.455    3.636    0.000    0.000    0.000    0.000 
#    0.000    0.000    0.000    0.000    0.000    0.000 
#
# Total GULP energy -272569.546330 kJ/mol
# GULP energy per Si atom -12389.524833 kJ/mol
# Density = 2.388972 g / cm^3
# Si number density = 23.944220 Si / 1000 Ang^3
#
#
#
# Elastic Constant Matrix: (Units=GPa)
#
#
# Indices 1 2 3 4 5 6 
#
# 1 169.2831 12.1618 62.6635 -0.0026 8.9091 0.0024
# 2 12.1618 46.3069 9.3198 -0.0084 6.0783 0.0086
# 3 62.6635 9.3198 77.4982 -0.0079 14.7689 0.0081
# 4 -0.0026 -0.0084 -0.0079 38.7361 0.0023 -13.9349
# 5 8.9091 6.0783 14.7689 0.0023 57.9842 -0.0018
# 6 0.0024 0.0086 0.0081 -13.9349 -0.0018 13.3334
#
#
#
# Elastic Compliance Matrix: (Units=1/GPa)
#
#
# Indices 1 2 3 4 5 6 
#
# 1 0.008480 -0.000919 -0.006849 0.000000 0.000538 0.000004
# 2 -0.000919 0.022396 -0.001607 -0.000001 -0.001797 -0.000014
# 3 -0.006849 -0.001607 0.019341 0.000000 -0.003705 -0.000010
# 4 0.000000 -0.000001 0.000000 0.041369 0.000000 0.043235
# 5 0.000538 -0.001797 -0.003705 0.000000 0.018296 0.000006
# 6 0.000004 -0.000014 -0.000010 0.043235 0.000006 0.120185
#
#
# Mechanical properties :
#
#
# Convention : Reuss Voigt Hill
#
# Bulk Modulus (GPa) = 31.78076 51.26424 41.52250
# Shear Modulus (GPa) = 19.28216 35.94030 27.61123
#
# Velocity S-wave (km/s) = 2.84085 3.87848 3.39949
# Velocity P-wave (km/s) = 4.90533 6.44307 5.72605
#
# Compressibility (1/GPa) = 0.03146558
#
# Stress axis : x y z
#
# Youngs Moduli (GPa) = 117.92085 44.65100 51.70403
#
# Poissons Ratio (x) = 0.04105 0.35412
# Poissons Ratio (y) = 0.10841 0.08311
# Poissons Ratio (z) = 0.80763 0.07177
#
# Static dielectric constant tensor:
#      x y z
#    x 4.759570 0.000000 -0.036780 
#    y 0.000000 3.814060 0.000000 
#    z -0.036780 0.000000 4.266300 
# 
# 
# High freq. dielectric constant tensor:
#      x y z
#    x 1.974980 0.000000 -0.003250 
#    y 0.000000 1.924820 0.000000 
#    z -0.003250 0.000000 1.940690 
# 
# From -- ./inp_files/171693.got.cif
#   From: 2010.06.25/outbox.cif.g09.slc.cpg/sg15_86_cif.got.tgz:171693.got - 2010.06.28 07:06:18.
