data_PCOD8140072
_publ_section_title
;
Structure prediction by ZEFSAII (Michael W. Deem and Ramdas Pophale) SiO2 
 PCOD8140072
Probable space group: C 2/C
;
_chemical_formula_sum "Si O2"
_cell_formula_units_Z 48
_cell_length_a 18.344004
_cell_length_b 8.711244
_cell_length_c 14.697305
_cell_angle_alpha 90.000000
_cell_angle_beta 99.947090
_cell_angle_gamma 90.000000
_cell_volume 2313.310908
_symmetry_space_group_name_H-M "C 2/C"
_symmetry_group_IT_number 15
_symmetry_cell_setting 'monoclinic'
loop_
_space_group_symop_operation_xyz
x,y,z
-x,y,1/2-z
-x,-y,-z
x,-y,1/2+z
1/2+x,1/2+y,z
1/2-x,1/2+y,1/2-z
1/2-x,1/2-y,-z
1/2+x,1/2-y,1/2+z
loop_
_atom_site_type_symbol
_atom_site_label
_atom_site_fract_x
_atom_site_fract_y
_atom_site_fract_z
Si Si1 0.401426 0.646201 0.308278
Si Si2 0.432183 0.654094 0.110887
Si Si3 0.679723 0.856761 0.080086
Si Si4 0.432849 0.110587 0.456483
Si Si5 0.150468 0.161983 0.903576
Si Si6 0.927212 0.181690 0.785133
O O1 0.404499 0.703833 0.204666
O O2 0.479150 0.666623 0.376732
O O3 0.335738 0.739920 0.340910
O O4 0.382008 0.465434 0.312413
O O5 0.401119 0.484013 0.081926
O O6 0.405292 0.775343 0.029663
O O7 0.765743 0.895014 0.090970
O O8 0.638601 0.015507 0.088759
O O9 0.645153 0.785377 0.981603
O O10 0.453528 0.202722 0.368872
O O11 0.500000 0.000000 0.500000
O O12 0.123657 0.251937 0.806376
O O13 0.000000 0.113302 0.750000
#
# Coordination Sequence:
#
# PCOD8140072 Si02
#       6
#     8   8   8   8   8   8
#     4  10  20  40  66  89 119 166 218 252 304 376
#     4  10  21  41  64  90 122 167 212 257 303 385
#     4  11  24  40  62  95 127 166 200 271 325 371
#     4  12  25  37  61  97 130 159 204 268 327 373
#     4  10  23  44  64  87 127 167 219 252 315 390
#     4  11  22  39  64  92 118 168 216 255 309 384
#
# _framework density 20.749480999999999
#
# number of rings (size 3 to 8) (size 9 to 14) (size 15 to 20)
#    0.000    1.333    5.000    2.000    0.000    7.333 
#    0.000    3.333    0.000    0.000    0.000    0.000 
#    0.000    0.000    0.000    0.000    0.000    0.000 
#
# Total GULP energy -297549.214427 kJ/mol
# GULP energy per Si atom -12397.883934 kJ/mol
# Density = 2.070225 g / cm^3
# Si number density = 20.749481 Si / 1000 Ang^3
#
#
#
# Elastic Constant Matrix: (Units=GPa)
#
#
# Indices 1 2 3 4 5 6 
#
# 1 33.1872 13.8998 18.3687 0.0000 -2.8455 0.0000
# 2 13.8998 86.3793 47.4488 0.0000 -4.8243 0.0000
# 3 18.3687 47.4488 117.9596 0.0000 7.5547 0.0000
# 4 0.0000 0.0000 0.0000 21.0849 0.0000 -5.3989
# 5 -2.8455 -4.8243 7.5547 0.0000 27.6024 0.0000
# 6 0.0000 0.0000 0.0000 -5.3989 0.0000 26.8310
#
#
#
# Elastic Compliance Matrix: (Units=1/GPa)
#
#
# Indices 1 2 3 4 5 6 
#
# 1 0.034140 -0.002807 -0.004459 0.000000 0.004250 0.000000
# 2 -0.002807 0.015612 -0.006106 0.000000 0.004111 0.000000
# 3 -0.004459 -0.006106 0.011935 0.000000 -0.004794 0.000000
# 4 0.000000 0.000000 0.000000 0.050004 0.000000 0.010062
# 5 0.004250 0.004111 -0.004794 0.000000 0.038697 0.000000
# 6 0.000000 0.000000 0.000000 0.010062 0.000000 0.039295
#
#
# Mechanical properties :
#
#
# Convention : Reuss Voigt Hill
#
# Bulk Modulus (GPa) = 28.61818 44.10674 36.36246
# Shear Modulus (GPa) = 21.92254 25.62424 23.77339
#
# Velocity S-wave (km/s) = 3.25396 3.51798 3.38854
# Velocity P-wave (km/s) = 5.28582 6.14853 5.73343
#
# Compressibility (1/GPa) = 0.03494282
#
# Stress axis : x y z
#
# Youngs Moduli (GPa) = 29.29090 64.05241 83.78655
#
# Poissons Ratio (x) = 0.17978 0.37365
# Poissons Ratio (y) = 0.08221 0.51161
# Poissons Ratio (z) = 0.13062 0.39111
#
# Static dielectric constant tensor:
#      x y z
#    x 3.660550 0.000000 0.095260 
#    y 0.000000 3.616140 0.000000 
#    z 0.095260 0.000000 3.936640 
# 
# 
# High freq. dielectric constant tensor:
#      x y z
#    x 1.799060 0.000000 0.004710 
#    y 0.000000 1.802670 0.000000 
#    z 0.004710 0.000000 1.826830 
# 
# From -- ./inp_files/159725.got.cif
#   From: 2010.06.25/outbox.cif.g09.slc.cpg/sg15_80_cif.got.tgz:159725.got - 2010.06.28 07:06:18.
