data_PCOD8140975
_publ_section_title
;
Structure prediction by ZEFSAII (Michael W. Deem and Ramdas Pophale) SiO2 
 PCOD8140975
Probable space group: C 2/C
;
_chemical_formula_sum "Si O2"
_cell_formula_units_Z 56
_cell_length_a 8.458292
_cell_length_b 17.672459
_cell_length_c 27.544609
_cell_angle_alpha 90.000000
_cell_angle_beta 41.796508
_cell_angle_gamma 90.000000
_cell_volume 2744.150802
_symmetry_space_group_name_H-M "C 2/C"
_symmetry_group_IT_number 15
_symmetry_cell_setting 'monoclinic'
loop_
_space_group_symop_operation_xyz
x,y,z
-x,y,1/2-z
-x,-y,-z
x,-y,1/2+z
1/2+x,1/2+y,z
1/2-x,1/2+y,1/2-z
1/2-x,1/2-y,-z
1/2+x,1/2-y,1/2+z
loop_
_atom_site_type_symbol
_atom_site_label
_atom_site_fract_x
_atom_site_fract_y
_atom_site_fract_z
Si Si1 0.500000 0.792896 0.250000
Si Si2 0.108838 0.781086 0.821314
Si Si3 0.500000 0.904490 0.750000
Si Si4 0.162910 0.323162 0.399942
Si Si5 0.040427 0.857839 0.386083
Si Si6 0.394077 0.737692 0.544729
Si Si7 0.671949 0.488115 0.896691
Si Si8 0.742712 0.915047 0.034832
O O1 0.358403 0.745063 0.241862
O O2 0.320543 0.847458 0.318236
O O3 0.272345 0.855538 0.786069
O O4 0.202344 0.720331 0.840019
O O5 0.823661 0.796524 0.893939
O O6 0.400409 0.959141 0.815001
O O7 0.415917 0.349006 0.362619
O O8 0.052150 0.266705 0.464949
O O9 0.007372 0.400974 0.435075
O O10 0.950764 0.790993 0.444019
O O11 0.015053 0.943478 0.410381
O O12 0.258022 0.662133 0.560902
O O13 0.773000 0.512247 0.926346
O O14 0.473990 0.422007 0.947281
#
# Coordination Sequence:
#
# PCOD8140975 Si02
#       8
#     4   8   4   8   8   8   8   8
#     4  10  21  40  52  76 113 138 174 228 294 332
#     4  10  21  35  58  82 107 139 178 234 283 328
#     4  12  21  36  58  80 103 144 194 226 270 334
#     4  11  19  34  60  87 107 137 188 234 272 323
#     4  10  21  34  54  80 112 148 179 221 274 332
#     4   9  18  35  57  83 111 137 174 233 288 321
#     4  10  21  36  53  77 115 157 184 218 273 334
#     4   9  19  36  55  78 112 151 188 223 272 332
#
# _framework density 20.407043000000002
#
# number of rings (size 3 to 8) (size 9 to 14) (size 15 to 20)
#    0.000    2.000    0.000    6.000    0.000    0.571 
#    0.000    5.714    0.000    0.000    0.000    0.000 
#    0.000    0.000    0.000    0.000    0.000    0.000 
#
# Total GULP energy -346867.171367 kJ/mol
# GULP energy per Si atom -12388.113263 kJ/mol
# Density = 2.036060 g / cm^3
# Si number density = 20.407043 Si / 1000 Ang^3
#
#
#
# Elastic Constant Matrix: (Units=GPa)
#
#
# Indices 1 2 3 4 5 6 
#
# 1 112.9035 37.9428 22.0106 0.0009 12.9509 0.0049
# 2 37.9428 70.0647 40.6551 0.0025 -4.1958 0.0032
# 3 22.0106 40.6551 104.1583 -0.0094 12.9426 0.0072
# 4 0.0009 0.0025 -0.0094 31.0270 0.0079 -4.2675
# 5 12.9509 -4.1958 12.9426 0.0079 26.4429 -0.0055
# 6 0.0049 0.0032 0.0072 -4.2675 -0.0055 24.7020
#
#
#
# Elastic Compliance Matrix: (Units=1/GPa)
#
#
# Indices 1 2 3 4 5 6 
#
# 1 0.012137 -0.007929 0.001517 0.000002 -0.007945 -0.000003
# 2 -0.007929 0.024883 -0.009594 -0.000007 0.012527 0.000003
# 3 0.001517 -0.009594 0.014168 0.000007 -0.009200 -0.000004
# 4 0.000002 -0.000007 0.000007 0.033014 -0.000014 0.005704
# 5 -0.007945 0.012527 -0.009200 -0.000014 0.048199 0.000011
# 6 -0.000003 0.000003 -0.000004 0.005704 0.000011 0.041468
#
#
# Mechanical properties :
#
#
# Convention : Reuss Voigt Hill
#
# Bulk Modulus (GPa) = 52.14334 54.26038 53.20186
# Shear Modulus (GPa) = 23.55452 28.86893 26.21173
#
# Velocity S-wave (km/s) = 3.40109 3.76527 3.58780
# Velocity P-wave (km/s) = 6.40549 6.74906 6.57952
#
# Compressibility (1/GPa) = 0.01917790
#
# Stress axis : x y z
#
# Youngs Moduli (GPa) = 82.39008 40.18761 70.58228
#
# Poissons Ratio (x) = 0.31865 -0.10710
# Poissons Ratio (y) = 0.65328 0.67713
# Poissons Ratio (z) = -0.12501 0.38554
#
# Static dielectric constant tensor:
#      x y z
#    x 4.186450 0.000000 0.100070 
#    y 0.000000 3.589010 0.000020 
#    z 0.100070 0.000020 3.707480 
# 
# 
# High freq. dielectric constant tensor:
#      x y z
#    x 1.796630 0.000000 0.006330 
#    y 0.000000 1.774120 0.000000 
#    z 0.006330 0.000000 1.803460 
# 
# From -- ./inp_files/265615.got.cif
#   From: 2010.06.25/outbox.cif.g09.slc.cpg/sg15_133_cif.got.tgz:265615.got - 2010.06.28 07:06:18.
