data_PCOD8140023
_publ_section_title
;
Structure prediction by ZEFSAII (Michael W. Deem and Ramdas Pophale) SiO2 
 PCOD8140023
Probable space group: C 2/C
;
_chemical_formula_sum "Si O2"
_cell_formula_units_Z 48
_cell_length_a 15.134290
_cell_length_b 18.385136
_cell_length_c 17.685862
_cell_angle_alpha 90.000000
_cell_angle_beta 151.236599
_cell_angle_gamma 90.000000
_cell_volume 2367.964388
_symmetry_space_group_name_H-M "C 2/C"
_symmetry_group_IT_number 15
_symmetry_cell_setting 'monoclinic'
loop_
_space_group_symop_operation_xyz
x,y,z
-x,y,1/2-z
-x,-y,-z
x,-y,1/2+z
1/2+x,1/2+y,z
1/2-x,1/2+y,1/2-z
1/2-x,1/2-y,-z
1/2+x,1/2-y,1/2+z
loop_
_atom_site_type_symbol
_atom_site_label
_atom_site_fract_x
_atom_site_fract_y
_atom_site_fract_z
Si Si1 0.312523 0.476455 0.901079
Si Si2 0.447203 0.574208 0.793552
Si Si3 0.190837 0.158833 0.191127
Si Si4 0.320422 0.423225 0.665372
Si Si5 0.664631 0.691067 0.671786
Si Si6 0.542556 0.111696 0.697737
O O1 0.220364 0.408129 0.788746
O O2 0.169340 0.540823 0.796515
O O3 0.500000 0.500000 0.000000
O O4 0.364288 0.452578 0.024958
O O5 0.500000 0.602820 0.750000
O O6 0.306307 0.506041 0.685738
O O7 0.351879 0.638647 0.768311
O O8 0.155937 0.134682 0.250414
O O9 0.330951 0.226393 0.294667
O O10 0.999823 0.181160 0.009832
O O11 0.500000 0.416366 0.750000
O O12 0.143551 0.406192 0.484004
O O13 0.854295 0.675203 0.770313
O O14 0.500000 0.139770 0.750000
#
# Coordination Sequence:
#
# PCOD8140023 Si02
#       6
#     8   8   8   8   8   8
#     4  11  20  43  65  88 127 165 209 260 306 363
#     4  10  20  40  65  88 124 165 207 262 313 361
#     4  11  22  40  62  87 128 167 210 254 317 364
#     4  11  22  37  62  93 123 159 216 261 310 378
#     4  11  23  40  59  89 126 167 204 258 317 379
#     4  12  23  38  65  95 125 166 208 258 318 374
#
# _framework density 20.270575999999998
#
# number of rings (size 3 to 8) (size 9 to 14) (size 15 to 20)
#    0.000    1.000    5.000    4.000    0.000    4.667 
#    0.000    7.500    0.000    0.000    0.000    0.000 
#    0.000    0.000    0.000    0.000    0.000    0.000 
#
# Total GULP energy -297664.606534 kJ/mol
# GULP energy per Si atom -12402.691939 kJ/mol
# Density = 2.022444 g / cm^3
# Si number density = 20.270576 Si / 1000 Ang^3
#
#
#
# Elastic Constant Matrix: (Units=GPa)
#
#
# Indices 1 2 3 4 5 6 
#
# 1 105.1547 31.2501 41.0573 0.1060 -22.7177 -0.0242
# 2 31.2501 89.0947 7.4746 0.0125 -16.3049 -0.0263
# 3 41.0573 7.4746 79.2515 -0.1416 -18.3492 -0.0442
# 4 0.1060 0.0125 -0.1416 41.8406 0.0040 0.4687
# 5 -22.7177 -16.3049 -18.3492 0.0040 34.4297 -0.0004
# 6 -0.0242 -0.0263 -0.0442 0.4687 -0.0004 29.3003
#
#
#
# Elastic Compliance Matrix: (Units=1/GPa)
#
#
# Indices 1 2 3 4 5 6 
#
# 1 0.013759 -0.003551 -0.005796 -0.000054 0.004308 0.000000
# 2 -0.003551 0.013209 0.001711 0.000010 0.004824 0.000011
# 3 -0.005796 0.001711 0.016839 0.000070 0.005961 0.000021
# 4 -0.000054 0.000010 0.000070 0.023905 0.000004 -0.000382
# 5 0.004308 0.004824 0.005961 0.000004 0.037348 0.000017
# 6 0.000000 0.000011 0.000021 -0.000382 0.000017 0.034136
#
#
# Mechanical properties :
#
#
# Convention : Reuss Voigt Hill
#
# Bulk Modulus (GPa) = 35.04476 48.11834 41.58155
# Shear Modulus (GPa) = 30.49158 34.02870 32.26014
#
# Velocity S-wave (km/s) = 3.88265 4.10167 3.99366
# Velocity P-wave (km/s) = 6.11767 6.79861 6.46711
#
# Compressibility (1/GPa) = 0.02853494
#
# Stress axis : x y z
#
# Youngs Moduli (GPa) = 72.68062 75.70650 59.38444
#
# Poissons Ratio (x) = 0.26886 0.34417
# Poissons Ratio (y) = 0.25811 -0.10160
# Poissons Ratio (z) = 0.42124 -0.12953
#
# Static dielectric constant tensor:
#      x y z
#    x 3.833970 -0.000030 -0.195640 
#    y -0.000030 4.080270 -0.000330 
#    z -0.195640 -0.000330 3.885130 
# 
# 
# High freq. dielectric constant tensor:
#      x y z
#    x 1.787040 0.000000 -0.025770 
#    y 0.000000 1.794600 -0.000010 
#    z -0.025770 -0.000010 1.796850 
# 
# From -- ./inp_files/206514.got.cif
#   From: 2010.06.25/outbox.cif.g09.slc.cpg/sg15_104_cif.got.tgz:206514.got - 2010.06.28 07:06:18.
