data_PCOD8140038
_publ_section_title
;
Structure prediction by ZEFSAII (Michael W. Deem and Ramdas Pophale) SiO2 
 PCOD8140038
Probable space group: C 2/C
;
_chemical_formula_sum "Si O2"
_cell_formula_units_Z 60
_cell_length_a 27.164706
_cell_length_b 8.366882
_cell_length_c 12.100346
_cell_angle_alpha 90.000000
_cell_angle_beta 88.725636
_cell_angle_gamma 90.000000
_cell_volume 2749.533468
_symmetry_space_group_name_H-M "C 2/C"
_symmetry_group_IT_number 15
_symmetry_cell_setting 'monoclinic'
loop_
_space_group_symop_operation_xyz
x,y,z
-x,y,1/2-z
-x,-y,-z
x,-y,1/2+z
1/2+x,1/2+y,z
1/2-x,1/2+y,1/2-z
1/2-x,1/2-y,-z
1/2+x,1/2-y,1/2+z
loop_
_atom_site_type_symbol
_atom_site_label
_atom_site_fract_x
_atom_site_fract_y
_atom_site_fract_z
Si Si1 0.950699 0.552214 0.938997
Si Si2 0.730579 0.853561 0.604541
Si Si3 0.286464 0.364752 0.200319
Si Si4 0.000000 0.258542 0.250000
Si Si5 0.143821 0.957800 0.661375
Si Si6 0.876985 0.204976 0.551690
Si Si7 0.915596 0.884308 0.637576
Si Si8 0.878870 0.715311 0.434620
O O1 0.923334 0.396191 0.895486
O O2 0.961750 0.640463 0.824048
O O3 0.912855 0.645753 0.024062
O O4 0.000000 0.500000 0.000000
O O5 0.750000 0.750000 0.500000
O O6 0.742050 0.761685 0.720369
O O7 0.672652 0.874262 0.584907
O O8 0.753733 0.033630 0.612870
O O9 0.304959 0.503141 0.282354
O O10 0.332748 0.268992 0.142225
O O11 0.972718 0.155314 0.156270
O O12 0.153211 0.849596 0.554710
O O13 0.108983 0.859324 0.742919
O O14 0.116435 0.123810 0.635411
O O15 0.912505 0.063297 0.591122
O O16 0.886683 0.758327 0.562812
#
# Coordination Sequence:
#
# PCOD8140038 Si02
#       8
#     8   8   8   4   8   8   8   8
#     4  12  26  43  63  97 138 166 215 278 342 393
#     4  11  23  44  68 101 138 175 225 283 333 398
#     4  10  22  40  66 100 130 178 227 269 335 400
#     4  12  24  40  66  92 122 174 230 270 330 392
#     4   9  18  39  64  89 124 174 221 263 317 392
#     4  10  22  41  67  92 132 172 221 273 326 402
#     4  10  20  40  65  92 123 177 227 264 320 393
#     4  10  23  42  65  96 136 173 211 278 340 385
#
# _framework density 21.821884000000001
#
# number of rings (size 3 to 8) (size 9 to 14) (size 15 to 20)
#    0.000    1.600    2.667    3.200    0.000    6.933 
#    2.400    2.000    0.000    0.000    0.000    0.000 
#    0.000    0.000    0.000    0.000    0.000    0.000 
#
# Total GULP energy -371725.939051 kJ/mol
# GULP energy per Si atom -12390.864635 kJ/mol
# Density = 2.177222 g / cm^3
# Si number density = 21.821884 Si / 1000 Ang^3
#
#
#
# Elastic Constant Matrix: (Units=GPa)
#
#
# Indices 1 2 3 4 5 6 
#
# 1 81.9513 31.0268 27.8576 0.0000 9.0913 0.0000
# 2 31.0268 62.6000 21.1453 0.0000 -3.8306 0.0000
# 3 27.8576 21.1453 104.7677 0.0000 -6.1222 0.0000
# 4 0.0000 0.0000 0.0000 29.0485 0.0000 -0.5258
# 5 9.0913 -3.8306 -6.1222 0.0000 41.9951 0.0000
# 6 0.0000 0.0000 0.0000 -0.5258 0.0000 39.4768
#
#
#
# Elastic Compliance Matrix: (Units=1/GPa)
#
#
# Indices 1 2 3 4 5 6 
#
# 1 0.016639 -0.007458 -0.003197 0.000000 -0.004748 0.000000
# 2 -0.007458 0.020533 -0.001974 0.000000 0.003200 0.000000
# 3 -0.003197 -0.001974 0.010916 0.000000 0.002103 0.000000
# 4 0.000000 0.000000 0.000000 0.034434 0.000000 0.000459
# 5 -0.004748 0.003200 0.002103 0.000000 0.025439 0.000000
# 6 0.000000 0.000000 0.000000 0.000459 0.000000 0.025337
#
#
# Mechanical properties :
#
#
# Convention : Reuss Voigt Hill
#
# Bulk Modulus (GPa) = 43.79897 45.48650 44.64274
# Shear Modulus (GPa) = 30.09024 33.39001 31.74012
#
# Velocity S-wave (km/s) = 3.71739 3.91591 3.81794
# Velocity P-wave (km/s) = 6.20806 6.42927 6.31963
#
# Compressibility (1/GPa) = 0.02283159
#
# Stress axis : x y z
#
# Youngs Moduli (GPa) = 60.09865 48.70095 91.60623
#
# Poissons Ratio (x) = 0.36320 0.29283
# Poissons Ratio (y) = 0.44821 0.18086
# Poissons Ratio (z) = 0.19211 0.09615
#
# Static dielectric constant tensor:
#      x y z
#    x 3.976220 0.000000 0.137860 
#    y 0.000000 3.849840 0.000000 
#    z 0.137860 0.000000 4.154340 
# 
# 
# High freq. dielectric constant tensor:
#      x y z
#    x 1.852070 0.000000 0.009660 
#    y 0.000000 1.844600 0.000000 
#    z 0.009660 0.000000 1.870890 
# 
# From -- ./inp_files/125590.got.cif
#   From: 2010.06.25/outbox.cif.g09.slc.cpg/sg15_63_cif.got.tgz:125590.got - 2010.06.28 07:06:18.
