data_PCOD8140860
_publ_section_title
;
Structure prediction by ZEFSAII (Michael W. Deem and Ramdas Pophale) SiO2 
 PCOD8140860
Probable space group: C 2/C
;
_chemical_formula_sum "Si O2"
_cell_formula_units_Z 48
_cell_length_a 7.846115
_cell_length_b 24.875810
_cell_length_c 11.924458
_cell_angle_alpha 90.000000
_cell_angle_beta 101.724092
_cell_angle_gamma 90.000000
_cell_volume 2278.841987
_symmetry_space_group_name_H-M "C 2/C"
_symmetry_group_IT_number 15
_symmetry_cell_setting 'monoclinic'
loop_
_space_group_symop_operation_xyz
x,y,z
-x,y,1/2-z
-x,-y,-z
x,-y,1/2+z
1/2+x,1/2+y,z
1/2-x,1/2+y,1/2-z
1/2-x,1/2-y,-z
1/2+x,1/2-y,1/2+z
loop_
_atom_site_type_symbol
_atom_site_label
_atom_site_fract_x
_atom_site_fract_y
_atom_site_fract_z
Si Si1 0.683817 0.640227 0.391873
Si Si2 0.000000 0.114536 0.750000
Si Si3 0.818225 0.400170 0.688741
Si Si4 0.045654 0.302758 0.923187
Si Si5 0.000000 0.224691 0.250000
Si Si6 0.780718 0.210738 0.668787
Si Si7 0.971533 0.062401 0.509786
O O1 0.694185 0.604768 0.279830
O O2 0.535562 0.686139 0.362227
O O3 0.627831 0.598759 0.480623
O O4 0.861497 0.672848 0.437043
O O5 0.164742 0.154673 0.767083
O O6 0.972617 0.075934 0.640804
O O7 0.864663 0.340402 0.656328
O O8 0.715723 0.428686 0.574126
O O9 0.000000 0.430194 0.750000
O O10 0.052047 0.244288 0.860430
O O11 0.153424 0.301484 0.050325
O O12 0.826286 0.258091 0.250115
O O13 0.000000 0.000000 0.500000
#
# Coordination Sequence:
#
# PCOD8140860 Si02
#       7
#     8   4   8   8   4   8   8
#     4  11  22  40  68  99 128 175 240 274 325 413
#     4  12  28  45  64  96 148 175 222 296 354 414
#     4  10  20  44  72  97 129 177 229 280 333 411
#     4  10  21  40  66  99 145 183 217 273 339 419
#     4  12  22  35  68  98 138 183 224 262 332 430
#     4  11  23  39  61 101 145 184 217 268 354 417
#     4  12  27  48  71  98 129 183 236 302 354 397
#
# _framework density 21.063331000000002
#
# number of rings (size 3 to 8) (size 9 to 14) (size 15 to 20)
#    0.000    1.000    5.000    1.000    8.167    0.667 
#    0.000    5.000    0.000    0.000    0.000    0.000 
#    0.000    0.000    0.000    0.000    0.000    0.000 
#
# Total GULP energy -297420.050938 kJ/mol
# GULP energy per Si atom -12392.502122 kJ/mol
# Density = 2.101539 g / cm^3
# Si number density = 21.063331 Si / 1000 Ang^3
#
#
#
# Elastic Constant Matrix: (Units=GPa)
#
#
# Indices 1 2 3 4 5 6 
#
# 1 110.4967 59.2036 39.7618 0.0000 1.9308 0.0000
# 2 59.2036 136.8921 54.9189 0.0000 9.7310 0.0000
# 3 39.7618 54.9189 126.1673 0.0000 12.7305 0.0000
# 4 0.0000 0.0000 0.0000 24.4660 0.0000 -6.7839
# 5 1.9308 9.7310 12.7305 0.0000 30.5832 0.0000
# 6 0.0000 0.0000 0.0000 -6.7839 0.0000 -10.0426
#
#
#
# Elastic Compliance Matrix: (Units=1/GPa)
#
#
# Indices 1 2 3 4 5 6 
#
# 1 0.012199 -0.004580 -0.002004 0.000000 0.001521 0.000000
# 2 -0.004580 0.010617 -0.002992 0.000000 -0.001844 0.000000
# 3 -0.002004 -0.002992 0.010179 0.000000 -0.003158 0.000000
# 4 0.000000 0.000000 0.000000 0.034425 0.000000 -0.023255
# 5 0.001521 -0.001844 -0.003158 0.000000 0.034503 0.000000
# 6 0.000000 0.000000 0.000000 -0.023255 0.000000 -0.083867
#
#
# Mechanical properties :
#
#
# Convention : Reuss Voigt Hill
#
# Bulk Modulus (GPa) = 72.24436 75.70274 73.97355
# Shear Modulus (GPa) = 119.55437 23.64610 71.60024
#
# Velocity S-wave (km/s) = 7.54206 3.35419 5.83666
# Velocity P-wave (km/s) = 10.49841 7.14278 8.97875
#
# Compressibility (1/GPa) = 0.01384191
#
# Stress axis : x y z
#
# Youngs Moduli (GPa) = 81.97723 94.18751 98.24317
#
# Poissons Ratio (x) = 0.43135 0.19692
# Poissons Ratio (y) = 0.37543 0.29396
# Poissons Ratio (z) = 0.16432 0.28183
#
# Static dielectric constant tensor:
#      x y z
#    x 3.810070 0.000000 0.095330 
#    y 0.000000 3.605820 0.000000 
#    z 0.095330 0.000000 3.650500 
# 
# 
# High freq. dielectric constant tensor:
#      x y z
#    x 1.829600 0.000000 0.018660 
#    y 0.000000 1.799380 0.000000 
#    z 0.018660 0.000000 1.837660 
# 
# From -- ./inp_files/79414.got.cif
#   From: 2010.06.25/outbox.cif.g09.slc.cpg/sg15_40_cif.got.tgz:79414.got - 2010.06.28 07:06:18.
