data_PCOD8140044
_publ_section_title
;
Structure prediction by ZEFSAII (Michael W. Deem and Ramdas Pophale) SiO2 
 PCOD8140044
Probable space group: C 2/C
;
_chemical_formula_sum "Si O2"
_cell_formula_units_Z 64
_cell_length_a 8.641673
_cell_length_b 25.778466
_cell_length_c 14.164520
_cell_angle_alpha 90.000000
_cell_angle_beta 71.769414
_cell_angle_gamma 90.000000
_cell_volume 2997.031422
_symmetry_space_group_name_H-M "C 2/C"
_symmetry_group_IT_number 15
_symmetry_cell_setting 'monoclinic'
loop_
_space_group_symop_operation_xyz
x,y,z
-x,y,1/2-z
-x,-y,-z
x,-y,1/2+z
1/2+x,1/2+y,z
1/2-x,1/2+y,1/2-z
1/2-x,1/2-y,-z
1/2+x,1/2-y,1/2+z
loop_
_atom_site_type_symbol
_atom_site_label
_atom_site_fract_x
_atom_site_fract_y
_atom_site_fract_z
Si Si1 0.964166 0.580803 0.146086
Si Si2 0.456814 0.268544 0.044552
Si Si3 0.418719 0.370434 0.540537
Si Si4 0.410718 0.781966 0.359817
Si Si5 0.472754 0.904003 0.363134
Si Si6 0.798733 0.938080 0.940375
Si Si7 0.283806 0.948342 0.037521
Si Si8 0.602395 0.814861 0.638660
O O1 0.014937 0.637981 0.099975
O O2 0.000000 0.573434 0.250000
O O3 0.778694 0.575890 0.147514
O O4 0.072682 0.539369 0.066875
O O5 0.274982 0.262960 0.118744
O O6 0.591929 0.237625 0.079864
O O7 0.482224 0.330051 0.041758
O O8 0.482383 0.248570 0.934148
O O9 0.533681 0.405477 0.585927
O O10 0.339809 0.406864 0.478670
O O11 0.285248 0.336272 0.625307
O O12 0.500000 0.761631 0.250000
O O13 0.446236 0.842378 0.369941
O O14 0.500000 0.923289 0.250000
O O15 0.314395 0.926766 0.446791
O O16 0.636334 0.924327 0.383437
O O17 0.823812 0.999959 0.927782
O O18 0.500000 0.802590 0.750000
#
# Coordination Sequence:
#
# PCOD8140044 Si02
#       8
#     8   8   8   8   8   8   8   8
#     4   9  19  38  63  92 123 158 210 262 318 381
#     4  11  22  40  64  92 130 169 213 261 315 386
#     4  11  23  41  61  91 130 170 207 269 321 377
#     4  10  22  38  65  98 127 162 214 265 317 383
#     4  10  20  40  65  93 125 167 213 262 319 384
#     4  11  21  38  64  92 122 169 213 262 323 380
#     4  10  22  38  61  88 126 166 212 262 320 382
#     4  10  23  41  63  91 124 166 208 261 324 387
#
# _framework density 21.354465000000001
#
# number of rings (size 3 to 8) (size 9 to 14) (size 15 to 20)
#    0.000    1.750    1.250    4.500    3.500    2.000 
#    2.250    6.250    0.000    6.000    0.000    0.000 
#    0.000    0.000    0.000    0.000    0.000    0.000 
#
# Total GULP energy -396472.143182 kJ/mol
# GULP energy per Si atom -12389.754474 kJ/mol
# Density = 2.130586 g / cm^3
# Si number density = 21.354465 Si / 1000 Ang^3
#
#
#
# Elastic Constant Matrix: (Units=GPa)
#
#
# Indices 1 2 3 4 5 6 
#
# 1 127.4453 58.5060 65.9166 0.0000 27.3899 0.0000
# 2 58.5060 112.6702 31.8718 0.0000 10.3986 0.0000
# 3 65.9166 31.8718 124.9699 0.0000 10.8958 0.0000
# 4 0.0000 0.0000 0.0000 0.7085 0.0000 13.4096
# 5 27.3899 10.3986 10.8958 0.0000 23.7111 0.0000
# 6 0.0000 0.0000 0.0000 13.4096 0.0000 7.3063
#
#
#
# Elastic Compliance Matrix: (Units=1/GPa)
#
#
# Indices 1 2 3 4 5 6 
#
# 1 0.016539 -0.005587 -0.006091 0.000000 -0.013857 0.000000
# 2 -0.005587 0.011692 -0.000157 0.000000 0.001398 0.000000
# 3 -0.006091 -0.000157 0.011079 0.000000 0.002014 0.000000
# 4 0.000000 0.000000 0.000000 -0.041836 0.000000 0.076784
# 5 -0.013857 0.001398 0.002014 0.000000 0.056643 0.000000
# 6 0.000000 0.000000 0.000000 0.076784 0.000000 -0.004057
#
#
# Mechanical properties :
#
#
# Convention : Reuss Voigt Hill
#
# Bulk Modulus (GPa) = 63.93358 75.29714 69.61536
# Shear Modulus (GPa) = 63.33717 20.26458 41.80088
#
# Velocity S-wave (km/s) = 5.45200 3.08387 4.42914
# Velocity P-wave (km/s) = 8.34486 6.92946 7.66988
#
# Compressibility (1/GPa) = 0.01564123
#
# Stress axis : x y z
#
# Youngs Moduli (GPa) = 60.46143 85.53025 90.25951
#
# Poissons Ratio (x) = 0.47782 0.54977
# Poissons Ratio (y) = 0.33777 0.01417
# Poissons Ratio (z) = 0.36827 0.01343
#
# Static dielectric constant tensor:
#      x y z
#    x 3.947900 0.000000 -0.003770 
#    y 0.000000 4.033300 0.000000 
#    z -0.003770 0.000000 3.821840 
# 
# 
# High freq. dielectric constant tensor:
#      x y z
#    x 1.835670 0.000000 0.004770 
#    y 0.000000 1.851620 0.000000 
#    z 0.004770 0.000000 1.820010 
# 
# From -- ./inp_files/138572.got.cif
#   From: 2010.06.25/outbox.cif.g09.slc.cpg/sg15_70_cif.got.tgz:138572.got - 2010.06.28 07:06:18.
