data_PCOD8140019
_publ_section_title
;
Structure prediction by ZEFSAII (Michael W. Deem and Ramdas Pophale) SiO2 
 PCOD8140019
Probable space group: C 2/C
;
_chemical_formula_sum "Si O2"
_cell_formula_units_Z 64
_cell_length_a 14.803924
_cell_length_b 11.451665
_cell_length_c 25.651642
_cell_angle_alpha 90.000000
_cell_angle_beta 41.007659
_cell_angle_gamma 90.000000
_cell_volume 2853.450503
_symmetry_space_group_name_H-M "C 2/C"
_symmetry_group_IT_number 15
_symmetry_cell_setting 'monoclinic'
loop_
_space_group_symop_operation_xyz
x,y,z
-x,y,1/2-z
-x,-y,-z
x,-y,1/2+z
1/2+x,1/2+y,z
1/2-x,1/2+y,1/2-z
1/2-x,1/2-y,-z
1/2+x,1/2-y,1/2+z
loop_
_atom_site_type_symbol
_atom_site_label
_atom_site_fract_x
_atom_site_fract_y
_atom_site_fract_z
Si Si1 0.254599 0.350694 0.176452
Si Si2 0.126089 0.859903 0.774084
Si Si3 0.664507 0.324324 0.469807
Si Si4 0.629929 0.002327 0.815997
Si Si5 0.183710 0.910928 0.572969
Si Si6 0.748702 0.335564 0.074463
Si Si7 0.476826 0.769477 0.895762
Si Si8 0.880079 0.271394 0.119927
O O1 0.145158 0.243687 0.223734
O O2 0.291806 0.391358 0.101808
O O3 0.180962 0.459137 0.236383
O O4 0.392688 0.310412 0.146735
O O5 0.233675 0.960944 0.712080
O O6 0.174781 0.811098 0.809902
O O7 0.974169 0.911099 0.839883
O O8 0.748627 0.204870 0.434515
O O9 0.695310 0.409654 0.504858
O O10 0.504843 0.291911 0.536554
O O11 0.518915 0.899676 0.859903
O O12 0.564180 0.109496 0.876974
O O13 0.258162 0.024516 0.563236
O O14 0.601860 0.290512 0.118070
O O15 0.761828 0.300544 0.129509
O O16 0.875212 0.275976 0.989209
#
# Coordination Sequence:
#
# PCOD8140019 Si02
#       8
#     8   8   8   8   8   8   8   8
#     4  10  20  40  65  87 122 173 208 248 323 378
#     4   9  21  40  57  88 127 160 203 265 311 380
#     4  10  21  40  64  93 124 163 214 267 302 378
#     4  10  21  40  64  88 125 171 204 257 319 384
#     4  10  22  38  61  94 127 155 213 269 312 357
#     4  11  22  39  65  96 123 162 209 267 309 365
#     4  10  22  39  62  95 130 154 213 267 305 376
#     4  10  21  40  68  89 120 168 216 251 316 373
#
# _framework density 22.428985000000001
#
# number of rings (size 3 to 8) (size 9 to 14) (size 15 to 20)
#    0.000    2.000    1.250    1.500    3.500    2.500 
#    4.500   11.250    8.250    0.000    0.000    0.000 
#    0.000    0.000    0.000    0.000    0.000    0.000 
#
# Total GULP energy -396775.169801 kJ/mol
# GULP energy per Si atom -12399.224056 kJ/mol
# Density = 2.237794 g / cm^3
# Si number density = 22.428985 Si / 1000 Ang^3
#
#
#
# Elastic Constant Matrix: (Units=GPa)
#
#
# Indices 1 2 3 4 5 6 
#
# 1 79.5942 -0.5133 15.1121 0.0000 8.8054 0.0000
# 2 -0.5133 39.8790 -5.5228 0.0000 2.0888 0.0000
# 3 15.1121 -5.5228 70.3963 0.0000 15.4647 0.0000
# 4 0.0000 0.0000 0.0000 29.4672 0.0000 -8.5187
# 5 8.8054 2.0888 15.4647 0.0000 19.1087 0.0000
# 6 0.0000 0.0000 0.0000 -8.5187 0.0000 21.2486
#
#
#
# Elastic Compliance Matrix: (Units=1/GPa)
#
#
# Indices 1 2 3 4 5 6 
#
# 1 0.013436 0.000167 -0.001833 0.000000 -0.004726 0.000000
# 2 0.000167 0.025807 0.003193 0.000000 -0.005482 0.000000
# 3 -0.001833 0.003193 0.017928 0.000000 -0.014013 0.000000
# 4 0.000000 0.000000 0.000000 0.038385 0.000000 0.015389
# 5 -0.004726 -0.005482 -0.014013 0.000000 0.066450 0.000000
# 6 0.000000 0.000000 0.000000 0.015389 0.000000 0.053231
#
#
# Mechanical properties :
#
#
# Convention : Reuss Voigt Hill
#
# Bulk Modulus (GPa) = 16.60452 23.11351 19.85902
# Shear Modulus (GPa) = 21.52774 26.01780 23.77277
#
# Velocity S-wave (km/s) = 3.10145 3.40958 3.25916
# Velocity P-wave (km/s) = 4.49940 5.08212 4.79961
#
# Compressibility (1/GPa) = 0.06022456
#
# Stress axis : x y z
#
# Youngs Moduli (GPa) = 74.42882 38.74862 55.77936
#
# Poissons Ratio (x) = -0.00646 0.10224
# Poissons Ratio (y) = -0.01240 -0.17812
# Poissons Ratio (z) = 0.13642 -0.12373
#
# Static dielectric constant tensor:
#      x y z
#    x 3.829000 0.000000 0.018690 
#    y 0.000000 3.929420 0.000000 
#    z 0.018690 0.000000 4.221800 
# 
# 
# High freq. dielectric constant tensor:
#      x y z
#    x 1.865390 0.000000 -0.001560 
#    y 0.000000 1.876840 0.000000 
#    z -0.001560 0.000000 1.895190 
# 
# From -- ./inp_files/296103.got.cif
#   From: 2010.06.25/outbox.cif.g09.slc.cpg/sg15_149_cif.got.tgz:296103.got - 2010.06.28 07:06:18.
