data_PCOD8140356
_publ_section_title
;
Structure prediction by ZEFSAII (Michael W. Deem and Ramdas Pophale) SiO2 
 PCOD8140356
Probable space group: C 2/C
;
_chemical_formula_sum "Si O2"
_cell_formula_units_Z 52
_cell_length_a 14.262772
_cell_length_b 11.911468
_cell_length_c 21.139194
_cell_angle_alpha 90.000000
_cell_angle_beta 42.490047
_cell_angle_gamma 90.000000
_cell_volume 2425.820452
_symmetry_space_group_name_H-M "C 2/C"
_symmetry_group_IT_number 15
_symmetry_cell_setting 'monoclinic'
loop_
_space_group_symop_operation_xyz
x,y,z
-x,y,1/2-z
-x,-y,-z
x,-y,1/2+z
1/2+x,1/2+y,z
1/2-x,1/2+y,1/2-z
1/2-x,1/2-y,-z
1/2+x,1/2-y,1/2+z
loop_
_atom_site_type_symbol
_atom_site_label
_atom_site_fract_x
_atom_site_fract_y
_atom_site_fract_z
Si Si1 0.844994 0.604921 0.133053
Si Si2 0.775311 0.737263 0.561315
Si Si3 0.880996 0.499769 0.486456
Si Si4 0.938549 0.158163 0.566436
Si Si5 0.000000 0.824153 0.250000
Si Si6 0.186255 0.865564 0.508393
Si Si7 0.563161 0.505381 0.322760
O O1 0.873614 0.735018 0.135979
O O2 0.696451 0.569175 0.231246
O O3 0.958359 0.523817 0.110242
O O4 0.862353 0.597710 0.048200
O O5 0.750000 0.750000 0.500000
O O6 0.818572 0.609038 0.551825
O O7 0.633190 0.756587 0.671638
O O8 0.895872 0.820689 0.526304
O O9 0.803101 0.462529 0.461019
O O10 0.857394 0.137703 0.542240
O O11 0.915098 0.045270 0.618149
O O12 0.981384 0.901917 0.198362
O O13 0.250000 0.750000 0.500000
O O14 0.055670 0.899637 0.617106
#
# Coordination Sequence:
#
# PCOD8140356 Si02
#       7
#     8   8   8   8   4   8   8
#     4  10  22  41  68  96 130 179 233 277 344 421
#     4  11  21  41  68  99 132 176 235 288 352 411
#     4  10  20  41  65  91 132 177 221 278 342 414
#     4  11  25  43  68 101 140 179 228 297 357 411
#     4  12  22  38  74  94 130 180 236 288 346 418
#     4  12  24  42  67  99 138 185 222 280 360 418
#     4  12  24  43  68 102 135 178 238 291 340 421
#
# _framework density 21.436046000000001
#
# number of rings (size 3 to 8) (size 9 to 14) (size 15 to 20)
#    0.000    0.923    6.154    0.462    0.000    2.462 
#    0.000    2.308    0.000    0.000    0.000    0.000 
#    0.000    0.000    0.000    0.000    0.000    0.000 
#
# Total GULP energy -322418.668477 kJ/mol
# GULP energy per Si atom -12400.718018 kJ/mol
# Density = 2.138726 g / cm^3
# Si number density = 21.436046 Si / 1000 Ang^3
#
#
#
# Elastic Constant Matrix: (Units=GPa)
#
#
# Indices 1 2 3 4 5 6 
#
# 1 153.7466 29.4792 49.0550 0.0000 -10.6911 0.0000
# 2 29.4792 71.8396 38.9840 0.0000 -9.7001 0.0000
# 3 49.0550 38.9840 106.0328 0.0000 -20.3451 0.0000
# 4 0.0000 0.0000 0.0000 32.1826 0.0000 -2.7459
# 5 -10.6911 -9.7001 -20.3451 0.0000 32.2340 0.0000
# 6 0.0000 0.0000 0.0000 -2.7459 0.0000 33.8391
#
#
#
# Elastic Compliance Matrix: (Units=1/GPa)
#
#
# Indices 1 2 3 4 5 6 
#
# 1 0.007767 -0.001537 -0.002984 0.000000 0.000230 0.000000
# 2 -0.001537 0.017746 -0.005560 0.000000 0.001321 0.000000
# 3 -0.002984 -0.005560 0.014046 0.000000 0.006202 0.000000
# 4 0.000000 0.000000 0.000000 0.031289 0.000000 0.002539
# 5 0.000230 0.001321 0.006202 0.000000 0.035412 0.000000
# 6 0.000000 0.000000 0.000000 0.002539 0.000000 0.029758
#
#
# Mechanical properties :
#
#
# Convention : Reuss Voigt Hill
#
# Bulk Modulus (GPa) = 51.55407 62.96172 57.25790
# Shear Modulus (GPa) = 30.74168 33.92450 32.33309
#
# Velocity S-wave (km/s) = 3.79108 3.98250 3.88796
# Velocity P-wave (km/s) = 6.57764 7.11215 6.85011
#
# Compressibility (1/GPa) = 0.01939711
#
# Stress axis : x y z
#
# Youngs Moduli (GPa) = 128.74973 56.35047 71.19485
#
# Poissons Ratio (x) = 0.08660 0.21246
# Poissons Ratio (y) = 0.19785 0.39585
# Poissons Ratio (z) = 0.38421 0.31331
#
# Static dielectric constant tensor:
#      x y z
#    x 4.180300 0.000000 -0.334820 
#    y 0.000000 4.011280 0.000000 
#    z -0.334820 0.000000 3.870570 
# 
# 
# High freq. dielectric constant tensor:
#      x y z
#    x 1.857080 0.000000 -0.019900 
#    y 0.000000 1.839450 0.000000 
#    z -0.019900 0.000000 1.821160 
# 
# From -- ./inp_files/273800.got.cif
#   From: 2010.06.25/outbox.cif.g09.slc.cpg/sg15_137_cif.got.tgz:273800.got - 2010.06.28 07:06:18.
