data_PCOD8140443
_publ_section_title
;
Structure prediction by ZEFSAII (Michael W. Deem and Ramdas Pophale) SiO2 
 PCOD8140443
Probable space group: C 2/C
;
_chemical_formula_sum "Si O2"
_cell_formula_units_Z 48
_cell_length_a 9.965729
_cell_length_b 20.323559
_cell_length_c 20.209935
_cell_angle_alpha 90.000000
_cell_angle_beta 145.781460
_cell_angle_gamma 90.000000
_cell_volume 2301.872198
_symmetry_space_group_name_H-M "C 2/C"
_symmetry_group_IT_number 15
_symmetry_cell_setting 'monoclinic'
loop_
_space_group_symop_operation_xyz
x,y,z
-x,y,1/2-z
-x,-y,-z
x,-y,1/2+z
1/2+x,1/2+y,z
1/2-x,1/2+y,1/2-z
1/2-x,1/2-y,-z
1/2+x,1/2-y,1/2+z
loop_
_atom_site_type_symbol
_atom_site_label
_atom_site_fract_x
_atom_site_fract_y
_atom_site_fract_z
Si Si1 0.269773 0.256790 0.430557
Si Si2 0.053465 0.930782 0.642317
Si Si3 0.000000 0.855439 0.750000
Si Si4 0.688965 0.691727 0.023677
Si Si5 0.000000 0.622821 0.250000
Si Si6 0.634967 0.425994 0.149982
Si Si7 0.368347 0.106580 0.614967
O O1 0.250000 0.250000 0.500000
O O2 0.203259 0.191520 0.363078
O O3 0.537274 0.277631 0.521599
O O4 0.103317 0.319187 0.344974
O O5 0.271552 0.919642 0.680014
O O6 0.113146 0.901800 0.739205
O O7 0.805716 0.896297 0.519277
O O8 0.003140 0.008938 0.623041
O O9 0.927524 0.665147 0.156111
O O10 0.750000 0.750000 0.000000
O O11 0.552086 0.634323 0.927009
O O12 0.744150 0.437732 0.121232
O O13 0.861713 0.415282 0.291849
#
# Coordination Sequence:
#
# PCOD8140443 Si02
#       7
#     8   8   4   8   4   8   8
#     4  11  20  41  66  93 126 172 220 265 324 387
#     4  12  24  41  66  99 129 171 216 269 332 389
#     4  12  24  42  64  98 138 168 216 270 330 400
#     4  11  24  41  64 100 131 167 217 277 331 377
#     4  12  22  40  68  98 126 164 220 276 326 380
#     4  10  22  39  67  93 129 171 218 271 318 390
#     4  10  20  41  68  95 121 170 230 266 310 394
#
# _framework density 20.852592000000001
#
# number of rings (size 3 to 8) (size 9 to 14) (size 15 to 20)
#    0.000    1.000    5.000    4.500    2.333    1.333 
#    0.000    3.333    0.000    0.000    0.000    0.000 
#    0.000    0.000    0.000    0.000    0.000    0.000 
#
# Total GULP energy -297464.424143 kJ/mol
# GULP energy per Si atom -12394.351006 kJ/mol
# Density = 2.080513 g / cm^3
# Si number density = 20.852592 Si / 1000 Ang^3
#
#
#
# Elastic Constant Matrix: (Units=GPa)
#
#
# Indices 1 2 3 4 5 6 
#
# 1 71.5116 53.8868 32.1313 -0.0020 -15.2297 -0.0034
# 2 53.8868 151.6017 52.2033 -0.0005 -5.7729 -0.0011
# 3 32.1313 52.2033 133.8622 0.0051 -3.1337 -0.0001
# 4 -0.0020 -0.0005 0.0051 26.6721 -0.0009 -1.9936
# 5 -15.2297 -5.7729 -3.1337 -0.0009 27.2435 -0.0023
# 6 -0.0034 -0.0011 -0.0001 -1.9936 -0.0023 29.7680
#
#
#
# Elastic Compliance Matrix: (Units=1/GPa)
#
#
# Indices 1 2 3 4 5 6 
#
# 1 0.022488 -0.006710 -0.002527 0.000003 0.010859 0.000003
# 2 -0.006710 0.009666 -0.002205 0.000000 -0.001956 -0.000001
# 3 -0.002527 -0.002205 0.008917 -0.000002 -0.000854 -0.000001
# 4 0.000003 0.000000 -0.000002 0.037681 0.000003 0.002524
# 5 0.010859 -0.001956 -0.000854 0.000003 0.042263 0.000005
# 6 0.000003 -0.000001 -0.000001 0.002524 0.000005 0.033762
#
#
# Mechanical properties :
#
#
# Convention : Reuss Voigt Hill
#
# Bulk Modulus (GPa) = 54.98250 70.37982 62.68116
# Shear Modulus (GPa) = 27.21505 31.32033 29.26769
#
# Velocity S-wave (km/s) = 3.61656 3.87975 3.75046
# Velocity P-wave (km/s) = 6.62297 7.34128 6.99136
#
# Compressibility (1/GPa) = 0.01818761
#
# Stress axis : x y z
#
# Youngs Moduli (GPa) = 44.46888 103.45698 112.14874
#
# Poissons Ratio (x) = 0.69415 0.28340
# Poissons Ratio (y) = 0.29837 0.24726
# Poissons Ratio (z) = 0.11237 0.22810
#
# Static dielectric constant tensor:
#      x y z
#    x 3.613640 0.000060 0.312480 
#    y 0.000060 3.987770 -0.000010 
#    z 0.312480 -0.000010 4.038990 
# 
# 
# High freq. dielectric constant tensor:
#      x y z
#    x 1.779840 0.000000 -0.002980 
#    y 0.000000 1.826960 0.000000 
#    z -0.002980 0.000000 1.823360 
# 
# From -- ./inp_files/270666.got.cif
#   From: 2010.06.25/outbox.cif.g09.slc.cpg/sg15_136_cif.got.tgz:270666.got - 2010.06.28 07:06:18.
