data_PCOD8140030
_publ_section_title
;
Structure prediction by ZEFSAII (Michael W. Deem and Ramdas Pophale) SiO2 
 PCOD8140030
Probable space group: C 2/C
;
_chemical_formula_sum "Si O2"
_cell_formula_units_Z 40
_cell_length_a 20.705912
_cell_length_b 12.170319
_cell_length_c 11.719328
_cell_angle_alpha 90.000000
_cell_angle_beta 35.480286
_cell_angle_gamma 90.000000
_cell_volume 1714.129002
_symmetry_space_group_name_H-M "C 2/C"
_symmetry_group_IT_number 15
_symmetry_cell_setting 'monoclinic'
loop_
_space_group_symop_operation_xyz
x,y,z
-x,y,1/2-z
-x,-y,-z
x,-y,1/2+z
1/2+x,1/2+y,z
1/2-x,1/2+y,1/2-z
1/2-x,1/2-y,-z
1/2+x,1/2-y,1/2+z
loop_
_atom_site_type_symbol
_atom_site_label
_atom_site_fract_x
_atom_site_fract_y
_atom_site_fract_z
Si Si1 0.049814 0.833434 0.883262
Si Si2 0.192655 0.184278 0.840751
Si Si3 0.616677 0.302870 0.034796
Si Si4 0.116967 0.359300 0.130024
Si Si5 0.804500 0.982052 0.972411
O O1 0.097826 0.717232 0.768570
O O2 0.087245 0.929665 0.743492
O O3 0.093830 0.858988 0.945420
O O4 0.916774 0.830639 0.077958
O O5 0.295355 0.204206 0.606864
O O6 0.180055 0.287846 0.944011
O O7 0.216325 0.073543 0.875419
O O8 0.500000 0.255606 0.250000
O O9 0.671396 0.390275 0.042723
O O10 0.000000 0.404453 0.250000
O O11 0.194596 0.462209 0.052725
#
# Coordination Sequence:
#
# PCOD8140030 Si02
#       5
#     8   8   8   8   8
#     4  10  20  41  66  89 122 165 216 255 300 372
#     4  10  20  40  65  90 124 165 206 261 309 364
#     4  12  25  38  62  97 129 164 205 258 318 367
#     4   9  17  37  72  92 112 162 218 262 298 356
#     4  11  20  39  69  97 118 159 217 263 302 363
#
# _framework density 23.335466
#
# number of rings (size 3 to 8) (size 9 to 14) (size 15 to 20)
#    0.000    1.600    4.000    4.200    0.000    4.000 
#    0.000    4.000    0.000    2.400    0.000    0.000 
#    0.000    0.000    0.000    0.000    0.000    0.000 
#
# Total GULP energy -248038.327272 kJ/mol
# GULP energy per Si atom -12401.916364 kJ/mol
# Density = 2.328235 g / cm^3
# Si number density = 23.335466 Si / 1000 Ang^3
#
#
#
# Elastic Constant Matrix: (Units=GPa)
#
#
# Indices 1 2 3 4 5 6 
#
# 1 100.5682 12.3549 27.2195 0.0000 -18.7341 0.0000
# 2 12.3549 17.9073 32.6520 0.0000 -5.0619 0.0000
# 3 27.2195 32.6520 153.7558 0.0000 -29.7228 0.0000
# 4 0.0000 0.0000 0.0000 14.7862 0.0000 2.3673
# 5 -18.7341 -5.0619 -29.7228 0.0000 39.3734 0.0000
# 6 0.0000 0.0000 0.0000 2.3673 0.0000 28.7681
#
#
#
# Elastic Compliance Matrix: (Units=1/GPa)
#
#
# Indices 1 2 3 4 5 6 
#
# 1 0.011659 -0.007549 0.000496 0.000000 0.004952 0.000000
# 2 -0.007549 0.096407 -0.020414 0.000000 -0.006609 0.000000
# 3 0.000496 -0.020414 0.012048 0.000000 0.006706 0.000000
# 4 0.000000 0.000000 0.000000 0.068534 0.000000 -0.005639
# 5 0.004952 -0.006609 0.006706 0.000000 0.031967 0.000000
# 6 0.000000 0.000000 0.000000 -0.005639 0.000000 0.035225
#
#
# Mechanical properties :
#
#
# Convention : Reuss Voigt Hill
#
# Bulk Modulus (GPa) = 15.34243 46.29824 30.82034
# Shear Modulus (GPa) = 15.03763 29.91921 22.47842
#
# Velocity S-wave (km/s) = 2.54128 3.58458 3.10703
# Velocity P-wave (km/s) = 3.89869 6.08404 5.10957
#
# Compressibility (1/GPa) = 0.06517871
#
# Stress axis : x y z
#
# Youngs Moduli (GPa) = 85.77072 10.37273 83.00416
#
# Poissons Ratio (x) = 0.07831 -0.04120
# Poissons Ratio (y) = 0.64752 1.69447
# Poissons Ratio (z) = -0.04258 0.21175
#
# Static dielectric constant tensor:
#      x y z
#    x 4.274610 0.000000 -0.162850 
#    y 0.000000 3.588350 0.000000 
#    z -0.162850 0.000000 4.380190 
# 
# 
# High freq. dielectric constant tensor:
#      x y z
#    x 1.937350 0.000000 -0.011030 
#    y 0.000000 1.871670 0.000000 
#    z -0.011030 0.000000 1.927550 
# 
# From -- ./inp_files/111357.got.cif
#   From: 2010.06.25/outbox.cif.g09.slc.cpg/sg15_56_cif.got.tgz:111357.got - 2010.06.28 07:06:18.
