data_PCOD8140606
_publ_section_title
;
Structure prediction by ZEFSAII (Michael W. Deem and Ramdas Pophale) SiO2 
 PCOD8140606
Probable space group: C 2/C
;
_chemical_formula_sum "Si O2"
_cell_formula_units_Z 56
_cell_length_a 18.637145
_cell_length_b 17.083469
_cell_length_c 15.041035
_cell_angle_alpha 90.000000
_cell_angle_beta 145.228862
_cell_angle_gamma 90.000000
_cell_volume 2731.092621
_symmetry_space_group_name_H-M "C 2/C"
_symmetry_group_IT_number 15
_symmetry_cell_setting 'monoclinic'
loop_
_space_group_symop_operation_xyz
x,y,z
-x,y,1/2-z
-x,-y,-z
x,-y,1/2+z
1/2+x,1/2+y,z
1/2-x,1/2+y,1/2-z
1/2-x,1/2-y,-z
1/2+x,1/2-y,1/2+z
loop_
_atom_site_type_symbol
_atom_site_label
_atom_site_fract_x
_atom_site_fract_y
_atom_site_fract_z
Si Si1 0.505343 0.238488 0.453422
Si Si2 0.475351 0.384450 0.916180
Si Si3 0.559602 0.930816 0.002071
Si Si4 0.252979 0.291627 0.910182
Si Si5 0.754861 0.024408 0.446366
Si Si6 0.500000 0.446132 0.750000
Si Si7 0.000000 0.533436 0.250000
Si Si8 0.309436 0.488146 0.306271
O O1 0.511592 0.293946 0.546314
O O2 0.537355 0.152690 0.525668
O O3 0.613600 0.269331 0.497764
O O4 0.365907 0.238171 0.268951
O O5 0.502056 0.391512 0.838688
O O6 0.340443 0.423394 0.804391
O O7 0.569778 0.432629 0.075870
O O8 0.503385 0.917831 0.845713
O O9 0.706004 0.949896 0.137039
O O10 0.500000 0.000000 0.000000
O O11 0.246385 0.383156 0.924553
O O12 0.250000 0.250000 0.000000
O O13 0.633105 0.987808 0.375340
O O14 0.878496 0.002197 0.628150
O O15 0.754674 0.985659 0.349652
#
# Coordination Sequence:
#
# PCOD8140606 Si02
#       8
#     8   8   8   8   8   4   4   8
#     4  12  25  43  65  96 135 176 218 274 332 403
#     4  10  22  41  69  97 128 175 225 276 332 395
#     4  12  24  42  65  92 134 177 218 276 338 403
#     4  12  25  39  61  98 135 170 212 268 338 397
#     4  11  22  41  65  98 133 171 219 274 330 405
#     4  10  24  42  72  98 130 174 234 286 322 400
#     4  12  22  40  66  96 134 170 222 272 338 404
#     4  10  20  42  66  94 127 172 220 265 339 398
#
# _framework density 20.504614
#
# number of rings (size 3 to 8) (size 9 to 14) (size 15 to 20)
#    0.000    0.857    4.286    3.000    2.000    0.000 
#    0.000    0.714    0.000    2.571    0.000    0.000 
#    0.000    0.000    0.000    0.000    0.000    0.000 
#
# Total GULP energy -347008.126386 kJ/mol
# GULP energy per Si atom -12393.147371 kJ/mol
# Density = 2.045794 g / cm^3
# Si number density = 20.504614 Si / 1000 Ang^3
#
#
#
# Elastic Constant Matrix: (Units=GPa)
#
#
# Indices 1 2 3 4 5 6 
#
# 1 97.6392 41.9205 43.4853 0.0000 10.9776 0.0000
# 2 41.9205 135.9467 56.3106 0.0000 -7.7136 0.0000
# 3 43.4853 56.3106 141.9906 0.0000 10.1575 0.0000
# 4 0.0000 0.0000 0.0000 24.9175 0.0000 -0.7484
# 5 10.9776 -7.7136 10.1575 0.0000 39.2624 0.0000
# 6 0.0000 0.0000 0.0000 -0.7484 0.0000 26.9210
#
#
#
# Elastic Compliance Matrix: (Units=1/GPa)
#
#
# Indices 1 2 3 4 5 6 
#
# 1 0.013148 -0.003235 -0.002481 0.000000 -0.003670 0.000000
# 2 -0.003235 0.009884 -0.003192 0.000000 0.003672 0.000000
# 3 -0.002481 -0.003192 0.009235 0.000000 -0.002322 0.000000
# 4 0.000000 0.000000 0.000000 0.040166 0.000000 0.001117
# 5 -0.003670 0.003672 -0.002322 0.000000 0.027818 0.000000
# 6 0.000000 0.000000 0.000000 0.001117 0.000000 0.037177
#
#
# Mechanical properties :
#
#
# Convention : Reuss Voigt Hill
#
# Bulk Modulus (GPa) = 69.20005 73.22324 71.21165
# Shear Modulus (GPa) = 31.23831 33.81084 32.52457
#
# Velocity S-wave (km/s) = 3.90741 4.06512 3.98704
# Velocity P-wave (km/s) = 7.36063 7.60406 7.48334
#
# Compressibility (1/GPa) = 0.01445086
#
# Stress axis : x y z
#
# Youngs Moduli (GPa) = 76.05518 101.17680 108.28928
#
# Poissons Ratio (x) = 0.32729 0.26870
# Poissons Ratio (y) = 0.24603 0.34562
# Poissons Ratio (z) = 0.18872 0.32292
#
# Static dielectric constant tensor:
#      x y z
#    x 3.748390 0.000000 0.251060 
#    y 0.000000 3.559600 0.000000 
#    z 0.251060 0.000000 4.188440 
# 
# 
# High freq. dielectric constant tensor:
#      x y z
#    x 1.804710 0.000000 0.014930 
#    y 0.000000 1.775960 0.000000 
#    z 0.014930 0.000000 1.823210 
# 
# From -- ./inp_files/215799.got.cif
#   From: 2010.06.25/outbox.cif.g09.slc.cpg/sg15_108_cif.got.tgz:215799.got - 2010.06.28 07:06:18.
