data_PCOD8140972
_publ_section_title
;
Structure prediction by ZEFSAII (Michael W. Deem and Ramdas Pophale) SiO2 
 PCOD8140972
Probable space group: C 2/C
;
_chemical_formula_sum "Si O2"
_cell_formula_units_Z 32
_cell_length_a 18.017937
_cell_length_b 8.754943
_cell_length_c 19.733306
_cell_angle_alpha 90.000000
_cell_angle_beta 23.514630
_cell_angle_gamma 90.000000
_cell_volume 1241.975040
_symmetry_space_group_name_H-M "C 2/C"
_symmetry_group_IT_number 15
_symmetry_cell_setting 'monoclinic'
loop_
_space_group_symop_operation_xyz
x,y,z
-x,y,1/2-z
-x,-y,-z
x,-y,1/2+z
1/2+x,1/2+y,z
1/2-x,1/2+y,1/2-z
1/2-x,1/2-y,-z
1/2+x,1/2-y,1/2+z
loop_
_atom_site_type_symbol
_atom_site_label
_atom_site_fract_x
_atom_site_fract_y
_atom_site_fract_z
Si Si1 0.894376 0.280993 0.438063
Si Si2 0.923806 0.580563 0.242953
Si Si3 0.147497 0.537490 0.934104
Si Si4 0.019416 0.028111 0.562886
O O1 0.750000 0.250000 0.500000
O O2 0.789840 0.377344 0.584270
O O3 0.978915 0.128987 0.397874
O O4 0.061055 0.393333 0.270414
O O5 0.706827 0.625478 0.418186
O O6 0.000000 0.649490 0.250000
O O7 0.047206 0.643751 0.075823
O O8 0.334727 0.616129 0.746594
O O9 0.000000 0.500000 0.000000
O O10 0.000000 0.000000 0.500000
#
# Coordination Sequence:
#
# PCOD8140972 Si02
#       4
#     8   8   8   8
#     4  10  21  35  56  85 115 143 181 230 279 330
#     4  10  21  34  53  81 113 137 189 226 279 323
#     4  10  22  34  51  79 117 144 186 226 277 332
#     4  12  20  33  53  77 116 151 180 226 282 324
#
# _framework density 25.765412999999999
#
# number of rings (size 3 to 8) (size 9 to 14) (size 15 to 20)
#    1.500    0.000    5.000    1.500    0.000    3.000 
#    0.000    0.000    0.000    0.000    0.000    7.000 
#    0.000    0.000    0.000    0.000    0.000    0.000 
#
# Total GULP energy -198210.695242 kJ/mol
# GULP energy per Si atom -12388.168453 kJ/mol
# Density = 2.570677 g / cm^3
# Si number density = 25.765413 Si / 1000 Ang^3
#
#
#
# Elastic Constant Matrix: (Units=GPa)
#
#
# Indices 1 2 3 4 5 6 
#
# 1 229.7488 -5.3020 99.4683 -0.0022 0.4513 0.0003
# 2 -5.3020 34.1773 11.8470 0.0004 -2.6518 0.0005
# 3 99.4683 11.8470 272.3182 0.0098 3.7965 -0.0014
# 4 -0.0022 0.0004 0.0098 31.6266 -0.0002 7.1972
# 5 0.4513 -2.6518 3.7965 -0.0002 49.2072 0.0003
# 6 0.0003 0.0005 -0.0014 7.1972 0.0003 6.6601
#
#
#
# Elastic Compliance Matrix: (Units=1/GPa)
#
#
# Indices 1 2 3 4 5 6 
#
# 1 0.005247 0.001516 -0.001985 0.000002 0.000187 -0.000002
# 2 0.001516 0.030289 -0.001896 0.000001 0.001765 -0.000004
# 3 -0.001985 -0.001896 0.004486 -0.000002 -0.000430 0.000004
# 4 0.000002 0.000001 -0.000002 0.041930 0.000001 -0.045312
# 5 0.000187 0.001765 -0.000430 0.000001 0.020449 -0.000002
# 6 -0.000002 -0.000004 0.000004 -0.045312 -0.000002 0.199112
#
#
# Mechanical properties :
#
#
# Convention : Reuss Voigt Hill
#
# Bulk Modulus (GPa) = 28.33542 83.14121 55.73831
# Shear Modulus (GPa) = 15.72298 46.18085 30.95192
#
# Velocity S-wave (km/s) = 2.47298 4.23822 3.46973
# Velocity P-wave (km/s) = 4.37898 7.50257 6.14264
#
# Compressibility (1/GPa) = 0.03529152
#
# Stress axis : x y z
#
# Youngs Moduli (GPa) = 190.59998 33.01568 222.93045
#
# Poissons Ratio (x) = -0.05007 0.44251
# Poissons Ratio (y) = -0.28904 0.42272
# Poissons Ratio (z) = 0.37834 0.06260
#
# Static dielectric constant tensor:
#      x y z
#    x 6.786950 -0.000070 2.160010 
#    y -0.000070 4.139960 -0.000040 
#    z 2.160010 -0.000040 6.714330 
# 
# 
# High freq. dielectric constant tensor:
#      x y z
#    x 2.035490 0.000000 0.008770 
#    y 0.000000 2.005840 0.000000 
#    z 0.008770 0.000000 2.056120 
# 
# From -- ./inp_files/54789.got.cif
#   From: 2010.06.25/outbox.cif.g09.slc.cpg/sg15_28_cif.got.tgz:54789.got - 2010.06.28 07:06:18.
