data_PCOD8140440
_publ_section_title
;
Structure prediction by ZEFSAII (Michael W. Deem and Ramdas Pophale) SiO2 
 PCOD8140440
Probable space group: C 2/C
;
_chemical_formula_sum "Si O2"
_cell_formula_units_Z 48
_cell_length_a 15.132136
_cell_length_b 21.191073
_cell_length_c 11.079836
_cell_angle_alpha 90.000000
_cell_angle_beta 140.994778
_cell_angle_gamma 90.000000
_cell_volume 2236.182244
_symmetry_space_group_name_H-M "C 2/C"
_symmetry_group_IT_number 15
_symmetry_cell_setting 'monoclinic'
loop_
_space_group_symop_operation_xyz
x,y,z
-x,y,1/2-z
-x,-y,-z
x,-y,1/2+z
1/2+x,1/2+y,z
1/2-x,1/2+y,1/2-z
1/2-x,1/2-y,-z
1/2+x,1/2-y,1/2+z
loop_
_atom_site_type_symbol
_atom_site_label
_atom_site_fract_x
_atom_site_fract_y
_atom_site_fract_z
Si Si1 0.347034 0.990879 0.390567
Si Si2 0.500000 0.927109 0.750000
Si Si3 0.000000 0.810449 0.750000
Si Si4 0.968774 0.826558 0.080055
Si Si5 0.311712 0.627159 0.866396
Si Si6 0.051281 0.285097 0.094607
Si Si7 0.831054 0.376418 0.794270
O O1 0.372090 0.968191 0.555208
O O2 0.258767 0.941815 0.215119
O O3 0.500000 0.000000 0.500000
O O4 0.277903 0.059919 0.305687
O O5 0.426717 0.886048 0.776231
O O6 0.881345 0.857315 0.570030
O O7 0.932524 0.765414 0.780088
O O8 0.000000 0.840729 0.250000
O O9 0.069650 0.871951 0.110353
O O10 0.995445 0.753622 0.074153
O O11 0.806166 0.838311 0.882925
O O12 0.197372 0.681184 0.722202
O O13 0.927990 0.335954 0.989620
#
# Coordination Sequence:
#
# PCOD8140440 Si02
#       7
#     8   4   4   8   8   8   8
#     4  10  21  42  66  93 121 169 225 271 326 387
#     4  10  20  41  68  94 123 166 222 282 316 392
#     4  10  24  41  66 104 133 178 224 276 346 386
#     4  11  25  39  63 101 134 176 216 275 349 394
#     4  11  22  44  65  97 139 171 223 281 328 404
#     4  11  23  43  69  94 136 176 228 278 324 408
#     4  11  24  43  64  98 129 174 230 273 333 403
#
# _framework density 21.465156
#
# number of rings (size 3 to 8) (size 9 to 14) (size 15 to 20)
#    0.000    1.333    3.333    3.500    1.167    4.000 
#   13.500    0.000    0.000    0.000    0.000    0.000 
#    0.000    0.000    0.000    0.000    0.000    0.000 
#
# Total GULP energy -297511.194670 kJ/mol
# GULP energy per Si atom -12396.299778 kJ/mol
# Density = 2.141630 g / cm^3
# Si number density = 21.465156 Si / 1000 Ang^3
#
#
#
# Elastic Constant Matrix: (Units=GPa)
#
#
# Indices 1 2 3 4 5 6 
#
# 1 75.8128 27.1875 41.2929 0.0000 2.5836 0.0000
# 2 27.1875 133.5196 60.0293 0.0000 -2.7633 0.0000
# 3 41.2929 60.0293 137.1497 0.0000 -0.7315 0.0000
# 4 0.0000 0.0000 0.0000 168.5471 0.0000 -37.6071
# 5 2.5836 -2.7633 -0.7315 0.0000 33.8960 0.0000
# 6 0.0000 0.0000 0.0000 -37.6071 0.0000 35.1141
#
#
#
# Elastic Compliance Matrix: (Units=1/GPa)
#
#
# Indices 1 2 3 4 5 6 
#
# 1 0.016042 -0.001396 -0.004226 0.000000 -0.001428 0.000000
# 2 -0.001396 0.009461 -0.003717 0.000000 0.000797 0.000000
# 3 -0.004226 -0.003717 0.010192 0.000000 0.000239 0.000000
# 4 0.000000 0.000000 0.000000 0.007796 0.000000 0.008350
# 5 -0.001428 0.000797 0.000239 0.000000 0.029681 0.000000
# 6 0.000000 0.000000 0.000000 0.008350 0.000000 0.037421
#
#
# Mechanical properties :
#
#
# Convention : Reuss Voigt Hill
#
# Bulk Modulus (GPa) = 58.76512 67.05573 62.91043
# Shear Modulus (GPa) = 37.05277 62.04293 49.54785
#
# Velocity S-wave (km/s) = 4.15924 5.38208 4.80968
# Velocity P-wave (km/s) = 7.10649 8.36239 7.75989
#
# Compressibility (1/GPa) = 0.01701690
#
# Stress axis : x y z
#
# Youngs Moduli (GPa) = 62.33785 105.69479 98.11798
#
# Poissons Ratio (x) = 0.14753 0.41470
# Poissons Ratio (y) = 0.08701 0.36466
# Poissons Ratio (z) = 0.26347 0.39282
#
# Static dielectric constant tensor:
#      x y z
#    x 3.858570 0.000000 -0.249750 
#    y 0.000000 4.455270 0.000000 
#    z -0.249750 0.000000 4.486550 
# 
# 
# High freq. dielectric constant tensor:
#      x y z
#    x 1.827050 0.000000 0.003220 
#    y 0.000000 1.846440 0.000000 
#    z 0.003220 0.000000 1.852610 
# 
# From -- ./inp_files/100102.got.cif
#   From: 2010.06.25/outbox.cif.g09.slc.cpg/sg15_51_cif.got.tgz:100102.got - 2010.06.28 07:06:18.
