data_PCOD8140778
_publ_section_title
;
Structure prediction by ZEFSAII (Michael W. Deem and Ramdas Pophale) SiO2 
 PCOD8140778
Probable space group: C 2/C
;
_chemical_formula_sum "Si O2"
_cell_formula_units_Z 60
_cell_length_a 22.793055
_cell_length_b 8.305947
_cell_length_c 14.319592
_cell_angle_alpha 90.000000
_cell_angle_beta 93.462839
_cell_angle_gamma 90.000000
_cell_volume 2706.005477
_symmetry_space_group_name_H-M "C 2/C"
_symmetry_group_IT_number 15
_symmetry_cell_setting 'monoclinic'
loop_
_space_group_symop_operation_xyz
x,y,z
-x,y,1/2-z
-x,-y,-z
x,-y,1/2+z
1/2+x,1/2+y,z
1/2-x,1/2+y,1/2-z
1/2-x,1/2-y,-z
1/2+x,1/2-y,1/2+z
loop_
_atom_site_type_symbol
_atom_site_label
_atom_site_fract_x
_atom_site_fract_y
_atom_site_fract_z
Si Si1 0.811144 0.608325 0.194790
Si Si2 0.885934 0.561500 0.039845
Si Si3 0.000000 0.299706 0.250000
Si Si4 0.590350 0.009767 0.154270
Si Si5 0.340011 0.709462 0.037669
Si Si6 0.763817 0.192190 0.853327
Si Si7 0.046753 0.078545 0.397509
Si Si8 0.000967 0.248583 0.571166
O O1 0.840703 0.667002 0.099280
O O2 0.863440 0.527148 0.258630
O O3 0.782625 0.750152 0.252185
O O4 0.759227 0.487220 0.162721
O O5 0.874824 0.374674 0.063678
O O6 0.953204 0.607577 0.068699
O O7 0.875761 0.581422 0.927537
O O8 0.964828 0.407860 0.318731
O O9 0.953129 0.184311 0.195500
O O10 0.562900 0.180501 0.114874
O O11 0.285411 0.693230 0.103927
O O12 0.385705 0.564281 0.060236
O O13 0.319508 0.697607 0.928023
O O14 0.006808 0.172559 0.469095
O O15 0.022122 0.901373 0.369211
#
# Coordination Sequence:
#
# PCOD8140778 Si02
#       8
#     8   8   4   8   8   8   8   8
#     4  11  24  41  66  95 125 165 226 270 327 381
#     4  11  21  40  68  96 126 174 218 259 313 409
#     4  12  24  38  68  96 136 170 218 262 322 396
#     4  12  22  41  66  97 128 177 219 262 315 409
#     4  10  20  43  68  85 130 175 218 265 328 381
#     4  10  22  42  65  93 121 172 220 276 323 379
#     4  11  23  40  61 102 134 172 204 273 333 382
#     4  11  23  40  64  95 139 166 211 259 329 395
#
# _framework density 22.172905
#
# number of rings (size 3 to 8) (size 9 to 14) (size 15 to 20)
#    0.000    1.067    4.000    3.600    0.000    2.667 
#    2.400    3.333    0.000    0.000    0.000    0.000 
#    0.000    0.000    0.000    0.000    0.000    0.000 
#
# Total GULP energy -371876.674870 kJ/mol
# GULP energy per Si atom -12395.889162 kJ/mol
# Density = 2.212244 g / cm^3
# Si number density = 22.172905 Si / 1000 Ang^3
#
#
#
# Elastic Constant Matrix: (Units=GPa)
#
#
# Indices 1 2 3 4 5 6 
#
# 1 107.7462 33.4623 41.3595 0.0000 -6.6427 0.0000
# 2 33.4623 59.5635 36.8285 0.0000 9.2070 0.0000
# 3 41.3595 36.8285 99.7011 0.0000 -22.5449 0.0000
# 4 0.0000 0.0000 0.0000 26.2441 0.0000 -2.0351
# 5 -6.6427 9.2070 -22.5449 0.0000 44.4029 0.0000
# 6 0.0000 0.0000 0.0000 -2.0351 0.0000 30.1757
#
#
#
# Elastic Compliance Matrix: (Units=1/GPa)
#
#
# Indices 1 2 3 4 5 6 
#
# 1 0.012071 -0.005373 -0.002669 0.000000 0.001565 0.000000
# 2 -0.005373 0.028613 -0.011143 0.000000 -0.012395 0.000000
# 3 -0.002669 -0.011143 0.017720 0.000000 0.010908 0.000000
# 4 0.000000 0.000000 0.000000 0.038304 0.000000 0.002583
# 5 0.001565 -0.012395 0.010908 0.000000 0.030864 0.000000
# 6 0.000000 0.000000 0.000000 0.002583 0.000000 0.033313
#
#
# Mechanical properties :
#
#
# Convention : Reuss Voigt Hill
#
# Bulk Modulus (GPa) = 49.91565 54.47905 52.19735
# Shear Modulus (GPa) = 24.27976 30.52191 27.40084
#
# Velocity S-wave (km/s) = 3.31270 3.71420 3.51918
# Velocity P-wave (km/s) = 6.09859 6.55875 6.33285
#
# Compressibility (1/GPa) = 0.02003380
#
# Stress axis : x y z
#
# Youngs Moduli (GPa) = 82.84579 34.94899 56.43373
#
# Poissons Ratio (x) = 0.18778 0.15061
# Poissons Ratio (y) = 0.44513 0.62885
# Poissons Ratio (z) = 0.22109 0.38944
#
# Static dielectric constant tensor:
#      x y z
#    x 4.110700 0.000000 -0.266440 
#    y 0.000000 3.737230 0.000000 
#    z -0.266440 0.000000 4.135820 
# 
# 
# High freq. dielectric constant tensor:
#      x y z
#    x 1.879110 0.000000 -0.011170 
#    y 0.000000 1.841940 0.000000 
#    z -0.011170 0.000000 1.879090 
# 
# From -- ./inp_files/171941.got.cif
#   From: 2010.06.25/outbox.cif.g09.slc.cpg/sg15_86_cif.got.tgz:171941.got - 2010.06.28 07:06:18.
