data_PCOD8140970
_publ_section_title
;
Structure prediction by ZEFSAII (Michael W. Deem and Ramdas Pophale) SiO2 
 PCOD8140970
Probable space group: C 2/C
;
_chemical_formula_sum "Si O2"
_cell_formula_units_Z 48
_cell_length_a 17.290783
_cell_length_b 10.147198
_cell_length_c 15.437215
_cell_angle_alpha 90.000000
_cell_angle_beta 89.022979
_cell_angle_gamma 90.000000
_cell_volume 2708.111885
_symmetry_space_group_name_H-M "C 2/C"
_symmetry_group_IT_number 15
_symmetry_cell_setting 'monoclinic'
loop_
_space_group_symop_operation_xyz
x,y,z
-x,y,1/2-z
-x,-y,-z
x,-y,1/2+z
1/2+x,1/2+y,z
1/2-x,1/2+y,1/2-z
1/2-x,1/2-y,-z
1/2+x,1/2-y,1/2+z
loop_
_atom_site_type_symbol
_atom_site_label
_atom_site_fract_x
_atom_site_fract_y
_atom_site_fract_z
Si Si1 0.675441 0.004175 0.516633
Si Si2 0.826979 0.749701 0.254274
Si Si3 0.845049 0.998462 0.527923
Si Si4 0.913166 0.266003 0.575301
Si Si5 0.248468 0.494153 0.187207
Si Si6 0.092859 0.751932 0.063850
O O1 0.624164 0.106040 0.466078
O O2 0.680427 0.042998 0.619133
O O3 0.763264 0.003008 0.476544
O O4 0.638825 0.858776 0.508935
O O5 0.887041 0.748128 0.174651
O O6 0.777659 0.615344 0.252940
O O7 0.766226 0.869491 0.247178
O O8 0.873617 0.768934 0.341234
O O9 0.900820 0.888673 0.487719
O O10 0.887959 0.138735 0.520230
O O11 0.824886 0.966023 0.629286
O O12 0.004109 0.287850 0.571606
#
# Coordination Sequence:
#
# PCOD8140970 Si02
#       6
#     8   8   8   8   8   8
#     4   9  20  36  54  78 101 140 183 208 251 314
#     4  10  21  34  52  80 107 136 170 218 265 306
#     4   9  20  36  54  78 101 140 183 208 251 314
#     4  11  21  35  55  81 109 136 171 219 267 308
#     4   8  20  32  54  78 100 136 184 212 250 306
#     4  11  21  35  55  81 109 136 171 219 267 308
#
# _framework density 17.724525
#
# number of rings (size 3 to 8) (size 9 to 14) (size 15 to 20)
#    1.000    1.333    0.000    2.500    2.333    0.000 
#    0.000    0.000    0.000    0.000    0.000    7.000 
#    0.000    0.000    0.000    0.000    0.000    0.000 
#
# Total GULP energy -297481.734242 kJ/mol
# GULP energy per Si atom -12395.072260 kJ/mol
# Density = 1.768418 g / cm^3
# Si number density = 17.724525 Si / 1000 Ang^3
#
#
#
# Elastic Constant Matrix: (Units=GPa)
#
#
# Indices 1 2 3 4 5 6 
#
# 1 55.9544 11.6263 5.5379 0.0000 7.1277 0.0000
# 2 11.6263 79.7854 25.3860 0.0000 4.8753 0.0000
# 3 5.5379 25.3860 39.9480 0.0000 -0.2226 0.0000
# 4 0.0000 0.0000 0.0000 30.2578 0.0000 -0.3141
# 5 7.1277 4.8753 -0.2226 0.0000 15.1203 0.0000
# 6 0.0000 0.0000 0.0000 -0.3141 0.0000 25.6584
#
#
#
# Elastic Compliance Matrix: (Units=1/GPa)
#
#
# Indices 1 2 3 4 5 6 
#
# 1 0.019506 -0.001804 -0.001606 0.000000 -0.008637 0.000000
# 2 -0.001804 0.016299 -0.010133 0.000000 -0.004554 0.000000
# 3 -0.001606 -0.010133 0.031719 0.000000 0.004491 0.000000
# 4 0.000000 0.000000 0.000000 0.033054 0.000000 0.000405
# 5 -0.008637 -0.004554 0.004491 0.000000 0.071742 0.000000
# 6 0.000000 0.000000 0.000000 0.000405 0.000000 0.038979
#
#
# Mechanical properties :
#
#
# Convention : Reuss Voigt Hill
#
# Bulk Modulus (GPa) = 24.72865 28.97646 26.85255
# Shear Modulus (GPa) = 19.85211 23.08315 21.46763
#
# Velocity S-wave (km/s) = 3.35033 3.61269 3.48398
# Velocity P-wave (km/s) = 5.38035 5.81255 5.60062
#
# Compressibility (1/GPa) = 0.04043893
#
# Stress axis : x y z
#
# Youngs Moduli (GPa) = 51.26728 61.35429 31.52650
#
# Poissons Ratio (x) = 0.11066 0.05063
# Poissons Ratio (y) = 0.09247 0.31945
# Poissons Ratio (z) = 0.08233 0.62169
#
# Static dielectric constant tensor:
#      x y z
#    x 3.180030 0.000000 0.004380 
#    y 0.000000 3.259210 0.000000 
#    z 0.004380 0.000000 3.093610 
# 
# 
# High freq. dielectric constant tensor:
#      x y z
#    x 1.676120 0.000000 0.002010 
#    y 0.000000 1.692780 0.000000 
#    z 0.002010 0.000000 1.672340 
# 
# From -- ./inp_files/208687.got.cif
#   From: 2010.06.25/outbox.cif.g09.slc.cpg/sg15_105_cif.got.tgz:208687.got - 2010.06.28 07:06:18.
