data_PCOD8140092
_publ_section_title
;
Structure prediction by ZEFSAII (Michael W. Deem and Ramdas Pophale) SiO2 
 PCOD8140092
Probable space group: C 2/C
;
_chemical_formula_sum "Si O2"
_cell_formula_units_Z 64
_cell_length_a 12.877367
_cell_length_b 26.515912
_cell_length_c 18.284460
_cell_angle_alpha 90.000000
_cell_angle_beta 150.485208
_cell_angle_gamma 90.000000
_cell_volume 3075.761941
_symmetry_space_group_name_H-M "C 2/C"
_symmetry_group_IT_number 15
_symmetry_cell_setting 'monoclinic'
loop_
_space_group_symop_operation_xyz
x,y,z
-x,y,1/2-z
-x,-y,-z
x,-y,1/2+z
1/2+x,1/2+y,z
1/2-x,1/2+y,1/2-z
1/2-x,1/2-y,-z
1/2+x,1/2-y,1/2+z
loop_
_atom_site_type_symbol
_atom_site_label
_atom_site_fract_x
_atom_site_fract_y
_atom_site_fract_z
Si Si1 0.417494 0.933116 0.123820
Si Si2 0.418988 0.278860 0.392849
Si Si3 0.035571 0.962131 0.690131
Si Si4 0.367290 0.201412 0.240922
Si Si5 0.759855 0.198358 0.114519
Si Si6 0.385287 0.115458 0.373662
Si Si7 0.512877 0.179918 0.677901
Si Si8 0.647783 0.043664 0.617202
O O1 0.500000 0.955849 0.250000
O O2 0.393865 0.872980 0.114805
O O3 0.577788 0.943658 0.156361
O O4 0.192843 0.960280 0.984820
O O5 0.453543 0.252662 0.334189
O O6 0.627585 0.291619 0.566017
O O7 0.268049 0.239209 0.340139
O O8 0.254086 0.326070 0.292665
O O9 0.201182 0.926029 0.748800
O O10 0.000000 0.942151 0.750000
O O11 0.115331 0.020863 0.737893
O O12 0.500000 0.192162 0.250000
O O13 0.398547 0.151882 0.310746
O O14 0.661991 0.146112 0.082234
O O15 0.000000 0.186847 0.250000
O O16 0.630331 0.214143 0.962910
O O17 0.609091 0.088742 0.533590
O O18 0.500000 0.207181 0.750000
O O19 0.500000 0.000000 0.500000
#
# Coordination Sequence:
#
# PCOD8140092 Si02
#       8
#     8   8   8   8   8   8   8   8
#     4  11  23  38  62  98 134 170 209 274 332 388
#     4  11  24  41  63  94 132 178 225 272 322 391
#     4  11  20  40  70  94 123 173 213 261 341 407
#     4  11  25  45  68  92 131 182 230 274 327 384
#     4  11  21  36  61  93 129 173 212 261 328 388
#     4  10  21  38  68  91 126 165 220 269 321 394
#     4  11  23  36  60  96 140 163 213 271 329 391
#     4  10  20  40  66  93 123 165 224 261 323 414
#
# _framework density 20.807853000000001
#
# number of rings (size 3 to 8) (size 9 to 14) (size 15 to 20)
#    0.000    1.250    5.000    1.875    7.000    1.500 
#    0.000    3.750    0.000    0.000    0.000    0.000 
#    0.000    0.000    0.000    0.000    0.000    0.000 
#
# Total GULP energy -396443.910422 kJ/mol
# GULP energy per Si atom -12388.872201 kJ/mol
# Density = 2.076049 g / cm^3
# Si number density = 20.807853 Si / 1000 Ang^3
#
#
#
# Elastic Constant Matrix: (Units=GPa)
#
#
# Indices 1 2 3 4 5 6 
#
# 1 111.5249 32.2834 45.7851 -0.0081 -14.7195 0.0024
# 2 32.2834 73.1761 41.9118 0.0127 6.7500 -0.0032
# 3 45.7851 41.9118 152.2358 0.0008 -11.2361 -0.0014
# 4 -0.0081 0.0127 0.0008 -38.1053 -0.0192 22.8723
# 5 -14.7195 6.7500 -11.2361 -0.0192 35.8363 0.0051
# 6 0.0024 -0.0032 -0.0014 22.8723 0.0051 20.9939
#
#
#
# Elastic Compliance Matrix: (Units=1/GPa)
#
#
# Indices 1 2 3 4 5 6 
#
# 1 0.011737 -0.004559 -0.001900 -0.000005 0.005084 0.000002
# 2 -0.004559 0.018758 -0.004291 0.000008 -0.006751 -0.000004
# 3 -0.001900 -0.004291 0.008521 -0.000002 0.002700 0.000001
# 4 -0.000005 0.000008 -0.000002 -0.015867 -0.000015 0.017287
# 5 0.005084 -0.006751 0.002700 -0.000015 0.032111 0.000007
# 6 0.000002 -0.000004 0.000001 0.017287 0.000007 0.028800
#
#
# Mechanical properties :
#
#
# Convention : Reuss Voigt Hill
#
# Bulk Modulus (GPa) = 57.09186 64.09971 60.59579
# Shear Modulus (GPa) = 44.88424 18.20876 31.54650
#
# Velocity S-wave (km/s) = 4.64948 2.96140 3.89792
# Velocity P-wave (km/s) = 7.50471 6.52423 7.03158
#
# Compressibility (1/GPa) = 0.01751563
#
# Stress axis : x y z
#
# Youngs Moduli (GPa) = 85.19900 53.31169 117.36090
#
# Poissons Ratio (x) = 0.24306 0.22293
# Poissons Ratio (y) = 0.38843 0.50363
# Poissons Ratio (z) = 0.16184 0.22877
#
# Static dielectric constant tensor:
#      x y z
#    x 3.843530 0.000000 -0.177260 
#    y 0.000000 3.852830 0.000000 
#    z -0.177260 0.000000 3.884370 
# 
# 
# High freq. dielectric constant tensor:
#      x y z
#    x 1.805150 0.000000 -0.011890 
#    y 0.000000 1.806710 0.000000 
#    z -0.011890 0.000000 1.821180 
# 
# From -- ./inp_files/201482.got.cif
#   From: 2010.06.25/outbox.cif.g09.slc.cpg/sg15_101_cif.got.tgz:201482.got - 2010.06.28 07:06:18.
