data_PCOD8140780
_publ_section_title
;
Structure prediction by ZEFSAII (Michael W. Deem and Ramdas Pophale) SiO2 
 PCOD8140780
Probable space group: C 2/C
;
_chemical_formula_sum "Si O2"
_cell_formula_units_Z 48
_cell_length_a 12.331675
_cell_length_b 20.722493
_cell_length_c 8.719656
_cell_angle_alpha 90.000000
_cell_angle_beta 99.366068
_cell_angle_gamma 90.000000
_cell_volume 2198.542076
_symmetry_space_group_name_H-M "C 2/C"
_symmetry_group_IT_number 15
_symmetry_cell_setting 'monoclinic'
loop_
_space_group_symop_operation_xyz
x,y,z
-x,y,1/2-z
-x,-y,-z
x,-y,1/2+z
1/2+x,1/2+y,z
1/2-x,1/2+y,1/2-z
1/2-x,1/2-y,-z
1/2+x,1/2-y,1/2+z
loop_
_atom_site_type_symbol
_atom_site_label
_atom_site_fract_x
_atom_site_fract_y
_atom_site_fract_z
Si Si1 0.512534 0.173997 0.073244
Si Si2 0.264977 0.857287 0.033270
Si Si3 0.032815 0.805265 0.932273
Si Si4 0.122480 0.915436 0.527571
Si Si5 0.816182 0.393526 0.375822
Si Si6 0.300403 0.519578 0.146249
O O1 0.500000 0.164062 0.250000
O O2 0.637692 0.163090 0.055886
O O3 0.481307 0.246867 0.018207
O O4 0.436457 0.121950 0.968728
O O5 0.299165 0.851633 0.218566
O O6 0.164095 0.808872 0.977232
O O7 0.236158 0.931357 0.993731
O O8 0.000000 0.794624 0.750000
O O9 0.985539 0.872173 0.988270
O O10 0.224564 0.873460 0.482316
O O11 0.155140 0.939994 0.702558
O O12 0.101649 0.976150 0.408058
O O13 0.801530 0.470851 0.338020
#
# Coordination Sequence:
#
# PCOD8140780 Si02
#       6
#     8   8   8   8   8   8
#     4  12  29  47  72 101 142 192 242 292 349 416
#     4  12  24  46  72 103 146 186 235 291 354 420
#     4  12  27  46  71 105 144 191 236 288 353 424
#     4  10  22  44  71 108 144 182 231 285 359 413
#     4  10  23  46  72 104 140 187 236 290 350 418
#     4  10  20  43  69 109 138 183 227 284 355 417
#
# _framework density 21.832650000000001
#
# number of rings (size 3 to 8) (size 9 to 14) (size 15 to 20)
#    1.000    0.000    3.333    3.000    2.333    2.000 
#    3.000    0.000    0.000    0.000    0.000    0.000 
#    0.000    0.000    0.000    0.000    0.000    0.000 
#
# Total GULP energy -297551.480570 kJ/mol
# GULP energy per Si atom -12397.978357 kJ/mol
# Density = 2.178296 g / cm^3
# Si number density = 21.832650 Si / 1000 Ang^3
#
#
#
# Elastic Constant Matrix: (Units=GPa)
#
#
# Indices 1 2 3 4 5 6 
#
# 1 108.4236 18.8815 37.7649 0.0000 -4.3691 0.0000
# 2 18.8815 75.3342 17.3563 0.0000 -0.1194 0.0000
# 3 37.7649 17.3563 118.2130 0.0000 -12.1334 0.0000
# 4 0.0000 0.0000 0.0000 25.1123 0.0000 -3.6259
# 5 -4.3691 -0.1194 -12.1334 0.0000 27.2576 0.0000
# 6 0.0000 0.0000 0.0000 -3.6259 0.0000 22.8817
#
#
#
# Elastic Compliance Matrix: (Units=1/GPa)
#
#
# Indices 1 2 3 4 5 6 
#
# 1 0.010651 -0.001959 -0.003081 0.000000 0.000327 0.000000
# 2 -0.001959 0.014119 -0.001544 0.000000 -0.000939 0.000000
# 3 -0.003081 -0.001544 0.010079 0.000000 0.003986 0.000000
# 4 0.000000 0.000000 0.000000 0.040754 0.000000 0.006458
# 5 0.000327 -0.000939 0.003986 0.000000 0.038510 0.000000
# 6 0.000000 0.000000 0.000000 0.006458 0.000000 0.044726
#
#
# Mechanical properties :
#
#
# Convention : Reuss Voigt Hill
#
# Bulk Modulus (GPa) = 46.12214 49.99736 48.05975
# Shear Modulus (GPa) = 27.89647 30.24819 29.07233
#
# Velocity S-wave (km/s) = 3.57843 3.72621 3.65307
# Velocity P-wave (km/s) = 6.18423 6.43916 6.31298
#
# Compressibility (1/GPa) = 0.02168156
#
# Stress axis : x y z
#
# Youngs Moduli (GPa) = 93.89079 70.82489 99.21171
#
# Poissons Ratio (x) = 0.13875 0.30570
# Poissons Ratio (y) = 0.18393 0.15314
# Poissons Ratio (z) = 0.28931 0.10932
#
# Static dielectric constant tensor:
#      x y z
#    x 3.795580 0.000000 -0.165330 
#    y 0.000000 3.983610 0.000000 
#    z -0.165330 0.000000 3.926040 
# 
# 
# High freq. dielectric constant tensor:
#      x y z
#    x 1.847120 0.000000 -0.008730 
#    y 0.000000 1.858820 0.000000 
#    z -0.008730 0.000000 1.870440 
# 
# From -- ./inp_files/32124.got.cif
#   From: 2010.06.25/outbox.cif.g09.slc.cpg/sg15_17_cif.got.tgz:32124.got - 2010.06.28 07:06:18.
