data_PCOD8140607
_publ_section_title
;
Structure prediction by ZEFSAII (Michael W. Deem and Ramdas Pophale) SiO2 
 PCOD8140607
Probable space group: C 2/C
;
_chemical_formula_sum "Si O2"
_cell_formula_units_Z 48
_cell_length_a 7.768806
_cell_length_b 15.157353
_cell_length_c 19.062307
_cell_angle_alpha 90.000000
_cell_angle_beta 109.214425
_cell_angle_gamma 90.000000
_cell_volume 2119.630312
_symmetry_space_group_name_H-M "C 2/C"
_symmetry_group_IT_number 15
_symmetry_cell_setting 'monoclinic'
loop_
_space_group_symop_operation_xyz
x,y,z
-x,y,1/2-z
-x,-y,-z
x,-y,1/2+z
1/2+x,1/2+y,z
1/2-x,1/2+y,1/2-z
1/2-x,1/2-y,-z
1/2+x,1/2-y,1/2+z
loop_
_atom_site_type_symbol
_atom_site_label
_atom_site_fract_x
_atom_site_fract_y
_atom_site_fract_z
Si Si1 0.792346 0.104847 0.587202
Si Si2 0.500000 0.130546 0.250000
Si Si3 0.296288 0.404372 0.340774
Si Si4 0.196903 0.017988 0.285658
Si Si5 0.500000 0.778630 0.250000
Si Si6 0.188246 0.780590 0.641743
Si Si7 0.334597 0.554680 0.447237
O O1 0.676232 0.186261 0.601991
O O2 0.713416 0.083434 0.498572
O O3 0.006990 0.131714 0.607489
O O4 0.770648 0.015993 0.630631
O O5 0.363289 0.074840 0.279926
O O6 0.601511 0.191374 0.320391
O O7 0.318183 0.429464 0.262482
O O8 0.230601 0.490099 0.378126
O O9 0.135878 0.332950 0.319610
O O10 0.000000 0.067439 0.250000
O O11 0.393371 0.718830 0.291001
O O12 0.092914 0.857466 0.582956
O O13 0.500000 0.500000 0.500000
#
# Coordination Sequence:
#
# PCOD8140607 Si02
#       7
#     8   4   8   8   4   8   8
#     4  10  22  42  65  94 132 174 217 279 342 397
#     4  12  25  40  68 103 136 172 236 281 326 408
#     4  10  20  42  66  94 128 175 219 278 327 403
#     4  10  21  40  70  96 131 175 227 274 333 393
#     4  12  25  40  68 101 136 170 226 283 342 386
#     4  12  25  39  64 100 134 173 221 283 335 390
#     4  10  23  43  65  89 136 178 224 270 335 408
#
# _framework density 22.64546
#
# number of rings (size 3 to 8) (size 9 to 14) (size 15 to 20)
#    0.000    1.333    3.333    2.000    2.333    0.000 
#    0.000    8.333    0.000    0.000    0.000    0.000 
#    0.000    0.000    0.000    0.000    0.000    0.000 
#
# Total GULP energy -297442.821748 kJ/mol
# GULP energy per Si atom -12393.450906 kJ/mol
# Density = 2.259392 g / cm^3
# Si number density = 22.645460 Si / 1000 Ang^3
#
#
#
# Elastic Constant Matrix: (Units=GPa)
#
#
# Indices 1 2 3 4 5 6 
#
# 1 105.4819 41.1349 36.8995 0.0000 -16.0912 0.0000
# 2 41.1349 96.2771 55.7378 0.0000 -25.2293 0.0000
# 3 36.8995 55.7378 129.3092 0.0000 -36.1544 0.0000
# 4 0.0000 0.0000 0.0000 40.2401 0.0000 -3.6197
# 5 -16.0912 -25.2293 -36.1544 0.0000 32.8704 0.0000
# 6 0.0000 0.0000 0.0000 -3.6197 0.0000 32.9877
#
#
#
# Elastic Compliance Matrix: (Units=1/GPa)
#
#
# Indices 1 2 3 4 5 6 
#
# 1 0.011645 -0.003892 -0.001281 0.000000 0.001305 0.000000
# 2 -0.003892 0.015971 -0.004157 0.000000 0.005780 0.000000
# 3 -0.001281 -0.004157 0.012742 0.000000 0.010197 0.000000
# 4 0.000000 0.000000 0.000000 0.025099 0.000000 0.002754
# 5 0.001305 0.005780 0.010197 0.000000 0.046714 0.000000
# 6 0.000000 0.000000 0.000000 0.002754 0.000000 0.030617
#
#
# Mechanical properties :
#
#
# Convention : Reuss Voigt Hill
#
# Bulk Modulus (GPa) = 46.08719 66.51253 56.29986
# Shear Modulus (GPa) = 29.64189 34.37270 32.00729
#
# Velocity S-wave (km/s) = 3.62187 3.90020 3.76361
# Velocity P-wave (km/s) = 6.15520 7.05104 6.61829
#
# Compressibility (1/GPa) = 0.02169800
#
# Stress axis : x y z
#
# Youngs Moduli (GPa) = 85.87275 62.61242 78.48108
#
# Poissons Ratio (x) = 0.24370 0.10050
# Poissons Ratio (y) = 0.33423 0.32628
# Poissons Ratio (z) = 0.10996 0.26031
#
# Static dielectric constant tensor:
#      x y z
#    x 4.155600 0.000000 -0.213470 
#    y 0.000000 4.004250 0.000000 
#    z -0.213470 0.000000 4.592330 
# 
# 
# High freq. dielectric constant tensor:
#      x y z
#    x 1.874290 0.000000 -0.017440 
#    y 0.000000 1.889930 0.000000 
#    z -0.017440 0.000000 1.895080 
# 
# From -- ./inp_files/231394.got.cif
#   From: 2010.06.25/outbox.cif.g09.slc.cpg/sg15_116_cif.got.tgz:231394.got - 2010.06.28 07:06:18.
