data_PCOD8140202
_publ_section_title
;
Structure prediction by ZEFSAII (Michael W. Deem and Ramdas Pophale) SiO2 
 PCOD8140202
Probable space group: C 2/C
;
_chemical_formula_sum "Si O2"
_cell_formula_units_Z 64
_cell_length_a 13.361961
_cell_length_b 17.694646
_cell_length_c 13.273200
_cell_angle_alpha 90.000000
_cell_angle_beta 91.650866
_cell_angle_gamma 90.000000
_cell_volume 3136.948710
_symmetry_space_group_name_H-M "C 2/C"
_symmetry_group_IT_number 15
_symmetry_cell_setting 'monoclinic'
loop_
_space_group_symop_operation_xyz
x,y,z
-x,y,1/2-z
-x,-y,-z
x,-y,1/2+z
1/2+x,1/2+y,z
1/2-x,1/2+y,1/2-z
1/2-x,1/2-y,-z
1/2+x,1/2-y,1/2+z
loop_
_atom_site_type_symbol
_atom_site_label
_atom_site_fract_x
_atom_site_fract_y
_atom_site_fract_z
Si Si1 0.061908 0.975906 0.352755
Si Si2 0.437131 0.386122 0.505882
Si Si3 0.786783 0.535166 0.799689
Si Si4 0.248331 0.641915 0.872016
Si Si5 0.928560 0.286584 0.013042
Si Si6 0.111425 0.596051 0.295041
Si Si7 0.103942 0.749693 0.213402
Si Si8 0.931532 0.572870 0.984425
O O1 0.174417 0.953575 0.331648
O O2 0.000000 0.977339 0.250000
O O3 0.018815 0.912713 0.426694
O O4 0.056788 0.060120 0.397920
O O5 0.325806 0.393254 0.454877
O O6 0.461924 0.299682 0.539635
O O7 0.809467 0.579490 0.695449
O O8 0.810539 0.448642 0.772805
O O9 0.856099 0.563640 0.890930
O O10 0.171996 0.695779 0.928122
O O11 0.310873 0.687960 0.789933
O O12 0.009806 0.350148 0.041133
O O13 0.909235 0.291719 0.894009
O O14 0.137414 0.684515 0.290507
O O15 0.127526 0.577330 0.412414
O O16 0.000000 0.578812 0.250000
O O17 0.000000 0.787162 0.250000
O O18 0.000000 0.500000 0.000000
#
# Coordination Sequence:
#
# PCOD8140202 Si02
#       8
#     8   8   8   8   8   8   8   8
#     4  11  25  47  69  96 132 182 221 281 329 400
#     4  10  24  44  70  96 132 175 230 273 337 393
#     4  12  27  39  70  96 137 174 225 271 338 401
#     4  11  25  40  68 102 131 177 224 276 327 403
#     4  11  23  41  71  99 137 173 222 282 332 400
#     4  11  22  40  66  98 127 177 220 273 326 396
#     4  10  20  40  69  95 126 176 223 268 324 398
#     4  12  24  43  67  99 140 172 219 281 339 395
#
# _framework density 20.401990000000001
#
# number of rings (size 3 to 8) (size 9 to 14) (size 15 to 20)
#    0.000    1.000    5.000    2.250   10.500    0.000 
#    2.250    2.500    0.000    0.000    0.000    0.000 
#    0.000    0.000    0.000    0.000    0.000    0.000 
#
# Total GULP energy -396765.669529 kJ/mol
# GULP energy per Si atom -12398.927173 kJ/mol
# Density = 2.035555 g / cm^3
# Si number density = 20.401990 Si / 1000 Ang^3
#
#
#
# Elastic Constant Matrix: (Units=GPa)
#
#
# Indices 1 2 3 4 5 6 
#
# 1 106.3209 43.8465 38.5713 0.0000 -6.2974 0.0000
# 2 43.8465 109.7308 24.0577 0.0000 -3.3541 0.0000
# 3 38.5713 24.0577 67.0771 0.0000 -10.1422 0.0000
# 4 0.0000 0.0000 0.0000 113.0785 0.0000 -25.2277
# 5 -6.2974 -3.3541 -10.1422 0.0000 40.1072 0.0000
# 6 0.0000 0.0000 0.0000 -25.2277 0.0000 30.7284
#
#
#
# Elastic Compliance Matrix: (Units=1/GPa)
#
#
# Indices 1 2 3 4 5 6 
#
# 1 0.013294 -0.003947 -0.006200 0.000000 0.000189 0.000000
# 2 -0.003947 0.011063 -0.001718 0.000000 -0.000129 0.000000
# 3 -0.006200 -0.001718 0.019673 0.000000 0.003858 0.000000
# 4 0.000000 0.000000 0.000000 0.010826 0.000000 0.008888
# 5 0.000189 -0.000129 0.003858 0.000000 0.025928 0.000000
# 6 0.000000 0.000000 0.000000 0.008888 0.000000 0.039840
#
#
# Mechanical properties :
#
#
# Convention : Reuss Voigt Hill
#
# Bulk Modulus (GPa) = 49.26072 55.11999 52.19036
# Shear Modulus (GPa) = 33.08631 48.55969 40.82300
#
# Velocity S-wave (km/s) = 4.03143 4.88397 4.47803
# Velocity P-wave (km/s) = 6.77254 7.67332 7.23696
#
# Compressibility (1/GPa) = 0.02030015
#
# Stress axis : x y z
#
# Youngs Moduli (GPa) = 75.22401 90.39180 50.83153
#
# Poissons Ratio (x) = 0.35676 0.31516
# Poissons Ratio (y) = 0.29689 0.08732
# Poissons Ratio (z) = 0.46639 0.15527
#
# Static dielectric constant tensor:
#      x y z
#    x 3.597660 0.000000 -0.228190 
#    y 0.000000 3.925590 0.000000 
#    z -0.228190 0.000000 3.832810 
# 
# 
# High freq. dielectric constant tensor:
#      x y z
#    x 1.785360 0.000000 -0.021600 
#    y 0.000000 1.811950 0.000000 
#    z -0.021600 0.000000 1.804590 
# 
# From -- ./inp_files/98776.got.cif
#   From: 2010.06.25/outbox.cif.g09.slc.cpg/sg15_50_cif.got.tgz:98776.got - 2010.06.28 07:06:18.
