data_PCOD8140689
_publ_section_title
;
Structure prediction by ZEFSAII (Michael W. Deem and Ramdas Pophale) SiO2 
 PCOD8140689
Probable space group: C 2/C
;
_chemical_formula_sum "Si O2"
_cell_formula_units_Z 40
_cell_length_a 9.057656
_cell_length_b 20.583433
_cell_length_c 18.272926
_cell_angle_alpha 90.000000
_cell_angle_beta 31.044230
_cell_angle_gamma 90.000000
_cell_volume 1756.865599
_symmetry_space_group_name_H-M "C 2/C"
_symmetry_group_IT_number 15
_symmetry_cell_setting 'monoclinic'
loop_
_space_group_symop_operation_xyz
x,y,z
-x,y,1/2-z
-x,-y,-z
x,-y,1/2+z
1/2+x,1/2+y,z
1/2-x,1/2+y,1/2-z
1/2-x,1/2-y,-z
1/2+x,1/2-y,1/2+z
loop_
_atom_site_type_symbol
_atom_site_label
_atom_site_fract_x
_atom_site_fract_y
_atom_site_fract_z
Si Si1 0.140545 0.443760 0.266677
Si Si2 0.688867 0.228082 0.917120
Si Si3 0.191174 0.578214 0.308064
Si Si4 0.843862 0.148077 0.990165
Si Si5 0.205342 0.379151 0.962456
O O1 0.287566 0.506395 0.241533
O O2 0.373085 0.387690 0.156445
O O3 0.000000 0.463627 0.250000
O O4 0.894482 0.418506 0.424532
O O5 0.698692 0.191241 0.989459
O O6 0.000000 0.224303 0.750000
O O7 0.589971 0.303177 0.970249
O O8 0.446793 0.191652 0.971917
O O9 0.450013 0.628193 0.179364
O O10 0.128181 0.579714 0.421978
O O11 0.905562 0.596686 0.383492
#
# Coordination Sequence:
#
# PCOD8140689 Si02
#       5
#     8   8   8   8   8
#     4  12  25  42  65 101 140 173 215 273 337 397
#     4  10  20  42  70  92 131 170 225 273 317 390
#     4  10  23  42  70  98 135 171 224 269 332 396
#     4  10  23  42  65  99 130 173 216 269 334 385
#     4  10  22  43  69 101 125 178 227 274 322 391
#
# _framework density 22.767821000000001
#
# number of rings (size 3 to 8) (size 9 to 14) (size 15 to 20)
#    0.000    1.600    2.000    1.800    0.000   10.400 
#   10.800    2.000    0.000    0.000    0.000    0.000 
#    0.000    0.000    0.000    0.000    0.000    0.000 
#
# Total GULP energy -247984.578038 kJ/mol
# GULP energy per Si atom -12399.228902 kJ/mol
# Density = 2.271600 g / cm^3
# Si number density = 22.767821 Si / 1000 Ang^3
#
#
#
# Elastic Constant Matrix: (Units=GPa)
#
#
# Indices 1 2 3 4 5 6 
#
# 1 64.6434 28.0532 36.8467 -0.0583 8.8634 0.1906
# 2 28.0532 96.6861 46.5464 -0.0183 10.8713 0.0612
# 3 36.8467 46.5464 146.8873 -0.0183 -0.5643 0.0011
# 4 -0.0583 -0.0183 -0.0183 47.0015 -0.0094 2.9588
# 5 8.8634 10.8713 -0.5643 -0.0094 26.1714 -0.0501
# 6 0.1906 0.0612 0.0011 2.9588 -0.0501 13.0610
#
#
#
# Elastic Compliance Matrix: (Units=1/GPa)
#
#
# Indices 1 2 3 4 5 6 
#
# 1 0.019900 -0.003238 -0.003987 0.000040 -0.005481 -0.000305
# 2 -0.003238 0.013469 -0.003473 0.000001 -0.004573 -0.000033
# 3 -0.003987 -0.003473 0.008920 -0.000008 0.002985 0.000087
# 4 0.000040 0.000001 -0.000008 0.021584 -0.000016 -0.004890
# 5 -0.005481 -0.004573 0.002985 -0.000016 0.042030 0.000266
# 6 -0.000305 -0.000033 0.000087 -0.004890 0.000266 0.077677
#
#
# Mechanical properties :
#
#
# Convention : Reuss Voigt Hill
#
# Bulk Modulus (GPa) = 47.86510 59.01217 53.43863
# Shear Modulus (GPa) = 23.59157 30.36480 26.97818
#
# Velocity S-wave (km/s) = 3.22247 3.65591 3.44601
# Velocity P-wave (km/s) = 5.90885 6.61788 6.27339
#
# Compressibility (1/GPa) = 0.02089205
#
# Stress axis : x y z
#
# Youngs Moduli (GPa) = 50.25232 74.24685 112.10604
#
# Poissons Ratio (x) = 0.24042 0.44694
# Poissons Ratio (y) = 0.16272 0.38938
# Poissons Ratio (z) = 0.20034 0.25788
#
# Static dielectric constant tensor:
#      x y z
#    x 3.985910 -0.000080 0.051200 
#    y -0.000080 4.295650 0.000060 
#    z 0.051200 0.000060 4.044630 
# 
# 
# High freq. dielectric constant tensor:
#      x y z
#    x 1.880810 -0.000010 0.003550 
#    y -0.000010 1.896280 0.000010 
#    z 0.003550 0.000010 1.910000 
# 
# From -- ./inp_files/193410.got.cif
#   From: 2010.06.25/outbox.cif.g09.slc.cpg/sg15_97_cif.got.tgz:193410.got - 2010.06.28 07:06:18.
