data_PCOD8140697
_publ_section_title
;
Structure prediction by ZEFSAII (Michael W. Deem and Ramdas Pophale) SiO2 
 PCOD8140697
Probable space group: C 2/C
;
_chemical_formula_sum "Si O2"
_cell_formula_units_Z 44
_cell_length_a 9.344848
_cell_length_b 20.526123
_cell_length_c 10.041817
_cell_angle_alpha 90.000000
_cell_angle_beta 77.943903
_cell_angle_gamma 90.000000
_cell_volume 1883.671934
_symmetry_space_group_name_H-M "C 2/C"
_symmetry_group_IT_number 15
_symmetry_cell_setting 'monoclinic'
loop_
_space_group_symop_operation_xyz
x,y,z
-x,y,1/2-z
-x,-y,-z
x,-y,1/2+z
1/2+x,1/2+y,z
1/2-x,1/2+y,1/2-z
1/2-x,1/2-y,-z
1/2+x,1/2-y,1/2+z
loop_
_atom_site_type_symbol
_atom_site_label
_atom_site_fract_x
_atom_site_fract_y
_atom_site_fract_z
Si Si1 0.500000 0.358729 0.750000
Si Si2 0.678673 0.831408 0.412958
Si Si3 0.362381 0.808090 0.517744
Si Si4 0.788415 0.300134 0.810261
Si Si5 0.313527 0.436464 0.964815
Si Si6 0.668658 0.548122 0.740165
O O1 0.638357 0.315262 0.760008
O O2 0.465672 0.404187 0.885345
O O3 0.484254 0.804630 0.091124
O O4 0.791962 0.773658 0.361632
O O5 0.688474 0.848972 0.569456
O O6 0.725113 0.891616 0.312906
O O7 0.250000 0.750000 0.500000
O O8 0.406531 0.804483 0.667238
O O9 0.304348 0.879704 0.497489
O O10 0.270208 0.488902 0.860545
O O11 0.324536 0.471260 0.105480
O O12 0.500000 0.566900 0.750000
#
# Coordination Sequence:
#
# PCOD8140697 Si02
#       6
#     4   8   8   8   8   8
#     4  10  20  42  70  96 134 180 234 282 344 408
#     4  11  24  41  66  99 139 175 225 291 348 406
#     4  11  24  44  68  97 134 181 234 287 349 411
#     4  10  22  39  66  99 132 175 227 285 346 410
#     4  11  25  41  69  97 134 181 233 278 344 412
#     4  12  26  43  67  99 138 181 234 282 344 421
#
# _framework density 23.358633999999999
#
# number of rings (size 3 to 8) (size 9 to 14) (size 15 to 20)
#    0.000    1.091    0.909    5.455    5.091    7.273 
#    0.000    0.000    0.000    0.000    0.000    0.000 
#    0.000    0.000    0.000    0.000    0.000    0.000 
#
# Total GULP energy -272680.830069 kJ/mol
# GULP energy per Si atom -12394.583185 kJ/mol
# Density = 2.330547 g / cm^3
# Si number density = 23.358634 Si / 1000 Ang^3
#
#
#
# Elastic Constant Matrix: (Units=GPa)
#
#
# Indices 1 2 3 4 5 6 
#
# 1 59.9147 19.0129 12.5715 0.0000 -15.4396 0.0000
# 2 19.0129 107.2765 43.5084 0.0000 -5.3212 0.0000
# 3 12.5715 43.5084 179.1098 0.0000 6.8930 0.0000
# 4 0.0000 0.0000 0.0000 40.3843 0.0000 -5.2867
# 5 -15.4396 -5.3212 6.8930 0.0000 32.3744 0.0000
# 6 0.0000 0.0000 0.0000 -5.2867 0.0000 26.3114
#
#
#
# Elastic Compliance Matrix: (Units=1/GPa)
#
#
# Indices 1 2 3 4 5 6 
#
# 1 0.020203 -0.002651 -0.001137 0.000000 0.009442 0.000000
# 2 -0.002651 0.010854 -0.002491 0.000000 0.001050 0.000000
# 3 -0.001137 -0.002491 0.006357 0.000000 -0.002305 0.000000
# 4 0.000000 0.000000 0.000000 0.025431 0.000000 0.005110
# 5 0.009442 0.001050 -0.002305 0.000000 0.036055 0.000000
# 6 0.000000 0.000000 0.000000 0.005110 0.000000 0.039033
#
#
# Mechanical properties :
#
#
# Convention : Reuss Voigt Hill
#
# Bulk Modulus (GPa) = 40.23291 55.16517 47.69904
# Shear Modulus (GPa) = 31.49076 37.89459 34.69267
#
# Velocity S-wave (km/s) = 3.67569 4.03214 3.85803
# Velocity P-wave (km/s) = 5.93933 6.73390 6.34906
#
# Compressibility (1/GPa) = 0.02485527
#
# Stress axis : x y z
#
# Youngs Moduli (GPa) = 49.49674 92.13286 157.31188
#
# Poissons Ratio (x) = 0.24425 0.17893
# Poissons Ratio (y) = 0.13122 0.39185
# Poissons Ratio (z) = 0.05630 0.22949
#
# Static dielectric constant tensor:
#      x y z
#    x 3.997750 0.000000 -0.201820 
#    y 0.000000 4.028680 0.000000 
#    z -0.201820 0.000000 4.812060 
# 
# 
# High freq. dielectric constant tensor:
#      x y z
#    x 1.908700 0.000000 -0.011790 
#    y 0.000000 1.912570 0.000000 
#    z -0.011790 0.000000 1.952730 
# 
# From -- ./inp_files/40210.got.cif
#   From: 2010.06.25/outbox.cif.g09.slc.cpg/sg15_21_cif.got.tgz:40210.got - 2010.06.28 07:06:18.
