data_PCOD8140367
_publ_section_title
;
Structure prediction by ZEFSAII (Michael W. Deem and Ramdas Pophale) SiO2 
 PCOD8140367
Probable space group: C 2/C
;
_chemical_formula_sum "Si O2"
_cell_formula_units_Z 48
_cell_length_a 20.184211
_cell_length_b 8.711165
_cell_length_c 19.119220
_cell_angle_alpha 90.000000
_cell_angle_beta 134.337251
_cell_angle_gamma 90.000000
_cell_volume 2404.413044
_symmetry_space_group_name_H-M "C 2/C"
_symmetry_group_IT_number 15
_symmetry_cell_setting 'monoclinic'
loop_
_space_group_symop_operation_xyz
x,y,z
-x,y,1/2-z
-x,-y,-z
x,-y,1/2+z
1/2+x,1/2+y,z
1/2-x,1/2+y,1/2-z
1/2-x,1/2-y,-z
1/2+x,1/2-y,1/2+z
loop_
_atom_site_type_symbol
_atom_site_label
_atom_site_fract_x
_atom_site_fract_y
_atom_site_fract_z
Si Si1 0.506751 0.143221 0.954502
Si Si2 0.668951 0.693541 0.989451
Si Si3 0.066630 0.462902 0.863821
Si Si4 0.751691 0.107484 0.951609
Si Si5 0.821760 0.180891 0.342268
Si Si6 0.677357 0.330157 0.139481
O O1 0.536551 0.087342 0.899340
O O2 0.408164 0.226332 0.874233
O O3 0.580801 0.259487 0.042267
O O4 0.500000 0.000000 0.000000
O O5 0.575913 0.790886 0.903895
O O6 0.750000 0.750000 0.000000
O O7 0.659179 0.507866 0.971376
O O8 0.693740 0.724410 0.088512
O O9 0.163043 0.506465 0.900767
O O10 0.000000 0.455108 0.750000
O O11 0.750639 0.166377 0.871672
O O12 0.750000 0.250000 0.000000
O O13 0.725605 0.225584 0.233693
O O14 0.840976 0.000554 0.344548
#
# Coordination Sequence:
#
# PCOD8140367 Si02
#       6
#     8   8   8   8   8   8
#     4  12  23  40  65  94 133 166 211 271 319 384
#     4   9  21  39  61  86 125 161 207 253 307 380
#     4  11  22  40  64  92 128 167 213 261 319 379
#     4  10  20  41  66  87 124 167 210 260 315 372
#     4  11  23  41  63  98 126 167 217 260 328 384
#     4  11  24  41  68  92 128 170 212 264 325 388
#
# _framework density 19.963291999999999
#
# number of rings (size 3 to 8) (size 9 to 14) (size 15 to 20)
#    0.000    1.333    3.333    2.500    0.000    2.667 
#    0.000    0.833    0.000    0.000    0.000    0.000 
#    0.000    0.000    0.000    0.000    0.000    0.000 
#
# Total GULP energy -297480.789810 kJ/mol
# GULP energy per Si atom -12395.032909 kJ/mol
# Density = 1.991786 g / cm^3
# Si number density = 19.963292 Si / 1000 Ang^3
#
#
#
# Elastic Constant Matrix: (Units=GPa)
#
#
# Indices 1 2 3 4 5 6 
#
# 1 78.0568 24.4979 14.3392 0.0000 -7.4363 0.0000
# 2 24.4979 135.4079 56.5726 0.0000 -7.4097 0.0000
# 3 14.3392 56.5726 116.2213 0.0000 -7.0303 0.0000
# 4 0.0000 0.0000 0.0000 22.2741 0.0000 -11.2725
# 5 -7.4363 -7.4097 -7.0303 0.0000 26.6717 0.0000
# 6 0.0000 0.0000 0.0000 -11.2725 0.0000 24.3695
#
#
#
# Elastic Compliance Matrix: (Units=1/GPa)
#
#
# Indices 1 2 3 4 5 6 
#
# 1 0.013870 -0.002136 -0.000481 0.000000 0.003147 0.000000
# 2 -0.002136 0.009652 -0.004378 0.000000 0.000932 0.000000
# 3 -0.000481 -0.004378 0.010887 0.000000 0.001519 0.000000
# 4 0.000000 0.000000 0.000000 0.058617 0.000000 0.027114
# 5 0.003147 0.000932 0.001519 0.000000 0.039030 0.000000
# 6 0.000000 0.000000 0.000000 0.027114 0.000000 0.053577
#
#
# Mechanical properties :
#
#
# Convention : Reuss Voigt Hill
#
# Bulk Modulus (GPa) = 48.97801 57.83395 53.40598
# Shear Modulus (GPa) = 24.22145 30.28148 27.25146
#
# Velocity S-wave (km/s) = 3.48702 3.89891 3.69871
# Velocity P-wave (km/s) = 6.38747 7.02152 6.71198
#
# Compressibility (1/GPa) = 0.02041733
#
# Stress axis : x y z
#
# Youngs Moduli (GPa) = 72.09931 103.60827 91.85524
#
# Poissons Ratio (x) = 0.22132 0.04419
# Poissons Ratio (y) = 0.15401 0.40216
# Poissons Ratio (z) = 0.03469 0.45362
#
# Static dielectric constant tensor:
#      x y z
#    x 3.864420 0.000000 -0.067040 
#    y 0.000000 4.371990 0.000000 
#    z -0.067040 0.000000 3.599350 
# 
# 
# High freq. dielectric constant tensor:
#      x y z
#    x 1.791440 0.000000 -0.011510 
#    y 0.000000 1.797970 0.000000 
#    z -0.011510 0.000000 1.761820 
# 
# From -- ./inp_files/252003.got.cif
#   From: 2010.06.25/outbox.cif.g09.slc.cpg/sg15_127_cif.got.tgz:252003.got - 2010.06.28 07:06:18.
