data_PCOD8140467
_publ_section_title
;
Structure prediction by ZEFSAII (Michael W. Deem and Ramdas Pophale) SiO2 
 PCOD8140467
Probable space group: C 2/C
;
_chemical_formula_sum "Si O2"
_cell_formula_units_Z 40
_cell_length_a 25.808336
_cell_length_b 14.804982
_cell_length_c 14.290124
_cell_angle_alpha 90.000000
_cell_angle_beta 20.182435
_cell_angle_gamma 90.000000
_cell_volume 1883.805941
_symmetry_space_group_name_H-M "C 2/C"
_symmetry_group_IT_number 15
_symmetry_cell_setting 'monoclinic'
loop_
_space_group_symop_operation_xyz
x,y,z
-x,y,1/2-z
-x,-y,-z
x,-y,1/2+z
1/2+x,1/2+y,z
1/2-x,1/2+y,1/2-z
1/2-x,1/2-y,-z
1/2+x,1/2-y,1/2+z
loop_
_atom_site_type_symbol
_atom_site_label
_atom_site_fract_x
_atom_site_fract_y
_atom_site_fract_z
Si Si1 0.636065 0.065324 0.787719
Si Si2 0.648102 0.222068 0.053647
Si Si3 0.131080 0.931226 0.764414
Si Si4 0.660775 0.974789 0.459476
Si Si5 0.035769 0.253854 0.946134
O O1 0.775367 0.040590 0.486017
O O2 0.690711 0.057435 0.802409
O O3 0.577785 0.163456 0.856510
O O4 0.500000 0.000000 0.000000
O O5 0.500000 0.256280 0.250000
O O6 0.611142 0.257211 0.218504
O O7 0.665636 0.113572 0.018212
O O8 0.813746 0.261813 0.741609
O O9 0.227633 0.946124 0.695692
O O10 0.067814 0.831660 0.855730
O O11 0.000000 0.000000 0.000000
O O12 0.500000 0.020290 0.750000
#
# Coordination Sequence:
#
# PCOD8140467 Si02
#       5
#     8   8   8   8   8
#     4  12  25  45  73  98 139 190 229 285 356 408
#     4  10  20  41  70  96 135 177 225 281 349 404
#     4  12  26  45  67 105 140 179 236 293 340 411
#     4  11  21  47  69  97 136 187 228 283 346 421
#     4  11  23  41  71 101 136 179 233 289 339 410
#
# _framework density 21.233609000000001
#
# number of rings (size 3 to 8) (size 9 to 14) (size 15 to 20)
#    0.000    0.800    8.000    0.600    2.800    2.400 
#    0.000    0.000    0.000    0.000    0.000    0.000 
#    0.000    0.000    0.000    0.000    0.000    0.000 
#
# Total GULP energy -247784.238804 kJ/mol
# GULP energy per Si atom -12389.211940 kJ/mol
# Density = 2.118528 g / cm^3
# Si number density = 21.233609 Si / 1000 Ang^3
#
#
#
# Elastic Constant Matrix: (Units=GPa)
#
#
# Indices 1 2 3 4 5 6 
#
# 1 98.4884 28.9815 64.8495 -0.0003 -16.6519 0.0002
# 2 28.9815 77.7515 53.2679 -0.0001 1.9309 0.0003
# 3 64.8495 53.2679 168.3035 0.0000 -7.3570 0.0003
# 4 -0.0003 -0.0001 0.0000 35.2312 0.0003 -4.0629
# 5 -16.6519 1.9309 -7.3570 0.0003 42.9123 -0.0003
# 6 0.0002 0.0003 0.0003 -4.0629 -0.0003 28.1520
#
#
#
# Elastic Compliance Matrix: (Units=1/GPa)
#
#
# Indices 1 2 3 4 5 6 
#
# 1 0.014833 -0.002413 -0.004731 0.000000 0.005053 0.000000
# 2 -0.002413 0.016931 -0.004537 0.000000 -0.002476 0.000000
# 3 -0.004731 -0.004537 0.009198 0.000000 -0.000055 0.000000
# 4 0.000000 0.000000 0.000000 0.028864 0.000000 0.004166
# 5 0.005053 -0.002476 -0.000055 0.000000 0.025366 0.000000
# 6 0.000000 0.000000 0.000000 0.004166 0.000000 0.036123
#
#
# Mechanical properties :
#
#
# Convention : Reuss Voigt Hill
#
# Bulk Modulus (GPa) = 56.81870 70.97125 63.89497
# Shear Modulus (GPa) = 31.14422 34.42206 32.78314
#
# Velocity S-wave (km/s) = 3.83396 4.03067 3.93355
# Velocity P-wave (km/s) = 6.81293 7.42687 7.12651
#
# Compressibility (1/GPa) = 0.01759984
#
# Stress axis : x y z
#
# Youngs Moduli (GPa) = 67.41775 59.06379 108.72018
#
# Poissons Ratio (x) = 0.14255 0.51431
# Poissons Ratio (y) = 0.16271 0.49325
# Poissons Ratio (z) = 0.31892 0.26797
#
# Static dielectric constant tensor:
#      x y z
#    x 4.099800 0.000000 -0.596080 
#    y 0.000000 3.435940 0.000000 
#    z -0.596080 0.000000 4.413870 
# 
# 
# High freq. dielectric constant tensor:
#      x y z
#    x 1.826210 0.000000 -0.018910 
#    y 0.000000 1.820080 0.000000 
#    z -0.018910 0.000000 1.852310 
# 
# From -- ./inp_files/133169.got.cif
#   From: 2010.06.25/outbox.cif.g09.slc.cpg/sg15_67_cif.got.tgz:133169.got - 2010.06.28 07:06:18.
