data_PCOD8140389
_publ_section_title
;
Structure prediction by ZEFSAII (Michael W. Deem and Ramdas Pophale) SiO2 
 PCOD8140389
Probable space group: C 2/C
;
_chemical_formula_sum "Si O2"
_cell_formula_units_Z 48
_cell_length_a 24.601509
_cell_length_b 9.104495
_cell_length_c 10.090639
_cell_angle_alpha 90.000000
_cell_angle_beta 103.255941
_cell_angle_gamma 90.000000
_cell_volume 2199.924413
_symmetry_space_group_name_H-M "C 2/C"
_symmetry_group_IT_number 15
_symmetry_cell_setting 'monoclinic'
loop_
_space_group_symop_operation_xyz
x,y,z
-x,y,1/2-z
-x,-y,-z
x,-y,1/2+z
1/2+x,1/2+y,z
1/2-x,1/2+y,1/2-z
1/2-x,1/2-y,-z
1/2+x,1/2-y,1/2+z
loop_
_atom_site_type_symbol
_atom_site_label
_atom_site_fract_x
_atom_site_fract_y
_atom_site_fract_z
Si Si1 0.829522 0.954638 0.044974
Si Si2 0.658287 0.199959 0.259157
Si Si3 0.987650 0.370958 0.390748
Si Si4 0.780661 0.856820 0.750756
Si Si5 0.130079 0.632202 0.764784
Si Si6 0.091616 0.194025 0.484773
O O1 0.837309 0.789548 0.101492
O O2 0.792639 0.046629 0.128104
O O3 0.890246 0.031980 0.056331
O O4 0.795162 0.951867 0.889075
O O5 0.716659 0.191470 0.214326
O O6 0.636052 0.040629 0.280729
O O7 0.613353 0.285298 0.145319
O O8 0.922667 0.324819 0.358564
O O9 0.000000 0.431810 0.250000
O O10 0.000000 0.500000 0.500000
O O11 0.024915 0.224750 0.442061
O O12 0.816303 0.706994 0.771183
O O13 0.121688 0.685449 0.909947
#
# Coordination Sequence:
#
# PCOD8140389 Si02
#       6
#     8   8   8   8   8   8
#     4  11  24  44  62  92 137 175 214 262 329 393
#     4  12  23  39  68  97 128 172 220 264 325 384
#     4  10  20  41  66  95 126 160 214 270 317 373
#     4  11  25  41  64  95 135 173 214 268 324 389
#     4  10  24  39  68  96 131 167 216 273 319 382
#     4  10  23  42  65  93 131 171 213 273 324 381
#
# _framework density 21.818930999999999
#
# number of rings (size 3 to 8) (size 9 to 14) (size 15 to 20)
#    0.000    1.333    3.333    1.500    4.667    1.333 
#    0.000    0.833    7.333    0.000    0.000    0.000 
#    0.000    0.000    0.000    0.000    0.000    0.000 
#
# Total GULP energy -297650.515141 kJ/mol
# GULP energy per Si atom -12402.104798 kJ/mol
# Density = 2.176927 g / cm^3
# Si number density = 21.818931 Si / 1000 Ang^3
#
#
#
# Elastic Constant Matrix: (Units=GPa)
#
#
# Indices 1 2 3 4 5 6 
#
# 1 78.1227 25.8036 -12.3833 0.0000 15.6049 0.0000
# 2 25.8036 100.3162 6.5083 0.0000 -2.0945 0.0000
# 3 -12.3833 6.5083 68.8669 0.0000 -0.5876 0.0000
# 4 0.0000 0.0000 0.0000 17.1543 0.0000 0.4478
# 5 15.6049 -2.0945 -0.5876 0.0000 25.5091 0.0000
# 6 0.0000 0.0000 0.0000 0.4478 0.0000 28.6575
#
#
#
# Elastic Compliance Matrix: (Units=1/GPa)
#
#
# Indices 1 2 3 4 5 6 
#
# 1 0.017100 -0.004847 0.003441 0.000000 -0.010779 0.000000
# 2 -0.004847 0.011420 -0.001918 0.000000 0.003858 0.000000
# 3 0.003441 -0.001918 0.015304 0.000000 -0.001910 0.000000
# 4 0.000000 0.000000 0.000000 0.058318 0.000000 -0.000911
# 5 -0.010779 0.003858 -0.001910 0.000000 0.046069 0.000000
# 6 0.000000 0.000000 0.000000 -0.000911 0.000000 0.034909
#
#
# Mechanical properties :
#
#
# Convention : Reuss Voigt Hill
#
# Bulk Modulus (GPa) = 26.89840 31.90699 29.40270
# Shear Modulus (GPa) = 24.73283 29.42264 27.07773
#
# Velocity S-wave (km/s) = 3.37047 3.67616 3.52663
# Velocity P-wave (km/s) = 5.24419 5.71613 5.48524
#
# Compressibility (1/GPa) = 0.03717693
#
# Stress axis : x y z
#
# Youngs Moduli (GPa) = 58.48013 87.56439 65.34050
#
# Poissons Ratio (x) = 0.42440 -0.22483
# Poissons Ratio (y) = 0.28344 0.12531
# Poissons Ratio (z) = -0.20122 0.16794
#
# Static dielectric constant tensor:
#      x y z
#    x 4.094580 0.000000 0.087330 
#    y 0.000000 3.908540 0.000000 
#    z 0.087330 0.000000 3.971120 
# 
# 
# High freq. dielectric constant tensor:
#      x y z
#    x 1.852470 0.000000 0.004870 
#    y 0.000000 1.850530 0.000000 
#    z 0.004870 0.000000 1.865850 
# 
# From -- ./inp_files/116464.got.cif
#   From: 2010.06.25/outbox.cif.g09.slc.cpg/sg15_59_cif.got.tgz:116464.got - 2010.06.28 07:06:18.
