data_PCOD8140223
_publ_section_title
;
Structure prediction by ZEFSAII (Michael W. Deem and Ramdas Pophale) SiO2 
 PCOD8140223
Probable space group: C 2/C
;
_chemical_formula_sum "Si O2"
_cell_formula_units_Z 56
_cell_length_a 28.369173
_cell_length_b 18.985028
_cell_length_c 9.058961
_cell_angle_alpha 90.000000
_cell_angle_beta 148.316717
_cell_angle_gamma 90.000000
_cell_volume 2562.597313
_symmetry_space_group_name_H-M "C 2/C"
_symmetry_group_IT_number 15
_symmetry_cell_setting 'monoclinic'
loop_
_space_group_symop_operation_xyz
x,y,z
-x,y,1/2-z
-x,-y,-z
x,-y,1/2+z
1/2+x,1/2+y,z
1/2-x,1/2+y,1/2-z
1/2-x,1/2-y,-z
1/2+x,1/2-y,1/2+z
loop_
_atom_site_type_symbol
_atom_site_label
_atom_site_fract_x
_atom_site_fract_y
_atom_site_fract_z
Si Si1 0.867057 0.095824 0.742554
Si Si2 0.347087 0.733131 0.197343
Si Si3 0.500000 0.172206 0.250000
Si Si4 0.000000 0.009870 0.250000
Si Si5 0.864412 0.594167 0.070955
Si Si6 0.784115 0.201474 0.724695
Si Si7 0.293205 0.995262 0.117339
Si Si8 0.152752 0.900468 0.623324
O O1 0.855810 0.147747 0.849398
O O2 0.856296 0.138840 0.559579
O O3 0.789155 0.037674 0.533614
O O4 0.964258 0.058999 0.020354
O O5 0.421909 0.783002 0.465598
O O6 0.371319 0.652728 0.308415
O O7 0.250000 0.750000 0.000000
O O8 0.339981 0.742599 0.000789
O O9 0.460814 0.126457 0.282679
O O10 0.082823 0.963822 0.416845
O O11 0.862669 0.546218 0.214291
O O12 0.796067 0.659181 0.909233
O O13 0.843633 0.542285 0.882518
O O14 0.750000 0.250000 0.500000
O O15 0.252061 0.933301 0.904822
#
# Coordination Sequence:
#
# PCOD8140223 Si02
#       8
#     8   8   4   4   8   8   8   8
#     4  10  22  36  63  96 136 174 227 284 349 415
#     4  12  24  45  71  97 139 187 236 283 343 418
#     4  12  27  44  72 104 141 190 240 280 354 420
#     4  10  23  34  58 100 145 172 224 282 354 414
#     4  11  23  45  70 103 136 174 234 289 348 416
#     4  11  24  45  71  98 134 187 234 285 345 418
#     4  10  20  40  70  95 129 178 226 283 350 402
#     4  11  20  38  65  95 130 185 227 278 348 416
#
# _framework density 21.852829
#
# number of rings (size 3 to 8) (size 9 to 14) (size 15 to 20)
#    0.000    1.143    4.286    1.714    0.000    2.857 
#    0.000    0.000    0.000    0.000    0.000    0.000 
#    0.000    0.000    0.000    0.000    0.000    0.000 
#
# Total GULP energy -347010.225715 kJ/mol
# GULP energy per Si atom -12393.222347 kJ/mol
# Density = 2.180309 g / cm^3
# Si number density = 21.852829 Si / 1000 Ang^3
#
#
#
# Elastic Constant Matrix: (Units=GPa)
#
#
# Indices 1 2 3 4 5 6 
#
# 1 94.1673 38.6186 52.5956 0.0000 -13.3570 0.0000
# 2 38.6186 93.8779 55.1204 0.0000 -1.6541 0.0000
# 3 52.5956 55.1204 119.0528 0.0000 -17.8987 0.0000
# 4 0.0000 0.0000 0.0000 30.7988 0.0000 -13.6475
# 5 -13.3570 -1.6541 -17.8987 0.0000 42.3279 0.0000
# 6 0.0000 0.0000 0.0000 -13.6475 0.0000 30.8128
#
#
#
# Elastic Compliance Matrix: (Units=1/GPa)
#
#
# Indices 1 2 3 4 5 6 
#
# 1 0.014980 -0.003381 -0.004658 0.000000 0.002625 0.000000
# 2 -0.003381 0.015634 -0.006208 0.000000 -0.003081 0.000000
# 3 -0.004658 -0.006208 0.013962 0.000000 0.004191 0.000000
# 4 0.000000 0.000000 0.000000 0.040397 0.000000 0.017893
# 5 0.002625 -0.003081 0.004191 0.000000 0.026105 0.000000
# 6 0.000000 0.000000 0.000000 0.017893 0.000000 0.040379
#
#
# Mechanical properties :
#
#
# Convention : Reuss Voigt Hill
#
# Bulk Modulus (GPa) = 62.18170 66.64079 64.41125
# Shear Modulus (GPa) = 26.98166 31.50545 29.24356
#
# Velocity S-wave (km/s) = 3.51764 3.80111 3.66212
# Velocity P-wave (km/s) = 6.70932 7.05875 6.88625
#
# Compressibility (1/GPa) = 0.01608190
#
# Stress axis : x y z
#
# Youngs Moduli (GPa) = 66.75580 63.96465 71.62524
#
# Poissons Ratio (x) = 0.21628 0.33361
# Poissons Ratio (y) = 0.22572 0.44462
# Poissons Ratio (z) = 0.31093 0.39707
#
# Static dielectric constant tensor:
#      x y z
#    x 4.127130 0.000000 -0.132340 
#    y 0.000000 4.211540 0.000000 
#    z -0.132340 0.000000 4.018250 
# 
# 
# High freq. dielectric constant tensor:
#      x y z
#    x 1.857690 0.000000 -0.016100 
#    y 0.000000 1.859350 0.000000 
#    z -0.016100 0.000000 1.850960 
# 
# From -- ./inp_files/70862.got.cif
#   From: 2010.06.25/outbox.cif.g09.slc.cpg/sg15_36_cif.got.tgz:70862.got - 2010.06.28 07:06:18.
