data_PCOD8140634
_publ_section_title
;
Structure prediction by ZEFSAII (Michael W. Deem and Ramdas Pophale) SiO2 
 PCOD8140634
Probable space group: C 2/C
;
_chemical_formula_sum "Si O2"
_cell_formula_units_Z 60
_cell_length_a 16.906355
_cell_length_b 12.080347
_cell_length_c 14.805409
_cell_angle_alpha 90.000000
_cell_angle_beta 106.804338
_cell_angle_gamma 90.000000
_cell_volume 2894.654789
_symmetry_space_group_name_H-M "C 2/C"
_symmetry_group_IT_number 15
_symmetry_cell_setting 'monoclinic'
loop_
_space_group_symop_operation_xyz
x,y,z
-x,y,1/2-z
-x,-y,-z
x,-y,1/2+z
1/2+x,1/2+y,z
1/2-x,1/2+y,1/2-z
1/2-x,1/2-y,-z
1/2+x,1/2-y,1/2+z
loop_
_atom_site_type_symbol
_atom_site_label
_atom_site_fract_x
_atom_site_fract_y
_atom_site_fract_z
Si Si1 0.872330 0.398492 0.815729
Si Si2 0.624405 0.499790 0.087969
Si Si3 0.534915 0.362198 0.428269
Si Si4 0.686623 0.649982 0.264957
Si Si5 0.000000 0.750004 0.250000
Si Si6 0.573833 0.131812 0.703010
Si Si7 0.959543 0.672792 0.510852
Si Si8 0.672955 0.327401 0.963602
O O1 0.784651 0.334876 0.783292
O O2 0.934795 0.324512 0.780127
O O3 0.870259 0.520841 0.768923
O O4 0.900457 0.406245 0.930896
O O5 0.536669 0.453562 0.090044
O O6 0.664477 0.548860 0.191347
O O7 0.614118 0.595119 0.008869
O O8 0.678076 0.408159 0.052446
O O9 0.553565 0.333368 0.330624
O O10 0.510142 0.245189 0.458613
O O11 0.634460 0.761303 0.224659
O O12 0.670990 0.613659 0.364439
O O13 0.500000 0.142337 0.750000
O O14 0.526978 0.109786 0.592834
O O15 0.908498 0.752333 0.561032
O O16 0.750000 0.250000 0.000000
#
# Coordination Sequence:
#
# PCOD8140634 Si02
#       8
#     8   8   8   8   4   8   8   8
#     4  11  25  44  67  98 137 184 231 287 353 411
#     4  10  23  41  63 100 134 172 227 282 348 409
#     4   9  20  39  65  92 130 169 222 283 337 414
#     4  12  26  43  71 102 141 181 235 292 350 414
#     4  10  22  42  66  90 132 184 226 274 358 410
#     4  12  24  42  72 101 135 181 240 282 342 427
#     4  10  20  42  67  94 131 179 227 284 339 417
#     4  11  23  42  67 101 142 182 226 286 354 416
#
# _framework density 20.727861000000001
#
# number of rings (size 3 to 8) (size 9 to 14) (size 15 to 20)
#    0.000    1.333    4.667    0.400    3.733    0.000 
#    0.000    0.667    0.000    0.000    0.000    0.000 
#    0.000    0.000    0.000    0.000    0.000    0.000 
#
# Total GULP energy -371670.192884 kJ/mol
# GULP energy per Si atom -12389.006429 kJ/mol
# Density = 2.068068 g / cm^3
# Si number density = 20.727861 Si / 1000 Ang^3
#
#
#
# Elastic Constant Matrix: (Units=GPa)
#
#
# Indices 1 2 3 4 5 6 
#
# 1 96.2235 37.9154 45.9976 0.0000 -6.2532 0.0000
# 2 37.9154 94.3493 40.3149 0.0000 -2.3153 0.0000
# 3 45.9976 40.3149 124.5514 0.0000 3.2064 0.0000
# 4 0.0000 0.0000 0.0000 17.5494 0.0000 29.1683
# 5 -6.2532 -2.3153 3.2064 0.0000 24.6350 0.0000
# 6 0.0000 0.0000 0.0000 29.1683 0.0000 -5.7880
#
#
#
# Elastic Compliance Matrix: (Units=1/GPa)
#
#
# Indices 1 2 3 4 5 6 
#
# 1 0.014086 -0.003835 -0.004057 0.000000 0.003743 0.000000
# 2 -0.003835 0.013414 -0.002943 0.000000 0.000670 0.000000
# 3 -0.004057 -0.002943 0.010549 0.000000 -0.002679 0.000000
# 4 0.000000 0.000000 0.000000 0.006077 0.000000 0.030627
# 5 0.003743 0.000670 -0.002679 0.000000 0.041955 0.000000
# 6 0.000000 0.000000 0.000000 0.030627 0.000000 -0.018427
#
#
# Mechanical properties :
#
#
# Convention : Reuss Voigt Hill
#
# Bulk Modulus (GPa) = 61.05492 62.61999 61.83745
# Shear Modulus (GPa) = 52.75154 20.00569 36.37861
#
# Velocity S-wave (km/s) = 5.05023 3.11007 4.19389
# Velocity P-wave (km/s) = 7.97031 6.57061 7.30406
#
# Compressibility (1/GPa) = 0.01637870
#
# Stress axis : x y z
#
# Youngs Moduli (GPa) = 70.99033 74.54875 94.79917
#
# Poissons Ratio (x) = 0.28592 0.38461
# Poissons Ratio (y) = 0.27227 0.27897
# Poissons Ratio (z) = 0.28802 0.21937
#
# Static dielectric constant tensor:
#      x y z
#    x 3.589360 0.000000 -0.092690 
#    y 0.000000 3.724030 0.000000 
#    z -0.092690 0.000000 4.749410 
# 
# 
# High freq. dielectric constant tensor:
#      x y z
#    x 1.795010 0.000000 -0.005300 
#    y 0.000000 1.806100 0.000000 
#    z -0.005300 0.000000 1.829010 
# 
# From -- ./inp_files/161368.got.cif
#   From: 2010.06.25/outbox.cif.g09.slc.cpg/sg15_81_cif.got.tgz:161368.got - 2010.06.28 07:06:18.
