data_PCOD8140209
_publ_section_title
;
Structure prediction by ZEFSAII (Michael W. Deem and Ramdas Pophale) SiO2 
 PCOD8140209
Probable space group: C 2/C
;
_chemical_formula_sum "Si O2"
_cell_formula_units_Z 56
_cell_length_a 16.745845
_cell_length_b 14.128796
_cell_length_c 19.401408
_cell_angle_alpha 90.000000
_cell_angle_beta 148.358962
_cell_angle_gamma 90.000000
_cell_volume 2408.076589
_symmetry_space_group_name_H-M "C 2/C"
_symmetry_group_IT_number 15
_symmetry_cell_setting 'monoclinic'
loop_
_space_group_symop_operation_xyz
x,y,z
-x,y,1/2-z
-x,-y,-z
x,-y,1/2+z
1/2+x,1/2+y,z
1/2-x,1/2+y,1/2-z
1/2-x,1/2-y,-z
1/2+x,1/2-y,1/2+z
loop_
_atom_site_type_symbol
_atom_site_label
_atom_site_fract_x
_atom_site_fract_y
_atom_site_fract_z
Si Si1 0.325733 0.661687 0.969015
Si Si2 0.654068 0.852540 0.756903
Si Si3 0.638873 0.546522 0.803082
Si Si4 0.408315 0.458823 0.868567
Si Si5 0.670738 0.780880 0.013029
Si Si6 0.296959 0.869533 0.968928
Si Si7 0.570422 0.048028 0.732139
O O1 0.499749 0.629581 0.095624
O O2 0.263836 0.645590 0.999514
O O3 0.309758 0.771547 0.936640
O O4 0.235344 0.597663 0.846120
O O5 0.741820 0.914156 0.762779
O O6 0.514712 0.784481 0.629103
O O7 0.778360 0.793752 0.891313
O O8 0.578979 0.934747 0.747953
O O9 0.500000 0.578217 0.750000
O O10 0.600436 0.546032 0.693219
O O11 0.776667 0.615608 0.923828
O O12 0.680524 0.437390 0.845203
O O13 0.500000 0.500000 0.000000
O O14 0.750000 0.750000 0.000000
O O15 0.463023 0.919398 0.090569
O O16 0.500000 0.090545 0.750000
#
# Coordination Sequence:
#
# PCOD8140209 Si02
#       7
#     8   8   8   8   8   8   8
#     4  10  22  41  70 105 144 190 242 302 374 460
#     4  12  27  48  72 111 154 203 254 322 403 458
#     4  12  26  47  78 108 148 196 259 326 389 466
#     4  12  28  47  73 108 159 204 247 317 404 471
#     4  12  28  50  82 114 148 205 275 330 388 470
#     4  10  22  41  72 105 138 185 251 310 362 445
#     4  10  20  40  70 101 140 186 241 307 372 451
#
# _framework density 23.255074
#
# number of rings (size 3 to 8) (size 9 to 14) (size 15 to 20)
#    0.000    0.857    4.286    2.143    8.000    2.286 
#    2.571    0.000    0.000    0.000    0.000    0.000 
#    0.000    0.000    0.000    0.000    0.000    0.000 
#
# Total GULP energy -347087.598830 kJ/mol
# GULP energy per Si atom -12395.985673 kJ/mol
# Density = 2.320214 g / cm^3
# Si number density = 23.255074 Si / 1000 Ang^3
#
#
#
# Elastic Constant Matrix: (Units=GPa)
#
#
# Indices 1 2 3 4 5 6 
#
# 1 82.1557 10.5365 37.1649 -0.0005 8.7084 0.0003
# 2 10.5365 125.5454 44.7186 0.0077 -6.3527 0.0013
# 3 37.1649 44.7186 133.9802 0.0127 4.9468 -0.0004
# 4 -0.0005 0.0077 0.0127 58.0680 0.0043 2.7229
# 5 8.7084 -6.3527 4.9468 0.0043 36.6804 -0.0003
# 6 0.0003 0.0013 -0.0004 2.7229 -0.0003 15.1852
#
#
#
# Elastic Compliance Matrix: (Units=1/GPa)
#
#
# Indices 1 2 3 4 5 6 
#
# 1 0.014210 0.000034 -0.003848 0.000001 -0.002849 -0.000001
# 2 0.000034 0.009186 -0.003149 -0.000001 0.002008 -0.000001
# 3 -0.003848 -0.003149 0.009617 -0.000002 -0.000929 0.000001
# 4 0.000001 -0.000001 -0.000002 0.017367 -0.000002 -0.003114
# 5 -0.002849 0.002008 -0.000929 -0.000002 0.028412 0.000001
# 6 -0.000001 -0.000001 0.000001 -0.003114 0.000001 0.066412
#
#
# Mechanical properties :
#
#
# Convention : Reuss Voigt Hill
#
# Bulk Modulus (GPa) = 52.39520 58.50237 55.44879
# Shear Modulus (GPa) = 30.21277 38.60412 34.40844
#
# Velocity S-wave (km/s) = 3.60834 4.07877 3.85074
# Velocity P-wave (km/s) = 6.31979 6.88427 6.60806
#
# Compressibility (1/GPa) = 0.01908572
#
# Stress axis : x y z
#
# Youngs Moduli (GPa) = 70.37124 108.86345 103.98622
#
# Poissons Ratio (x) = -0.00368 0.40013
# Poissons Ratio (y) = -0.00238 0.32750
# Poissons Ratio (z) = 0.27078 0.34286
#
# Static dielectric constant tensor:
#      x y z
#    x 4.019320 0.000000 0.152620 
#    y 0.000000 4.340210 -0.000010 
#    z 0.152620 -0.000010 4.435940 
# 
# 
# High freq. dielectric constant tensor:
#      x y z
#    x 1.897900 0.000000 0.011070 
#    y 0.000000 1.926370 0.000000 
#    z 0.011070 0.000000 1.929050 
# 
# From -- ./inp_files/249289.got.cif
#   From: 2010.06.25/outbox.cif.g09.slc.cpg/sg15_125_cif.got.tgz:249289.got - 2010.06.28 07:06:18.
