data_PCOD8140276
_publ_section_title
;
Structure prediction by ZEFSAII (Michael W. Deem and Ramdas Pophale) SiO2 
 PCOD8140276
Probable space group: C 2/C
;
_chemical_formula_sum "Si O2"
_cell_formula_units_Z 40
_cell_length_a 10.918658
_cell_length_b 17.374962
_cell_length_c 14.163835
_cell_angle_alpha 90.000000
_cell_angle_beta 135.036724
_cell_angle_gamma 90.000000
_cell_volume 1898.805346
_symmetry_space_group_name_H-M "C 2/C"
_symmetry_group_IT_number 15
_symmetry_cell_setting 'monoclinic'
loop_
_space_group_symop_operation_xyz
x,y,z
-x,y,1/2-z
-x,-y,-z
x,-y,1/2+z
1/2+x,1/2+y,z
1/2-x,1/2+y,1/2-z
1/2-x,1/2-y,-z
1/2+x,1/2-y,1/2+z
loop_
_atom_site_type_symbol
_atom_site_label
_atom_site_fract_x
_atom_site_fract_y
_atom_site_fract_z
Si Si1 0.231689 0.166280 0.805837
Si Si2 0.279717 0.656173 0.304621
Si Si3 0.408660 0.436816 0.606718
Si Si4 0.570532 0.914467 0.525634
Si Si5 0.389093 0.606445 0.556642
O O1 0.245265 0.253819 0.780664
O O2 0.180810 0.145358 0.885726
O O3 0.092239 0.128703 0.658364
O O4 0.421733 0.133709 0.894273
O O5 0.472481 0.628176 0.377611
O O6 0.130705 0.615052 0.161744
O O7 0.265302 0.638334 0.407380
O O8 0.500000 0.469091 0.750000
O O9 0.224343 0.401824 0.534760
O O10 0.376592 0.514949 0.532074
O O11 0.500000 0.000000 0.500000
#
# Coordination Sequence:
#
# PCOD8140276 Si02
#       5
#     8   8   8   8   8
#     4  11  22  40  64  92 131 168 208 275 334 374
#     4  11  24  37  64  97 123 166 220 268 330 390
#     4  10  20  41  62  86 126 175 207 268 329 385
#     4  11  22  43  66  90 129 177 220 268 325 397
#     4  11  21  42  63  88 134 169 212 268 332 388
#
# _framework density 21.065877
#
# number of rings (size 3 to 8) (size 9 to 14) (size 15 to 20)
#    0.000    1.200    4.000    3.600    0.000    3.200 
#    0.000    5.000    0.000    0.000    0.000    0.000 
#    0.000    0.000    0.000    0.000    0.000    0.000 
#
# Total GULP energy -247837.021148 kJ/mol
# GULP energy per Si atom -12391.851057 kJ/mol
# Density = 2.101793 g / cm^3
# Si number density = 21.065877 Si / 1000 Ang^3
#
#
#
# Elastic Constant Matrix: (Units=GPa)
#
#
# Indices 1 2 3 4 5 6 
#
# 1 55.4826 42.4158 11.9034 0.0000 15.8277 0.0000
# 2 42.4158 123.8417 67.4706 -0.0002 3.7503 -0.0003
# 3 11.9034 67.4706 98.5039 -0.0003 9.1064 -0.0003
# 4 0.0000 -0.0002 -0.0003 24.9245 -0.0001 -1.0134
# 5 15.8277 3.7503 9.1064 -0.0001 36.6796 -0.0002
# 6 0.0000 -0.0003 -0.0003 -1.0134 -0.0002 33.8495
#
#
#
# Elastic Compliance Matrix: (Units=1/GPa)
#
#
# Indices 1 2 3 4 5 6 
#
# 1 0.031330 -0.014272 0.007272 0.000000 -0.013865 0.000000
# 2 -0.014272 0.019413 -0.012239 0.000000 0.007212 0.000000
# 3 0.007272 -0.012239 0.018249 0.000000 -0.006417 0.000000
# 4 0.000000 0.000000 0.000000 0.040170 0.000000 0.001203
# 5 -0.013865 0.007212 -0.006417 0.000000 0.034102 0.000000
# 6 0.000000 0.000000 0.000000 0.001203 0.000000 0.029579
#
#
# Mechanical properties :
#
#
# Convention : Reuss Voigt Hill
#
# Bulk Modulus (GPa) = 32.77267 57.93419 45.35343
# Shear Modulus (GPa) = 22.57413 29.49328 26.03371
#
# Velocity S-wave (km/s) = 3.27708 3.74578 3.51924
# Velocity P-wave (km/s) = 5.46900 6.80213 6.17167
#
# Compressibility (1/GPa) = 0.03051323
#
# Stress axis : x y z
#
# Youngs Moduli (GPa) = 31.91818 51.51305 54.79636
#
# Poissons Ratio (x) = 0.73522 -0.39847
# Poissons Ratio (y) = 0.45555 0.67064
# Poissons Ratio (z) = -0.23210 0.63046
#
# Static dielectric constant tensor:
#      x y z
#    x 3.714740 0.000000 0.071550 
#    y 0.000000 3.382530 0.000000 
#    z 0.071550 0.000000 3.809640 
# 
# 
# High freq. dielectric constant tensor:
#      x y z
#    x 1.811000 0.000000 0.012210 
#    y 0.000000 1.830150 0.000000 
#    z 0.012210 0.000000 1.838900 
# 
# From -- ./inp_files/199358.got.cif
#   From: 2010.06.25/outbox.cif.g09.slc.cpg/sg15_100_cif.got.tgz:199358.got - 2010.06.28 07:06:18.
