data_PCOD8140371
_publ_section_title
;
Structure prediction by ZEFSAII (Michael W. Deem and Ramdas Pophale) SiO2 
 PCOD8140371
Probable space group: C 2/C
;
_chemical_formula_sum "Si O2"
_cell_formula_units_Z 48
_cell_length_a 8.859535
_cell_length_b 28.144712
_cell_length_c 16.740341
_cell_angle_alpha 90.000000
_cell_angle_beta 148.320712
_cell_angle_gamma 90.000000
_cell_volume 2192.133658
_symmetry_space_group_name_H-M "C 2/C"
_symmetry_group_IT_number 15
_symmetry_cell_setting 'monoclinic'
loop_
_space_group_symop_operation_xyz
x,y,z
-x,y,1/2-z
-x,-y,-z
x,-y,1/2+z
1/2+x,1/2+y,z
1/2-x,1/2+y,1/2-z
1/2-x,1/2-y,-z
1/2+x,1/2-y,1/2+z
loop_
_atom_site_type_symbol
_atom_site_label
_atom_site_fract_x
_atom_site_fract_y
_atom_site_fract_z
Si Si1 0.291892 0.270734 0.430329
Si Si2 0.217236 0.693117 0.574206
Si Si3 0.116678 0.536587 0.724528
Si Si4 0.218988 0.843545 0.575629
Si Si5 0.264414 0.053745 0.035278
Si Si6 0.657352 0.906224 0.091923
O O1 0.250000 0.250000 0.500000
O O2 0.499330 0.236523 0.472995
O O3 0.443942 0.322677 0.499973
O O4 0.000000 0.274789 0.250000
O O5 0.500000 0.709010 0.750000
O O6 0.294532 0.677300 0.519667
O O7 0.060685 0.648877 0.549071
O O8 0.014261 0.565821 0.600811
O O9 0.000000 0.564942 0.750000
O O10 0.969827 0.485132 0.665907
O O11 0.458307 0.529634 0.878538
O O12 0.500000 0.826743 0.750000
O O13 0.210531 0.900986 0.568637
O O14 0.433577 0.068906 0.031221
O O15 0.000000 0.906045 0.250000
#
# Coordination Sequence:
#
# PCOD8140371 Si02
#       6
#     8   8   8   8   8   8
#     4  12  25  40  62  96 127 155 198 261 318 361
#     4  10  20  41  66  89 120 166 208 242 301 383
#     4  11  21  36  57  87 120 157 204 258 306 359
#     4  11  23  42  65  88 120 167 210 248 302 378
#     4  10  22  39  60  85 119 161 207 251 305 367
#     4   8  18  36  60  85 116 160 206 248 301 368
#
# _framework density 21.896474999999999
#
# number of rings (size 3 to 8) (size 9 to 14) (size 15 to 20)
#    0.000    1.667    0.000    5.500    0.000    2.000 
#    0.000    3.333    0.000    0.000    0.000    0.000 
#    0.000    0.000    0.000    0.000    0.000    0.000 
#
# Total GULP energy -297544.793636 kJ/mol
# GULP energy per Si atom -12397.699735 kJ/mol
# Density = 2.184664 g / cm^3
# Si number density = 21.896475 Si / 1000 Ang^3
#
#
#
# Elastic Constant Matrix: (Units=GPa)
#
#
# Indices 1 2 3 4 5 6 
#
# 1 100.7308 49.0165 27.0871 0.0000 -9.6951 0.0000
# 2 49.0165 129.8681 43.3854 0.0000 9.3003 0.0000
# 3 27.0871 43.3854 140.4809 -0.0002 -2.5526 0.0000
# 4 0.0000 0.0000 -0.0002 25.0511 -0.0001 6.1617
# 5 -9.6951 9.3003 -2.5526 -0.0001 32.0070 0.0000
# 6 0.0000 0.0000 0.0000 6.1617 0.0000 28.4116
#
#
#
# Elastic Compliance Matrix: (Units=1/GPa)
#
#
# Indices 1 2 3 4 5 6 
#
# 1 0.013139 -0.005052 -0.000876 0.000000 0.005378 0.000000
# 2 -0.005052 0.010770 -0.002440 0.000000 -0.004854 0.000000
# 3 -0.000876 -0.002440 0.008061 0.000000 0.001087 0.000000
# 4 0.000000 0.000000 0.000000 0.042168 0.000000 -0.009145
# 5 0.005378 -0.004854 0.001087 0.000000 0.034369 0.000000
# 6 0.000000 0.000000 0.000000 -0.009145 0.000000 0.037180
#
#
# Mechanical properties :
#
#
# Convention : Reuss Voigt Hill
#
# Bulk Modulus (GPa) = 65.64184 67.78419 66.71301
# Shear Modulus (GPa) = 29.85099 33.86665 31.85882
#
# Velocity S-wave (km/s) = 3.69627 3.93704 3.81855
# Velocity P-wave (km/s) = 6.94693 7.18964 7.06933
#
# Compressibility (1/GPa) = 0.01523419
#
# Stress axis : x y z
#
# Youngs Moduli (GPa) = 76.11150 92.85423 124.06046
#
# Poissons Ratio (x) = 0.46906 0.10862
# Poissons Ratio (y) = 0.38448 0.30273
# Poissons Ratio (z) = 0.06664 0.22658
#
# Static dielectric constant tensor:
#      x y z
#    x 4.149620 0.000000 -0.283210 
#    y 0.000000 4.204810 0.000000 
#    z -0.283210 0.000000 3.847980 
# 
# 
# High freq. dielectric constant tensor:
#      x y z
#    x 1.859090 0.000000 -0.021910 
#    y 0.000000 1.868370 0.000000 
#    z -0.021910 0.000000 1.853020 
# 
# From -- ./inp_files/194343.got.cif
#   From: 2010.06.25/outbox.cif.g09.slc.cpg/sg15_98_cif.got.tgz:194343.got - 2010.06.28 07:06:18.
