data_PCOD8140585
_publ_section_title
;
Structure prediction by ZEFSAII (Michael W. Deem and Ramdas Pophale) SiO2 
 PCOD8140585
Probable space group: C 2/C
;
_chemical_formula_sum "Si O2"
_cell_formula_units_Z 56
_cell_length_a 17.552963
_cell_length_b 12.426821
_cell_length_c 14.526145
_cell_angle_alpha 90.000000
_cell_angle_beta 59.937361
_cell_angle_gamma 90.000000
_cell_volume 2742.312967
_symmetry_space_group_name_H-M "C 2/C"
_symmetry_group_IT_number 15
_symmetry_cell_setting 'monoclinic'
loop_
_space_group_symop_operation_xyz
x,y,z
-x,y,1/2-z
-x,-y,-z
x,-y,1/2+z
1/2+x,1/2+y,z
1/2-x,1/2+y,1/2-z
1/2-x,1/2-y,-z
1/2+x,1/2-y,1/2+z
loop_
_atom_site_type_symbol
_atom_site_label
_atom_site_fract_x
_atom_site_fract_y
_atom_site_fract_z
Si Si1 0.687315 0.148997 0.537227
Si Si2 0.224817 0.551571 0.882751
Si Si3 0.505279 0.780410 0.394602
Si Si4 0.410161 0.767379 0.970202
Si Si5 0.000000 0.884957 0.750000
Si Si6 0.132407 0.455803 0.252260
Si Si7 0.500000 0.882221 0.750000
Si Si8 0.593107 0.413085 0.157826
O O1 0.750000 0.250000 0.500000
O O2 0.596482 0.196281 0.555556
O O3 0.684601 0.111123 0.644447
O O4 0.717343 0.050200 0.454994
O O5 0.198275 0.513627 0.795898
O O6 0.325949 0.593283 0.818876
O O7 0.167688 0.652826 0.952823
O O8 0.525871 0.740509 0.484149
O O9 0.542398 0.690054 0.302520
O O10 0.552546 0.891850 0.345877
O O11 0.470322 0.815450 0.854988
O O12 0.375620 0.651352 0.952843
O O13 0.925896 0.959102 0.845424
O O14 0.087308 0.555267 0.228857
O O15 0.500000 0.361513 0.250000
#
# Coordination Sequence:
#
# PCOD8140585 Si02
#       8
#     8   8   8   8   4   8   4   8
#     4  12  23  40  64  99 133 170 221 270 319 398
#     4  11  24  43  64 100 126 171 218 274 325 381
#     4  11  21  41  66  94 125 174 212 266 333 390
#     4  11  23  40  71  94 126 168 223 270 328 391
#     4  10  20  42  66  84 140 170 210 268 324 402
#     4  11  22  40  67  94 131 164 212 271 330 380
#     4  12  18  42  66  94 130 164 202 280 326 372
#     4  10  24  44  62  87 132 170 213 265 322 395
#
# _framework density 20.420718000000001
#
# number of rings (size 3 to 8) (size 9 to 14) (size 15 to 20)
#    0.429    0.571    5.000    2.143    0.000    4.000 
#    5.143    0.000    0.000    0.000    0.000    0.000 
#    0.000    0.000    0.000    0.000    0.000    0.000 
#
# Total GULP energy -346985.150419 kJ/mol
# GULP energy per Si atom -12392.326801 kJ/mol
# Density = 2.037424 g / cm^3
# Si number density = 20.420718 Si / 1000 Ang^3
#
#
#
# Elastic Constant Matrix: (Units=GPa)
#
#
# Indices 1 2 3 4 5 6 
#
# 1 152.7195 48.9418 69.0859 0.0000 18.4336 0.0000
# 2 48.9418 91.2001 33.8279 0.0000 11.7686 0.0000
# 3 69.0859 33.8279 89.3982 0.0000 19.0474 0.0000
# 4 0.0000 0.0000 0.0000 10.0285 0.0000 -4.6304
# 5 18.4336 11.7686 19.0474 0.0000 40.2179 0.0000
# 6 0.0000 0.0000 0.0000 -4.6304 0.0000 15.9998
#
#
#
# Elastic Compliance Matrix: (Units=1/GPa)
#
#
# Indices 1 2 3 4 5 6 
#
# 1 0.010806 -0.003101 -0.007024 0.000000 -0.000719 0.000000
# 2 -0.003101 0.013739 -0.002501 0.000000 -0.001415 0.000000
# 3 -0.007024 -0.002501 0.018595 0.000000 -0.004855 0.000000
# 4 0.000000 0.000000 0.000000 0.115095 0.000000 0.033308
# 5 -0.000719 -0.001415 -0.004855 0.000000 0.027907 0.000000
# 6 0.000000 0.000000 0.000000 0.033308 0.000000 0.072140
#
#
# Mechanical properties :
#
#
# Convention : Reuss Voigt Hill
#
# Bulk Modulus (GPa) = 55.90412 70.78100 63.34256
# Shear Modulus (GPa) = 17.27129 25.34672 21.30901
#
# Velocity S-wave (km/s) = 2.91137 3.52693 3.23383
# Velocity P-wave (km/s) = 6.22391 7.16395 6.71041
#
# Compressibility (1/GPa) = 0.01788777
#
# Stress axis : x y z
#
# Youngs Moduli (GPa) = 92.54126 72.78449 53.77748
#
# Poissons Ratio (x) = 0.22569 0.37775
# Poissons Ratio (y) = 0.28695 0.13451
# Poissons Ratio (z) = 0.65004 0.18205
#
# Static dielectric constant tensor:
#      x y z
#    x 3.951910 0.000000 0.161900 
#    y 0.000000 3.963380 0.000000 
#    z 0.161900 0.000000 3.598210 
# 
# 
# High freq. dielectric constant tensor:
#      x y z
#    x 1.803040 0.000000 0.005520 
#    y 0.000000 1.806670 0.000000 
#    z 0.005520 0.000000 1.790720 
# 
# From -- ./inp_files/161264.got.cif
#   From: 2010.06.25/outbox.cif.g09.slc.cpg/sg15_81_cif.got.tgz:161264.got - 2010.06.28 07:06:18.
