data_PCOD8140067
_publ_section_title
;
Structure prediction by ZEFSAII (Michael W. Deem and Ramdas Pophale) SiO2 
 PCOD8140067
Probable space group: C 2/C
;
_chemical_formula_sum "Si O2"
_cell_formula_units_Z 52
_cell_length_a 14.076096
_cell_length_b 14.745833
_cell_length_c 17.451370
_cell_angle_alpha 90.000000
_cell_angle_beta 137.161721
_cell_angle_gamma 90.000000
_cell_volume 2462.896297
_symmetry_space_group_name_H-M "C 2/C"
_symmetry_group_IT_number 15
_symmetry_cell_setting 'monoclinic'
loop_
_space_group_symop_operation_xyz
x,y,z
-x,y,1/2-z
-x,-y,-z
x,-y,1/2+z
1/2+x,1/2+y,z
1/2-x,1/2+y,1/2-z
1/2-x,1/2-y,-z
1/2+x,1/2-y,1/2+z
loop_
_atom_site_type_symbol
_atom_site_label
_atom_site_fract_x
_atom_site_fract_y
_atom_site_fract_z
Si Si1 0.322621 0.582799 0.578939
Si Si2 0.747450 0.648050 0.668316
Si Si3 0.864013 0.962958 0.875637
Si Si4 0.000000 0.746768 0.750000
Si Si5 0.117165 0.828238 0.242540
Si Si6 0.592034 0.611827 0.421144
Si Si7 0.851148 0.643483 0.153906
O O1 0.303809 0.593626 0.659963
O O2 0.465107 0.630940 0.634270
O O3 0.321817 0.476064 0.556058
O O4 0.193779 0.633721 0.461273
O O5 0.741318 0.546652 0.701481
O O6 0.903778 0.681685 0.744957
O O7 0.684775 0.705459 0.702472
O O8 0.658450 0.653338 0.537772
O O9 0.778115 0.891998 0.873646
O O10 0.928000 0.915176 0.837718
O O11 0.000000 0.000000 0.000000
O O12 0.902708 0.809779 0.639283
O O13 0.117732 0.745174 0.301817
O O14 0.000000 0.590167 0.250000
#
# Coordination Sequence:
#
# PCOD8140067 Si02
#       7
#     8   8   8   4   8   8   8
#     4  11  21  43  67  98 133 176 226 264 335 415
#     4  11  23  42  64  97 128 172 217 273 339 388
#     4  10  20  40  66  88 125 183 222 256 332 420
#     4  12  26  40  68 102 132 162 226 294 330 386
#     4  11  23  38  67 102 132 170 222 281 325 406
#     4  11  22  45  71  87 127 182 225 265 324 418
#     4  12  23  38  65 101 133 172 218 283 340 387
#
# _framework density 21.113354000000001
#
# number of rings (size 3 to 8) (size 9 to 14) (size 15 to 20)
#    0.000    0.923    6.154    3.692    1.077    0.000 
#    0.000    0.000    0.000    1.846    0.000    0.000 
#    0.000    0.000    0.000    0.000    0.000    0.000 
#
# Total GULP energy -322089.436068 kJ/mol
# GULP energy per Si atom -12388.055233 kJ/mol
# Density = 2.106530 g / cm^3
# Si number density = 21.113354 Si / 1000 Ang^3
#
#
#
# Elastic Constant Matrix: (Units=GPa)
#
#
# Indices 1 2 3 4 5 6 
#
# 1 104.0716 30.8928 41.5862 0.0000 -5.6357 0.0000
# 2 30.8928 77.2391 34.7104 0.0000 3.8411 0.0000
# 3 41.5862 34.7104 131.6718 0.0000 -8.7185 0.0000
# 4 0.0000 0.0000 0.0000 25.4339 0.0000 -2.6942
# 5 -5.6357 3.8411 -8.7185 0.0000 31.6515 0.0000
# 6 0.0000 0.0000 0.0000 -2.6942 0.0000 27.3603
#
#
#
# Elastic Compliance Matrix: (Units=1/GPa)
#
#
# Indices 1 2 3 4 5 6 
#
# 1 0.011850 -0.003632 -0.002665 0.000000 0.001817 0.000000
# 2 -0.003632 0.016067 -0.003321 0.000000 -0.003511 0.000000
# 3 -0.002665 -0.003321 0.009480 0.000000 0.002540 0.000000
# 4 0.000000 0.000000 0.000000 0.039732 0.000000 0.003912
# 5 0.001817 -0.003511 0.002540 0.000000 0.033043 0.000000
# 6 0.000000 0.000000 0.000000 0.003912 0.000000 0.036935
#
#
# Mechanical properties :
#
#
# Convention : Reuss Voigt Hill
#
# Bulk Modulus (GPa) = 55.06366 58.59571 56.82968
# Shear Modulus (GPa) = 29.00301 30.60867 29.80584
#
# Velocity S-wave (km/s) = 3.71034 3.81166 3.76134
# Velocity P-wave (km/s) = 6.67024 6.86912 6.77041
#
# Compressibility (1/GPa) = 0.01816080
#
# Stress axis : x y z
#
# Youngs Moduli (GPa) = 84.38628 62.24123 105.48757
#
# Poissons Ratio (x) = 0.22609 0.28111
# Poissons Ratio (y) = 0.30653 0.35028
# Poissons Ratio (z) = 0.22487 0.20668
#
# Static dielectric constant tensor:
#      x y z
#    x 4.385540 0.000000 0.000950 
#    y 0.000000 3.990580 0.000000 
#    z 0.000950 0.000000 4.004160 
# 
# 
# High freq. dielectric constant tensor:
#      x y z
#    x 1.823820 0.000000 -0.015160 
#    y 0.000000 1.823050 0.000000 
#    z -0.015160 0.000000 1.813800 
# 
# From -- ./inp_files/205765.got.cif
#   From: 2010.06.25/outbox.cif.g09.slc.cpg/sg15_103_cif.got.tgz:205765.got - 2010.06.28 07:06:18.
