data_PCOD8140757
_publ_section_title
;
Structure prediction by ZEFSAII (Michael W. Deem and Ramdas Pophale) SiO2 
 PCOD8140757
Probable space group: C 2/C
;
_chemical_formula_sum "Si O2"
_cell_formula_units_Z 48
_cell_length_a 9.082379
_cell_length_b 21.373986
_cell_length_c 12.722946
_cell_angle_alpha 90.000000
_cell_angle_beta 110.381769
_cell_angle_gamma 90.000000
_cell_volume 2315.231720
_symmetry_space_group_name_H-M "C 2/C"
_symmetry_group_IT_number 15
_symmetry_cell_setting 'monoclinic'
loop_
_space_group_symop_operation_xyz
x,y,z
-x,y,1/2-z
-x,-y,-z
x,-y,1/2+z
1/2+x,1/2+y,z
1/2-x,1/2+y,1/2-z
1/2-x,1/2-y,-z
1/2+x,1/2-y,1/2+z
loop_
_atom_site_type_symbol
_atom_site_label
_atom_site_fract_x
_atom_site_fract_y
_atom_site_fract_z
Si Si1 0.664906 0.345628 0.745605
Si Si2 0.785962 0.576162 0.456918
Si Si3 0.158469 0.948776 0.349921
Si Si4 0.139753 0.242270 0.071426
Si Si5 0.561929 0.128359 0.648062
Si Si6 0.979406 0.886363 0.981145
O O1 0.500000 0.320385 0.750000
O O2 0.779591 0.370568 0.864348
O O3 0.737191 0.287048 0.696399
O O4 0.619886 0.401382 0.650942
O O5 0.763895 0.509461 0.396990
O O6 0.653450 0.586017 0.513181
O O7 0.952302 0.580446 0.555928
O O8 0.262355 0.900191 0.307469
O O9 0.114237 0.917035 0.448042
O O10 0.000000 0.966608 0.250000
O O11 0.057369 0.306181 0.084996
O O12 0.250000 0.250000 0.000000
O O13 0.010223 0.189707 0.005341
O O14 0.500000 0.137830 0.750000
#
# Coordination Sequence:
#
# PCOD8140757 Si02
#       6
#     8   8   8   8   8   8
#     4   8  17  37  62  89 122 172 218 256 319 393
#     4  11  23  42  68 100 129 178 225 270 334 393
#     4  12  24  44  68  96 137 177 223 271 332 404
#     4  10  20  43  65  93 139 169 222 270 328 394
#     4  12  26  43  65 103 137 171 218 290 331 384
#     4   9  20  40  67  95 127 178 223 266 322 397
#
# _framework density 20.732265000000002
#
# number of rings (size 3 to 8) (size 9 to 14) (size 15 to 20)
#    1.000    0.667    1.667    4.000    0.000    2.000 
#    3.000    3.333    0.000    0.000    0.000    0.000 
#    0.000    0.000    0.000    0.000    0.000    0.000 
#
# Total GULP energy -297362.691683 kJ/mol
# GULP energy per Si atom -12390.112153 kJ/mol
# Density = 2.068508 g / cm^3
# Si number density = 20.732265 Si / 1000 Ang^3
#
#
#
# Elastic Constant Matrix: (Units=GPa)
#
#
# Indices 1 2 3 4 5 6 
#
# 1 75.2622 23.9695 47.6304 0.0000 -16.6224 0.0000
# 2 23.9695 96.0986 28.3908 0.0000 -6.7633 0.0000
# 3 47.6304 28.3908 108.4101 0.0000 -20.4529 0.0000
# 4 0.0000 0.0000 0.0000 29.8222 0.0000 -3.4510
# 5 -16.6224 -6.7633 -20.4529 0.0000 46.1438 0.0000
# 6 0.0000 0.0000 0.0000 -3.4510 0.0000 27.4842
#
#
#
# Elastic Compliance Matrix: (Units=1/GPa)
#
#
# Indices 1 2 3 4 5 6 
#
# 1 0.019406 -0.002462 -0.007236 0.000000 0.003423 0.000000
# 2 -0.002462 0.011597 -0.001966 0.000000 -0.000059 0.000000
# 3 -0.007236 -0.001966 0.013501 0.000000 0.003090 0.000000
# 4 0.000000 0.000000 0.000000 0.034027 0.000000 0.004272
# 5 0.003423 -0.000059 0.003090 0.000000 0.024265 0.000000
# 6 0.000000 0.000000 0.000000 0.004272 0.000000 0.036921
#
#
# Mechanical properties :
#
#
# Convention : Reuss Voigt Hill
#
# Bulk Modulus (GPa) = 47.22321 53.30580 50.26451
# Shear Modulus (GPa) = 29.39391 32.67538 31.03465
#
# Velocity S-wave (km/s) = 3.76943 3.97427 3.87321
# Velocity P-wave (km/s) = 6.46312 6.84304 6.65579
#
# Compressibility (1/GPa) = 0.02117603
#
# Stress axis : x y z
#
# Youngs Moduli (GPa) = 51.53046 86.23021 74.06789
#
# Poissons Ratio (x) = 0.21228 0.53593
# Poissons Ratio (y) = 0.12686 0.14565
# Poissons Ratio (z) = 0.37286 0.16957
#
# Static dielectric constant tensor:
#      x y z
#    x 3.489720 0.000000 -0.251180 
#    y 0.000000 3.749120 0.000000 
#    z -0.251180 0.000000 3.886590 
# 
# 
# High freq. dielectric constant tensor:
#      x y z
#    x 1.788920 0.000000 -0.027170 
#    y 0.000000 1.809320 0.000000 
#    z -0.027170 0.000000 1.816250 
# 
# From -- ./inp_files/79376.got.cif
#   From: 2010.06.25/outbox.cif.g09.slc.cpg/sg15_40_cif.got.tgz:79376.got - 2010.06.28 07:06:18.
