data_PCOD8140687
_publ_section_title
;
Structure prediction by ZEFSAII (Michael W. Deem and Ramdas Pophale) SiO2 
 PCOD8140687
Probable space group: C 2/C
;
_chemical_formula_sum "Si O2"
_cell_formula_units_Z 40
_cell_length_a 18.314724
_cell_length_b 11.611749
_cell_length_c 17.000656
_cell_angle_alpha 90.000000
_cell_angle_beta 27.993671
_cell_angle_gamma 90.000000
_cell_volume 1697.003556
_symmetry_space_group_name_H-M "C 2/C"
_symmetry_group_IT_number 15
_symmetry_cell_setting 'monoclinic'
loop_
_space_group_symop_operation_xyz
x,y,z
-x,y,1/2-z
-x,-y,-z
x,-y,1/2+z
1/2+x,1/2+y,z
1/2-x,1/2+y,1/2-z
1/2-x,1/2-y,-z
1/2+x,1/2-y,1/2+z
loop_
_atom_site_type_symbol
_atom_site_label
_atom_site_fract_x
_atom_site_fract_y
_atom_site_fract_z
Si Si1 0.228720 0.400560 0.887861
Si Si2 0.335554 0.430463 0.948439
Si Si3 0.674276 0.678221 0.501536
Si Si4 0.349264 0.346836 0.242383
Si Si5 0.535727 0.292508 0.535472
O O1 0.222189 0.382225 0.988571
O O2 0.255081 0.534438 0.844183
O O3 0.359704 0.321147 0.722713
O O4 0.067788 0.346500 0.006322
O O5 0.500000 0.456187 0.750000
O O6 0.349209 0.343345 0.007471
O O7 0.262904 0.548459 0.052281
O O8 0.750000 0.750000 0.500000
O O9 0.485856 0.669920 0.677657
O O10 0.729796 0.740812 0.367879
O O11 0.421729 0.350081 0.087494
#
# Coordination Sequence:
#
# PCOD8140687 Si02
#       5
#     8   8   8   8   8
#     4  11  23  46  65  98 136 180 224 268 332 402
#     4  10  20  42  70  91 129 180 222 265 327 398
#     4  12  22  44  69  97 130 178 224 273 332 396
#     4  12  25  42  70  99 139 173 222 280 337 392
#     4  11  24  41  70  97 136 180 218 275 338 394
#
# _framework density 23.570958000000001
#
# number of rings (size 3 to 8) (size 9 to 14) (size 15 to 20)
#    0.000    0.800    6.000    3.000    2.800    0.000 
#    3.600    2.000    0.000    0.000    0.000    0.000 
#    0.000    0.000    0.000    0.000    0.000    0.000 
#
# Total GULP energy -247904.111222 kJ/mol
# GULP energy per Si atom -12395.205561 kJ/mol
# Density = 2.351731 g / cm^3
# Si number density = 23.570958 Si / 1000 Ang^3
#
#
#
# Elastic Constant Matrix: (Units=GPa)
#
#
# Indices 1 2 3 4 5 6 
#
# 1 53.4304 24.1981 0.4621 0.0001 18.9814 -0.0001
# 2 24.1981 120.3743 42.1193 0.0000 -2.2042 -0.0001
# 3 0.4621 42.1193 55.4530 0.0001 11.7120 -0.0002
# 4 0.0001 0.0000 0.0001 39.2190 -0.0001 -2.4400
# 5 18.9814 -2.2042 11.7120 -0.0001 29.3016 0.0001
# 6 -0.0001 -0.0001 -0.0002 -2.4400 0.0001 29.1931
#
#
#
# Elastic Compliance Matrix: (Units=1/GPa)
#
#
# Indices 1 2 3 4 5 6 
#
# 1 0.035497 -0.013413 0.016341 0.000000 -0.030535 0.000000
# 2 -0.013413 0.017003 -0.016282 0.000000 0.016476 0.000000
# 3 0.016341 -0.016282 0.035779 0.000000 -0.026111 0.000000
# 4 0.000000 0.000000 0.000000 0.025631 0.000000 0.002142
# 5 -0.030535 0.016476 -0.026111 0.000000 0.065585 0.000000
# 6 0.000000 0.000000 0.000000 0.002142 0.000000 0.034434
#
#
# Mechanical properties :
#
#
# Convention : Reuss Voigt Hill
#
# Bulk Modulus (GPa) = 16.24154 40.31298 28.27726
# Shear Modulus (GPa) = 19.14540 30.37462 24.76001
#
# Velocity S-wave (km/s) = 2.85308 3.59367 3.24457
# Velocity P-wave (km/s) = 4.21413 5.86167 5.10481
#
# Compressibility (1/GPa) = 0.06157052
#
# Stress axis : x y z
#
# Youngs Moduli (GPa) = 28.17161 58.81463 27.94922
#
# Poissons Ratio (x) = 0.78885 -0.45671
# Poissons Ratio (y) = 0.37785 0.45508
# Poissons Ratio (z) = -0.46035 0.95764
#
# Static dielectric constant tensor:
#      x y z
#    x 4.508030 0.000000 0.240600 
#    y 0.000000 4.387530 0.000000 
#    z 0.240600 0.000000 4.118490 
# 
# 
# High freq. dielectric constant tensor:
#      x y z
#    x 1.938250 0.000000 0.021560 
#    y 0.000000 1.940590 0.000000 
#    z 0.021560 0.000000 1.913200 
# 
# From -- ./inp_files/214956.got.cif
#   From: 2010.06.25/outbox.cif.g09.slc.cpg/sg15_108_cif.got.tgz:214956.got - 2010.06.28 07:06:18.
