data_PCOD8140963
_publ_section_title
;
Structure prediction by ZEFSAII (Michael W. Deem and Ramdas Pophale) SiO2 
 PCOD8140963
Probable space group: C 2/C
;
_chemical_formula_sum "Si O2"
_cell_formula_units_Z 64
_cell_length_a 22.251583
_cell_length_b 20.895299
_cell_length_c 9.949505
_cell_angle_alpha 90.000000
_cell_angle_beta 50.491935
_cell_angle_gamma 90.000000
_cell_volume 3569.165057
_symmetry_space_group_name_H-M "C 2/C"
_symmetry_group_IT_number 15
_symmetry_cell_setting 'monoclinic'
loop_
_space_group_symop_operation_xyz
x,y,z
-x,y,1/2-z
-x,-y,-z
x,-y,1/2+z
1/2+x,1/2+y,z
1/2-x,1/2+y,1/2-z
1/2-x,1/2-y,-z
1/2+x,1/2-y,1/2+z
loop_
_atom_site_type_symbol
_atom_site_label
_atom_site_fract_x
_atom_site_fract_y
_atom_site_fract_z
Si Si1 0.683699 0.305291 0.232579
Si Si2 0.229785 0.430209 0.337940
Si Si3 0.153315 0.766859 0.992981
Si Si4 0.931398 0.641333 0.448300
Si Si5 0.804744 0.831521 0.821191
Si Si6 0.227748 0.452612 0.033807
Si Si7 0.933798 0.382643 0.251605
Si Si8 0.858600 0.260155 0.452239
O O1 0.700801 0.378878 0.245044
O O2 0.765738 0.269919 0.113071
O O3 0.628746 0.271116 0.419979
O O4 0.636299 0.299047 0.160980
O O5 0.145532 0.398491 0.477311
O O6 0.237908 0.462157 0.179318
O O7 0.240324 0.480756 0.441710
O O8 0.158957 0.825251 0.879176
O O9 0.086520 0.716871 0.043689
O O10 0.958863 0.625205 0.560616
O O11 0.000000 0.620431 0.250000
O O12 0.864516 0.797361 0.837290
O O13 0.792857 0.904682 0.881919
O O14 0.723708 0.794754 0.944792
O O15 0.142117 0.425984 0.124979
O O16 0.923875 0.312369 0.329786
O O17 0.000000 0.416131 0.250000
#
# Coordination Sequence:
#
# PCOD8140963 Si02
#       8
#     8   8   8   8   8   8   8   8
#     4   9  17  29  48  72  94 117 154 202 250 294
#     4  10  21  35  48  69  99 133 169 202 237 284
#     4   9  17  29  48  72  93 119 153 198 256 294
#     4  10  21  35  48  68 101 133 165 205 240 281
#     4   9  15  29  50  68  89 120 153 198 254 293
#     4  10  21  34  49  69  98 133 168 204 239 283
#     4  10  21  34  49  70  96 133 173 200 235 289
#     4   9  15  29  50  68  90 118 154 202 249 291
#
# _framework density 17.931363999999999
#
# number of rings (size 3 to 8) (size 9 to 14) (size 15 to 20)
#    0.000    2.500    2.500    0.000    3.500    1.500 
#    0.000    2.500    0.000    0.000    0.000    0.000 
#    0.000    6.000    0.000    0.000    0.000    0.000 
#
# Total GULP energy -396666.701779 kJ/mol
# GULP energy per Si atom -12395.834431 kJ/mol
# Density = 1.789055 g / cm^3
# Si number density = 17.931364 Si / 1000 Ang^3
#
#
#
# Elastic Constant Matrix: (Units=GPa)
#
#
# Indices 1 2 3 4 5 6 
#
# 1 20.5689 3.9627 4.4290 0.0000 18.7297 0.0000
# 2 3.9627 72.6405 33.2592 0.0000 8.0132 0.0000
# 3 4.4290 33.2592 94.6347 0.0000 25.8892 0.0000
# 4 0.0000 0.0000 0.0000 28.1612 0.0000 9.0389
# 5 18.7297 8.0132 25.8892 0.0000 24.7862 0.0000
# 6 0.0000 0.0000 0.0000 9.0389 0.0000 15.9890
#
#
#
# Elastic Compliance Matrix: (Units=1/GPa)
#
#
# Indices 1 2 3 4 5 6 
#
# 1 0.353560 -0.020210 0.086604 0.000000 -0.351092 0.000000
# 2 -0.020210 0.017580 -0.010998 0.000000 0.021076 0.000000
# 3 0.086604 -0.010998 0.038235 0.000000 -0.101823 0.000000
# 4 0.000000 0.000000 0.000000 0.043382 0.000000 -0.024525
# 5 -0.351092 0.021076 -0.101823 0.000000 0.405188 0.000000
# 6 0.000000 0.000000 0.000000 -0.024525 0.000000 0.076407
#
#
# Mechanical properties :
#
#
# Convention : Reuss Voigt Hill
#
# Bulk Modulus (GPa) = 1.92246 30.12733 16.02490
# Shear Modulus (GPa) = 5.01531 23.53349 14.27440
#
# Velocity S-wave (km/s) = 1.67422 3.62666 2.82451
# Velocity P-wave (km/s) = 2.19358 5.86301 4.42644
#
# Compressibility (1/GPa) = 0.52016631
#
# Stress axis : x y z
#
# Youngs Moduli (GPa) = 2.82838 56.88416 26.15419
#
# Poissons Ratio (x) = 1.14961 -2.26506
# Poissons Ratio (y) = 0.05716 0.28765
# Poissons Ratio (z) = -0.24495 0.62562
#
# Static dielectric constant tensor:
#      x y z
#    x 3.066620 0.000000 0.287370 
#    y 0.000000 3.190710 0.000000 
#    z 0.287370 0.000000 3.419450 
# 
# 
# High freq. dielectric constant tensor:
#      x y z
#    x 1.661830 0.000000 0.030840 
#    y 0.000000 1.674460 0.000000 
#    z 0.030840 0.000000 1.696680 
# 
# From -- ./inp_files/63260.got.cif
#   From: 2010.06.25/outbox.cif.g09.slc.cpg/sg15_32_cif.got.tgz:63260.got - 2010.06.28 07:06:18.
