data_PCOD8140090
_publ_section_title
;
Structure prediction by ZEFSAII (Michael W. Deem and Ramdas Pophale) SiO2 
 PCOD8140090
Probable space group: C 2/C
;
_chemical_formula_sum "Si O2"
_cell_formula_units_Z 44
_cell_length_a 14.925852
_cell_length_b 7.740317
_cell_length_c 17.496946
_cell_angle_alpha 90.000000
_cell_angle_beta 110.645227
_cell_angle_gamma 90.000000
_cell_volume 1891.623025
_symmetry_space_group_name_H-M "C 2/C"
_symmetry_group_IT_number 15
_symmetry_cell_setting 'monoclinic'
loop_
_space_group_symop_operation_xyz
x,y,z
-x,y,1/2-z
-x,-y,-z
x,-y,1/2+z
1/2+x,1/2+y,z
1/2-x,1/2+y,1/2-z
1/2-x,1/2-y,-z
1/2+x,1/2-y,1/2+z
loop_
_atom_site_type_symbol
_atom_site_label
_atom_site_fract_x
_atom_site_fract_y
_atom_site_fract_z
Si Si1 0.042719 0.885516 0.901530
Si Si2 0.830182 0.917427 0.852081
Si Si3 0.269708 0.455636 0.496057
Si Si4 0.500000 0.143105 0.750000
Si Si5 0.834201 0.469936 0.300843
Si Si6 0.402091 0.904118 0.970024
O O1 0.044708 0.761842 0.829217
O O2 0.074914 0.783883 0.988654
O O3 0.941211 0.982396 0.881331
O O4 0.135055 0.014141 0.925856
O O5 0.835250 0.711009 0.846208
O O6 0.776859 0.977322 0.912044
O O7 0.771161 0.993703 0.763154
O O8 0.250000 0.250000 0.500000
O O9 0.172513 0.527710 0.504978
O O10 0.585402 0.026264 0.741736
O O11 0.861283 0.617333 0.371189
O O12 0.500000 0.000000 0.000000
#
# Coordination Sequence:
#
# PCOD8140090 Si02
#       6
#     8   8   8   4   8   8
#     4  10  22  41  70  97 129 173 223 281 326 403
#     4  11  24  42  67 101 129 174 225 276 335 398
#     4  10  23  40  71  93 130 174 220 271 342 395
#     4  10  20  40  66  92 130 182 216 252 352 394
#     4  11  25  40  69  94 138 175 228 276 328 407
#     4  11  21  42  64  94 129 182 214 270 331 402
#
# _framework density 23.260446999999999
#
# number of rings (size 3 to 8) (size 9 to 14) (size 15 to 20)
#    0.000    1.455    3.636    2.727   10.182    0.727 
#    0.000    0.000    0.000    0.000    0.000    0.000 
#    0.000    0.000    0.000    0.000    0.000    0.000 
#
# Total GULP energy -272570.434713 kJ/mol
# GULP energy per Si atom -12389.565214 kJ/mol
# Density = 2.320751 g / cm^3
# Si number density = 23.260447 Si / 1000 Ang^3
#
#
#
# Elastic Constant Matrix: (Units=GPa)
#
#
# Indices 1 2 3 4 5 6 
#
# 1 216.6743 19.2803 81.1076 0.0000 17.9006 0.0000
# 2 19.2803 30.7443 19.7592 0.0000 -4.0608 0.0000
# 3 81.1076 19.7592 162.4183 0.0000 12.5874 0.0000
# 4 0.0000 0.0000 0.0000 32.4933 0.0000 7.0984
# 5 17.9006 -4.0608 12.5874 0.0000 55.1472 0.0000
# 6 0.0000 0.0000 0.0000 7.0984 0.0000 18.4442
#
#
#
# Elastic Compliance Matrix: (Units=1/GPa)
#
#
# Indices 1 2 3 4 5 6 
#
# 1 0.005895 -0.002253 -0.002554 0.000000 -0.001497 0.000000
# 2 -0.002253 0.036880 -0.003694 0.000000 0.004290 0.000000
# 3 -0.002554 -0.003694 0.007980 0.000000 -0.001264 0.000000
# 4 0.000000 0.000000 0.000000 0.033601 0.000000 -0.012931
# 5 -0.001497 0.004290 -0.001264 0.000000 0.019224 0.000000
# 6 0.000000 0.000000 0.000000 -0.012931 0.000000 0.059194
#
#
# Mechanical properties :
#
#
# Convention : Reuss Voigt Hill
#
# Bulk Modulus (GPa) = 29.62709 72.23679 50.93194
# Shear Modulus (GPa) = 26.17428 40.52958 33.35193
#
# Velocity S-wave (km/s) = 3.35814 4.17876 3.79073
# Velocity P-wave (km/s) = 5.27266 7.37603 6.41119
#
# Compressibility (1/GPa) = 0.03375290
#
# Stress axis : x y z
#
# Youngs Moduli (GPa) = 169.62453 27.11477 125.31863
#
# Poissons Ratio (x) = 0.06110 0.32005
# Poissons Ratio (y) = 0.38224 0.46292
# Poissons Ratio (z) = 0.43320 0.10016
#
# Static dielectric constant tensor:
#      x y z
#    x 4.500200 0.000000 0.455090 
#    y 0.000000 3.123600 0.000000 
#    z 0.455090 0.000000 4.574440 
# 
# 
# High freq. dielectric constant tensor:
#      x y z
#    x 1.953690 0.000000 0.014480 
#    y 0.000000 1.866850 0.000000 
#    z 0.014480 0.000000 1.932740 
# 
# From -- ./inp_files/202796.got.cif
#   From: 2010.06.25/outbox.cif.g09.slc.cpg/sg15_102_cif.got.tgz:202796.got - 2010.06.28 07:06:18.
