data_PCOD8140103
_publ_section_title
;
Structure prediction by ZEFSAII (Michael W. Deem and Ramdas Pophale) SiO2 
 PCOD8140103
Probable space group: C 2/C
;
_chemical_formula_sum "Si O2"
_cell_formula_units_Z 44
_cell_length_a 13.975232
_cell_length_b 8.127540
_cell_length_c 20.462764
_cell_angle_alpha 90.000000
_cell_angle_beta 56.830883
_cell_angle_gamma 90.000000
_cell_volume 1945.533355
_symmetry_space_group_name_H-M "C 2/C"
_symmetry_group_IT_number 15
_symmetry_cell_setting 'monoclinic'
loop_
_space_group_symop_operation_xyz
x,y,z
-x,y,1/2-z
-x,-y,-z
x,-y,1/2+z
1/2+x,1/2+y,z
1/2-x,1/2+y,1/2-z
1/2-x,1/2-y,-z
1/2+x,1/2-y,1/2+z
loop_
_atom_site_type_symbol
_atom_site_label
_atom_site_fract_x
_atom_site_fract_y
_atom_site_fract_z
Si Si1 0.081883 0.591592 0.104843
Si Si2 0.014954 0.051588 0.667173
Si Si3 0.851059 0.507969 0.136093
Si Si4 0.832004 0.807152 0.718655
Si Si5 0.500000 0.110937 0.750000
Si Si6 0.753441 0.918988 0.960283
O O1 0.052035 0.781852 0.118822
O O2 0.078674 0.506557 0.176577
O O3 0.986484 0.506648 0.095073
O O4 0.207076 0.561348 0.026536
O O5 0.000000 0.075768 0.750000
O O6 0.118449 0.929259 0.613499
O O7 0.902327 0.974240 0.674376
O O8 0.809672 0.318587 0.166609
O O9 0.791371 0.634820 0.209247
O O10 0.827075 0.569073 0.072713
O O11 0.910230 0.722352 0.744727
O O12 0.750000 0.750000 0.000000
#
# Coordination Sequence:
#
# PCOD8140103 Si02
#       6
#     8   8   8   8   4   8
#     4  11  24  40  66 101 132 176 224 286 332 407
#     4  12  23  44  67  94 135 177 229 269 338 405
#     4  11  23  40  66  99 136 172 227 275 340 394
#     4  11  21  39  65  97 129 180 223 277 326 408
#     4  10  20  40  66  96 128 180 230 266 350 402
#     4  12  25  45  68  97 139 179 225 281 341 397
#
# _framework density 22.615907
#
# number of rings (size 3 to 8) (size 9 to 14) (size 15 to 20)
#    0.000    0.727    3.636    5.455    0.000    0.000 
#    0.000    7.273    0.000    0.000    0.000    0.000 
#    0.000    0.000    0.000    0.000    0.000    0.000 
#
# Total GULP energy -272737.836342 kJ/mol
# GULP energy per Si atom -12397.174379 kJ/mol
# Density = 2.256443 g / cm^3
# Si number density = 22.615907 Si / 1000 Ang^3
#
#
#
# Elastic Constant Matrix: (Units=GPa)
#
#
# Indices 1 2 3 4 5 6 
#
# 1 45.2475 5.0354 27.1503 0.0000 -3.8462 0.0000
# 2 5.0354 126.2569 35.8665 0.0000 13.2711 0.0000
# 3 27.1503 35.8665 123.3463 0.0000 -2.3080 0.0000
# 4 0.0000 0.0000 0.0000 37.5459 0.0000 -1.3927
# 5 -3.8462 13.2711 -2.3080 0.0000 31.3197 0.0000
# 6 0.0000 0.0000 0.0000 -1.3927 0.0000 24.9929
#
#
#
# Elastic Compliance Matrix: (Units=1/GPa)
#
#
# Indices 1 2 3 4 5 6 
#
# 1 0.025708 0.000322 -0.005704 0.000000 0.002601 0.000000
# 2 0.000322 0.009127 -0.002800 0.000000 -0.004034 0.000000
# 3 -0.005704 -0.002800 0.010200 0.000000 0.001238 0.000000
# 4 0.000000 0.000000 0.000000 0.026689 0.000000 0.001487
# 5 0.002601 -0.004034 0.001238 0.000000 0.034049 0.000000
# 6 0.000000 0.000000 0.000000 0.001487 0.000000 0.040094
#
#
# Mechanical properties :
#
#
# Convention : Reuss Voigt Hill
#
# Bulk Modulus (GPa) = 34.87845 47.88390 41.38117
# Shear Modulus (GPa) = 29.10542 33.89160 31.49851
#
# Velocity S-wave (km/s) = 3.59129 3.87534 3.73602
# Velocity P-wave (km/s) = 5.71420 6.42207 6.07845
#
# Compressibility (1/GPa) = 0.02867100
#
# Stress axis : x y z
#
# Youngs Moduli (GPa) = 38.89788 109.56434 98.03808
#
# Poissons Ratio (x) = -0.03524 0.55917
# Poissons Ratio (y) = -0.01251 0.27453
# Poissons Ratio (z) = 0.22186 0.30681
#
# Static dielectric constant tensor:
#      x y z
#    x 4.121700 0.000000 -0.344650 
#    y 0.000000 4.311030 0.000000 
#    z -0.344650 0.000000 4.392230 
# 
# 
# High freq. dielectric constant tensor:
#      x y z
#    x 1.880480 0.000000 -0.019970 
#    y 0.000000 1.905290 0.000000 
#    z -0.019970 0.000000 1.893090 
# 
# From -- ./inp_files/202928.got.cif
#   From: 2010.06.25/outbox.cif.g09.slc.cpg/sg15_102_cif.got.tgz:202928.got - 2010.06.28 07:06:18.
