data_PCOD8140795
_publ_section_title
;
Structure prediction by ZEFSAII (Michael W. Deem and Ramdas Pophale) SiO2 
 PCOD8140795
Probable space group: C 2/C
;
_chemical_formula_sum "Si O2"
_cell_formula_units_Z 44
_cell_length_a 8.034518
_cell_length_b 14.579579
_cell_length_c 17.201132
_cell_angle_alpha 90.000000
_cell_angle_beta 108.702994
_cell_angle_gamma 90.000000
_cell_volume 1908.536894
_symmetry_space_group_name_H-M "C 2/C"
_symmetry_group_IT_number 15
_symmetry_cell_setting 'monoclinic'
loop_
_space_group_symop_operation_xyz
x,y,z
-x,y,1/2-z
-x,-y,-z
x,-y,1/2+z
1/2+x,1/2+y,z
1/2-x,1/2+y,1/2-z
1/2-x,1/2-y,-z
1/2+x,1/2-y,1/2+z
loop_
_atom_site_type_symbol
_atom_site_label
_atom_site_fract_x
_atom_site_fract_y
_atom_site_fract_z
Si Si1 0.117126 0.854106 0.621514
Si Si2 0.177362 0.527704 0.610432
Si Si3 0.500000 0.534863 0.250000
Si Si4 0.078831 0.369486 0.945740
Si Si5 0.959973 0.328563 0.157616
Si Si6 0.616230 0.303472 0.033324
O O1 0.313567 0.869791 0.619088
O O2 0.060530 0.747063 0.620221
O O3 0.100675 0.903714 0.701488
O O4 0.979395 0.884540 0.531785
O O5 0.364767 0.527747 0.681711
O O6 0.192851 0.583197 0.531733
O O7 0.036390 0.573466 0.646232
O O8 0.106703 0.423957 0.587907
O O9 0.033771 0.263431 0.954800
O O10 0.000000 0.299627 0.250000
O O11 0.747242 0.341235 0.119410
O O12 0.750000 0.250000 0.000000
#
# Coordination Sequence:
#
# PCOD8140795 Si02
#       6
#     8   8   4   8   8   8
#     4  11  24  44  71  98 131 186 230 283 333 421
#     4  11  26  45  65 101 139 180 222 294 345 415
#     4  12  28  46  64 102 146 180 230 284 360 394
#     4  11  24  44  73  99 134 179 239 276 350 415
#     4  11  24  44  70 100 140 177 229 287 349 399
#     4  10  20  43  72  95 129 182 226 275 336 413
#
# _framework density 23.054310000000001
#
# number of rings (size 3 to 8) (size 9 to 14) (size 15 to 20)
#    0.000    1.091    4.545    2.727    5.091    2.182 
#    0.000    0.000    0.000    0.000    0.000    0.000 
#    0.000    0.000    0.000    0.000    0.000    0.000 
#
# Total GULP energy -272641.034526 kJ/mol
# GULP energy per Si atom -12392.774297 kJ/mol
# Density = 2.300184 g / cm^3
# Si number density = 23.054310 Si / 1000 Ang^3
#
#
#
# Elastic Constant Matrix: (Units=GPa)
#
#
# Indices 1 2 3 4 5 6 
#
# 1 105.9441 9.5496 50.4784 0.0000 -22.4605 0.0000
# 2 9.5496 42.2634 15.5180 0.0000 -3.6297 0.0000
# 3 50.4784 15.5180 141.6731 0.0000 11.4606 0.0000
# 4 0.0000 0.0000 0.0000 25.9961 0.0000 5.1205
# 5 -22.4605 -3.6297 11.4606 0.0000 42.5379 0.0000
# 6 0.0000 0.0000 0.0000 5.1205 0.0000 26.9663
#
#
#
# Elastic Compliance Matrix: (Units=1/GPa)
#
#
# Indices 1 2 3 4 5 6 
#
# 1 0.014083 -0.000318 -0.005707 0.000000 0.008947 0.000000
# 2 -0.000318 0.025013 -0.002847 0.000000 0.002733 0.000000
# 3 -0.005707 -0.002847 0.009883 0.000000 -0.005919 0.000000
# 4 0.000000 0.000000 0.000000 0.039962 0.000000 -0.007588
# 5 0.008947 0.002733 -0.005919 0.000000 0.030060 0.000000
# 6 0.000000 0.000000 0.000000 -0.007588 0.000000 0.038524
#
#
# Mechanical properties :
#
#
# Convention : Reuss Voigt Hill
#
# Bulk Modulus (GPa) = 32.01653 48.99697 40.50675
# Shear Modulus (GPa) = 26.92765 33.38900 30.15833
#
# Velocity S-wave (km/s) = 3.42132 3.80975 3.62075
# Velocity P-wave (km/s) = 5.43368 6.37583 5.92352
#
# Compressibility (1/GPa) = 0.03123387
#
# Stress axis : x y z
#
# Youngs Moduli (GPa) = 71.00535 39.97862 101.18849
#
# Poissons Ratio (x) = 0.01273 0.57746
# Poissons Ratio (y) = 0.02261 0.28813
# Poissons Ratio (z) = 0.40521 0.11384
#
# Static dielectric constant tensor:
#      x y z
#    x 5.035350 0.000000 1.106120 
#    y 0.000000 3.933310 0.000000 
#    z 1.106120 0.000000 5.407170 
# 
# 
# High freq. dielectric constant tensor:
#      x y z
#    x 1.908440 0.000000 0.001550 
#    y 0.000000 1.886440 0.000000 
#    z 0.001550 0.000000 1.922190 
# 
# From -- ./inp_files/189337.got.cif
#   From: 2010.06.25/outbox.cif.g09.slc.cpg/sg15_95_cif.got.tgz:189337.got - 2010.06.28 07:06:18.
