data_PCOD8140868
_publ_section_title
;
Structure prediction by ZEFSAII (Michael W. Deem and Ramdas Pophale) SiO2 
 PCOD8140868
Probable space group: C 2/C
;
_chemical_formula_sum "Si O2"
_cell_formula_units_Z 44
_cell_length_a 7.392421
_cell_length_b 13.228141
_cell_length_c 26.292150
_cell_angle_alpha 90.000000
_cell_angle_beta 127.310714
_cell_angle_gamma 90.000000
_cell_volume 2044.915829
_symmetry_space_group_name_H-M "C 2/C"
_symmetry_group_IT_number 15
_symmetry_cell_setting 'monoclinic'
loop_
_space_group_symop_operation_xyz
x,y,z
-x,y,1/2-z
-x,-y,-z
x,-y,1/2+z
1/2+x,1/2+y,z
1/2-x,1/2+y,1/2-z
1/2-x,1/2-y,-z
1/2+x,1/2-y,1/2+z
loop_
_atom_site_type_symbol
_atom_site_label
_atom_site_fract_x
_atom_site_fract_y
_atom_site_fract_z
Si Si1 0.988221 0.519902 0.385197
Si Si2 0.433453 0.185427 0.295457
Si Si3 0.194241 0.877149 0.111187
Si Si4 0.019507 0.307600 0.971375
Si Si5 0.727670 0.358190 0.394796
Si Si6 0.000000 0.303719 0.250000
O O1 0.914775 0.582669 0.323645
O O2 0.789391 0.437506 0.361252
O O3 0.229318 0.464314 0.415040
O O4 0.008904 0.589272 0.438131
O O5 0.500000 0.156950 0.250000
O O6 0.624416 0.256911 0.353116
O O7 0.188096 0.236376 0.254115
O O8 0.386938 0.872291 0.187432
O O9 0.182746 0.768702 0.079489
O O10 0.954819 0.906246 0.096702
O O11 0.250000 0.250000 0.000000
O O12 0.035494 0.334226 0.034261
#
# Coordination Sequence:
#
# PCOD8140868 Si02
#       6
#     8   8   8   8   8   4
#     4  12  23  42  68  97 124 175 210 258 330 371
#     4  11  24  44  65  94 132 168 213 266 313 378
#     4  10  23  41  66  96 129 166 215 263 311 385
#     4  10  20  45  65  94 135 160 211 273 310 377
#     4  10  23  45  67  94 130 166 214 266 315 381
#     4  10  20  46  64  88 138 164 208 272 310 368
#
# _framework density 21.516777000000001
#
# number of rings (size 3 to 8) (size 9 to 14) (size 15 to 20)
#    0.000    1.455    5.455    1.636    1.273    5.091 
#    8.182    0.000    0.000    0.000    0.000    0.000 
#    0.000    0.000    0.000    0.000    0.000    0.000 
#
# Total GULP energy -272749.959174 kJ/mol
# GULP energy per Si atom -12397.725417 kJ/mol
# Density = 2.146780 g / cm^3
# Si number density = 21.516777 Si / 1000 Ang^3
#
#
#
# Elastic Constant Matrix: (Units=GPa)
#
#
# Indices 1 2 3 4 5 6 
#
# 1 75.3157 22.7793 12.8082 0.0000 -15.5751 0.0000
# 2 22.7793 85.7869 16.4979 0.0000 -8.7547 0.0000
# 3 12.8082 16.4979 109.7780 0.0000 -5.4865 0.0000
# 4 0.0000 0.0000 0.0000 4.8979 0.0000 -6.6505
# 5 -15.5751 -8.7547 -5.4865 0.0000 28.6053 0.0000
# 6 0.0000 0.0000 0.0000 -6.6505 0.0000 47.3161
#
#
#
# Elastic Compliance Matrix: (Units=1/GPa)
#
#
# Indices 1 2 3 4 5 6 
#
# 1 0.015995 -0.003289 -0.000997 0.000000 0.007511 0.000000
# 2 -0.003289 0.013009 -0.001476 0.000000 0.001907 0.000000
# 3 -0.000997 -0.001476 0.009489 0.000000 0.000826 0.000000
# 4 0.000000 0.000000 0.000000 0.252327 0.000000 0.035466
# 5 0.007511 0.001907 0.000826 0.000000 0.039790 0.000000
# 6 0.000000 0.000000 0.000000 0.035466 0.000000 0.026119
#
#
# Mechanical properties :
#
#
# Convention : Reuss Voigt Hill
#
# Bulk Modulus (GPa) = 37.07913 41.67236 39.37575
# Shear Modulus (GPa) = 13.25410 30.75022 22.00216
#
# Velocity S-wave (km/s) = 2.48461 3.78448 3.20122
# Velocity P-wave (km/s) = 5.04986 6.20531 5.65716
#
# Compressibility (1/GPa) = 0.02696935
#
# Stress axis : x y z
#
# Youngs Moduli (GPa) = 62.51957 76.87206 105.38926
#
# Poissons Ratio (x) = 0.25283 0.10502
# Poissons Ratio (y) = 0.20563 0.15555
# Poissons Ratio (z) = 0.06230 0.11346
#
# Static dielectric constant tensor:
#      x y z
#    x 3.947270 0.000000 -0.015920 
#    y 0.000000 4.053640 0.000000 
#    z -0.015920 0.000000 4.961660 
# 
# 
# High freq. dielectric constant tensor:
#      x y z
#    x 1.833980 0.000000 -0.010610 
#    y 0.000000 1.842780 0.000000 
#    z -0.010610 0.000000 1.851660 
# 
# From -- ./inp_files/231418.got.cif
#   From: 2010.06.25/outbox.cif.g09.slc.cpg/sg15_116_cif.got.tgz:231418.got - 2010.06.28 07:06:18.
