data_PCOD8140668
_publ_section_title
;
Structure prediction by ZEFSAII (Michael W. Deem and Ramdas Pophale) SiO2 
 PCOD8140668
Probable space group: C 2/C
;
_chemical_formula_sum "Si O2"
_cell_formula_units_Z 48
_cell_length_a 14.363487
_cell_length_b 11.882848
_cell_length_c 13.135456
_cell_angle_alpha 90.000000
_cell_angle_beta 91.906391
_cell_angle_gamma 90.000000
_cell_volume 2240.707346
_symmetry_space_group_name_H-M "C 2/C"
_symmetry_group_IT_number 15
_symmetry_cell_setting 'monoclinic'
loop_
_space_group_symop_operation_xyz
x,y,z
-x,y,1/2-z
-x,-y,-z
x,-y,1/2+z
1/2+x,1/2+y,z
1/2-x,1/2+y,1/2-z
1/2-x,1/2-y,-z
1/2+x,1/2-y,1/2+z
loop_
_atom_site_type_symbol
_atom_site_label
_atom_site_fract_x
_atom_site_fract_y
_atom_site_fract_z
Si Si1 0.087168 0.135316 0.464873
Si Si2 0.908326 0.619813 0.792962
Si Si3 0.927649 0.713842 0.002351
Si Si4 0.894873 0.068153 0.399174
Si Si5 0.899876 0.367916 0.719467
Si Si6 0.795160 0.816810 0.718720
O O1 0.172720 0.169999 0.396385
O O2 0.036554 0.244268 0.515678
O O3 0.008246 0.071684 0.392604
O O4 0.131137 0.051289 0.551077
O O5 0.919512 0.617053 0.915502
O O6 0.900092 0.499770 0.740984
O O7 0.820138 0.693769 0.760145
O O8 0.000000 0.681808 0.750000
O O9 0.866548 0.824722 0.970012
O O10 0.884272 0.657130 0.100203
O O11 0.840850 0.084028 0.290283
O O12 0.816740 0.317463 0.783252
O O13 0.000000 0.313444 0.750000
#
# Coordination Sequence:
#
# PCOD8140668 Si02
#       6
#     8   8   8   8   8   8
#     4   9  17  37  64  99 118 160 203 260 313 367
#     4  10  20  42  69  85 116 176 205 244 312 383
#     4   9  19  41  62  86 128 162 201 252 312 375
#     4   8  18  35  66  97 124 155 201 265 322 359
#     4  11  27  41  57  95 130 166 206 260 311 358
#     4  11  20  40  66  88 123 166 218 244 303 391
#
# _framework density 21.421807999999999
#
# number of rings (size 3 to 8) (size 9 to 14) (size 15 to 20)
#    1.000    1.333    1.667    0.500    0.000    8.000 
#    6.000    0.833    0.000    0.000    0.000    0.000 
#    0.000    0.000    0.000    0.000    0.000    0.000 
#
# Total GULP energy -297353.030609 kJ/mol
# GULP energy per Si atom -12389.709609 kJ/mol
# Density = 2.137305 g / cm^3
# Si number density = 21.421808 Si / 1000 Ang^3
#
#
#
# Elastic Constant Matrix: (Units=GPa)
#
#
# Indices 1 2 3 4 5 6 
#
# 1 100.9711 17.4946 3.2586 0.0000 -25.3636 0.0000
# 2 17.4946 87.6583 36.5768 0.0000 -8.4458 0.0000
# 3 3.2586 36.5768 65.0187 0.0000 -28.9620 0.0000
# 4 0.0000 0.0000 0.0000 34.1509 0.0000 -1.2252
# 5 -25.3636 -8.4458 -28.9620 0.0000 32.4835 0.0000
# 6 0.0000 0.0000 0.0000 -1.2252 0.0000 17.1415
#
#
#
# Elastic Compliance Matrix: (Units=1/GPa)
#
#
# Indices 1 2 3 4 5 6 
#
# 1 0.016222 -0.006405 0.012757 0.000000 0.022375 0.000000
# 2 -0.006405 0.018169 -0.016627 0.000000 -0.015101 0.000000
# 3 0.012757 -0.016627 0.044133 0.000000 0.044987 0.000000
# 4 0.000000 0.000000 0.000000 0.029357 0.000000 0.002098
# 5 0.022375 -0.015101 0.044987 0.000000 0.084439 0.000000
# 6 0.000000 0.000000 0.000000 0.002098 0.000000 0.058488
#
#
# Mechanical properties :
#
#
# Convention : Reuss Voigt Hill
#
# Bulk Modulus (GPa) = 17.24871 40.92314 29.08593
# Shear Modulus (GPa) = 17.20083 29.84305 23.52194
#
# Velocity S-wave (km/s) = 2.83673 3.73650 3.31726
# Velocity P-wave (km/s) = 4.33576 6.14493 5.31784
#
# Compressibility (1/GPa) = 0.05797534
#
# Stress axis : x y z
#
# Youngs Moduli (GPa) = 61.64282 55.03869 22.65861
#
# Poissons Ratio (x) = 0.35251 -0.28906
# Poissons Ratio (y) = 0.39481 0.37674
# Poissons Ratio (z) = -0.78638 0.91512
#
# Static dielectric constant tensor:
#      x y z
#    x 3.928140 0.000000 -0.094710 
#    y 0.000000 3.586550 0.000000 
#    z -0.094710 0.000000 3.619460 
# 
# 
# High freq. dielectric constant tensor:
#      x y z
#    x 1.821480 0.000000 -0.006920 
#    y 0.000000 1.821720 0.000000 
#    z -0.006920 0.000000 1.829130 
# 
# From -- ./inp_files/151941.got.cif
#   From: 2010.06.25/outbox.cif.g09.slc.cpg/sg15_76_cif.got.tgz:151941.got - 2010.06.28 07:06:18.
