data_PCOD8140767
_publ_section_title
;
Structure prediction by ZEFSAII (Michael W. Deem and Ramdas Pophale) SiO2 
 PCOD8140767
Probable space group: C 2/C
;
_chemical_formula_sum "Si O2"
_cell_formula_units_Z 40
_cell_length_a 26.062041
_cell_length_b 4.841775
_cell_length_c 14.263271
_cell_angle_alpha 90.000000
_cell_angle_beta 62.659193
_cell_angle_gamma 90.000000
_cell_volume 1598.774104
_symmetry_space_group_name_H-M "C 2/C"
_symmetry_group_IT_number 15
_symmetry_cell_setting 'monoclinic'
loop_
_space_group_symop_operation_xyz
x,y,z
-x,y,1/2-z
-x,-y,-z
x,-y,1/2+z
1/2+x,1/2+y,z
1/2-x,1/2+y,1/2-z
1/2-x,1/2-y,-z
1/2+x,1/2-y,1/2+z
loop_
_atom_site_type_symbol
_atom_site_label
_atom_site_fract_x
_atom_site_fract_y
_atom_site_fract_z
Si Si1 0.320099 0.700498 0.996479
Si Si2 0.678505 0.881550 0.709315
Si Si3 0.436244 0.283860 0.113834
Si Si4 0.730026 0.204248 0.360379
Si Si5 0.936719 0.718564 0.486767
O O1 0.300247 0.748051 0.906270
O O2 0.388742 0.752352 0.946626
O O3 0.306319 0.387330 0.035365
O O4 0.283708 0.890665 0.099790
O O5 0.609547 0.846209 0.774683
O O6 0.707516 0.723618 0.773986
O O7 0.702079 0.200447 0.690700
O O8 0.499891 0.291798 0.107934
O O9 0.420611 0.590020 0.090438
O O10 0.437176 0.097029 0.019808
#
# Coordination Sequence:
#
# PCOD8140767 Si02
#       5
#     8   8   8   8   8
#     4  12  25  45  71 100 141 176 231 285 343 407
#     4  12  26  45  72  99 137 190 227 281 348 412
#     4  10  22  40  71  96 137 178 223 278 351 407
#     4  12  27  45  65 103 141 179 227 290 334 413
#     4  10  20  43  67 101 134 175 221 290 340 406
#
# _framework density 25.019171
#
# number of rings (size 3 to 8) (size 9 to 14) (size 15 to 20)
#    0.000    0.800    4.000    2.400    0.000    7.200 
#    0.000    0.000    0.000    9.600    0.000    0.000 
#    0.000    0.000    0.000    0.000    0.000    0.000 
#
# Total GULP energy -247966.930904 kJ/mol
# GULP energy per Si atom -12398.346545 kJ/mol
# Density = 2.496223 g / cm^3
# Si number density = 25.019171 Si / 1000 Ang^3
#
#
#
# Elastic Constant Matrix: (Units=GPa)
#
#
# Indices 1 2 3 4 5 6 
#
# 1 137.2895 15.7541 44.0843 0.0020 -15.5670 0.0024
# 2 15.7541 65.7110 1.7812 0.0327 -3.4284 0.0327
# 3 44.0843 1.7812 127.5259 0.0000 -6.9926 0.0042
# 4 0.0020 0.0327 0.0000 26.9353 0.0000 -5.6434
# 5 -15.5670 -3.4284 -6.9926 0.0000 54.9363 0.0000
# 6 0.0024 0.0327 0.0042 -5.6434 0.0000 30.1620
#
#
#
# Elastic Compliance Matrix: (Units=1/GPa)
#
#
# Indices 1 2 3 4 5 6 
#
# 1 0.008640 -0.001891 -0.002852 0.000002 0.001967 0.000002
# 2 -0.001891 0.015685 0.000462 -0.000023 0.000502 -0.000021
# 3 -0.002852 0.000462 0.008840 -0.000001 0.000346 -0.000002
# 4 0.000002 -0.000023 -0.000001 0.038641 -0.000001 0.007230
# 5 0.001967 0.000502 0.000346 -0.000001 0.018836 -0.000001
# 6 0.000002 -0.000021 -0.000002 0.007230 -0.000001 0.034507
#
#
# Mechanical properties :
#
#
# Convention : Reuss Voigt Hill
#
# Bulk Modulus (GPa) = 40.64691 50.41838 45.53265
# Shear Modulus (GPa) = 35.23292 40.33385 37.78339
#
# Velocity S-wave (km/s) = 3.75672 4.01947 3.89032
# Velocity P-wave (km/s) = 5.92443 6.46043 6.19823
#
# Compressibility (1/GPa) = 0.02460211
#
# Stress axis : x y z
#
# Youngs Moduli (GPa) = 115.74205 63.75394 113.12086
#
# Poissons Ratio (x) = 0.12059 0.32267
# Poissons Ratio (y) = 0.21892 -0.05229
# Poissons Ratio (z) = 0.33015 -0.02947
#
# Static dielectric constant tensor:
#      x y z
#    x 4.781880 -0.000020 -0.290650 
#    y -0.000020 4.358050 -0.000030 
#    z -0.290650 -0.000030 4.296440 
# 
# 
# High freq. dielectric constant tensor:
#      x y z
#    x 2.006560 0.000000 -0.022790 
#    y 0.000000 2.003550 0.000000 
#    z -0.022790 0.000000 1.978840 
# 
# From -- ./inp_files/179582.got.cif
#   From: 2010.06.25/outbox.cif.g09.slc.cpg/sg15_90_cif.got.tgz:179582.got - 2010.06.28 07:06:18.
