data_PCOD8140486
_publ_section_title
;
Structure prediction by ZEFSAII (Michael W. Deem and Ramdas Pophale) SiO2 
 PCOD8140486
Probable space group: C 2/C
;
_chemical_formula_sum "Si O2"
_cell_formula_units_Z 52
_cell_length_a 24.366568
_cell_length_b 11.495739
_cell_length_c 8.767259
_cell_angle_alpha 90.000000
_cell_angle_beta 71.882214
_cell_angle_gamma 90.000000
_cell_volume 2334.050867
_symmetry_space_group_name_H-M "C 2/C"
_symmetry_group_IT_number 15
_symmetry_cell_setting 'monoclinic'
loop_
_space_group_symop_operation_xyz
x,y,z
-x,y,1/2-z
-x,-y,-z
x,-y,1/2+z
1/2+x,1/2+y,z
1/2-x,1/2+y,1/2-z
1/2-x,1/2-y,-z
1/2+x,1/2-y,1/2+z
loop_
_atom_site_type_symbol
_atom_site_label
_atom_site_fract_x
_atom_site_fract_y
_atom_site_fract_z
Si Si1 0.224355 0.137936 0.938526
Si Si2 0.562245 0.879051 0.257859
Si Si3 0.525595 0.344206 0.952005
Si Si4 0.858076 0.591058 0.273087
Si Si5 0.782327 0.530999 0.609124
Si Si6 0.000000 0.023343 0.750000
Si Si7 0.396113 0.724873 0.535584
O O1 0.254448 0.126363 0.746053
O O2 0.155860 0.141317 0.970069
O O3 0.250000 0.250000 0.000000
O O4 0.235856 0.025616 0.034497
O O5 0.500000 0.917625 0.250000
O O6 0.554894 0.780196 0.396246
O O7 0.593823 0.991181 0.296534
O O8 0.601522 0.829191 0.089367
O O9 0.538901 0.391783 0.109223
O O10 0.456020 0.343029 0.989576
O O11 0.543902 0.441443 0.810698
O O12 0.832575 0.593085 0.465830
O O13 0.808149 0.571356 0.191289
O O14 0.885419 0.716400 0.210926
#
# Coordination Sequence:
#
# PCOD8140486 Si02
#       7
#     8   8   8   8   8   4   8
#     4  11  22  44  65  89 131 167 216 274 320 377
#     4  10  21  40  62  96 128 168 205 260 323 385
#     4  10  22  39  64  90 127 166 209 261 321 370
#     4  11  20  40  64  91 130 166 210 261 329 389
#     4  10  23  40  65  94 123 175 218 268 327 379
#     4  10  20  42  60  82 128 166 204 264 302 370
#     4  11  21  39  63  92 123 170 206 267 325 374
#
# _framework density 22.278862
#
# number of rings (size 3 to 8) (size 9 to 14) (size 15 to 20)
#    0.000    1.538    5.385    0.923    0.000    5.538 
#    1.385    0.000    0.000    0.000    0.000    0.000 
#    0.000    0.000    0.000    0.000    0.000    0.000 
#
# Total GULP energy -322311.098303 kJ/mol
# GULP energy per Si atom -12396.580704 kJ/mol
# Density = 2.222815 g / cm^3
# Si number density = 22.278862 Si / 1000 Ang^3
#
#
#
# Elastic Constant Matrix: (Units=GPa)
#
#
# Indices 1 2 3 4 5 6 
#
# 1 84.4743 38.6241 38.0853 0.0000 -11.6280 0.0000
# 2 38.6241 80.3296 42.8364 0.0000 2.9898 0.0000
# 3 38.0853 42.8364 145.1619 0.0000 0.5545 0.0000
# 4 0.0000 0.0000 0.0000 45.7488 0.0000 6.7224
# 5 -11.6280 2.9898 0.5545 0.0000 26.4032 0.0000
# 6 0.0000 0.0000 0.0000 6.7224 0.0000 24.6711
#
#
#
# Elastic Compliance Matrix: (Units=1/GPa)
#
#
# Indices 1 2 3 4 5 6 
#
# 1 0.017527 -0.007451 -0.002433 0.000000 0.008614 0.000000
# 2 -0.007451 0.018007 -0.003339 0.000000 -0.005250 0.000000
# 3 -0.002433 -0.003339 0.008516 0.000000 -0.000872 0.000000
# 4 0.000000 0.000000 0.000000 0.022770 0.000000 -0.006204
# 5 0.008614 -0.005250 -0.000872 0.000000 0.042281 0.000000
# 6 0.000000 0.000000 0.000000 -0.006204 0.000000 0.042224
#
#
# Mechanical properties :
#
#
# Convention : Reuss Voigt Hill
#
# Bulk Modulus (GPa) = 56.80141 61.00638 58.90390
# Shear Modulus (GPa) = 27.22756 32.05930 29.64343
#
# Velocity S-wave (km/s) = 3.49968 3.79753 3.65165
# Velocity P-wave (km/s) = 6.47158 6.83161 6.65403
#
# Compressibility (1/GPa) = 0.01760520
#
# Stress axis : x y z
#
# Youngs Moduli (GPa) = 57.05459 55.53372 117.42952
#
# Poissons Ratio (x) = 0.41377 0.28567
# Poissons Ratio (y) = 0.42510 0.39209
# Poissons Ratio (z) = 0.13880 0.18542
#
# Static dielectric constant tensor:
#      x y z
#    x 3.763850 0.000000 0.005130 
#    y 0.000000 3.808690 0.000000 
#    z 0.005130 0.000000 4.345120 
# 
# 
# High freq. dielectric constant tensor:
#      x y z
#    x 1.850980 0.000000 0.001910 
#    y 0.000000 1.866340 0.000000 
#    z 0.001910 0.000000 1.893290 
# 
# From -- ./inp_files/65069.got.cif
#   From: 2010.06.25/outbox.cif.g09.slc.cpg/sg15_33_cif.got.tgz:65069.got - 2010.06.28 07:06:18.
