data_PCOD8140945
_publ_section_title
;
Structure prediction by ZEFSAII (Michael W. Deem and Ramdas Pophale) SiO2 
 PCOD8140945
Probable space group: C 2/C
;
_chemical_formula_sum "Si O2"
_cell_formula_units_Z 52
_cell_length_a 19.579054
_cell_length_b 23.072811
_cell_length_c 9.373383
_cell_angle_alpha 90.000000
_cell_angle_beta 145.336318
_cell_angle_gamma 90.000000
_cell_volume 2408.331722
_symmetry_space_group_name_H-M "C 2/C"
_symmetry_group_IT_number 15
_symmetry_cell_setting 'monoclinic'
loop_
_space_group_symop_operation_xyz
x,y,z
-x,y,1/2-z
-x,-y,-z
x,-y,1/2+z
1/2+x,1/2+y,z
1/2-x,1/2+y,1/2-z
1/2-x,1/2-y,-z
1/2+x,1/2-y,1/2+z
loop_
_atom_site_type_symbol
_atom_site_label
_atom_site_fract_x
_atom_site_fract_y
_atom_site_fract_z
Si Si1 0.640684 0.789025 0.492457
Si Si2 0.500000 0.837679 0.750000
Si Si3 0.129053 0.929103 0.005520
Si Si4 0.710545 0.521380 0.939359
Si Si5 0.787002 0.321363 0.195331
Si Si6 0.560457 0.961333 0.217655
Si Si7 0.880604 0.379587 0.811494
O O1 0.500000 0.780068 0.250000
O O2 0.695017 0.725153 0.600454
O O3 0.696571 0.818393 0.446958
O O4 0.674176 0.826364 0.692004
O O5 0.415010 0.804594 0.490620
O O6 0.403134 0.871481 0.681401
O O7 0.000000 0.899176 0.750000
O O8 0.126288 0.987913 0.905851
O O9 0.138645 0.947448 0.188324
O O10 0.237642 0.885435 0.150794
O O11 0.797270 0.469945 0.028117
O O12 0.785535 0.568426 0.159318
O O13 0.500000 0.988580 0.250000
O O14 0.512392 0.895340 0.109174
O O15 0.500000 0.000000 0.000000
#
# Coordination Sequence:
#
# PCOD8140945 Si02
#       7
#     8   4   8   8   8   8   8
#     4  11  24  46  71 100 133 176 224 270 335 404
#     4  12  22  42  68 102 136 166 218 280 336 388
#     4  12  26  46  65  91 135 183 228 272 328 400
#     4  11  24  40  64  99 133 178 221 269 336 399
#     4  11  26  46  70  98 134 176 222 280 337 390
#     4  10  21  33  57  95 133 167 203 263 326 391
#     4  11  23  39  67 102 138 170 215 277 336 395
#
# _framework density 21.591711
#
# number of rings (size 3 to 8) (size 9 to 14) (size 15 to 20)
#    0.000    0.923    3.077    4.154    8.615    0.615 
#    0.000    0.000    0.000    0.000    0.000    0.000 
#    0.000    0.000    0.000    0.000    0.000    0.000 
#
# Total GULP energy -322106.706893 kJ/mol
# GULP energy per Si atom -12388.719496 kJ/mol
# Density = 2.154257 g / cm^3
# Si number density = 21.591711 Si / 1000 Ang^3
#
#
#
# Elastic Constant Matrix: (Units=GPa)
#
#
# Indices 1 2 3 4 5 6 
#
# 1 94.0210 34.2418 21.8293 0.0000 -19.7468 0.0000
# 2 34.2418 96.5324 25.0420 0.0000 -10.1035 0.0000
# 3 21.8293 25.0420 94.7785 0.0000 -5.1199 0.0000
# 4 0.0000 0.0000 0.0000 27.2766 0.0000 4.5338
# 5 -19.7468 -10.1035 -5.1199 0.0000 41.3874 0.0000
# 6 0.0000 0.0000 0.0000 4.5338 0.0000 41.0622
#
#
#
# Elastic Compliance Matrix: (Units=1/GPa)
#
#
# Indices 1 2 3 4 5 6 
#
# 1 0.013554 -0.003775 -0.001837 0.000000 0.005318 0.000000
# 2 -0.003775 0.012408 -0.002358 0.000000 0.000936 0.000000
# 3 -0.001837 -0.002358 0.011596 0.000000 -0.000018 0.000000
# 4 0.000000 0.000000 0.000000 0.037347 0.000000 -0.004124
# 5 0.005318 0.000936 -0.000018 0.000000 0.026926 0.000000
# 6 0.000000 0.000000 0.000000 -0.004124 0.000000 0.024809
#
#
# Mechanical properties :
#
#
# Convention : Reuss Voigt Hill
#
# Bulk Modulus (GPa) = 46.25817 49.72868 47.99342
# Shear Modulus (GPa) = 33.38095 35.55983 34.47039
#
# Velocity S-wave (km/s) = 3.93620 4.06263 3.99991
# Velocity P-wave (km/s) = 6.49067 6.71476 6.60366
#
# Compressibility (1/GPa) = 0.02161780
#
# Stress axis : x y z
#
# Youngs Moduli (GPa) = 73.77820 80.59328 86.23492
#
# Poissons Ratio (x) = 0.30421 0.15843
# Poissons Ratio (y) = 0.27849 0.20338
# Poissons Ratio (z) = 0.13554 0.19007
#
# Static dielectric constant tensor:
#      x y z
#    x 3.935050 0.000000 -0.171930 
#    y 0.000000 4.032780 0.000000 
#    z -0.171930 0.000000 3.784440 
# 
# 
# High freq. dielectric constant tensor:
#      x y z
#    x 1.857720 0.000000 -0.012970 
#    y 0.000000 1.832150 0.000000 
#    z -0.012970 0.000000 1.846710 
# 
# From -- ./inp_files/58679.got.cif
#   From: 2010.06.25/outbox.cif.g09.slc.cpg/sg15_30_cif.got.tgz:58679.got - 2010.06.28 07:06:18.
