data_PCOD8140156
_publ_section_title
;
Structure prediction by ZEFSAII (Michael W. Deem and Ramdas Pophale) SiO2 
 PCOD8140156
Probable space group: C 2/C
;
_chemical_formula_sum "Si O2"
_cell_formula_units_Z 36
_cell_length_a 24.909334
_cell_length_b 8.623045
_cell_length_c 8.062973
_cell_angle_alpha 90.000000
_cell_angle_beta 121.794990
_cell_angle_gamma 90.000000
_cell_volume 1471.992552
_symmetry_space_group_name_H-M "C 2/C"
_symmetry_group_IT_number 15
_symmetry_cell_setting 'monoclinic'
loop_
_space_group_symop_operation_xyz
x,y,z
-x,y,1/2-z
-x,-y,-z
x,-y,1/2+z
1/2+x,1/2+y,z
1/2-x,1/2+y,1/2-z
1/2-x,1/2-y,-z
1/2+x,1/2-y,1/2+z
loop_
_atom_site_type_symbol
_atom_site_label
_atom_site_fract_x
_atom_site_fract_y
_atom_site_fract_z
Si Si1 0.320474 0.290555 0.567831
Si Si2 0.377873 0.564367 0.863819
Si Si3 0.935271 0.708672 0.205354
Si Si4 0.072535 0.389730 0.158789
Si Si5 0.000000 0.150936 0.250000
O O1 0.250000 0.250000 0.500000
O O2 0.354423 0.399046 0.761693
O O3 0.322141 0.367140 0.388079
O O4 0.362911 0.134768 0.629723
O O5 0.388539 0.673412 0.720892
O O6 0.442270 0.547763 0.080104
O O7 0.954089 0.563696 0.356724
O O8 0.000000 0.791282 0.250000
O O9 0.904412 0.632313 0.992794
O O10 0.022293 0.258158 0.133938
#
# Coordination Sequence:
#
# PCOD8140156 Si02
#       5
#     8   8   8   8   4
#     4  11  27  50  69 101 142 189 245 291 346 416
#     4  11  25  45  73 105 138 189 233 297 354 421
#     4  12  22  41  68 108 149 185 227 281 365 427
#     4  11  22  39  68 105 145 189 230 287 348 422
#     4  10  20  40  68 108 144 176 234 284 364 422
#
# _framework density 24.456645000000002
#
# number of rings (size 3 to 8) (size 9 to 14) (size 15 to 20)
#    0.000    0.889    3.333    4.667    0.000    7.111 
#   10.000    3.333    0.000    0.000    0.000    0.000 
#    0.000    0.000    0.000    0.000    0.000    0.000 
#
# Total GULP energy -223158.940369 kJ/mol
# GULP energy per Si atom -12397.718909 kJ/mol
# Density = 2.440098 g / cm^3
# Si number density = 24.456645 Si / 1000 Ang^3
#
#
#
# Elastic Constant Matrix: (Units=GPa)
#
#
# Indices 1 2 3 4 5 6 
#
# 1 184.4678 53.3163 46.5797 0.0000 -7.4694 0.0000
# 2 53.3163 83.2027 47.2299 0.0000 -0.2757 0.0000
# 3 46.5797 47.2299 89.7550 0.0000 -18.8763 0.0000
# 4 0.0000 0.0000 0.0000 45.7464 0.0000 -5.1479
# 5 -7.4694 -0.2757 -18.8763 0.0000 45.0969 0.0000
# 6 0.0000 0.0000 0.0000 -5.1479 0.0000 33.3184
#
#
#
# Elastic Compliance Matrix: (Units=1/GPa)
#
#
# Indices 1 2 3 4 5 6 
#
# 1 0.006853 -0.003453 -0.001650 0.000000 0.000423 0.000000
# 2 -0.003453 0.019571 -0.009432 0.000000 -0.004400 0.000000
# 3 -0.001650 -0.009432 0.018522 0.000000 0.007422 0.000000
# 4 0.000000 0.000000 0.000000 0.022246 0.000000 0.003437
# 5 0.000423 -0.004400 0.007422 0.000000 0.025324 0.000000
# 6 0.000000 0.000000 0.000000 0.003437 0.000000 0.030545
#
#
# Mechanical properties :
#
#
# Convention : Reuss Voigt Hill
#
# Bulk Modulus (GPa) = 62.99123 72.40859 67.69991
# Shear Modulus (GPa) = 31.76156 38.85232 35.30694
#
# Velocity S-wave (km/s) = 3.60764 3.99007 3.80367
# Velocity P-wave (km/s) = 6.57006 7.13434 6.85800
#
# Compressibility (1/GPa) = 0.01587523
#
# Stress axis : x y z
#
# Youngs Moduli (GPa) = 145.92341 51.09620 53.99032
#
# Poissons Ratio (x) = 0.17644 0.08910
# Poissons Ratio (y) = 0.50389 0.50922
# Poissons Ratio (z) = 0.24083 0.48193
#
# Static dielectric constant tensor:
#      x y z
#    x 4.366940 0.000000 -0.389660 
#    y 0.000000 4.322650 0.000000 
#    z -0.389660 0.000000 4.459840 
# 
# 
# High freq. dielectric constant tensor:
#      x y z
#    x 1.957450 0.000000 -0.035730 
#    y 0.000000 1.975840 0.000000 
#    z -0.035730 0.000000 1.976640 
# 
# From -- ./inp_files/64629.got.cif
#   From: 2010.06.25/outbox.cif.g09.slc.cpg/sg15_33_cif.got.tgz:64629.got - 2010.06.28 07:06:18.
