data_PCOD8140284
_publ_section_title
;
Structure prediction by ZEFSAII (Michael W. Deem and Ramdas Pophale) SiO2 
 PCOD8140284
Probable space group: C 2/C
;
_chemical_formula_sum "Si O2"
_cell_formula_units_Z 44
_cell_length_a 6.251651
_cell_length_b 13.633958
_cell_length_c 25.826030
_cell_angle_alpha 90.000000
_cell_angle_beta 99.762317
_cell_angle_gamma 90.000000
_cell_volume 2169.399861
_symmetry_space_group_name_H-M "C 2/C"
_symmetry_group_IT_number 15
_symmetry_cell_setting 'monoclinic'
loop_
_space_group_symop_operation_xyz
x,y,z
-x,y,1/2-z
-x,-y,-z
x,-y,1/2+z
1/2+x,1/2+y,z
1/2-x,1/2+y,1/2-z
1/2-x,1/2-y,-z
1/2+x,1/2-y,1/2+z
loop_
_atom_site_type_symbol
_atom_site_label
_atom_site_fract_x
_atom_site_fract_y
_atom_site_fract_z
Si Si1 0.913454 0.459481 0.801734
Si Si2 0.671826 0.941963 0.474254
Si Si3 0.278420 0.691266 0.341029
Si Si4 0.000000 0.144294 0.250000
Si Si5 0.018538 0.055156 0.426381
Si Si6 0.326023 0.896102 0.386546
O O1 0.665951 0.425396 0.787305
O O2 0.927492 0.549804 0.841233
O O3 0.000000 0.496640 0.750000
O O4 0.057918 0.370166 0.829262
O O5 0.839001 0.892538 0.521985
O O6 0.529467 0.868694 0.432739
O O7 0.500000 0.000000 0.500000
O O8 0.796699 0.017002 0.441985
O O9 0.372914 0.709962 0.287055
O O10 0.463739 0.635610 0.381298
O O11 0.216937 0.794541 0.364512
O O12 0.146221 0.963156 0.406880
#
# Coordination Sequence:
#
# PCOD8140284 Si02
#       6
#     8   8   8   4   8   8
#     4  10  22  42  59  87 126 158 203 257 300 360
#     4   9  20  39  65  90 125 162 199 254 309 358
#     4  11  23  39  64  92 122 161 208 248 300 370
#     4  10  22  44  60  86 128 162 196 262 304 348
#     4  10  20  41  62  91 130 157 203 257 296 366
#     4  11  22  39  65  92 121 166 202 246 310 359
#
# _framework density 20.282105999999999
#
# number of rings (size 3 to 8) (size 9 to 14) (size 15 to 20)
#    0.000    1.818    3.636    0.000    1.273    2.182 
#    4.909    8.182    0.000    0.000    0.000    0.000 
#    0.000    0.000    0.000    0.000    0.000    0.000 
#
# Total GULP energy -272703.090944 kJ/mol
# GULP energy per Si atom -12395.595043 kJ/mol
# Density = 2.023594 g / cm^3
# Si number density = 20.282106 Si / 1000 Ang^3
#
#
#
# Elastic Constant Matrix: (Units=GPa)
#
#
# Indices 1 2 3 4 5 6 
#
# 1 94.7488 33.1951 39.0222 0.0000 5.0265 0.0000
# 2 33.1951 90.5756 49.9079 0.0000 5.8530 0.0000
# 3 39.0222 49.9079 120.9520 0.0000 10.6009 0.0000
# 4 0.0000 0.0000 0.0000 18.3986 0.0000 0.7131
# 5 5.0265 5.8530 10.6009 0.0000 43.8794 0.0000
# 6 0.0000 0.0000 0.0000 0.7131 0.0000 20.8176
#
#
#
# Elastic Compliance Matrix: (Units=1/GPa)
#
#
# Indices 1 2 3 4 5 6 
#
# 1 0.012829 -0.003126 -0.002817 0.000000 -0.000372 0.000000
# 2 -0.003126 0.015061 -0.005171 0.000000 -0.000402 0.000000
# 3 -0.002817 -0.005171 0.011464 0.000000 -0.001757 0.000000
# 4 0.000000 0.000000 0.000000 0.054424 0.000000 -0.001864
# 5 -0.000372 -0.000402 -0.001757 0.000000 0.023310 0.000000
# 6 0.000000 0.000000 0.000000 -0.001864 0.000000 0.048100
#
#
# Mechanical properties :
#
#
# Convention : Reuss Voigt Hill
#
# Bulk Modulus (GPa) = 58.38457 61.16964 59.77710
# Shear Modulus (GPa) = 25.88994 28.89588 27.39291
#
# Velocity S-wave (km/s) = 3.57668 3.77861 3.67903
# Velocity P-wave (km/s) = 6.77537 7.01870 6.89810
#
# Compressibility (1/GPa) = 0.01712781
#
# Stress axis : x y z
#
# Youngs Moduli (GPa) = 77.94792 66.39547 87.22824
#
# Poissons Ratio (x) = 0.20753 0.24569
# Poissons Ratio (y) = 0.24364 0.45106
# Poissons Ratio (z) = 0.21955 0.34333
#
# Static dielectric constant tensor:
#      x y z
#    x 3.823670 0.000000 0.243380 
#    y 0.000000 3.119950 0.000000 
#    z 0.243380 0.000000 4.398620 
# 
# 
# High freq. dielectric constant tensor:
#      x y z
#    x 1.804050 0.000000 0.003940 
#    y 0.000000 1.740610 0.000000 
#    z 0.003940 0.000000 1.824960 
# 
# From -- ./inp_files/260354.got.cif
#   From: 2010.06.25/outbox.cif.g09.slc.cpg/sg15_131_cif.got.tgz:260354.got - 2010.06.28 07:06:18.
