data_PCOD8140041
_publ_section_title
;
Structure prediction by ZEFSAII (Michael W. Deem and Ramdas Pophale) SiO2 
 PCOD8140041
Probable space group: C 2/C
;
_chemical_formula_sum "Si O2"
_cell_formula_units_Z 56
_cell_length_a 16.065283
_cell_length_b 9.392558
_cell_length_c 22.580358
_cell_angle_alpha 90.000000
_cell_angle_beta 127.097504
_cell_angle_gamma 90.000000
_cell_volume 2717.651672
_symmetry_space_group_name_H-M "C 2/C"
_symmetry_group_IT_number 15
_symmetry_cell_setting 'monoclinic'
loop_
_space_group_symop_operation_xyz
x,y,z
-x,y,1/2-z
-x,-y,-z
x,-y,1/2+z
1/2+x,1/2+y,z
1/2-x,1/2+y,1/2-z
1/2-x,1/2-y,-z
1/2+x,1/2-y,1/2+z
loop_
_atom_site_type_symbol
_atom_site_label
_atom_site_fract_x
_atom_site_fract_y
_atom_site_fract_z
Si Si1 0.606081 0.466630 0.576464
Si Si2 0.061502 0.375102 0.216513
Si Si3 0.547213 0.561025 0.183352
Si Si4 0.551730 0.926625 0.605958
Si Si5 0.366182 0.847928 0.449239
Si Si6 0.836733 0.982878 0.646416
Si Si7 0.231697 0.222347 0.642498
O O1 0.500000 0.500000 0.500000
O O2 0.595919 0.486616 0.642674
O O3 0.648326 0.313532 0.577156
O O4 0.683875 0.588948 0.586530
O O5 0.043334 0.514711 0.168893
O O6 0.184604 0.345820 0.276918
O O7 0.000000 0.408495 0.250000
O O8 0.018233 0.228548 0.170354
O O9 0.628431 0.513397 0.269328
O O10 0.435031 0.487131 0.146359
O O11 0.439549 0.860682 0.538869
O O12 0.641840 0.807656 0.640048
O O13 0.578054 0.064210 0.578257
O O14 0.248576 0.901229 0.409083
O O15 0.785263 0.825808 0.616912
#
# Coordination Sequence:
#
# PCOD8140041 Si02
#       7
#     8   8   8   8   8   8   8
#     4  12  24  40  61  93 128 165 210 263 312 373
#     4  11  21  40  65  97 123 157 211 268 315 380
#     4  10  20  40  65  92 126 160 210 267 317 376
#     4  10  21  39  63  94 126 160 210 257 307 379
#     4  10  21  39  63  91 123 169 210 253 312 379
#     4   9  20  41  67  90 121 162 214 261 320 374
#     4  10  22  38  65  92 123 161 206 261 311 371
#
# _framework density 20.606024999999999
#
# number of rings (size 3 to 8) (size 9 to 14) (size 15 to 20)
#    0.000    1.714    5.714    0.000    6.000    0.000 
#    2.571    3.571    0.000    0.000    0.000    0.000 
#    0.000    0.000    0.000    0.000    0.000    0.000 
#
# Total GULP energy -347101.283562 kJ/mol
# GULP energy per Si atom -12396.474413 kJ/mol
# Density = 2.055912 g / cm^3
# Si number density = 20.606025 Si / 1000 Ang^3
#
#
#
# Elastic Constant Matrix: (Units=GPa)
#
#
# Indices 1 2 3 4 5 6 
#
# 1 69.7833 38.0984 50.6638 0.0000 28.0911 0.0000
# 2 38.0984 113.0904 48.8962 0.0000 15.9634 0.0000
# 3 50.6638 48.8962 101.5778 0.0000 25.0849 0.0000
# 4 0.0000 0.0000 0.0000 29.7702 0.0000 1.8624
# 5 28.0911 15.9634 25.0849 0.0000 33.7418 0.0000
# 6 0.0000 0.0000 0.0000 1.8624 0.0000 22.4833
#
#
#
# Elastic Compliance Matrix: (Units=1/GPa)
#
#
# Indices 1 2 3 4 5 6 
#
# 1 0.029228 -0.003780 -0.008808 0.000000 -0.015997 0.000000
# 2 -0.003780 0.011724 -0.003878 0.000000 0.000483 0.000000
# 3 -0.008808 -0.003878 0.016953 0.000000 -0.003436 0.000000
# 4 0.000000 0.000000 0.000000 0.033766 0.000000 -0.002797
# 5 -0.015997 0.000483 -0.003436 0.000000 0.045281 0.000000
# 6 0.000000 0.000000 0.000000 -0.002797 0.000000 0.044709
#
#
# Mechanical properties :
#
#
# Convention : Reuss Voigt Hill
#
# Bulk Modulus (GPa) = 40.04192 62.19646 51.11919
# Shear Modulus (GPa) = 22.42995 26.98526 24.70760
#
# Velocity S-wave (km/s) = 3.30284 3.62274 3.46648
# Velocity P-wave (km/s) = 5.83261 6.91000 6.39404
#
# Compressibility (1/GPa) = 0.02497383
#
# Stress axis : x y z
#
# Youngs Moduli (GPa) = 34.21381 85.29293 58.98726
#
# Poissons Ratio (x) = 0.32243 0.51955
# Poissons Ratio (y) = 0.12934 0.22872
# Poissons Ratio (z) = 0.30135 0.33072
#
# Static dielectric constant tensor:
#      x y z
#    x 2.732110 0.000000 0.156110 
#    y 0.000000 3.815300 0.000000 
#    z 0.156110 0.000000 3.770480 
# 
# 
# High freq. dielectric constant tensor:
#      x y z
#    x 1.790270 0.000000 0.026350 
#    y 0.000000 1.806560 0.000000 
#    z 0.026350 0.000000 1.800660 
# 
# From -- ./inp_files/276622.got.cif
#   From: 2010.06.25/outbox.cif.g09.slc.cpg/sg15_139_cif.got.tgz:276622.got - 2010.06.28 07:06:18.
