data_PCOD8140269
_publ_section_title
;
Structure prediction by ZEFSAII (Michael W. Deem and Ramdas Pophale) SiO2 
 PCOD8140269
Probable space group: C 2/C
;
_chemical_formula_sum "Si O2"
_cell_formula_units_Z 56
_cell_length_a 6.964196
_cell_length_b 23.350818
_cell_length_c 18.790729
_cell_angle_alpha 90.000000
_cell_angle_beta 65.352595
_cell_angle_gamma 90.000000
_cell_volume 2777.337750
_symmetry_space_group_name_H-M "C 2/C"
_symmetry_group_IT_number 15
_symmetry_cell_setting 'monoclinic'
loop_
_space_group_symop_operation_xyz
x,y,z
-x,y,1/2-z
-x,-y,-z
x,-y,1/2+z
1/2+x,1/2+y,z
1/2-x,1/2+y,1/2-z
1/2-x,1/2-y,-z
1/2+x,1/2-y,1/2+z
loop_
_atom_site_type_symbol
_atom_site_label
_atom_site_fract_x
_atom_site_fract_y
_atom_site_fract_z
Si Si1 0.000000 0.538248 0.750000
Si Si2 0.201681 0.262647 0.922938
Si Si3 0.515076 0.355603 0.434169
Si Si4 0.244209 0.034739 0.392337
Si Si5 0.790430 0.130271 0.738487
Si Si6 0.298460 0.561194 0.485491
Si Si7 0.500000 0.230263 0.750000
Si Si8 0.446938 0.879432 0.956246
O O1 0.840303 0.495903 0.810975
O O2 0.872621 0.579599 0.714134
O O3 0.398182 0.264351 0.834401
O O4 0.078691 0.321391 0.928065
O O5 0.043295 0.212438 0.924736
O O6 0.250000 0.250000 0.000000
O O7 0.640045 0.386353 0.351641
O O8 0.630329 0.381089 0.484975
O O9 0.266244 0.368480 0.465781
O O10 0.373546 0.093030 0.392173
O O11 0.003406 0.047300 0.405646
O O12 0.250254 0.993994 0.459966
O O13 0.676756 0.191429 0.760896
O O14 0.000000 0.132964 0.750000
O O15 0.091073 0.573596 0.472441
#
# Coordination Sequence:
#
# PCOD8140269 Si02
#       8
#     4   8   8   8   8   8   4   8
#     4  11  22  40  60  88 126 158 204 251 316 374
#     4  11  22  42  67  89 125 171 206 264 320 377
#     4  10  21  38  63  96 120 148 217 261 313 374
#     4  10  23  39  58  88 123 160 204 257 300 376
#     4  10  22  36  64  94 122 158 196 266 323 367
#     4  10  20  41  60  87 122 155 201 260 303 366
#     4   9  24  44  56  96 134 152 208 271 312 368
#     4  11  23  38  65  89 119 167 209 249 311 386
#
# _framework density 20.163195000000002
#
# number of rings (size 3 to 8) (size 9 to 14) (size 15 to 20)
#    0.000    1.714    2.857    0.857    4.000    1.143 
#    2.571    0.000    1.571    0.000    0.000    0.000 
#    0.000    0.000    0.000    0.000    0.000    0.000 
#
# Total GULP energy -346866.368133 kJ/mol
# GULP energy per Si atom -12388.084576 kJ/mol
# Density = 2.011730 g / cm^3
# Si number density = 20.163195 Si / 1000 Ang^3
#
#
#
# Elastic Constant Matrix: (Units=GPa)
#
#
# Indices 1 2 3 4 5 6 
#
# 1 109.0555 17.9482 16.8683 0.0000 -21.6935 0.0000
# 2 17.9482 84.1633 15.1026 0.0000 -11.3561 0.0000
# 3 16.8683 15.1026 89.1568 0.0000 -16.2878 0.0000
# 4 0.0000 0.0000 0.0000 25.9507 0.0000 -12.3913
# 5 -21.6935 -11.3561 -16.2878 0.0000 24.7087 0.0000
# 6 0.0000 0.0000 0.0000 -12.3913 0.0000 32.9457
#
#
#
# Elastic Compliance Matrix: (Units=1/GPa)
#
#
# Indices 1 2 3 4 5 6 
#
# 1 0.011216 -0.001108 -0.000260 0.000000 0.009166 0.000000
# 2 -0.001108 0.012897 -0.001216 0.000000 0.004152 0.000000
# 3 -0.000260 -0.001216 0.012878 0.000000 0.007702 0.000000
# 4 0.000000 0.000000 0.000000 0.046970 0.000000 0.017666
# 5 0.009166 0.004152 0.007702 0.000000 0.055505 0.000000
# 6 0.000000 0.000000 0.000000 0.017666 0.000000 0.036997
#
#
# Mechanical properties :
#
#
# Convention : Reuss Voigt Hill
#
# Bulk Modulus (GPa) = 31.42473 42.46820 36.94646
# Shear Modulus (GPa) = 26.00922 32.21812 29.11367
#
# Velocity S-wave (km/s) = 3.59546 4.00167 3.80399
# Velocity P-wave (km/s) = 5.73197 6.51607 6.13656
#
# Compressibility (1/GPa) = 0.03182207
#
# Stress axis : x y z
#
# Youngs Moduli (GPa) = 89.16140 77.54000 77.64881
#
# Poissons Ratio (x) = 0.08594 0.02016
# Poissons Ratio (y) = 0.09882 0.09444
# Poissons Ratio (z) = 0.02315 0.09431
#
# Static dielectric constant tensor:
#      x y z
#    x 3.559550 0.000000 -0.452050 
#    y 0.000000 3.760730 0.000000 
#    z -0.452050 0.000000 3.739500 
# 
# 
# High freq. dielectric constant tensor:
#      x y z
#    x 1.785340 0.000000 -0.028420 
#    y 0.000000 1.794130 0.000000 
#    z -0.028420 0.000000 1.775370 
# 
# From -- ./inp_files/228428.got.cif
#   From: 2010.06.25/outbox.cif.g09.slc.cpg/sg15_115_cif.got.tgz:228428.got - 2010.06.28 07:06:18.
