data_PCOD8140834
_publ_section_title
;
Structure prediction by ZEFSAII (Michael W. Deem and Ramdas Pophale) SiO2 
 PCOD8140834
Probable space group: C 2/C
;
_chemical_formula_sum "Si O2"
_cell_formula_units_Z 52
_cell_length_a 11.755045
_cell_length_b 21.416376
_cell_length_c 9.909962
_cell_angle_alpha 90.000000
_cell_angle_beta 105.326315
_cell_angle_gamma 90.000000
_cell_volume 2406.111436
_symmetry_space_group_name_H-M "C 2/C"
_symmetry_group_IT_number 15
_symmetry_cell_setting 'monoclinic'
loop_
_space_group_symop_operation_xyz
x,y,z
-x,y,1/2-z
-x,-y,-z
x,-y,1/2+z
1/2+x,1/2+y,z
1/2-x,1/2+y,1/2-z
1/2-x,1/2-y,-z
1/2+x,1/2-y,1/2+z
loop_
_atom_site_type_symbol
_atom_site_label
_atom_site_fract_x
_atom_site_fract_y
_atom_site_fract_z
Si Si1 0.690767 0.502393 0.036485
Si Si2 0.385186 0.805695 0.125664
Si Si3 0.867966 0.214573 0.881913
Si Si4 0.995260 0.399260 0.516746
Si Si5 0.004611 0.088602 0.596472
Si Si6 0.500000 0.807556 0.750000
Si Si7 0.844393 0.504333 0.837084
O O1 0.608847 0.445539 0.051534
O O2 0.802574 0.504256 0.170678
O O3 0.618789 0.568281 0.012690
O O4 0.736499 0.487787 0.901127
O O5 0.500000 0.795245 0.250000
O O6 0.265402 0.812448 0.177310
O O7 0.376566 0.744164 0.031996
O O8 0.402509 0.868097 0.042263
O O9 0.969530 0.162003 0.904582
O O10 0.892834 0.265183 0.772433
O O11 0.946515 0.349250 0.610821
O O12 0.890400 0.425183 0.386746
O O13 0.048025 0.456904 0.615241
O O14 0.000000 0.066523 0.750000
#
# Coordination Sequence:
#
# PCOD8140834 Si02
#       7
#     8   8   8   8   8   4   8
#     4  11  24  40  64  96 131 172 222 271 334 399
#     4  10  23  43  63  98 124 175 221 273 331 405
#     4  10  22  44  67  89 139 169 221 278 336 390
#     4  10  23  39  67  94 133 169 224 269 337 394
#     4  11  22  42  64  93 129 176 219 273 333 404
#     4  10  20  44  66  98 130 178 222 282 328 406
#     4  11  23  41  64  97 134 175 216 280 334 397
#
# _framework density 21.611636000000001
#
# number of rings (size 3 to 8) (size 9 to 14) (size 15 to 20)
#    0.000    1.538    2.308    1.846    4.308    1.231 
#   13.846    1.538    0.000    0.000    0.000    0.000 
#    0.000    0.000    0.000    0.000    0.000    0.000 
#
# Total GULP energy -322391.013505 kJ/mol
# GULP energy per Si atom -12399.654366 kJ/mol
# Density = 2.156245 g / cm^3
# Si number density = 21.611636 Si / 1000 Ang^3
#
#
#
# Elastic Constant Matrix: (Units=GPa)
#
#
# Indices 1 2 3 4 5 6 
#
# 1 84.8575 36.2179 23.6145 0.0000 -5.3829 0.0000
# 2 36.2179 110.0663 32.8142 0.0000 4.2136 0.0000
# 3 23.6145 32.8142 76.6730 0.0000 15.9542 0.0000
# 4 0.0000 0.0000 0.0000 22.3544 0.0000 6.0283
# 5 -5.3829 4.2136 15.9542 0.0000 41.6381 0.0000
# 6 0.0000 0.0000 0.0000 6.0283 0.0000 26.9599
#
#
#
# Elastic Compliance Matrix: (Units=1/GPa)
#
#
# Indices 1 2 3 4 5 6 
#
# 1 0.014688 -0.003894 -0.003623 0.000000 0.003681 0.000000
# 2 -0.003894 0.011466 -0.003653 0.000000 -0.000264 0.000000
# 3 -0.003623 -0.003653 0.017106 0.000000 -0.006653 0.000000
# 4 0.000000 0.000000 0.000000 0.047604 0.000000 -0.010644
# 5 0.003681 -0.000264 -0.006653 0.000000 0.027068 0.000000
# 6 0.000000 0.000000 0.000000 -0.010644 0.000000 0.039472
#
#
# Mechanical properties :
#
#
# Convention : Reuss Voigt Hill
#
# Bulk Modulus (GPa) = 47.80128 50.76556 49.28342
# Shear Modulus (GPa) = 26.77823 30.12050 28.44937
#
# Velocity S-wave (km/s) = 3.52385 3.73730 3.63215
# Velocity P-wave (km/s) = 6.22279 6.49339 6.35953
#
# Compressibility (1/GPa) = 0.02091994
#
# Stress axis : x y z
#
# Youngs Moduli (GPa) = 68.08160 87.21509 58.45873
#
# Poissons Ratio (x) = 0.33961 0.21181
# Poissons Ratio (y) = 0.26511 0.21354
# Poissons Ratio (z) = 0.24668 0.31859
#
# Static dielectric constant tensor:
#      x y z
#    x 3.972890 0.000000 -0.088490 
#    y 0.000000 3.979370 0.000000 
#    z -0.088490 0.000000 3.914940 
# 
# 
# High freq. dielectric constant tensor:
#      x y z
#    x 1.856310 0.000000 -0.017120 
#    y 0.000000 1.849880 0.000000 
#    z -0.017120 0.000000 1.839340 
# 
# From -- ./inp_files/89086.got.cif
#   From: 2010.06.25/outbox.cif.g09.slc.cpg/sg15_45_cif.got.tgz:89086.got - 2010.06.28 07:06:18.
