data_PCOD8140354
_publ_section_title
;
Structure prediction by ZEFSAII (Michael W. Deem and Ramdas Pophale) SiO2 
 PCOD8140354
Probable space group: C 2/C
;
_chemical_formula_sum "Si O2"
_cell_formula_units_Z 28
_cell_length_a 23.458507
_cell_length_b 6.874509
_cell_length_c 16.670042
_cell_angle_alpha 90.000000
_cell_angle_beta 152.189501
_cell_angle_gamma 90.000000
_cell_volume 1254.225869
_symmetry_space_group_name_H-M "C 2/C"
_symmetry_group_IT_number 15
_symmetry_cell_setting 'monoclinic'
loop_
_space_group_symop_operation_xyz
x,y,z
-x,y,1/2-z
-x,-y,-z
x,-y,1/2+z
1/2+x,1/2+y,z
1/2-x,1/2+y,1/2-z
1/2-x,1/2-y,-z
1/2+x,1/2-y,1/2+z
loop_
_atom_site_type_symbol
_atom_site_label
_atom_site_fract_x
_atom_site_fract_y
_atom_site_fract_z
Si Si1 0.046432 0.306611 0.018439
Si Si2 0.878698 0.373858 0.559792
Si Si3 0.000000 0.004458 0.750000
Si Si4 0.623191 0.531909 0.249341
O O1 0.126846 0.188090 0.182762
O O2 0.127235 0.377516 0.044225
O O3 0.000000 0.500000 0.000000
O O4 0.934160 0.173418 0.849390
O O5 0.881698 0.144465 0.587347
O O6 0.761959 0.488313 0.448494
O O7 0.000000 0.475180 0.750000
O O8 0.958154 0.882710 0.776747
#
# Coordination Sequence:
#
# PCOD8140354 Si02
#       4
#     8   8   4   8
#     4  10  23  39  61  96 126 167 215 259 312 380
#     4   9  20  38  65  93 127 169 204 264 321 370
#     4   8  18  36  64  92 130 168 208 260 312 376
#     4  10  20  41  65  91 128 170 206 261 324 365
#
# _framework density 22.324527
#
# number of rings (size 3 to 8) (size 9 to 14) (size 15 to 20)
#    0.857    1.714    0.000    0.857    4.000    0.000 
#    2.571    1.429    0.000    0.000    0.000    0.000 
#    0.000    0.000    0.000    0.000    0.000    0.000 
#
# Total GULP energy -173445.185002 kJ/mol
# GULP energy per Si atom -12388.941786 kJ/mol
# Density = 2.227372 g / cm^3
# Si number density = 22.324527 Si / 1000 Ang^3
#
#
#
# Elastic Constant Matrix: (Units=GPa)
#
#
# Indices 1 2 3 4 5 6 
#
# 1 166.1180 30.3649 52.1411 0.0000 -15.7936 0.0000
# 2 30.3649 52.1720 15.3531 -0.0001 1.6352 0.0000
# 3 52.1411 15.3531 120.0229 0.0000 10.5278 0.0000
# 4 0.0000 -0.0001 0.0000 13.6466 0.0000 -3.9875
# 5 -15.7936 1.6352 10.5278 0.0000 30.7302 0.0000
# 6 0.0000 0.0000 0.0000 -3.9875 0.0000 13.5652
#
#
#
# Elastic Compliance Matrix: (Units=1/GPa)
#
#
# Indices 1 2 3 4 5 6 
#
# 1 0.008462 -0.004027 -0.003671 0.000000 0.005821 0.000000
# 2 -0.004027 0.021835 -0.000784 0.000000 -0.002963 0.000000
# 3 -0.003671 -0.000784 0.010504 0.000000 -0.005444 0.000000
# 4 0.000000 0.000000 0.000000 0.080163 0.000000 0.023564
# 5 0.005821 -0.002963 -0.005444 0.000000 0.037556 0.000000
# 6 0.000000 0.000000 0.000000 0.023564 0.000000 0.080644
#
#
# Mechanical properties :
#
#
# Convention : Reuss Voigt Hill
#
# Bulk Modulus (GPa) = 41.95228 59.33678 50.64453
# Shear Modulus (GPa) = 18.93410 27.61867 23.27638
#
# Velocity S-wave (km/s) = 2.91543 3.52112 3.23249
# Velocity P-wave (km/s) = 5.49234 6.57023 6.05532
#
# Compressibility (1/GPa) = 0.02383660
#
# Stress axis : x y z
#
# Youngs Moduli (GPa) = 118.17951 45.79891 95.19737
#
# Poissons Ratio (x) = 0.18443 0.34951
# Poissons Ratio (y) = 0.47589 0.07461
# Poissons Ratio (z) = 0.43389 0.03590
#
# Static dielectric constant tensor:
#      x y z
#    x 4.730610 0.000000 -0.315600 
#    y 0.000000 3.627730 0.000000 
#    z -0.315600 0.000000 3.768940 
# 
# 
# High freq. dielectric constant tensor:
#      x y z
#    x 1.896820 0.000000 -0.015700 
#    y 0.000000 1.849170 0.000000 
#    z -0.015700 0.000000 1.857300 
# 
# From -- ./inp_files/218085.got.cif
#   From: 2010.06.25/outbox.cif.g09.slc.cpg/sg15_110_cif.got.tgz:218085.got - 2010.06.28 07:06:18.
