data_PCOD8140198
_publ_section_title
;
Structure prediction by ZEFSAII (Michael W. Deem and Ramdas Pophale) SiO2 
 PCOD8140198
Probable space group: C 2/C
;
_chemical_formula_sum "Si O2"
_cell_formula_units_Z 28
_cell_length_a 10.900193
_cell_length_b 16.120194
_cell_length_c 7.690064
_cell_angle_alpha 90.000000
_cell_angle_beta 106.070119
_cell_angle_gamma 90.000000
_cell_volume 1298.444191
_symmetry_space_group_name_H-M "C 2/C"
_symmetry_group_IT_number 15
_symmetry_cell_setting 'monoclinic'
loop_
_space_group_symop_operation_xyz
x,y,z
-x,y,1/2-z
-x,-y,-z
x,-y,1/2+z
1/2+x,1/2+y,z
1/2-x,1/2+y,1/2-z
1/2-x,1/2-y,-z
1/2+x,1/2-y,1/2+z
loop_
_atom_site_type_symbol
_atom_site_label
_atom_site_fract_x
_atom_site_fract_y
_atom_site_fract_z
Si Si1 0.764973 0.402477 0.440891
Si Si2 0.486994 0.209834 0.941835
Si Si3 0.000000 0.839406 0.250000
Si Si4 0.122377 0.566631 0.176679
O O1 0.622425 0.399031 0.311208
O O2 0.837767 0.484306 0.406136
O O3 0.763222 0.403414 0.651317
O O4 0.842411 0.321636 0.409914
O O5 0.500000 0.241445 0.750000
O O6 0.513158 0.284884 0.082496
O O7 0.589681 0.137111 0.021978
O O8 0.000000 0.549838 0.250000
#
# Coordination Sequence:
#
# PCOD8140198 Si02
#       4
#     8   8   4   8
#     4  11  22  41  65  94 131 161 214 259 310 373
#     4  11  22  42  69  92 121 169 216 257 308 370
#     4  12  26  42  60  98 138 162 194 270 324 370
#     4  10  20  40  69  92 120 166 220 259 296 371
#
# _framework density 21.56427
#
# number of rings (size 3 to 8) (size 9 to 14) (size 15 to 20)
#    0.000    1.143    4.286    6.857    0.000    2.286 
#    5.143    0.000    0.000    0.000    0.000    0.000 
#    0.000    0.000    0.000    0.000    0.000    0.000 
#
# Total GULP energy -173616.790859 kJ/mol
# GULP energy per Si atom -12401.199347 kJ/mol
# Density = 2.151519 g / cm^3
# Si number density = 21.564270 Si / 1000 Ang^3
#
#
#
# Elastic Constant Matrix: (Units=GPa)
#
#
# Indices 1 2 3 4 5 6 
#
# 1 38.2992 15.9742 42.3811 0.0000 15.3612 0.0000
# 2 15.9742 60.1215 24.5067 0.0000 -6.3523 0.0000
# 3 42.3811 24.5067 157.6377 0.0000 -12.3350 0.0000
# 4 0.0000 0.0000 0.0000 39.0302 0.0000 3.9691
# 5 15.3612 -6.3523 -12.3350 0.0000 45.6569 0.0000
# 6 0.0000 0.0000 0.0000 3.9691 0.0000 3.8051
#
#
#
# Elastic Compliance Matrix: (Units=1/GPa)
#
#
# Indices 1 2 3 4 5 6 
#
# 1 0.059387 -0.011946 -0.016144 0.000000 -0.026005 0.000000
# 2 -0.011946 0.020301 0.000604 0.000000 0.007007 0.000000
# 3 -0.016144 0.000604 0.011260 0.000000 0.008558 0.000000
# 4 0.000000 0.000000 0.000000 0.028661 0.000000 -0.029896
# 5 -0.026005 0.007007 0.008558 0.000000 0.033939 0.000000
# 6 0.000000 0.000000 0.000000 -0.029896 0.000000 0.293986
#
#
# Mechanical properties :
#
#
# Convention : Reuss Voigt Hill
#
# Bulk Modulus (GPa) = 27.79634 46.86471 37.33052
# Shear Modulus (GPa) = 9.71820 29.24489 19.48154
#
# Velocity S-wave (km/s) = 2.12518 3.68662 3.00895
# Velocity P-wave (km/s) = 4.35199 6.31675 5.42407
#
# Compressibility (1/GPa) = 0.03597596
#
# Stress axis : x y z
#
# Youngs Moduli (GPa) = 16.83856 49.25813 88.81191
#
# Poissons Ratio (x) = 0.58844 1.43379
# Poissons Ratio (y) = 0.20116 -0.05364
# Poissons Ratio (z) = 0.27184 -0.02975
#
# Static dielectric constant tensor:
#      x y z
#    x 3.558690 0.000000 0.164020 
#    y 0.000000 3.632380 0.000000 
#    z 0.164020 0.000000 4.547150 
# 
# 
# High freq. dielectric constant tensor:
#      x y z
#    x 1.812440 0.000000 0.007430 
#    y 0.000000 1.832070 0.000000 
#    z 0.007430 0.000000 1.878100 
# 
# From -- ./inp_files/27503.got.cif
#   From: 2010.06.25/outbox.cif.g09.slc.cpg/sg15_14_cif.got.tgz:27503.got - 2010.06.28 07:06:18.
