data_PCOD8140520
_publ_section_title
;
Structure prediction by ZEFSAII (Michael W. Deem and Ramdas Pophale) SiO2 
 PCOD8140520
Probable space group: C 2/C
;
_chemical_formula_sum "Si O2"
_cell_formula_units_Z 32
_cell_length_a 10.275849
_cell_length_b 26.674108
_cell_length_c 5.046919
_cell_angle_alpha 90.000000
_cell_angle_beta 104.468637
_cell_angle_gamma 90.000000
_cell_volume 1339.482229
_symmetry_space_group_name_H-M "C 2/C"
_symmetry_group_IT_number 15
_symmetry_cell_setting 'monoclinic'
loop_
_space_group_symop_operation_xyz
x,y,z
-x,y,1/2-z
-x,-y,-z
x,-y,1/2+z
1/2+x,1/2+y,z
1/2-x,1/2+y,1/2-z
1/2-x,1/2-y,-z
1/2+x,1/2-y,1/2+z
loop_
_atom_site_type_symbol
_atom_site_label
_atom_site_fract_x
_atom_site_fract_y
_atom_site_fract_z
Si Si1 0.500000 0.465011 0.250000
Si Si2 0.799290 0.313494 0.787909
Si Si3 0.000000 0.607051 0.250000
Si Si4 0.788932 0.465145 0.452221
Si Si5 0.862140 0.797906 0.306932
O O1 0.500000 0.500000 0.500000
O O2 0.643701 0.435500 0.340021
O O3 0.903594 0.358645 0.881286
O O4 0.874165 0.261078 0.884516
O O5 0.753298 0.310910 0.460667
O O6 0.676548 0.323596 0.931892
O O7 0.090067 0.574398 0.499455
O O8 0.801903 0.508535 0.243639
O O9 0.000000 0.818294 0.250000
#
# Coordination Sequence:
#
# PCOD8140520 Si02
#       5
#     4   8   4   8   8
#     4   8  16  36  62  87 116 166 212 247 312 390
#     4  10  23  36  63  95 122 173 210 282 319 394
#     4  12  24  42  62 105 138 166 228 271 338 388
#     4  10  22  40  66  94 133 175 212 267 332 399
#     4  10  20  42  63  85 127 171 228 257 339 384
#
# _framework density 23.889827
#
# number of rings (size 3 to 8) (size 9 to 14) (size 15 to 20)
#    0.000    2.000    1.250    1.500    0.000    5.000 
#    2.250    0.000   16.500    0.000    0.000    0.000 
#    0.000    0.250    0.000    0.000    0.000    0.000 
#
# Total GULP energy -198278.546181 kJ/mol
# GULP energy per Si atom -12392.409136 kJ/mol
# Density = 2.383545 g / cm^3
# Si number density = 23.889827 Si / 1000 Ang^3
#
#
#
# Elastic Constant Matrix: (Units=GPa)
#
#
# Indices 1 2 3 4 5 6 
#
# 1 163.4085 64.6923 40.8764 0.0000 13.7554 0.0000
# 2 64.6923 72.1942 26.4635 0.0000 21.5780 0.0000
# 3 40.8764 26.4635 104.7352 0.0000 -1.4993 0.0000
# 4 0.0000 0.0000 0.0000 8.4332 0.0000 5.6095
# 5 13.7554 21.5780 -1.4993 0.0000 50.6712 0.0000
# 6 0.0000 0.0000 0.0000 5.6095 0.0000 50.1213
#
#
#
# Elastic Compliance Matrix: (Units=1/GPa)
#
#
# Indices 1 2 3 4 5 6 
#
# 1 0.009805 -0.008431 -0.001684 0.000000 0.000879 0.000000
# 2 -0.008431 0.025111 -0.003176 0.000000 -0.008498 0.000000
# 3 -0.001684 -0.003176 0.011038 0.000000 0.002136 0.000000
# 4 0.000000 0.000000 0.000000 0.128116 0.000000 -0.014338
# 5 0.000879 -0.008498 0.002136 0.000000 0.023179 0.000000
# 6 0.000000 0.000000 0.000000 -0.014338 0.000000 0.021556
#
#
# Mechanical properties :
#
#
# Convention : Reuss Voigt Hill
#
# Bulk Modulus (GPa) = 51.62108 67.15579 59.38844
# Shear Modulus (GPa) = 19.85357 35.73219 27.79288
#
# Velocity S-wave (km/s) = 2.88592 3.87163 3.41453
# Velocity P-wave (km/s) = 5.72360 6.93958 6.36071
#
# Compressibility (1/GPa) = 0.01937193
#
# Stress axis : x y z
#
# Youngs Moduli (GPa) = 101.99114 39.82303 90.59606
#
# Poissons Ratio (x) = 0.33577 0.15253
# Poissons Ratio (y) = 0.85994 0.28772
# Poissons Ratio (z) = 0.17172 0.12647
#
# Static dielectric constant tensor:
#      x y z
#    x 4.870220 0.000000 0.155780 
#    y 0.000000 3.941030 0.000000 
#    z 0.155780 0.000000 4.270920 
# 
# 
# High freq. dielectric constant tensor:
#      x y z
#    x 1.963710 0.000000 0.000150 
#    y 0.000000 1.909170 0.000000 
#    z 0.000150 0.000000 1.950480 
# 
# From -- ./inp_files/4171.got.cif
#   From: 2010.06.25/outbox.cif.g09.slc.cpg/sg15_3_cif.got.tgz:4171.got - 2010.06.28 07:06:18.
