data_PCOD8140102
_publ_section_title
;
Structure prediction by ZEFSAII (Michael W. Deem and Ramdas Pophale) SiO2 
 PCOD8140102
Probable space group: C 2/C
;
_chemical_formula_sum "Si O2"
_cell_formula_units_Z 48
_cell_length_a 21.652384
_cell_length_b 8.846773
_cell_length_c 23.379696
_cell_angle_alpha 90.000000
_cell_angle_beta 149.460430
_cell_angle_gamma 90.000000
_cell_volume 2275.658693
_symmetry_space_group_name_H-M "C 2/C"
_symmetry_group_IT_number 15
_symmetry_cell_setting 'monoclinic'
loop_
_space_group_symop_operation_xyz
x,y,z
-x,y,1/2-z
-x,-y,-z
x,-y,1/2+z
1/2+x,1/2+y,z
1/2-x,1/2+y,1/2-z
1/2-x,1/2-y,-z
1/2+x,1/2-y,1/2+z
loop_
_atom_site_type_symbol
_atom_site_label
_atom_site_fract_x
_atom_site_fract_y
_atom_site_fract_z
Si Si1 0.081234 0.393838 0.603672
Si Si2 0.580692 0.078178 0.710669
Si Si3 0.999890 0.072460 0.562399
Si Si4 0.187476 0.898006 0.780491
Si Si5 0.198644 0.580347 0.014888
Si Si6 0.220284 0.063393 0.542458
O O1 0.134244 0.489738 0.698914
O O2 0.194969 0.331812 0.658256
O O3 0.000000 0.500000 0.500000
O O4 0.998535 0.253212 0.556897
O O5 0.594516 0.259323 0.715615
O O6 0.440361 0.029326 0.602626
O O7 0.652841 0.025482 0.824636
O O8 0.886187 0.024065 0.510325
O O9 0.000000 0.000000 0.500000
O O10 0.123319 0.026085 0.692394
O O11 0.231202 0.982988 0.873571
O O12 0.198011 0.758962 0.024851
O O13 0.270295 0.517570 0.016681
#
# Coordination Sequence:
#
# PCOD8140102 Si02
#       6
#     8   8   8   8   8   8
#     4  12  24  40  66  92 131 169 212 274 327 386
#     4  11  21  41  63  94 126 166 217 262 325 381
#     4  12  24  42  64  97 129 163 219 267 326 387
#     4  11  22  40  67  94 128 168 217 271 319 388
#     4  10  20  40  66  96 127 167 216 260 321 389
#     4  10  22  38  67  97 125 167 214 269 315 384
#
# _framework density 21.092793
#
# number of rings (size 3 to 8) (size 9 to 14) (size 15 to 20)
#    0.000    1.000    3.333    5.500    0.000    2.000 
#    0.000    0.833    3.667    0.000    0.000    0.000 
#    0.000    0.000    0.000    0.000    0.000    0.000 
#
# Total GULP energy -297608.338557 kJ/mol
# GULP energy per Si atom -12400.347440 kJ/mol
# Density = 2.104479 g / cm^3
# Si number density = 21.092793 Si / 1000 Ang^3
#
#
#
# Elastic Constant Matrix: (Units=GPa)
#
#
# Indices 1 2 3 4 5 6 
#
# 1 153.3747 36.0597 72.0608 0.0001 -14.3699 0.0000
# 2 36.0597 84.1973 43.4607 0.0001 -7.7916 0.0000
# 3 72.0608 43.4607 154.4387 0.0001 -21.8605 0.0001
# 4 0.0001 0.0001 0.0001 25.8841 0.0001 1.0929
# 5 -14.3699 -7.7916 -21.8605 0.0001 42.6638 0.0000
# 6 0.0000 0.0000 0.0001 1.0929 0.0000 27.1227
#
#
#
# Elastic Compliance Matrix: (Units=1/GPa)
#
#
# Indices 1 2 3 4 5 6 
#
# 1 0.008626 -0.001873 -0.003380 0.000000 0.000831 0.000000
# 2 -0.001873 0.014315 -0.003099 0.000000 0.000396 0.000000
# 3 -0.003380 -0.003099 0.009362 0.000000 0.003093 0.000000
# 4 0.000000 0.000000 0.000000 0.038700 0.000000 -0.001559
# 5 0.000831 0.000396 0.003093 0.000000 0.025376 0.000000
# 6 0.000000 0.000000 0.000000 -0.001559 0.000000 0.036932
#
#
# Mechanical properties :
#
#
# Convention : Reuss Voigt Hill
#
# Bulk Modulus (GPa) = 64.10189 77.24146 70.67168
# Shear Modulus (GPa) = 32.21347 35.16274 33.68811
#
# Velocity S-wave (km/s) = 3.91221 4.08738 4.00076
# Velocity P-wave (km/s) = 7.13187 7.67951 7.41075
#
# Compressibility (1/GPa) = 0.01560016
#
# Stress axis : x y z
#
# Youngs Moduli (GPa) = 115.92347 69.85725 106.81425
#
# Poissons Ratio (x) = 0.13082 0.36107
# Poissons Ratio (y) = 0.21709 0.33097
# Poissons Ratio (z) = 0.39186 0.21646
#
# Static dielectric constant tensor:
#      x y z
#    x 4.167330 0.000000 -0.318370 
#    y 0.000000 3.471740 0.000000 
#    z -0.318370 0.000000 4.103960 
# 
# 
# High freq. dielectric constant tensor:
#      x y z
#    x 1.834160 0.000000 -0.008750 
#    y 0.000000 1.793200 0.000000 
#    z -0.008750 0.000000 1.846040 
# 
# From -- ./inp_files/116364.got.cif
#   From: 2010.06.25/outbox.cif.g09.slc.cpg/sg15_59_cif.got.tgz:116364.got - 2010.06.28 07:06:18.
