data_PCOD8140227
_publ_section_title
;
Structure prediction by ZEFSAII (Michael W. Deem and Ramdas Pophale) SiO2 
 PCOD8140227
Probable space group: C 2/C
;
_chemical_formula_sum "Si O2"
_cell_formula_units_Z 56
_cell_length_a 25.721259
_cell_length_b 8.773025
_cell_length_c 16.958860
_cell_angle_alpha 90.000000
_cell_angle_beta 44.427857
_cell_angle_gamma 90.000000
_cell_volume 2678.815978
_symmetry_space_group_name_H-M "C 2/C"
_symmetry_group_IT_number 15
_symmetry_cell_setting 'monoclinic'
loop_
_space_group_symop_operation_xyz
x,y,z
-x,y,1/2-z
-x,-y,-z
x,-y,1/2+z
1/2+x,1/2+y,z
1/2-x,1/2+y,1/2-z
1/2-x,1/2-y,-z
1/2+x,1/2-y,1/2+z
loop_
_atom_site_type_symbol
_atom_site_label
_atom_site_fract_x
_atom_site_fract_y
_atom_site_fract_z
Si Si1 0.562609 0.753450 0.556946
Si Si2 0.412642 0.405778 0.214320
Si Si3 0.475569 0.063108 0.942548
Si Si4 0.841609 0.715634 0.159133
Si Si5 0.258027 0.940669 0.325759
Si Si6 0.811658 0.861262 0.469156
Si Si7 0.397661 0.736963 0.167972
O O1 0.499044 0.626735 0.642318
O O2 0.635675 0.730819 0.529049
O O3 0.589362 0.757429 0.438375
O O4 0.530532 0.922329 0.612131
O O5 0.385890 0.265280 0.189503
O O6 0.363045 0.426877 0.344977
O O7 0.401859 0.558795 0.177634
O O8 0.538474 0.183032 0.847890
O O9 0.396868 0.147767 0.034232
O O10 0.500000 0.000000 0.000000
O O11 0.803880 0.861512 0.160750
O O12 0.783899 0.586051 0.247214
O O13 0.321053 0.816333 0.276055
O O14 0.225713 0.997419 0.444406
O O15 0.750000 0.750000 0.500000
#
# Coordination Sequence:
#
# PCOD8140227 Si02
#       7
#     8   8   8   8   8   8   8
#     4  11  22  45  70  98 127 178 231 272 329 390
#     4  12  24  42  69  97 134 178 221 276 328 405
#     4  10  20  40  70  99 127 162 219 289 326 379
#     4  12  22  41  70 102 131 170 230 278 331 386
#     4  12  25  42  68 103 138 175 219 278 340 400
#     4  12  28  43  65  94 142 184 217 262 343 413
#     4  11  23  42  73 104 128 166 230 286 333 379
#
# _framework density 20.904757
#
# number of rings (size 3 to 8) (size 9 to 14) (size 15 to 20)
#    0.000    0.571    7.143    3.429    2.000    1.714 
#    0.000    0.000    0.000    0.000    0.000    0.000 
#    0.000    0.000    0.000    0.000    0.000    0.000 
#
# Total GULP energy -347230.880176 kJ/mol
# GULP energy per Si atom -12401.102863 kJ/mol
# Density = 2.085718 g / cm^3
# Si number density = 20.904757 Si / 1000 Ang^3
#
#
#
# Elastic Constant Matrix: (Units=GPa)
#
#
# Indices 1 2 3 4 5 6 
#
# 1 107.8691 53.3122 43.6888 0.0013 -21.8295 0.0030
# 2 53.3122 106.5350 22.6320 0.0186 -10.6582 -0.0189
# 3 43.6888 22.6320 89.5408 0.0170 -16.2917 -0.0171
# 4 0.0013 0.0186 0.0170 36.4322 -0.0153 -15.3618
# 5 -21.8295 -10.6582 -16.2917 -0.0153 27.1344 0.0182
# 6 0.0030 -0.0189 -0.0171 -15.3618 0.0182 19.4210
#
#
#
# Elastic Compliance Matrix: (Units=1/GPa)
#
#
# Indices 1 2 3 4 5 6 
#
# 1 0.015722 -0.006114 -0.004784 -0.000001 0.007375 -0.000020
# 2 -0.006114 0.012474 -0.000195 -0.000001 -0.000136 0.000012
# 3 -0.004784 -0.000195 0.014412 -0.000001 0.004728 0.000008
# 4 -0.000001 -0.000001 -0.000001 0.041184 0.000000 0.032576
# 5 0.007375 -0.000136 0.004728 0.000000 0.045572 -0.000040
# 6 -0.000020 0.000012 0.000008 0.032576 -0.000040 0.077258
#
#
# Mechanical properties :
#
#
# Convention : Reuss Voigt Hill
#
# Bulk Modulus (GPa) = 48.96419 60.35677 54.66048
# Shear Modulus (GPa) = 21.22118 28.88498 25.05308
#
# Velocity S-wave (km/s) = 3.18958 3.72121 3.46560
# Velocity P-wave (km/s) = 6.08588 6.88463 6.49754
#
# Compressibility (1/GPa) = 0.02042309
#
# Stress axis : x y z
#
# Youngs Moduli (GPa) = 63.60517 80.16877 69.38798
#
# Poissons Ratio (x) = 0.49011 0.33196
# Poissons Ratio (y) = 0.38885 0.01350
# Poissons Ratio (z) = 0.30429 0.01560
#
# Static dielectric constant tensor:
#      x y z
#    x 3.871100 0.000000 -0.315880 
#    y 0.000000 4.383020 0.000060 
#    z -0.315880 0.000060 4.074900 
# 
# 
# High freq. dielectric constant tensor:
#      x y z
#    x 1.810740 0.000000 -0.027510 
#    y 0.000000 1.831320 0.000000 
#    z -0.027510 0.000000 1.815510 
# 
# From -- ./inp_files/222017.got.cif
#   From: 2010.06.25/outbox.cif.g09.slc.cpg/sg15_112_cif.got.tgz:222017.got - 2010.06.28 07:06:18.
