data_PCOD8140817
_publ_section_title
;
Structure prediction by ZEFSAII (Michael W. Deem and Ramdas Pophale) SiO2 
 PCOD8140817
Probable space group: C 2/C
;
_chemical_formula_sum "Si O2"
_cell_formula_units_Z 52
_cell_length_a 27.482056
_cell_length_b 13.609637
_cell_length_c 9.276600
_cell_angle_alpha 90.000000
_cell_angle_beta 138.439953
_cell_angle_gamma 90.000000
_cell_volume 2301.776083
_symmetry_space_group_name_H-M "C 2/C"
_symmetry_group_IT_number 15
_symmetry_cell_setting 'monoclinic'
loop_
_space_group_symop_operation_xyz
x,y,z
-x,y,1/2-z
-x,-y,-z
x,-y,1/2+z
1/2+x,1/2+y,z
1/2-x,1/2+y,1/2-z
1/2-x,1/2-y,-z
1/2+x,1/2-y,1/2+z
loop_
_atom_site_type_symbol
_atom_site_label
_atom_site_fract_x
_atom_site_fract_y
_atom_site_fract_z
Si Si1 0.000000 0.349434 0.250000
Si Si2 0.276830 0.803884 0.917323
Si Si3 0.110751 0.803387 0.021940
Si Si4 0.551797 0.497487 0.252022
Si Si5 0.925986 0.462952 0.643295
Si Si6 0.308216 0.375728 0.025708
Si Si7 0.827493 0.500748 0.165006
O O1 0.949262 0.423093 0.232445
O O2 0.052455 0.275786 0.456032
O O3 0.347041 0.744521 0.018574
O O4 0.213628 0.802981 0.653466
O O5 0.250000 0.750000 0.000000
O O6 0.294875 0.917580 0.988485
O O7 0.165533 0.819016 0.275279
O O8 0.070634 0.898890 0.870021
O O9 0.500000 0.438320 0.250000
O O10 0.628095 0.446467 0.388813
O O11 0.500000 0.500000 0.000000
O O12 0.867604 0.450959 0.387512
O O13 0.885974 0.430757 0.703662
O O14 0.000000 0.405942 0.750000
O O15 0.236844 0.434487 0.914574
#
# Coordination Sequence:
#
# PCOD8140817 Si02
#       7
#     4   8   8   8   8   8   8
#     4  10  20  44  64  96 136 170 228 272 342 396
#     4  12  27  43  67 104 138 174 228 296 340 401
#     4  12  23  45  70  98 139 183 224 294 348 402
#     4  12  25  44  73 102 138 190 238 285 348 423
#     4  10  23  40  70  97 133 177 226 269 339 410
#     4  12  26  46  68 103 136 186 236 277 349 424
#     4  12  22  46  68  99 136 182 227 280 333 416
#
# _framework density 22.591249000000001
#
# number of rings (size 3 to 8) (size 9 to 14) (size 15 to 20)
#    0.462    0.000    5.385    2.769    4.308    0.000 
#    0.000    0.000    0.000    0.000    0.000    0.000 
#    0.000    0.000    0.000    0.000    0.000    0.000 
#
# Total GULP energy -322096.414314 kJ/mol
# GULP energy per Si atom -12388.323627 kJ/mol
# Density = 2.253983 g / cm^3
# Si number density = 22.591249 Si / 1000 Ang^3
#
#
#
# Elastic Constant Matrix: (Units=GPa)
#
#
# Indices 1 2 3 4 5 6 
#
# 1 163.1240 18.5549 47.0645 0.0000 3.2778 0.0000
# 2 18.5549 34.4889 23.3178 0.0000 -3.6168 0.0000
# 3 47.0645 23.3178 145.2916 0.0000 -1.9934 0.0000
# 4 0.0000 0.0000 0.0000 14.0214 0.0000 -14.0791
# 5 3.2778 -3.6168 -1.9934 0.0000 41.4716 0.0000
# 6 0.0000 0.0000 0.0000 -14.0791 0.0000 21.4262
#
#
#
# Elastic Compliance Matrix: (Units=1/GPa)
#
#
# Indices 1 2 3 4 5 6 
#
# 1 0.006978 -0.002590 -0.001857 0.000000 -0.000867 0.000000
# 2 -0.002590 0.033765 -0.004540 0.000000 0.002931 0.000000
# 3 -0.001857 -0.004540 0.008215 0.000000 0.000146 0.000000
# 4 0.000000 0.000000 0.000000 0.209639 0.000000 0.137753
# 5 -0.000867 0.002931 0.000146 0.000000 0.024444 0.000000
# 6 0.000000 0.000000 0.000000 0.137753 0.000000 0.137189
#
#
# Mechanical properties :
#
#
# Convention : Reuss Voigt Hill
#
# Bulk Modulus (GPa) = 32.27353 57.86433 45.06893
# Shear Modulus (GPa) = 11.14752 32.31497 21.73125
#
# Velocity S-wave (km/s) = 2.22377 3.78619 3.10487
# Velocity P-wave (km/s) = 4.57279 6.69200 5.73120
#
# Compressibility (1/GPa) = 0.03098515
#
# Stress axis : x y z
#
# Youngs Moduli (GPa) = 143.30805 29.61663 121.73255
#
# Poissons Ratio (x) = 0.07670 0.22601
# Poissons Ratio (y) = 0.37113 0.55264
# Poissons Ratio (z) = 0.26607 0.13445
#
# Static dielectric constant tensor:
#      x y z
#    x 4.435870 0.000000 0.099340 
#    y 0.000000 3.877960 0.000000 
#    z 0.099340 0.000000 4.262330 
# 
# 
# High freq. dielectric constant tensor:
#      x y z
#    x 1.912340 0.000000 0.013380 
#    y 0.000000 1.858420 0.000000 
#    z 0.013380 0.000000 1.910710 
# 
# From -- ./inp_files/67052.got.cif
#   From: 2010.06.25/outbox.cif.g09.slc.cpg/sg15_34_cif.got.tgz:67052.got - 2010.06.28 07:06:18.
