data_PCOD8140636
_publ_section_title
;
Structure prediction by ZEFSAII (Michael W. Deem and Ramdas Pophale) SiO2 
 PCOD8140636
Probable space group: C 2/C
;
_chemical_formula_sum "Si O2"
_cell_formula_units_Z 60
_cell_length_a 15.729508
_cell_length_b 20.681442
_cell_length_c 8.612256
_cell_angle_alpha 90.000000
_cell_angle_beta 99.906424
_cell_angle_gamma 90.000000
_cell_volume 2759.871205
_symmetry_space_group_name_H-M "C 2/C"
_symmetry_group_IT_number 15
_symmetry_cell_setting 'monoclinic'
loop_
_space_group_symop_operation_xyz
x,y,z
-x,y,1/2-z
-x,-y,-z
x,-y,1/2+z
1/2+x,1/2+y,z
1/2-x,1/2+y,1/2-z
1/2-x,1/2-y,-z
1/2+x,1/2-y,1/2+z
loop_
_atom_site_type_symbol
_atom_site_label
_atom_site_fract_x
_atom_site_fract_y
_atom_site_fract_z
Si Si1 0.780273 0.879441 0.765587
Si Si2 0.500000 0.126416 0.250000
Si Si3 0.132857 0.913155 0.101224
Si Si4 0.595139 0.487727 0.814119
Si Si5 0.660549 0.064016 0.454893
Si Si6 0.089284 0.801210 0.861594
Si Si7 0.382459 0.831608 0.974923
Si Si8 0.825499 0.574135 0.681546
O O1 0.826777 0.946499 0.736924
O O2 0.737363 0.886810 0.923206
O O3 0.849405 0.821962 0.763889
O O4 0.703629 0.861731 0.624479
O O5 0.571176 0.080446 0.345237
O O6 0.460065 0.170686 0.374286
O O7 0.231876 0.891329 0.142159
O O8 0.100904 0.936166 0.262899
O O9 0.113193 0.981103 0.003482
O O10 0.081035 0.857087 0.992332
O O11 0.500000 0.458881 0.750000
O O12 0.647071 0.065523 0.632976
O O13 0.684662 0.992859 0.409765
O O14 0.129131 0.739776 0.961100
O O15 0.000000 0.784150 0.750000
O O16 0.398480 0.880575 0.124593
#
# Coordination Sequence:
#
# PCOD8140636 Si02
#       8
#     8   4   8   8   8   8   8   8
#     4  10  20  42  67  95 134 176 222 275 334 408
#     4  10  26  46  68 102 138 172 228 304 338 402
#     4  11  22  40  63 101 134 179 225 275 338 411
#     4  11  21  36  64  98 137 175 216 275 347 399
#     4  11  24  41  67 106 140 172 230 285 348 416
#     4  11  25  45  70  95 135 186 235 279 338 403
#     4  11  24  46  71  93 135 184 228 281 342 407
#     4  12  23  40  71 100 135 185 222 278 350 416
#
# _framework density 21.740145999999999
#
# number of rings (size 3 to 8) (size 9 to 14) (size 15 to 20)
#    0.000    1.067    4.000    4.800    1.867    2.133 
#    1.200    0.667    0.000    0.000    0.000    0.000 
#    0.000    0.000    0.000    0.000    0.000    0.000 
#
# Total GULP energy -371661.237183 kJ/mol
# GULP energy per Si atom -12388.707906 kJ/mol
# Density = 2.169066 g / cm^3
# Si number density = 21.740146 Si / 1000 Ang^3
#
#
#
# Elastic Constant Matrix: (Units=GPa)
#
#
# Indices 1 2 3 4 5 6 
#
# 1 104.0760 34.7780 25.5251 0.0000 -3.5457 0.0000
# 2 34.7780 103.2603 50.5585 0.0000 -14.7480 0.0000
# 3 25.5251 50.5585 91.5355 0.0000 -12.8408 0.0000
# 4 0.0000 0.0000 0.0000 35.2045 0.0000 -4.7577
# 5 -3.5457 -14.7480 -12.8408 0.0000 40.0195 0.0000
# 6 0.0000 0.0000 0.0000 -4.7577 0.0000 24.6171
#
#
#
# Elastic Compliance Matrix: (Units=1/GPa)
#
#
# Indices 1 2 3 4 5 6 
#
# 1 0.010970 -0.003075 -0.001448 0.000000 -0.000626 0.000000
# 2 -0.003075 0.014412 -0.006697 0.000000 0.002890 0.000000
# 3 -0.001448 -0.006697 0.015355 0.000000 0.002330 0.000000
# 4 0.000000 0.000000 0.000000 0.029167 0.000000 0.005637
# 5 -0.000626 0.002890 0.002330 0.000000 0.026745 0.000000
# 6 0.000000 0.000000 0.000000 0.005637 0.000000 0.041712
#
#
# Mechanical properties :
#
#
# Convention : Reuss Voigt Hill
#
# Bulk Modulus (GPa) = 54.65974 57.84388 56.25181
# Shear Modulus (GPa) = 29.95810 32.50224 31.23017
#
# Velocity S-wave (km/s) = 3.71618 3.87076 3.79426
# Velocity P-wave (km/s) = 6.60380 6.82948 6.71759
#
# Compressibility (1/GPa) = 0.01829500
#
# Stress axis : x y z
#
# Youngs Moduli (GPa) = 91.15975 69.38783 65.12648
#
# Poissons Ratio (x) = 0.21335 0.09433
# Poissons Ratio (y) = 0.28030 0.43618
# Poissons Ratio (z) = 0.13204 0.46472
#
# Static dielectric constant tensor:
#      x y z
#    x 4.175980 0.000000 -0.191280 
#    y 0.000000 3.641980 0.000000 
#    z -0.191280 0.000000 4.099330 
# 
# 
# High freq. dielectric constant tensor:
#      x y z
#    x 1.862570 0.000000 0.001630 
#    y 0.000000 1.824290 0.000000 
#    z 0.001630 0.000000 1.861770 
# 
# From -- ./inp_files/42688.got.cif
#   From: 2010.06.25/outbox.cif.g09.slc.cpg/sg15_22_cif.got.tgz:42688.got - 2010.06.28 07:06:18.
