data_PCOD8140349
_publ_section_title
;
Structure prediction by ZEFSAII (Michael W. Deem and Ramdas Pophale) SiO2 
 PCOD8140349
Probable space group: C 2/C
;
_chemical_formula_sum "Si O2"
_cell_formula_units_Z 48
_cell_length_a 14.352548
_cell_length_b 17.504510
_cell_length_c 9.758018
_cell_angle_alpha 90.000000
_cell_angle_beta 73.400492
_cell_angle_gamma 90.000000
_cell_volume 2349.380779
_symmetry_space_group_name_H-M "C 2/C"
_symmetry_group_IT_number 15
_symmetry_cell_setting 'monoclinic'
loop_
_space_group_symop_operation_xyz
x,y,z
-x,y,1/2-z
-x,-y,-z
x,-y,1/2+z
1/2+x,1/2+y,z
1/2-x,1/2+y,1/2-z
1/2-x,1/2-y,-z
1/2+x,1/2-y,1/2+z
loop_
_atom_site_type_symbol
_atom_site_label
_atom_site_fract_x
_atom_site_fract_y
_atom_site_fract_z
Si Si1 0.345580 0.776204 0.536454
Si Si2 0.393584 0.215040 0.319294
Si Si3 0.940382 0.123452 0.906550
Si Si4 0.068710 0.135160 0.098655
Si Si5 0.265844 0.073120 0.417167
Si Si6 0.775062 0.433711 0.590268
O O1 0.250000 0.750000 0.500000
O O2 0.345421 0.753715 0.698332
O O3 0.428308 0.727729 0.424117
O O4 0.356063 0.868025 0.526356
O O5 0.500000 0.177181 0.250000
O O6 0.410116 0.286990 0.412780
O O7 0.323897 0.152107 0.418376
O O8 0.000000 0.095483 0.750000
O O9 0.842565 0.077316 0.976953
O O10 0.017247 0.100670 0.988993
O O11 0.172701 0.096390 0.075722
O O12 0.000000 0.114336 0.250000
O O13 0.267502 0.050413 0.256183
O O14 0.313608 0.006719 0.490029
#
# Coordination Sequence:
#
# PCOD8140349 Si02
#       6
#     8   8   8   8   8   8
#     4   9  19  38  62  85 120 155 198 252 298 351
#     4  10  20  41  65  90 119 158 206 256 300 358
#     4  11  22  38  65  93 119 158 203 253 308 364
#     4  11  20  39  62  92 121 153 201 256 310 356
#     4  11  24  41  58  89 124 166 201 245 305 366
#     4  10  24  40  58  85 126 163 202 246 300 365
#
# _framework density 20.430916
#
# number of rings (size 3 to 8) (size 9 to 14) (size 15 to 20)
#    0.000    1.667    5.000    0.500    2.333    1.333 
#    3.000    4.167    0.000    0.000    0.000    0.000 
#    0.000    0.000    0.000    0.000    0.000    0.000 
#
# Total GULP energy -297349.506434 kJ/mol
# GULP energy per Si atom -12389.562768 kJ/mol
# Density = 2.038441 g / cm^3
# Si number density = 20.430916 Si / 1000 Ang^3
#
#
#
# Elastic Constant Matrix: (Units=GPa)
#
#
# Indices 1 2 3 4 5 6 
#
# 1 42.0221 -10.0942 16.9781 0.0000 3.7731 0.0000
# 2 -10.0942 63.9425 27.9820 0.0000 0.7939 0.0000
# 3 16.9781 27.9820 112.7607 0.0000 11.4127 0.0000
# 4 0.0000 0.0000 0.0000 41.9808 0.0000 -2.2098
# 5 3.7731 0.7939 11.4127 0.0000 26.8057 0.0000
# 6 0.0000 0.0000 0.0000 -2.2098 0.0000 22.2929
#
#
#
# Elastic Compliance Matrix: (Units=1/GPa)
#
#
# Indices 1 2 3 4 5 6 
#
# 1 0.027948 0.006955 -0.005763 0.000000 -0.001686 0.000000
# 2 0.006955 0.019325 -0.005942 0.000000 0.000978 0.000000
# 3 -0.005763 -0.005942 0.011611 0.000000 -0.003956 0.000000
# 4 0.000000 0.000000 0.000000 0.023945 0.000000 0.002374
# 5 -0.001686 0.000978 -0.003956 0.000000 0.039198 0.000000
# 6 0.000000 0.000000 0.000000 0.002374 0.000000 0.045093
#
#
# Mechanical properties :
#
#
# Convention : Reuss Voigt Hill
#
# Bulk Modulus (GPa) = 20.24978 32.05079 26.15029
# Shear Modulus (GPa) = 25.89586 30.47317 28.18451
#
# Velocity S-wave (km/s) = 3.56404 3.86621 3.71820
# Velocity P-wave (km/s) = 5.18356 5.97090 5.59111
#
# Compressibility (1/GPa) = 0.04938326
#
# Stress axis : x y z
#
# Youngs Moduli (GPa) = 35.78137 51.74638 86.12528
#
# Poissons Ratio (x) = -0.35989 0.49636
# Poissons Ratio (y) = -0.24885 0.51174
# Poissons Ratio (z) = 0.20622 0.30747
#
# Static dielectric constant tensor:
#      x y z
#    x 3.909370 0.000000 0.155340 
#    y 0.000000 3.930060 0.000000 
#    z 0.155340 0.000000 3.682530 
# 
# 
# High freq. dielectric constant tensor:
#      x y z
#    x 1.790570 0.000000 0.019750 
#    y 0.000000 1.794330 0.000000 
#    z 0.019750 0.000000 1.797580 
# 
# From -- ./inp_files/39592.got.cif
#   From: 2010.06.25/outbox.cif.g09.slc.cpg/sg15_20_cif.got.tgz:39592.got - 2010.06.28 07:06:18.
