data_PCOD8140507
_publ_section_title
;
Structure prediction by ZEFSAII (Michael W. Deem and Ramdas Pophale) SiO2 
 PCOD8140507
Probable space group: C 2/C
;
_chemical_formula_sum "Si O2"
_cell_formula_units_Z 36
_cell_length_a 27.505971
_cell_length_b 7.557014
_cell_length_c 17.900395
_cell_angle_alpha 90.000000
_cell_angle_beta 28.145737
_cell_angle_gamma 90.000000
_cell_volume 1755.174643
_symmetry_space_group_name_H-M "C 2/C"
_symmetry_group_IT_number 15
_symmetry_cell_setting 'monoclinic'
loop_
_space_group_symop_operation_xyz
x,y,z
-x,y,1/2-z
-x,-y,-z
x,-y,1/2+z
1/2+x,1/2+y,z
1/2-x,1/2+y,1/2-z
1/2-x,1/2-y,-z
1/2+x,1/2-y,1/2+z
loop_
_atom_site_type_symbol
_atom_site_label
_atom_site_fract_x
_atom_site_fract_y
_atom_site_fract_z
Si Si1 0.059421 0.064432 0.787141
Si Si2 0.634690 0.678823 0.532934
Si Si3 0.000000 0.497954 0.250000
Si Si4 0.632142 0.858780 0.802303
Si Si5 0.038106 0.677309 0.851918
O O1 0.134468 0.082654 0.613936
O O2 0.081561 0.221622 0.813869
O O3 0.940342 0.076822 0.922508
O O4 0.078189 0.878610 0.802942
O O5 0.595942 0.879786 0.595674
O O6 0.748392 0.680311 0.345104
O O7 0.966350 0.372602 0.228571
O O8 0.619082 0.055854 0.786825
O O9 0.575182 0.843389 0.958685
#
# Coordination Sequence:
#
# PCOD8140507 Si02
#       5
#     8   8   4   8   8
#     4  10  21  42  60  90 125 159 202 248 297 362
#     4  10  21  40  65  85 126 163 197 249 303 352
#     4  10  20  42  62  86 122 164 200 246 304 358
#     4  11  23  41  61  93 123 157 203 253 300 351
#     4  11  23  40  64  87 124 157 203 252 296 364
#
# _framework density 20.510777999999998
#
# number of rings (size 3 to 8) (size 9 to 14) (size 15 to 20)
#    0.000    1.778    4.444    2.667    0.000    2.667 
#    4.000    0.000    0.000    0.000    0.000    0.000 
#    0.000    0.000    0.000    0.000    0.000    0.000 
#
# Total GULP energy -223260.771938 kJ/mol
# GULP energy per Si atom -12403.376219 kJ/mol
# Density = 2.046409 g / cm^3
# Si number density = 20.510778 Si / 1000 Ang^3
#
#
#
# Elastic Constant Matrix: (Units=GPa)
#
#
# Indices 1 2 3 4 5 6 
#
# 1 29.5257 16.0105 -3.7641 0.0237 -0.2497 0.0201
# 2 16.0105 118.4424 6.5567 0.0063 1.0280 0.0062
# 3 -3.7641 6.5567 79.0121 0.0051 -22.0533 0.0119
# 4 0.0237 0.0063 0.0051 13.9204 0.0042 4.0555
# 5 -0.2497 1.0280 -22.0533 0.0042 21.2217 0.0007
# 6 0.0201 0.0062 0.0119 4.0555 0.0007 11.7736
#
#
#
# Elastic Compliance Matrix: (Units=1/GPa)
#
#
# Indices 1 2 3 4 5 6 
#
# 1 0.037182 -0.005250 0.003381 -0.000050 0.004205 -0.000047
# 2 -0.005250 0.009262 -0.001636 0.000005 -0.002210 0.000004
# 3 0.003381 -0.001636 0.018292 -0.000011 0.019128 -0.000021
# 4 -0.000050 0.000005 -0.000011 0.079850 -0.000027 -0.027505
# 5 0.004205 -0.002210 0.019128 -0.000027 0.067155 -0.000020
# 6 -0.000047 0.000004 -0.000021 -0.027505 -0.000020 0.094410
#
#
# Mechanical properties :
#
#
# Convention : Reuss Voigt Hill
#
# Bulk Modulus (GPa) = 17.32300 29.39849 23.36075
# Shear Modulus (GPa) = 15.04197 23.26162 19.15180
#
# Velocity S-wave (km/s) = 2.71102 3.37132 3.05904
# Velocity P-wave (km/s) = 4.27360 5.43311 4.88786
#
# Compressibility (1/GPa) = 0.05772671
#
# Stress axis : x y z
#
# Youngs Moduli (GPa) = 26.89470 107.96478 54.66925
#
# Poissons Ratio (x) = 0.56679 -0.18481
# Poissons Ratio (y) = 0.14119 0.08942
# Poissons Ratio (z) = -0.09092 0.17658
#
# Static dielectric constant tensor:
#      x y z
#    x 3.560790 -0.000020 0.182270 
#    y -0.000020 3.779430 0.000050 
#    z 0.182270 0.000050 3.600730 
# 
# 
# High freq. dielectric constant tensor:
#      x y z
#    x 1.793270 0.000000 0.014210 
#    y 0.000000 1.810040 0.000000 
#    z 0.014210 0.000000 1.791900 
# 
# From -- ./inp_files/208783.got.cif
#   From: 2010.06.25/outbox.cif.g09.slc.cpg/sg15_105_cif.got.tgz:208783.got - 2010.06.28 07:06:18.
