data_PCOD8140234
_publ_section_title
;
Structure prediction by ZEFSAII (Michael W. Deem and Ramdas Pophale) SiO2 
 PCOD8140234
Probable space group: C 2/C
;
_chemical_formula_sum "Si O2"
_cell_formula_units_Z 48
_cell_length_a 20.459421
_cell_length_b 11.693680
_cell_length_c 14.932252
_cell_angle_alpha 90.000000
_cell_angle_beta 139.774545
_cell_angle_gamma 90.000000
_cell_volume 2307.096976
_symmetry_space_group_name_H-M "C 2/C"
_symmetry_group_IT_number 15
_symmetry_cell_setting 'monoclinic'
loop_
_space_group_symop_operation_xyz
x,y,z
-x,y,1/2-z
-x,-y,-z
x,-y,1/2+z
1/2+x,1/2+y,z
1/2-x,1/2+y,1/2-z
1/2-x,1/2-y,-z
1/2+x,1/2-y,1/2+z
loop_
_atom_site_type_symbol
_atom_site_label
_atom_site_fract_x
_atom_site_fract_y
_atom_site_fract_z
Si Si1 0.923599 0.906719 0.381150
Si Si2 0.260695 0.047928 0.366757
Si Si3 0.779424 0.467002 0.683240
Si Si4 0.886472 0.397901 0.627960
Si Si5 0.887869 0.204326 0.492684
Si Si6 0.751243 0.294157 0.191627
O O1 0.858744 0.830930 0.383670
O O2 0.992398 0.815693 0.398412
O O3 0.845383 0.979249 0.238576
O O4 0.000000 0.000000 0.500000
O O5 0.312053 0.041433 0.321612
O O6 0.249580 0.183514 0.373079
O O7 0.330398 0.996940 0.515656
O O8 0.848354 0.390552 0.690587
O O9 0.664871 0.419603 0.554250
O O10 0.785680 0.600820 0.663979
O O11 0.874551 0.273717 0.570825
O O12 0.000000 0.439764 0.750000
O O13 0.832404 0.276139 0.356507
#
# Coordination Sequence:
#
# PCOD8140234 Si02
#       6
#     8   8   8   8   8   8
#     4  11  19  39  71 101 127 181 233 263 345 405
#     4  10  23  44  67  98 137 177 228 283 332 407
#     4  10  22  42  66  94 136 174 230 271 339 402
#     4  12  27  41  62 100 139 180 221 281 346 402
#     4  11  22  40  66 100 134 177 221 285 331 400
#     4  10  20  40  71  96 130 178 220 286 332 398
#
# _framework density 20.805368000000001
#
# number of rings (size 3 to 8) (size 9 to 14) (size 15 to 20)
#    0.000    1.333    8.333    0.500    4.667    4.000 
#    0.000    0.000    0.000    0.000    0.000    0.000 
#    0.000    0.000    0.000    0.000    0.000    0.000 
#
# Total GULP energy -297404.737142 kJ/mol
# GULP energy per Si atom -12391.864048 kJ/mol
# Density = 2.075801 g / cm^3
# Si number density = 20.805368 Si / 1000 Ang^3
#
#
#
# Elastic Constant Matrix: (Units=GPa)
#
#
# Indices 1 2 3 4 5 6 
#
# 1 90.0076 17.8106 23.5176 0.0000 11.0363 0.0000
# 2 17.8106 128.9165 31.9660 0.0000 5.5259 0.0000
# 3 23.5176 31.9660 99.7592 0.0000 16.9222 0.0000
# 4 0.0000 0.0000 0.0000 35.7256 0.0000 6.2248
# 5 11.0363 5.5259 16.9222 0.0000 31.3320 0.0000
# 6 0.0000 0.0000 0.0000 6.2248 0.0000 33.5431
#
#
#
# Elastic Compliance Matrix: (Units=1/GPa)
#
#
# Indices 1 2 3 4 5 6 
#
# 1 0.012220 -0.001055 -0.002030 0.000000 -0.003022 0.000000
# 2 -0.001055 0.008518 -0.002520 0.000000 0.000230 0.000000
# 3 -0.002030 -0.002520 0.012234 0.000000 -0.005448 0.000000
# 4 0.000000 0.000000 0.000000 0.028926 0.000000 -0.005368
# 5 -0.003022 0.000230 -0.005448 0.000000 0.035883 0.000000
# 6 0.000000 0.000000 0.000000 -0.005368 0.000000 0.030809
#
#
# Mechanical properties :
#
#
# Convention : Reuss Voigt Hill
#
# Bulk Modulus (GPa) = 45.95196 51.69688 48.82442
# Shear Modulus (GPa) = 34.00125 36.47941 35.24033
#
# Velocity S-wave (km/s) = 4.04698 4.19186 4.12006
# Velocity P-wave (km/s) = 6.63113 6.95203 6.79348
#
# Compressibility (1/GPa) = 0.02176186
#
# Stress axis : x y z
#
# Youngs Moduli (GPa) = 81.83348 117.40325 81.73780
#
# Poissons Ratio (x) = 0.12390 0.16593
# Poissons Ratio (y) = 0.08637 0.20595
# Poissons Ratio (z) = 0.16612 0.29581
#
# Static dielectric constant tensor:
#      x y z
#    x 3.888410 0.000000 0.280770 
#    y 0.000000 4.233680 0.000000 
#    z 0.280770 0.000000 3.785030 
# 
# 
# High freq. dielectric constant tensor:
#      x y z
#    x 1.795850 0.000000 0.012630 
#    y 0.000000 1.835820 0.000000 
#    z 0.012630 0.000000 1.797620 
# 
# From -- ./inp_files/167924.got.cif
#   From: 2010.06.25/outbox.cif.g09.slc.cpg/sg15_84_cif.got.tgz:167924.got - 2010.06.28 07:06:18.
