data_PCOD8140761
_publ_section_title
;
Structure prediction by ZEFSAII (Michael W. Deem and Ramdas Pophale) SiO2 
 PCOD8140761
Probable space group: C 2/C
;
_chemical_formula_sum "Si O2"
_cell_formula_units_Z 52
_cell_length_a 7.950485
_cell_length_b 20.674009
_cell_length_c 17.136434
_cell_angle_alpha 90.000000
_cell_angle_beta 51.094892
_cell_angle_gamma 90.000000
_cell_volume 2191.910605
_symmetry_space_group_name_H-M "C 2/C"
_symmetry_group_IT_number 15
_symmetry_cell_setting 'monoclinic'
loop_
_space_group_symop_operation_xyz
x,y,z
-x,y,1/2-z
-x,-y,-z
x,-y,1/2+z
1/2+x,1/2+y,z
1/2-x,1/2+y,1/2-z
1/2-x,1/2-y,-z
1/2+x,1/2-y,1/2+z
loop_
_atom_site_type_symbol
_atom_site_label
_atom_site_fract_x
_atom_site_fract_y
_atom_site_fract_z
Si Si1 0.895207 0.579146 0.009547
Si Si2 0.225214 0.493945 0.586753
Si Si3 0.386079 0.110208 0.186562
Si Si4 0.464253 0.612995 0.084033
Si Si5 0.258816 0.648935 0.819959
Si Si6 0.798718 0.722696 0.402054
Si Si7 0.500000 0.101009 0.750000
O O1 0.842421 0.580246 0.115279
O O2 0.715680 0.626820 0.024847
O O3 0.847903 0.507850 0.983249
O O4 0.129899 0.607194 0.921453
O O5 0.457928 0.456912 0.537387
O O6 0.173830 0.557475 0.652693
O O7 0.078847 0.434664 0.664418
O O8 0.162906 0.106109 0.297483
O O9 0.470764 0.184763 0.166727
O O10 0.392348 0.672063 0.052793
O O11 0.500000 0.618681 0.750000
O O12 0.283144 0.723208 0.839661
O O13 0.139863 0.644480 0.770036
O O14 0.750000 0.750000 0.500000
#
# Coordination Sequence:
#
# PCOD8140761 Si02
#       7
#     8   8   8   8   8   8   4
#     4  11  24  41  66 107 132 180 239 284 361 429
#     4  10  20  43  65  99 140 179 229 290 356 422
#     4  11  21  44  68  98 140 188 229 289 357 426
#     4  11  23  42  69  99 143 186 229 298 358 420
#     4  11  25  48  70 101 139 188 235 298 360 417
#     4  11  23  45  71  98 138 188 242 289 357 422
#     4  10  22  46  72 102 142 180 238 290 364 422
#
# _framework density 23.723593999999999
#
# number of rings (size 3 to 8) (size 9 to 14) (size 15 to 20)
#    0.000    1.231    3.077    3.692    0.000    3.077 
#   13.846    0.000    0.000    0.000    0.000    0.000 
#    0.000    0.000    0.000    0.000    0.000    0.000 
#
# Total GULP energy -322238.321142 kJ/mol
# GULP energy per Si atom -12393.781582 kJ/mol
# Density = 2.366960 g / cm^3
# Si number density = 23.723594 Si / 1000 Ang^3
#
#
#
# Elastic Constant Matrix: (Units=GPa)
#
#
# Indices 1 2 3 4 5 6 
#
# 1 116.8615 48.7772 48.8641 0.0000 3.3702 0.0000
# 2 48.7772 132.2810 51.1923 0.0000 10.9876 0.0000
# 3 48.8641 51.1923 109.1125 0.0000 15.1009 0.0000
# 4 0.0000 0.0000 0.0000 30.4488 0.0000 3.7517
# 5 3.3702 10.9876 15.1009 0.0000 42.4917 0.0000
# 6 0.0000 0.0000 0.0000 3.7517 0.0000 31.9129
#
#
#
# Elastic Compliance Matrix: (Units=1/GPa)
#
#
# Indices 1 2 3 4 5 6 
#
# 1 0.011320 -0.002747 -0.003949 0.000000 0.001216 0.000000
# 2 -0.002747 0.009936 -0.003267 0.000000 -0.001190 0.000000
# 3 -0.003949 -0.003267 0.012942 0.000000 -0.003442 0.000000
# 4 0.000000 0.000000 0.000000 0.033325 0.000000 -0.003918
# 5 0.001216 -0.001190 -0.003442 0.000000 0.024968 0.000000
# 6 0.000000 0.000000 0.000000 -0.003918 0.000000 0.031796
#
#
# Mechanical properties :
#
#
# Convention : Reuss Voigt Hill
#
# Bulk Modulus (GPa) = 70.06298 72.88024 71.47161
# Shear Modulus (GPa) = 33.56406 34.93209 34.24808
#
# Velocity S-wave (km/s) = 3.76546 3.84143 3.80363
# Velocity P-wave (km/s) = 6.96434 7.10371 7.03437
#
# Compressibility (1/GPa) = 0.01427287
#
# Stress axis : x y z
#
# Youngs Moduli (GPa) = 88.34107 100.64844 77.26666
#
# Poissons Ratio (x) = 0.27646 0.30512
# Poissons Ratio (y) = 0.24266 0.25240
# Poissons Ratio (z) = 0.34885 0.32878
#
# Static dielectric constant tensor:
#      x y z
#    x 4.752030 0.000000 -0.266390 
#    y 0.000000 4.368170 0.000000 
#    z -0.266390 0.000000 4.701030 
# 
# 
# High freq. dielectric constant tensor:
#      x y z
#    x 1.951760 0.000000 -0.000880 
#    y 0.000000 1.937620 0.000000 
#    z -0.000880 0.000000 1.962660 
# 
# From -- ./inp_files/192483.got.cif
#   From: 2010.06.25/outbox.cif.g09.slc.cpg/sg15_97_cif.got.tgz:192483.got - 2010.06.28 07:06:18.
