data_PCOD8140525
_publ_section_title
;
Structure prediction by ZEFSAII (Michael W. Deem and Ramdas Pophale) SiO2 
 PCOD8140525
Probable space group: C 2/C
;
_chemical_formula_sum "Si O2"
_cell_formula_units_Z 60
_cell_length_a 9.341826
_cell_length_b 10.545944
_cell_length_c 30.843734
_cell_angle_alpha 90.000000
_cell_angle_beta 94.761513
_cell_angle_gamma 90.000000
_cell_volume 3028.187574
_symmetry_space_group_name_H-M "C 2/C"
_symmetry_group_IT_number 15
_symmetry_cell_setting 'monoclinic'
loop_
_space_group_symop_operation_xyz
x,y,z
-x,y,1/2-z
-x,-y,-z
x,-y,1/2+z
1/2+x,1/2+y,z
1/2-x,1/2+y,1/2-z
1/2-x,1/2-y,-z
1/2+x,1/2-y,1/2+z
loop_
_atom_site_type_symbol
_atom_site_label
_atom_site_fract_x
_atom_site_fract_y
_atom_site_fract_z
Si Si1 0.015078 0.527403 0.550575
Si Si2 0.500000 0.586793 0.250000
Si Si3 0.055168 0.327693 0.689674
Si Si4 0.207394 0.971466 0.321461
Si Si5 0.661347 0.530383 0.919700
Si Si6 0.814959 0.762044 0.549274
Si Si7 0.027915 0.264732 0.592786
Si Si8 0.279930 0.777859 0.726270
O O1 0.177901 0.566019 0.563258
O O2 0.966234 0.402020 0.576097
O O3 0.000000 0.500000 0.500000
O O4 0.922972 0.648572 0.562491
O O5 0.571795 0.503664 0.288636
O O6 0.376435 0.665594 0.270731
O O7 0.146992 0.452207 0.682949
O O8 0.025457 0.251187 0.644682
O O9 0.149163 0.239161 0.725216
O O10 0.901260 0.368667 0.706859
O O11 0.154078 0.991429 0.368465
O O12 0.248273 0.830562 0.309342
O O13 0.610426 0.400863 0.942887
O O14 0.562149 0.649496 0.930719
O O15 0.750000 0.750000 0.500000
O O16 0.690626 0.752779 0.581524
#
# Coordination Sequence:
#
# PCOD8140525 Si02
#       8
#     8   4   8   8   8   8   8   8
#     4  11  23  46  67  94 138 173 212 277 338 392
#     4  10  24  38  62  96 124 170 220 262 314 394
#     4  10  20  42  63  91 133 174 211 267 330 380
#     4  11  21  42  63  92 134 169 216 270 326 380
#     4  11  24  41  70  98 133 171 221 277 321 401
#     4  11  23  46  67  95 135 174 214 276 337 390
#     4  11  23  43  67 101 131 175 221 272 329 395
#     4  10  22  39  66  89 128 171 214 265 323 380
#
# _framework density 19.813829999999999
#
# number of rings (size 3 to 8) (size 9 to 14) (size 15 to 20)
#    0.000    1.333    6.667    0.800    0.000    5.333 
#    2.400    1.333    0.000    0.000    0.000    0.000 
#    0.000    0.000    0.000    0.000    0.000    0.000 
#
# Total GULP energy -371814.979812 kJ/mol
# GULP energy per Si atom -12393.832660 kJ/mol
# Density = 1.976873 g / cm^3
# Si number density = 19.813830 Si / 1000 Ang^3
#
#
#
# Elastic Constant Matrix: (Units=GPa)
#
#
# Indices 1 2 3 4 5 6 
#
# 1 101.1388 41.7252 2.3794 0.0000 3.3867 0.0000
# 2 41.7252 104.2982 1.7069 0.0000 11.8918 0.0000
# 3 2.3794 1.7069 86.3753 0.0000 6.0545 0.0000
# 4 0.0000 0.0000 0.0000 31.0587 0.0000 3.7354
# 5 3.3867 11.8918 6.0545 0.0000 28.2552 0.0000
# 6 0.0000 0.0000 0.0000 3.7354 0.0000 29.8937
#
#
#
# Elastic Compliance Matrix: (Units=1/GPa)
#
#
# Indices 1 2 3 4 5 6 
#
# 1 0.011858 -0.004815 -0.000278 0.000000 0.000665 0.000000
# 2 -0.004815 0.012027 0.000213 0.000000 -0.004530 0.000000
# 3 -0.000278 0.000213 0.011761 0.000000 -0.002576 0.000000
# 4 0.000000 0.000000 0.000000 0.032688 0.000000 -0.004085
# 5 0.000665 -0.004530 -0.002576 0.000000 0.037771 0.000000
# 6 0.000000 0.000000 0.000000 -0.004085 0.000000 0.033962
#
#
# Mechanical properties :
#
#
# Convention : Reuss Voigt Hill
#
# Bulk Modulus (GPa) = 38.63185 42.60391 40.61788
# Shear Modulus (GPa) = 31.55404 34.24158 32.89781
#
# Velocity S-wave (km/s) = 3.99498 4.16163 4.07915
# Velocity P-wave (km/s) = 6.38902 6.68139 6.53684
#
# Compressibility (1/GPa) = 0.02588538
#
# Stress axis : x y z
#
# Youngs Moduli (GPa) = 84.32976 83.14421 85.02369
#
# Poissons Ratio (x) = 0.40036 0.02365
# Poissons Ratio (y) = 0.40606 -0.01807
# Poissons Ratio (z) = 0.02345 -0.01767
#
# Static dielectric constant tensor:
#      x y z
#    x 3.778640 0.000000 -0.151980 
#    y 0.000000 3.796190 0.000000 
#    z -0.151980 0.000000 3.759030 
# 
# 
# High freq. dielectric constant tensor:
#      x y z
#    x 1.773430 0.000000 0.001960 
#    y 0.000000 1.764880 0.000000 
#    z 0.001960 0.000000 1.787780 
# 
# From -- ./inp_files/307217.got.cif
#   From: 2010.06.25/outbox.cif.g09.slc.cpg/sg15_154_cif.got.tgz:307217.got - 2010.06.28 07:06:18.
