data_PCOD8140007
_publ_section_title
;
Structure prediction by ZEFSAII (Michael W. Deem and Ramdas Pophale) SiO2 
 PCOD8140007
Probable space group: C 2/C
;
_chemical_formula_sum "Si O2"
_cell_formula_units_Z 60
_cell_length_a 12.056077
_cell_length_b 17.109686
_cell_length_c 25.408667
_cell_angle_alpha 90.000000
_cell_angle_beta 29.029354
_cell_angle_gamma 90.000000
_cell_volume 2543.327695
_symmetry_space_group_name_H-M "C 2/C"
_symmetry_group_IT_number 15
_symmetry_cell_setting 'monoclinic'
loop_
_space_group_symop_operation_xyz
x,y,z
-x,y,1/2-z
-x,-y,-z
x,-y,1/2+z
1/2+x,1/2+y,z
1/2-x,1/2+y,1/2-z
1/2-x,1/2-y,-z
1/2+x,1/2-y,1/2+z
loop_
_atom_site_type_symbol
_atom_site_label
_atom_site_fract_x
_atom_site_fract_y
_atom_site_fract_z
Si Si1 0.767032 0.907513 0.149633
Si Si2 0.556938 0.859073 0.482127
Si Si3 0.805257 0.340260 0.484253
Si Si4 0.500000 0.641287 0.750000
Si Si5 0.569146 0.856608 0.849045
Si Si6 0.651161 0.419760 0.854140
Si Si7 0.269601 0.690853 0.744312
Si Si8 0.330889 0.321388 0.560876
O O1 0.500000 0.889516 0.250000
O O2 0.868447 0.869559 0.161064
O O3 0.820009 0.998957 0.127814
O O4 0.921594 0.865364 0.041560
O O5 0.351700 0.863441 0.525865
O O6 0.782227 0.906569 0.365434
O O7 0.470906 0.887963 0.574815
O O8 0.641853 0.770474 0.451193
O O9 0.750000 0.250000 0.500000
O O10 0.613422 0.400660 0.545981
O O11 0.025505 0.348731 0.356415
O O12 0.410342 0.696263 0.739964
O O13 0.710361 0.922104 0.758515
O O14 0.724668 0.777660 0.783494
O O15 0.322201 0.844624 0.925478
O O16 0.767361 0.351929 0.842294
#
# Coordination Sequence:
#
# PCOD8140007 Si02
#       8
#     8   8   8   4   8   8   8   8
#     4  12  27  44  66  99 142 184 228 283 353 421
#     4  11  22  37  66 105 130 169 222 294 339 403
#     4  11  22  40  66  94 131 178 226 283 346 400
#     4  10  20  40  64  98 134 168 228 276 346 404
#     4  12  23  39  68 104 134 175 237 290 338 406
#     4  12  26  44  64  96 139 184 227 286 351 414
#     4  11  22  40  67  97 133 178 230 284 340 412
#     4  12  22  40  69  99 137 174 231 283 348 411
#
# _framework density 23.591139999999999
#
# number of rings (size 3 to 8) (size 9 to 14) (size 15 to 20)
#    0.000    0.533    5.333    4.400    0.000    1.600 
#    0.000    1.333    0.000    4.000    0.000    0.000 
#    0.000    0.000    0.000    0.000    0.000    0.000 
#
# Total GULP energy -371792.215190 kJ/mol
# GULP energy per Si atom -12393.073840 kJ/mol
# Density = 2.353745 g / cm^3
# Si number density = 23.591140 Si / 1000 Ang^3
#
#
#
# Elastic Constant Matrix: (Units=GPa)
#
#
# Indices 1 2 3 4 5 6 
#
# 1 121.6996 -1.0652 43.5993 -0.0261 8.1996 -0.0013
# 2 -1.0652 35.8257 13.9022 -0.1813 -6.7196 0.0129
# 3 43.5993 13.9022 107.2271 -0.2834 5.5838 0.0103
# 4 -0.0261 -0.1813 -0.2834 26.4260 -0.0285 -4.7788
# 5 8.1996 -6.7196 5.5838 -0.0285 48.0692 0.0148
# 6 -0.0013 0.0129 0.0103 -4.7788 0.0148 18.9300
#
#
#
# Elastic Compliance Matrix: (Units=1/GPa)
#
#
# Indices 1 2 3 4 5 6 
#
# 1 0.009783 0.001725 -0.004152 -0.000025 -0.000945 -0.000004
# 2 0.001725 0.030734 -0.004924 0.000168 0.004574 0.000021
# 3 -0.004152 -0.004924 0.011723 0.000090 -0.001342 0.000020
# 4 -0.000025 0.000168 0.000090 0.039654 0.000038 0.010010
# 5 -0.000945 0.004574 -0.001342 0.000038 0.021760 -0.000010
# 6 -0.000004 0.000021 0.000020 0.010010 -0.000010 0.055353
#
#
# Mechanical properties :
#
#
# Convention : Reuss Voigt Hill
#
# Bulk Modulus (GPa) = 26.64029 41.95832 34.29931
# Shear Modulus (GPa) = 25.48133 32.57278 29.02706
#
# Velocity S-wave (km/s) = 3.29009 3.71984 3.51154
# Velocity P-wave (km/s) = 5.07444 6.02277 5.56883
#
# Compressibility (1/GPa) = 0.03753712
#
# Stress axis : x y z
#
# Youngs Moduli (GPa) = 102.21429 32.53767 85.30319
#
# Poissons Ratio (x) = -0.05612 0.35422
# Poissons Ratio (y) = -0.17630 0.42001
# Poissons Ratio (z) = 0.42444 0.16021
#
# Static dielectric constant tensor:
#      x y z
#    x 4.668010 -0.000090 -0.677520 
#    y -0.000090 3.648410 0.000940 
#    z -0.677520 0.000940 7.379820 
# 
# 
# High freq. dielectric constant tensor:
#      x y z
#    x 1.947210 0.000000 0.007590 
#    y 0.000000 1.881990 0.000010 
#    z 0.007590 0.000010 1.957310 
# 
# From -- ./inp_files/293539.got.cif
#   From: 2010.06.25/outbox.cif.g09.slc.cpg/sg15_147_cif.got.tgz:293539.got - 2010.06.28 07:06:18.
