data_PCOD8140291
_publ_section_title
;
Structure prediction by ZEFSAII (Michael W. Deem and Ramdas Pophale) SiO2 
 PCOD8140291
Probable space group: C 2/C
;
_chemical_formula_sum "Si O2"
_cell_formula_units_Z 52
_cell_length_a 28.312614
_cell_length_b 13.263167
_cell_length_c 16.620047
_cell_angle_alpha 90.000000
_cell_angle_beta 157.670543
_cell_angle_gamma 90.000000
_cell_volume 2371.183016
_symmetry_space_group_name_H-M "C 2/C"
_symmetry_group_IT_number 15
_symmetry_cell_setting 'monoclinic'
loop_
_space_group_symop_operation_xyz
x,y,z
-x,y,1/2-z
-x,-y,-z
x,-y,1/2+z
1/2+x,1/2+y,z
1/2-x,1/2+y,1/2-z
1/2-x,1/2-y,-z
1/2+x,1/2-y,1/2+z
loop_
_atom_site_type_symbol
_atom_site_label
_atom_site_fract_x
_atom_site_fract_y
_atom_site_fract_z
Si Si1 0.800577 0.481501 0.379041
Si Si2 0.532932 0.730902 0.963748
Si Si3 0.572909 0.350792 0.048202
Si Si4 0.820306 0.165878 0.061796
Si Si5 0.000000 0.325252 0.750000
Si Si6 0.118341 0.436983 0.164767
Si Si7 0.688482 0.204675 0.106359
O O1 0.658363 0.450740 0.175253
O O2 0.882009 0.394686 0.547592
O O3 0.812315 0.482182 0.302064
O O4 0.852329 0.592094 0.486348
O O5 0.447694 0.663292 0.888119
O O6 0.464726 0.757025 0.772044
O O7 0.564077 0.827340 0.065643
O O8 0.665517 0.683356 0.149868
O O9 0.631790 0.249522 0.100047
O O10 0.441783 0.374215 0.798251
O O11 0.750000 0.250000 0.000000
O O12 0.724685 0.071369 0.901418
O O13 0.851507 0.214026 0.023790
O O14 0.000000 0.500000 0.000000
#
# Coordination Sequence:
#
# PCOD8140291 Si02
#       7
#     8   8   8   8   4   8   8
#     4  11  25  39  69  97 131 180 226 277 335 409
#     4  10  22  43  66  92 136 173 225 281 334 406
#     4  12  22  44  71  97 140 174 225 292 338 399
#     4  11  22  40  71 100 132 177 221 276 350 392
#     4  10  22  46  62  96 130 178 242 268 334 424
#     4  10  20  41  62  99 138 166 226 275 325 408
#     4  11  23  43  66  99 135 175 218 280 340 403
#
# _framework density 21.929981000000002
#
# number of rings (size 3 to 8) (size 9 to 14) (size 15 to 20)
#    0.000    1.231    7.692    1.385    2.154    2.462 
#    0.000    1.538    0.000    0.000    0.000    0.000 
#    0.000    0.000    0.000    0.000    0.000    0.000 
#
# Total GULP energy -322196.220975 kJ/mol
# GULP energy per Si atom -12392.162345 kJ/mol
# Density = 2.188007 g / cm^3
# Si number density = 21.929981 Si / 1000 Ang^3
#
#
#
# Elastic Constant Matrix: (Units=GPa)
#
#
# Indices 1 2 3 4 5 6 
#
# 1 119.2154 21.6839 57.3168 0.0000 2.0135 0.0000
# 2 21.6839 65.3843 34.3738 0.0000 -1.3507 0.0000
# 3 57.3168 34.3738 119.5206 0.0000 0.9694 0.0000
# 4 0.0000 0.0000 0.0000 24.1739 0.0000 10.9426
# 5 2.0135 -1.3507 0.9694 0.0000 37.0151 0.0000
# 6 0.0000 0.0000 0.0000 10.9426 0.0000 26.0150
#
#
#
# Elastic Compliance Matrix: (Units=1/GPa)
#
#
# Indices 1 2 3 4 5 6 
#
# 1 0.010969 -0.001043 -0.004956 0.000000 -0.000505 0.000000
# 2 -0.001043 0.018141 -0.004724 0.000000 0.000842 0.000000
# 3 -0.004956 -0.004724 0.012104 0.000000 -0.000220 0.000000
# 4 0.000000 0.000000 0.000000 0.051095 0.000000 -0.021492
# 5 -0.000505 0.000842 -0.000220 0.000000 0.027080 0.000000
# 6 0.000000 0.000000 0.000000 -0.021492 0.000000 0.047479
#
#
# Mechanical properties :
#
#
# Convention : Reuss Voigt Hill
#
# Bulk Modulus (GPa) = 50.58683 58.98548 54.78616
# Shear Modulus (GPa) = 25.65354 30.15720 27.90537
#
# Velocity S-wave (km/s) = 3.42393 3.71234 3.57105
# Velocity P-wave (km/s) = 6.22484 6.73282 6.48380
#
# Compressibility (1/GPa) = 0.01976799
#
# Stress axis : x y z
#
# Youngs Moduli (GPa) = 91.16326 55.12400 82.61661
#
# Poissons Ratio (x) = 0.05747 0.40949
# Poissons Ratio (y) = 0.09504 0.39029
# Poissons Ratio (z) = 0.45185 0.26041
#
# Static dielectric constant tensor:
#      x y z
#    x 4.192250 0.000000 -0.098050 
#    y 0.000000 4.482380 0.000000 
#    z -0.098050 0.000000 4.566810 
# 
# 
# High freq. dielectric constant tensor:
#      x y z
#    x 1.868720 0.000000 0.007490 
#    y 0.000000 1.843540 0.000000 
#    z 0.007490 0.000000 1.860080 
# 
# From -- ./inp_files/225511.got.cif
#   From: 2010.06.25/outbox.cif.g09.slc.cpg/sg15_113_cif.got.tgz:225511.got - 2010.06.28 07:06:18.
