data_PCOD8140703
_publ_section_title
;
Structure prediction by ZEFSAII (Michael W. Deem and Ramdas Pophale) SiO2 
 PCOD8140703
Probable space group: C 2/C
;
_chemical_formula_sum "Si O2"
_cell_formula_units_Z 64
_cell_length_a 21.607544
_cell_length_b 18.027845
_cell_length_c 22.887306
_cell_angle_alpha 90.000000
_cell_angle_beta 161.083056
_cell_angle_gamma 90.000000
_cell_volume 2890.368010
_symmetry_space_group_name_H-M "C 2/C"
_symmetry_group_IT_number 15
_symmetry_cell_setting 'monoclinic'
loop_
_space_group_symop_operation_xyz
x,y,z
-x,y,1/2-z
-x,-y,-z
x,-y,1/2+z
1/2+x,1/2+y,z
1/2-x,1/2+y,1/2-z
1/2-x,1/2-y,-z
1/2+x,1/2-y,1/2+z
loop_
_atom_site_type_symbol
_atom_site_label
_atom_site_fract_x
_atom_site_fract_y
_atom_site_fract_z
Si Si1 0.302780 0.304022 0.234253
Si Si2 0.914510 0.415396 0.534482
Si Si3 0.960736 0.159317 0.085881
Si Si4 0.281252 0.085632 0.536035
Si Si5 0.784656 0.578025 0.042342
Si Si6 0.276511 0.340487 0.900242
Si Si7 0.818680 0.582959 0.435414
Si Si8 0.853804 0.694139 0.783343
O O1 0.152312 0.364359 0.077927
O O2 0.507925 0.341064 0.430824
O O3 0.321155 0.238537 0.202429
O O4 0.222655 0.272465 0.223695
O O5 0.778789 0.396238 0.469341
O O6 0.889779 0.499439 0.492789
O O7 0.139918 0.402940 0.749568
O O8 0.126556 0.097327 0.226363
O O9 0.061164 0.239633 0.179876
O O10 0.841297 0.145518 0.038179
O O11 0.820026 0.154343 0.905165
O O12 0.500000 0.089907 0.750000
O O13 0.269238 0.105743 0.457431
O O14 0.187846 0.003239 0.463690
O O15 0.702992 0.642306 0.011736
O O16 0.000000 0.561808 0.250000
O O17 0.985540 0.634072 0.559160
#
# Coordination Sequence:
#
# PCOD8140703 Si02
#       8
#     8   8   8   8   8   8   8   8
#     4  12  26  44  69  95 135 191 232 283 341 400
#     4  10  24  46  70 103 139 175 224 286 353 415
#     4  12  25  44  71  98 135 186 226 280 351 409
#     4  10  20  42  71 103 141 175 215 287 354 415
#     4   8  19  40  69 101 140 171 210 286 351 409
#     4  11  23  43  69 100 137 180 227 279 344 410
#     4  11  25  46  72 103 137 178 227 286 354 417
#     4  12  27  46  66  96 138 183 237 290 334 400
#
# _framework density 22.142509
#
# number of rings (size 3 to 8) (size 9 to 14) (size 15 to 20)
#    0.000    1.250    3.750    1.875    1.750    3.000 
#    4.500    1.250    0.000    0.000    0.000    0.000 
#    0.000    0.000    0.000    0.000    0.000    0.000 
#
# Total GULP energy -396736.521930 kJ/mol
# GULP energy per Si atom -12398.016310 kJ/mol
# Density = 2.209211 g / cm^3
# Si number density = 22.142509 Si / 1000 Ang^3
#
#
#
# Elastic Constant Matrix: (Units=GPa)
#
#
# Indices 1 2 3 4 5 6 
#
# 1 95.3825 46.4225 26.8578 0.0011 12.5817 -0.0137
# 2 46.4225 98.4818 28.6309 -0.0226 16.1603 0.0173
# 3 26.8578 28.6309 123.6742 -0.0602 1.7347 0.0423
# 4 0.0011 -0.0226 -0.0602 31.3869 -0.0318 -2.8520
# 5 12.5817 16.1603 1.7347 -0.0318 22.9611 -0.0028
# 6 -0.0137 0.0173 0.0423 -2.8520 -0.0028 23.5001
#
#
#
# Elastic Compliance Matrix: (Units=1/GPa)
#
#
# Indices 1 2 3 4 5 6 
#
# 1 0.014172 -0.005566 -0.001737 -0.000010 -0.003718 0.000014
# 2 -0.005566 0.014527 -0.002056 -0.000001 -0.007019 -0.000011
# 3 -0.001737 -0.002056 0.008915 0.000016 0.001725 -0.000013
# 4 -0.000010 -0.000001 0.000016 0.032216 0.000051 0.003910
# 5 -0.003718 -0.007019 0.001725 0.000051 0.050399 0.000012
# 6 0.000014 -0.000011 -0.000013 0.003910 0.000012 0.043028
#
#
# Mechanical properties :
#
#
# Convention : Reuss Voigt Hill
#
# Bulk Modulus (GPa) = 52.91852 57.92901 55.42377
# Shear Modulus (GPa) = 26.55717 29.94478 28.25098
#
# Velocity S-wave (km/s) = 3.46696 3.68144 3.57581
# Velocity P-wave (km/s) = 6.32276 6.65503 6.49102
#
# Compressibility (1/GPa) = 0.01889698
#
# Stress axis : x y z
#
# Youngs Moduli (GPa) = 70.55983 68.83630 112.17311
#
# Poissons Ratio (x) = 0.38311 0.19487
# Poissons Ratio (y) = 0.39270 0.23063
# Poissons Ratio (z) = 0.12258 0.14153
#
# Static dielectric constant tensor:
#      x y z
#    x 4.195530 -0.000200 -0.086910 
#    y -0.000200 3.911920 -0.000260 
#    z -0.086910 -0.000260 4.156700 
# 
# 
# High freq. dielectric constant tensor:
#      x y z
#    x 1.857550 -0.000010 -0.005490 
#    y -0.000010 1.860270 -0.000030 
#    z -0.005490 -0.000030 1.887140 
# 
# From -- ./inp_files/280518.got.cif
#   From: 2010.06.25/outbox.cif.g09.slc.cpg/sg15_141_cif.got.tgz:280518.got - 2010.06.28 07:06:18.
