data_PCOD8140546
_publ_section_title
;
Structure prediction by ZEFSAII (Michael W. Deem and Ramdas Pophale) SiO2 
 PCOD8140546
Probable space group: C 2/C
;
_chemical_formula_sum "Si O2"
_cell_formula_units_Z 40
_cell_length_a 8.431813
_cell_length_b 16.126058
_cell_length_c 13.785243
_cell_angle_alpha 90.000000
_cell_angle_beta 99.704235
_cell_angle_gamma 90.000000
_cell_volume 1847.584910
_symmetry_space_group_name_H-M "C 2/C"
_symmetry_group_IT_number 15
_symmetry_cell_setting 'monoclinic'
loop_
_space_group_symop_operation_xyz
x,y,z
-x,y,1/2-z
-x,-y,-z
x,-y,1/2+z
1/2+x,1/2+y,z
1/2-x,1/2+y,1/2-z
1/2-x,1/2-y,-z
1/2+x,1/2-y,1/2+z
loop_
_atom_site_type_symbol
_atom_site_label
_atom_site_fract_x
_atom_site_fract_y
_atom_site_fract_z
Si Si1 0.268595 0.275654 0.391086
Si Si2 0.600071 0.686574 0.984970
Si Si3 0.773149 0.471559 0.461511
Si Si4 0.069171 0.557648 0.859700
Si Si5 0.411070 0.624760 0.148316
O O1 0.250000 0.250000 0.500000
O O2 0.460547 0.283686 0.396431
O O3 0.167628 0.357653 0.354594
O O4 0.201585 0.199001 0.321044
O O5 0.640765 0.598389 0.943155
O O6 0.750000 0.750000 0.000000
O O7 0.534819 0.668133 0.086273
O O8 0.815720 0.488682 0.579350
O O9 0.703061 0.555987 0.410511
O O10 0.923982 0.432477 0.420469
O O11 0.000000 0.525940 0.750000
O O12 0.500000 0.584794 0.250000
#
# Coordination Sequence:
#
# PCOD8140546 Si02
#       5
#     8   8   8   8   8
#     4  10  20  42  64  91 131 172 213 271 330 393
#     4  11  24  42  69  92 134 174 222 273 333 386
#     4  11  24  42  66  99 134 171 223 281 324 394
#     4  11  24  41  69  93 135 176 220 266 342 398
#     4  11  24  42  68  97 134 173 219 274 340 395
#
# _framework density 21.649884
#
# number of rings (size 3 to 8) (size 9 to 14) (size 15 to 20)
#    0.000    1.200    4.000    3.600    5.600    0.000 
#    0.000    3.000    0.000    0.000    0.000    0.000 
#    0.000    0.000    0.000    0.000    0.000    0.000 
#
# Total GULP energy -247848.040349 kJ/mol
# GULP energy per Si atom -12392.402017 kJ/mol
# Density = 2.160061 g / cm^3
# Si number density = 21.649884 Si / 1000 Ang^3
#
#
#
# Elastic Constant Matrix: (Units=GPa)
#
#
# Indices 1 2 3 4 5 6 
#
# 1 126.8464 71.7985 23.8257 0.0000 28.0237 0.0000
# 2 71.7985 121.2937 22.0243 0.0000 12.5908 0.0000
# 3 23.8257 22.0243 100.9181 0.0000 23.6569 0.0000
# 4 0.0000 0.0000 0.0000 8.6319 0.0000 -1.4832
# 5 28.0237 12.5908 23.6569 0.0000 24.4856 0.0000
# 6 0.0000 0.0000 0.0000 -1.4832 0.0000 36.5076
#
#
#
# Elastic Compliance Matrix: (Units=1/GPa)
#
#
# Indices 1 2 3 4 5 6 
#
# 1 0.015332 -0.007803 0.001624 0.000000 -0.015104 0.000000
# 2 -0.007803 0.012776 -0.001938 0.000000 0.004233 0.000000
# 3 0.001624 -0.001938 0.013123 0.000000 -0.013540 0.000000
# 4 0.000000 0.000000 0.000000 0.116664 0.000000 0.004740
# 5 -0.015104 0.004233 -0.013540 0.000000 0.069032 0.000000
# 6 0.000000 0.000000 0.000000 0.004740 0.000000 0.027584
#
#
# Mechanical properties :
#
#
# Convention : Reuss Voigt Hill
#
# Bulk Modulus (GPa) = 40.00669 64.92837 52.46753
# Shear Modulus (GPa) = 17.91620 29.35232 23.63426
#
# Velocity S-wave (km/s) = 2.87983 3.68608 3.30761
# Velocity P-wave (km/s) = 5.43847 6.94057 6.23492
#
# Compressibility (1/GPa) = 0.02499582
#
# Stress axis : x y z
#
# Youngs Moduli (GPa) = 65.22361 78.27423 76.20337
#
# Poissons Ratio (x) = 0.61074 -0.12373
# Poissons Ratio (y) = 0.50891 0.14771
# Poissons Ratio (z) = -0.10591 0.15173
#
# Static dielectric constant tensor:
#      x y z
#    x 4.522700 0.000000 0.396100 
#    y 0.000000 4.206280 0.000000 
#    z 0.396100 0.000000 3.886300 
# 
# 
# High freq. dielectric constant tensor:
#      x y z
#    x 1.858640 0.000000 0.026240 
#    y 0.000000 1.858290 0.000000 
#    z 0.026240 0.000000 1.833040 
# 
# From -- ./inp_files/133279.got.cif
#   From: 2010.06.25/outbox.cif.g09.slc.cpg/sg15_67_cif.got.tgz:133279.got - 2010.06.28 07:06:18.
