data_PCOD8140341
_publ_section_title
;
Structure prediction by ZEFSAII (Michael W. Deem and Ramdas Pophale) SiO2 
 PCOD8140341
Probable space group: C 2/C
;
_chemical_formula_sum "Si O2"
_cell_formula_units_Z 64
_cell_length_a 26.586161
_cell_length_b 14.363180
_cell_length_c 13.642468
_cell_angle_alpha 90.000000
_cell_angle_beta 144.407317
_cell_angle_gamma 90.000000
_cell_volume 3032.050533
_symmetry_space_group_name_H-M "C 2/C"
_symmetry_group_IT_number 15
_symmetry_cell_setting 'monoclinic'
loop_
_space_group_symop_operation_xyz
x,y,z
-x,y,1/2-z
-x,-y,-z
x,-y,1/2+z
1/2+x,1/2+y,z
1/2-x,1/2+y,1/2-z
1/2-x,1/2-y,-z
1/2+x,1/2-y,1/2+z
loop_
_atom_site_type_symbol
_atom_site_label
_atom_site_fract_x
_atom_site_fract_y
_atom_site_fract_z
Si Si1 0.693145 0.111341 0.728182
Si Si2 0.426694 0.252511 0.870459
Si Si3 0.869794 0.184257 0.076572
Si Si4 0.405050 0.480954 0.097962
Si Si5 0.733924 0.405883 0.365258
Si Si6 0.884680 0.256243 0.893566
Si Si7 0.907037 0.962446 0.884437
Si Si8 0.224879 0.415436 0.861055
O O1 0.608381 0.171868 0.614134
O O2 0.703526 0.084694 0.629905
O O3 0.688215 0.017592 0.782773
O O4 0.769791 0.176203 0.889910
O O5 0.383599 0.251926 0.693774
O O6 0.407363 0.351636 0.889663
O O7 0.527404 0.229341 0.026012
O O8 0.908677 0.080374 0.161682
O O9 0.913295 0.233202 0.050895
O O10 0.500000 0.432147 0.250000
O O11 0.383873 0.507323 0.953004
O O12 0.329757 0.411547 0.014220
O O13 0.665830 0.325060 0.240119
O O14 0.675741 0.496959 0.305448
O O15 0.793779 0.386629 0.555393
O O16 0.823640 0.346926 0.790683
O O17 0.000000 0.000000 0.000000
#
# Coordination Sequence:
#
# PCOD8140341 Si02
#       8
#     8   8   8   8   8   8   8   8
#     4  10  24  42  61  96 126 166 215 260 309 384
#     4  12  24  38  67  95 125 166 212 264 315 379
#     4  10  20  41  64  94 130 155 206 276 324 363
#     4  11  21  37  63  98 128 160 210 264 319 380
#     4  11  22  42  62  90 133 162 203 268 326 368
#     4  11  23  40  63  91 127 172 211 256 315 378
#     4  12  20  37  65  97 128 158 202 268 325 371
#     4  11  24  42  63  85 129 179 208 253 318 376
#
# _framework density 21.107828000000001
#
# number of rings (size 3 to 8) (size 9 to 14) (size 15 to 20)
#    0.000    1.000    5.000    4.875    3.500    1.500 
#    0.000    0.625    0.000    0.000    0.000    0.000 
#    0.000    0.000    0.000    0.000    0.000    0.000 
#
# Total GULP energy -396729.635722 kJ/mol
# GULP energy per Si atom -12397.801116 kJ/mol
# Density = 2.105979 g / cm^3
# Si number density = 21.107828 Si / 1000 Ang^3
#
#
#
# Elastic Constant Matrix: (Units=GPa)
#
#
# Indices 1 2 3 4 5 6 
#
# 1 111.0400 47.8880 30.2522 0.0000 1.0606 0.0000
# 2 47.8880 96.1172 36.8691 0.0000 17.0113 0.0000
# 3 30.2522 36.8691 49.2665 0.0000 2.0110 0.0000
# 4 0.0000 0.0000 0.0000 28.7675 0.0000 5.3219
# 5 1.0606 17.0113 2.0110 0.0000 37.0119 0.0000
# 6 0.0000 0.0000 0.0000 5.3219 0.0000 29.2221
#
#
#
# Elastic Compliance Matrix: (Units=1/GPa)
#
#
# Indices 1 2 3 4 5 6 
#
# 1 0.012177 -0.004972 -0.003844 0.000000 0.002145 0.000000
# 2 -0.004972 0.018155 -0.010221 0.000000 -0.007647 0.000000
# 3 -0.003844 -0.010221 0.030178 0.000000 0.003168 0.000000
# 4 0.000000 0.000000 0.000000 0.035973 0.000000 -0.006551
# 5 0.002145 -0.007647 0.003168 0.000000 0.030299 0.000000
# 6 0.000000 0.000000 0.000000 -0.006551 0.000000 0.035414
#
#
# Mechanical properties :
#
#
# Convention : Reuss Voigt Hill
#
# Bulk Modulus (GPa) = 44.57234 54.04914 49.31074
# Shear Modulus (GPa) = 24.06739 28.42792 26.24766
#
# Velocity S-wave (km/s) = 3.38037 3.67385 3.53016
# Velocity P-wave (km/s) = 6.03309 6.60742 6.32678
#
# Compressibility (1/GPa) = 0.02243544
#
# Stress axis : x y z
#
# Youngs Moduli (GPa) = 82.12355 55.08046 33.13655
#
# Poissons Ratio (x) = 0.27386 0.12737
# Poissons Ratio (y) = 0.40832 0.33871
# Poissons Ratio (z) = 0.31568 0.56300
#
# Static dielectric constant tensor:
#      x y z
#    x 4.005560 0.000000 -0.084080 
#    y 0.000000 3.626620 0.000000 
#    z -0.084080 0.000000 3.721310 
# 
# 
# High freq. dielectric constant tensor:
#      x y z
#    x 1.837950 0.000000 -0.008910 
#    y 0.000000 1.804620 0.000000 
#    z -0.008910 0.000000 1.815420 
# 
# From -- ./inp_files/173698.got.cif
#   From: 2010.06.25/outbox.cif.g09.slc.cpg/sg15_87_cif.got.tgz:173698.got - 2010.06.28 07:06:18.
