data_PCOD8140112
_publ_section_title
;
Structure prediction by ZEFSAII (Michael W. Deem and Ramdas Pophale) SiO2 
 PCOD8140112
Probable space group: C 2/C
;
_chemical_formula_sum "Si O2"
_cell_formula_units_Z 64
_cell_length_a 14.632384
_cell_length_b 8.951885
_cell_length_c 25.336392
_cell_angle_alpha 90.000000
_cell_angle_beta 120.959000
_cell_angle_gamma 90.000000
_cell_volume 2845.945179
_symmetry_space_group_name_H-M "C 2/C"
_symmetry_group_IT_number 15
_symmetry_cell_setting 'monoclinic'
loop_
_space_group_symop_operation_xyz
x,y,z
-x,y,1/2-z
-x,-y,-z
x,-y,1/2+z
1/2+x,1/2+y,z
1/2-x,1/2+y,1/2-z
1/2-x,1/2-y,-z
1/2+x,1/2-y,1/2+z
loop_
_atom_site_type_symbol
_atom_site_label
_atom_site_fract_x
_atom_site_fract_y
_atom_site_fract_z
Si Si1 0.477675 0.788601 0.012389
Si Si2 0.672698 0.812559 0.626170
Si Si3 0.238557 0.001032 0.682746
Si Si4 0.361532 0.846861 0.631720
Si Si5 0.668055 0.489049 0.383041
Si Si6 0.027876 0.835064 0.633009
Si Si7 0.570382 0.000359 0.181275
Si Si8 0.641440 0.071053 0.489147
O O1 0.497379 0.660725 0.061628
O O2 0.440503 0.932091 0.035806
O O3 0.383758 0.748115 0.943449
O O4 0.589829 0.811575 0.015194
O O5 0.729608 0.677690 0.672483
O O6 0.761643 0.937511 0.642016
O O7 0.581582 0.893808 0.633137
O O8 0.264137 0.916122 0.635740
O O9 0.127895 0.941305 0.672816
O O10 0.328421 0.970653 0.752374
O O11 0.373744 0.671802 0.648891
O O12 0.466025 0.939105 0.680356
O O13 0.340752 0.862941 0.563279
O O14 0.570297 0.599363 0.363801
O O15 0.740980 0.474054 0.456701
O O16 0.057102 0.671566 0.662390
#
# Coordination Sequence:
#
# PCOD8140112 Si02
#       8
#     8   8   8   8   8   8   8   8
#     4  10  20  40  71 100 135 177 217 280 347 401
#     4  11  24  45  71 101 135 177 228 282 339 404
#     4  12  28  44  69 100 133 184 231 277 336 400
#     4  12  23  44  69 100 136 180 225 278 333 404
#     4  11  26  40  68 104 140 175 222 275 343 405
#     4  12  25  44  69 102 139 176 225 281 338 407
#     4  12  24  49  71  94 136 180 230 284 336 397
#     4  10  20  40  67 100 136 178 217 273 343 403
#
# _framework density 22.488135
#
# number of rings (size 3 to 8) (size 9 to 14) (size 15 to 20)
#    0.000    0.750    2.500    6.000    1.750    1.500 
#    0.000    5.625    0.000    0.000    0.000    0.000 
#    0.000    0.000    0.000    0.000    0.000    0.000 
#
# Total GULP energy -396954.115939 kJ/mol
# GULP energy per Si atom -12404.816123 kJ/mol
# Density = 2.243695 g / cm^3
# Si number density = 22.488135 Si / 1000 Ang^3
#
#
#
# Elastic Constant Matrix: (Units=GPa)
#
#
# Indices 1 2 3 4 5 6 
#
# 1 84.1819 17.2447 13.2860 0.0000 6.1788 0.0000
# 2 17.2447 107.4835 29.3977 0.0000 -3.3116 0.0000
# 3 13.2860 29.3977 66.2359 0.0000 14.6468 0.0000
# 4 0.0000 0.0000 0.0000 30.3041 0.0000 7.9343
# 5 6.1788 -3.3116 14.6468 0.0000 25.1098 0.0000
# 6 0.0000 0.0000 0.0000 7.9343 0.0000 35.8047
#
#
#
# Elastic Compliance Matrix: (Units=1/GPa)
#
#
# Indices 1 2 3 4 5 6 
#
# 1 0.012624 -0.001795 -0.001144 0.000000 -0.002676 0.000000
# 2 -0.001795 0.011362 -0.005869 0.000000 0.005364 0.000000
# 3 -0.001144 -0.005869 0.020712 0.000000 -0.012574 0.000000
# 4 0.000000 0.000000 0.000000 0.035031 0.000000 -0.007763
# 5 -0.002676 0.005364 -0.012574 0.000000 0.048526 0.000000
# 6 0.000000 0.000000 0.000000 -0.007763 0.000000 0.029650
#
#
# Mechanical properties :
#
#
# Convention : Reuss Voigt Hill
#
# Bulk Modulus (GPa) = 36.92364 41.97313 39.44838
# Shear Modulus (GPa) = 27.09330 31.44193 29.26762
#
# Velocity S-wave (km/s) = 3.47476 3.74325 3.61150
# Velocity P-wave (km/s) = 5.70556 6.11454 5.91359
#
# Compressibility (1/GPa) = 0.02708292
#
# Stress axis : x y z
#
# Youngs Moduli (GPa) = 79.21639 88.01110 48.28037
#
# Poissons Ratio (x) = 0.15798 0.05522
# Poissons Ratio (y) = 0.14219 0.28335
# Poissons Ratio (z) = 0.09060 0.51653
#
# Static dielectric constant tensor:
#      x y z
#    x 4.097190 0.000000 0.051920 
#    y 0.000000 3.937190 0.000000 
#    z 0.051920 0.000000 3.936970 
# 
# 
# High freq. dielectric constant tensor:
#      x y z
#    x 1.895000 0.000000 0.009620 
#    y 0.000000 1.881640 0.000000 
#    z 0.009620 0.000000 1.886200 
# 
# From -- ./inp_files/313170.got.cif
#   From: 2010.06.25/outbox.cif.g09.slc.cpg/sg15_157_cif.got.tgz:313170.got - 2010.06.28 07:06:18.
