data_PCOD8140683
_publ_section_title
;
Structure prediction by ZEFSAII (Michael W. Deem and Ramdas Pophale) SiO2 
 PCOD8140683
Probable space group: C 2/C
;
_chemical_formula_sum "Si O2"
_cell_formula_units_Z 40
_cell_length_a 18.701072
_cell_length_b 9.201463
_cell_length_c 14.564690
_cell_angle_alpha 90.000000
_cell_angle_beta 133.094830
_cell_angle_gamma 90.000000
_cell_volume 1830.124738
_symmetry_space_group_name_H-M "C 2/C"
_symmetry_group_IT_number 15
_symmetry_cell_setting 'monoclinic'
loop_
_space_group_symop_operation_xyz
x,y,z
-x,y,1/2-z
-x,-y,-z
x,-y,1/2+z
1/2+x,1/2+y,z
1/2-x,1/2+y,1/2-z
1/2-x,1/2-y,-z
1/2+x,1/2-y,1/2+z
loop_
_atom_site_type_symbol
_atom_site_label
_atom_site_fract_x
_atom_site_fract_y
_atom_site_fract_z
Si Si1 0.184518 0.354633 0.233869
Si Si2 0.912288 0.272140 0.617452
Si Si3 0.760537 0.951716 0.957998
Si Si4 0.727198 0.926871 0.618929
Si Si5 0.020766 0.568938 0.874590
O O1 0.245703 0.429257 0.368251
O O2 0.212099 0.184636 0.264464
O O3 0.216425 0.421715 0.164886
O O4 0.068256 0.376201 0.141829
O O5 0.852832 0.149304 0.510013
O O6 0.837965 0.355597 0.621391
O O7 0.962239 0.394765 0.596974
O O8 0.000000 0.194596 0.750000
O O9 0.784224 0.031248 0.075632
O O10 0.621303 0.857125 0.498793
O O11 0.000000 0.607874 0.750000
#
# Coordination Sequence:
#
# PCOD8140683 Si02
#       5
#     8   8   8   8   8
#     4  12  24  43  66  94 132 168 212 264 318 381
#     4   9  17  35  67  91 116 166 213 251 317 370
#     4  10  21  39  64  91 129 166 213 262 310 376
#     4  11  26  41  66  97 125 171 214 263 320 374
#     4  10  20  42  70  87 125 175 209 254 321 383
#
# _framework density 21.856434
#
# number of rings (size 3 to 8) (size 9 to 14) (size 15 to 20)
#    0.000    1.600    6.000    1.200    8.400    0.000 
#    3.600    1.000    0.000    0.000    0.000    0.000 
#    0.000    0.000    0.000    0.000    0.000    0.000 
#
# Total GULP energy -247920.486687 kJ/mol
# GULP energy per Si atom -12396.024334 kJ/mol
# Density = 2.180669 g / cm^3
# Si number density = 21.856434 Si / 1000 Ang^3
#
#
#
# Elastic Constant Matrix: (Units=GPa)
#
#
# Indices 1 2 3 4 5 6 
#
# 1 46.2104 16.7414 23.0562 0.0000 14.9143 0.0000
# 2 16.7414 59.5369 23.2286 0.0000 23.9311 0.0000
# 3 23.0562 23.2286 82.9368 0.0000 9.9485 0.0000
# 4 0.0000 0.0000 0.0000 45.9106 0.0000 4.5929
# 5 14.9143 23.9311 9.9485 0.0000 43.4542 0.0000
# 6 0.0000 0.0000 0.0000 4.5929 0.0000 26.6752
#
#
#
# Elastic Compliance Matrix: (Units=1/GPa)
#
#
# Indices 1 2 3 4 5 6 
#
# 1 0.027861 -0.002760 -0.006177 0.000000 -0.006628 0.000000
# 2 -0.002760 0.023830 -0.004572 0.000000 -0.011129 0.000000
# 3 -0.006177 -0.004572 0.014908 0.000000 0.001225 0.000000
# 4 0.000000 0.000000 0.000000 0.022163 0.000000 -0.003816
# 5 -0.006628 -0.011129 0.001225 0.000000 0.031136 0.000000
# 6 0.000000 0.000000 0.000000 -0.003816 0.000000 0.038145
#
#
# Mechanical properties :
#
#
# Convention : Reuss Voigt Hill
#
# Bulk Modulus (GPa) = 25.26470 34.97073 30.11771
# Shear Modulus (GPa) = 25.21989 31.58519 28.40254
#
# Velocity S-wave (km/s) = 3.40058 3.80560 3.60878
# Velocity P-wave (km/s) = 5.19645 5.94517 5.58337
#
# Compressibility (1/GPa) = 0.03958092
#
# Stress axis : x y z
#
# Youngs Moduli (GPa) = 35.89184 41.96447 67.07724
#
# Poissons Ratio (x) = 0.11583 0.41436
# Poissons Ratio (y) = 0.09906 0.30666
# Poissons Ratio (z) = 0.22171 0.19185
#
# Static dielectric constant tensor:
#      x y z
#    x 3.750780 0.000000 0.258140 
#    y 0.000000 3.712290 0.000000 
#    z 0.258140 0.000000 4.262250 
# 
# 
# High freq. dielectric constant tensor:
#      x y z
#    x 1.834310 0.000000 0.007600 
#    y 0.000000 1.831310 0.000000 
#    z 0.007600 0.000000 1.873950 
# 
# From -- ./inp_files/159132.got.cif
#   From: 2010.06.25/outbox.cif.g09.slc.cpg/sg15_80_cif.got.tgz:159132.got - 2010.06.28 07:06:18.
