data_PCOD8140453
_publ_section_title
;
Structure prediction by ZEFSAII (Michael W. Deem and Ramdas Pophale) SiO2 
 PCOD8140453
Probable space group: C 2/C
;
_chemical_formula_sum "Si O2"
_cell_formula_units_Z 52
_cell_length_a 18.431468
_cell_length_b 16.710219
_cell_length_c 15.092676
_cell_angle_alpha 90.000000
_cell_angle_beta 32.998404
_cell_angle_gamma 90.000000
_cell_volume 2531.619620
_symmetry_space_group_name_H-M "C 2/C"
_symmetry_group_IT_number 15
_symmetry_cell_setting 'monoclinic'
loop_
_space_group_symop_operation_xyz
x,y,z
-x,y,1/2-z
-x,-y,-z
x,-y,1/2+z
1/2+x,1/2+y,z
1/2-x,1/2+y,1/2-z
1/2-x,1/2-y,-z
1/2+x,1/2-y,1/2+z
loop_
_atom_site_type_symbol
_atom_site_label
_atom_site_fract_x
_atom_site_fract_y
_atom_site_fract_z
Si Si1 0.243817 0.584295 0.440982
Si Si2 0.386281 0.482123 0.544586
Si Si3 0.757822 0.828626 0.751413
Si Si4 0.654699 0.920265 0.222569
Si Si5 0.500000 0.509551 0.250000
Si Si6 0.961366 0.309281 0.019732
Si Si7 0.547394 0.051553 0.104503
O O1 0.242530 0.657668 0.372880
O O2 0.161350 0.607255 0.613377
O O3 0.394972 0.567832 0.311432
O O4 0.180373 0.502611 0.466763
O O5 0.500000 0.500000 0.500000
O O6 0.287311 0.414032 0.678317
O O7 0.299738 0.563118 0.617362
O O8 0.441733 0.455877 0.390331
O O9 0.879738 0.772660 0.597004
O O10 0.619750 0.792104 0.855720
O O11 0.578393 0.848424 0.346718
O O12 0.570448 0.001520 0.320787
O O13 0.920475 0.368106 0.982046
O O14 0.500000 0.078199 0.250000
#
# Coordination Sequence:
#
# PCOD8140453 Si02
#       7
#     8   8   8   8   4   8   8
#     4  10  21  39  66  96 122 161 211 272 321 379
#     4  11  22  40  67  95 126 167 215 274 320 383
#     4  12  26  42  61  93 138 170 212 259 334 390
#     4  10  21  40  70  93 120 162 224 269 316 377
#     4  10  22  36  66 100 122 154 220 270 326 370
#     4  12  26  41  62  96 131 175 212 262 328 394
#     4  10  20  41  69  90 117 159 221 270 312 376
#
# _framework density 20.540210999999999
#
# number of rings (size 3 to 8) (size 9 to 14) (size 15 to 20)
#    0.000    1.231    4.615    1.385    2.154    0.615 
#    1.385    0.769    0.000    0.000    0.000    0.000 
#    0.000    0.000    0.000    0.000    0.000    0.000 
#
# Total GULP energy -322372.025870 kJ/mol
# GULP energy per Si atom -12398.924072 kJ/mol
# Density = 2.049346 g / cm^3
# Si number density = 20.540211 Si / 1000 Ang^3
#
#
#
# Elastic Constant Matrix: (Units=GPa)
#
#
# Indices 1 2 3 4 5 6 
#
# 1 90.4561 13.9011 31.4100 -0.0006 -18.7279 0.0002
# 2 13.9011 47.2977 18.8249 -0.0009 -5.3954 0.0004
# 3 31.4100 18.8249 97.3690 -0.0013 -13.6333 0.0006
# 4 -0.0006 -0.0009 -0.0013 40.7618 0.0003 -2.0801
# 5 -18.7279 -5.3954 -13.6333 0.0003 47.5552 -0.0001
# 6 0.0002 0.0004 0.0006 -2.0801 -0.0001 7.7555
#
#
#
# Elastic Compliance Matrix: (Units=1/GPa)
#
#
# Indices 1 2 3 4 5 6 
#
# 1 0.013385 -0.002143 -0.003333 0.000000 0.004072 0.000000
# 2 -0.002143 0.023336 -0.003717 0.000000 0.000738 -0.000001
# 3 -0.003333 -0.003717 0.012316 0.000000 0.001796 -0.000001
# 4 0.000000 0.000000 0.000000 0.024873 0.000000 0.006671
# 5 0.004072 0.000738 0.001796 0.000000 0.023231 0.000000
# 6 0.000000 -0.000001 -0.000001 0.006671 0.000000 0.130731
#
#
# Mechanical properties :
#
#
# Convention : Reuss Voigt Hill
#
# Bulk Modulus (GPa) = 32.62602 40.37723 36.50162
# Shear Modulus (GPa) = 19.49511 30.61360 25.05435
#
# Velocity S-wave (km/s) = 3.08412 3.86479 3.49631
# Velocity P-wave (km/s) = 5.34798 6.29411 5.84023
#
# Compressibility (1/GPa) = 0.03065038
#
# Stress axis : x y z
#
# Youngs Moduli (GPa) = 74.71048 42.85205 81.19734
#
# Poissons Ratio (x) = 0.09182 0.27066
# Poissons Ratio (y) = 0.16008 0.30182
# Poissons Ratio (z) = 0.24904 0.15929
#
# Static dielectric constant tensor:
#      x y z
#    x 3.886700 0.000000 0.070650 
#    y 0.000000 3.285770 0.000000 
#    z 0.070650 0.000000 4.041950 
# 
# 
# High freq. dielectric constant tensor:
#      x y z
#    x 1.816070 0.000000 -0.000530 
#    y 0.000000 1.755430 0.000000 
#    z -0.000530 0.000000 1.827460 
# 
# From -- ./inp_files/215568.got.cif
#   From: 2010.06.25/outbox.cif.g09.slc.cpg/sg15_108_cif.got.tgz:215568.got - 2010.06.28 07:06:18.
