data_PCOD8140226
_publ_section_title
;
Structure prediction by ZEFSAII (Michael W. Deem and Ramdas Pophale) SiO2 
 PCOD8140226
Probable space group: C 2/C
;
_chemical_formula_sum "Si O2"
_cell_formula_units_Z 60
_cell_length_a 11.454865
_cell_length_b 20.308530
_cell_length_c 23.559338
_cell_angle_alpha 90.000000
_cell_angle_beta 147.996594
_cell_angle_gamma 90.000000
_cell_volume 2904.574819
_symmetry_space_group_name_H-M "C 2/C"
_symmetry_group_IT_number 15
_symmetry_cell_setting 'monoclinic'
loop_
_space_group_symop_operation_xyz
x,y,z
-x,y,1/2-z
-x,-y,-z
x,-y,1/2+z
1/2+x,1/2+y,z
1/2-x,1/2+y,1/2-z
1/2-x,1/2-y,-z
1/2+x,1/2-y,1/2+z
loop_
_atom_site_type_symbol
_atom_site_label
_atom_site_fract_x
_atom_site_fract_y
_atom_site_fract_z
Si Si1 0.702057 0.108122 0.870063
Si Si2 0.440804 0.764642 0.121122
Si Si3 0.404245 0.291910 0.272560
Si Si4 0.429312 0.368239 0.780689
Si Si5 0.958365 0.337424 0.620979
Si Si6 0.021846 0.957562 0.591016
Si Si7 0.500000 0.918902 0.750000
Si Si8 0.481735 0.392137 0.096815
O O1 0.500000 0.074140 0.750000
O O2 0.596167 0.168581 0.859780
O O3 0.883858 0.135496 0.901666
O O4 0.832373 0.058224 0.965904
O O5 0.653572 0.767400 0.168222
O O6 0.460232 0.703915 0.172467
O O7 0.250000 0.750000 0.000000
O O8 0.500000 0.294098 0.250000
O O9 0.541317 0.241061 0.368590
O O10 0.406365 0.365251 0.299710
O O11 0.500000 0.401928 0.750000
O O12 0.507661 0.408550 0.868366
O O13 0.167662 0.362537 0.672417
O O14 0.941414 0.372176 0.674387
O O15 0.756844 0.359700 0.499848
O O16 0.272210 0.959307 0.668789
O O17 0.971780 0.029548 0.593947
#
# Coordination Sequence:
#
# PCOD8140226 Si02
#       8
#     8   8   8   8   8   8   4   8
#     4  12  24  42  67 100 134 174 230 287 332 393
#     4  11  23  41  68 100 133 169 227 285 336 391
#     4  11  25  43  64  95 136 178 217 276 339 401
#     4  10  23  43  68  97 131 179 226 272 337 409
#     4  10  22  41  65  95 129 172 222 275 330 398
#     4  11  25  43  68  99 140 181 220 281 344 403
#     4  10  20  40  70  98 128 172 220 274 340 402
#     4  12  26  42  65 102 133 176 225 272 340 398
#
# _framework density 20.657067999999999
#
# number of rings (size 3 to 8) (size 9 to 14) (size 15 to 20)
#    0.000    1.067    4.667    1.200    4.667    2.667 
#    0.000    0.667    0.000    0.000    0.000    0.000 
#    0.000    0.000    0.000    0.000    0.000    0.000 
#
# Total GULP energy -371920.832589 kJ/mol
# GULP energy per Si atom -12397.361086 kJ/mol
# Density = 2.061005 g / cm^3
# Si number density = 20.657068 Si / 1000 Ang^3
#
#
#
# Elastic Constant Matrix: (Units=GPa)
#
#
# Indices 1 2 3 4 5 6 
#
# 1 126.4126 40.6019 40.2546 0.0015 -3.8143 -0.0026
# 2 40.6019 112.5152 48.7773 -0.0018 9.2119 0.0022
# 3 40.2546 48.7773 129.3230 0.0008 4.0119 -0.0002
# 4 0.0015 -0.0018 0.0008 76.8703 -0.0001 -101.2900
# 5 -3.8143 9.2119 4.0119 -0.0001 24.1629 0.0000
# 6 -0.0026 0.0022 -0.0002 -101.2900 0.0000 235.9249
#
#
#
# Elastic Compliance Matrix: (Units=1/GPa)
#
#
# Indices 1 2 3 4 5 6 
#
# 1 0.009539 -0.002814 -0.001998 0.000000 0.002910 0.000000
# 2 -0.002814 0.011741 -0.003417 0.000000 -0.004353 0.000000
# 3 -0.001998 -0.003417 0.009663 0.000000 -0.000617 0.000000
# 4 0.000000 0.000000 0.000000 0.029955 0.000000 0.012861
# 5 0.002910 -0.004353 -0.000617 0.000000 0.043607 0.000000
# 6 0.000000 0.000000 0.000000 0.012861 0.000000 0.009760
#
#
# Mechanical properties :
#
#
# Convention : Reuss Voigt Hill
#
# Bulk Modulus (GPa) = 69.04579 69.72426 69.38502
# Shear Modulus (GPa) = 36.88640 83.29941 60.09291
#
# Velocity S-wave (km/s) = 4.23029 6.35708 5.39943
# Velocity P-wave (km/s) = 7.57349 9.36535 8.51668
#
# Compressibility (1/GPa) = 0.01448314
#
# Stress axis : x y z
#
# Youngs Moduli (GPa) = 104.83817 85.17082 103.49208
#
# Poissons Ratio (x) = 0.23969 0.20677
# Poissons Ratio (y) = 0.29503 0.35368
# Poissons Ratio (z) = 0.20946 0.29106
#
# Static dielectric constant tensor:
#      x y z
#    x 4.037080 0.000030 0.228350 
#    y 0.000030 3.816020 0.000010 
#    z 0.228350 0.000010 4.056530 
# 
# 
# High freq. dielectric constant tensor:
#      x y z
#    x 1.805160 0.000000 0.009340 
#    y 0.000000 1.807020 0.000000 
#    z 0.009340 0.000000 1.818830 
# 
# From -- ./inp_files/271033.got.cif
#   From: 2010.06.25/outbox.cif.g09.slc.cpg/sg15_136_cif.got.tgz:271033.got - 2010.06.28 07:06:18.
