data_PCOD8140087
_publ_section_title
;
Structure prediction by ZEFSAII (Michael W. Deem and Ramdas Pophale) SiO2 
 PCOD8140087
Probable space group: C 2/C
;
_chemical_formula_sum "Si O2"
_cell_formula_units_Z 52
_cell_length_a 11.166308
_cell_length_b 28.397689
_cell_length_c 9.152447
_cell_angle_alpha 90.000000
_cell_angle_beta 118.119972
_cell_angle_gamma 90.000000
_cell_volume 2559.646594
_symmetry_space_group_name_H-M "C 2/C"
_symmetry_group_IT_number 15
_symmetry_cell_setting 'monoclinic'
loop_
_space_group_symop_operation_xyz
x,y,z
-x,y,1/2-z
-x,-y,-z
x,-y,1/2+z
1/2+x,1/2+y,z
1/2-x,1/2+y,1/2-z
1/2-x,1/2-y,-z
1/2+x,1/2-y,1/2+z
loop_
_atom_site_type_symbol
_atom_site_label
_atom_site_fract_x
_atom_site_fract_y
_atom_site_fract_z
Si Si1 0.241947 0.629299 0.249288
Si Si2 0.658670 0.231477 0.315205
Si Si3 0.842463 0.953697 0.335454
Si Si4 0.801823 0.208074 0.934123
Si Si5 0.853273 0.616194 0.609713
Si Si6 0.657460 0.550366 0.001230
Si Si7 0.500000 0.340681 0.750000
O O1 0.216883 0.682202 0.289691
O O2 0.246659 0.592637 0.385118
O O3 0.385244 0.625906 0.248756
O O4 0.137232 0.613287 0.062287
O O5 0.500000 0.222673 0.250000
O O6 0.750000 0.250000 0.500000
O O7 0.668750 0.274523 0.210132
O O8 0.758698 0.916812 0.381368
O O9 0.798094 0.956591 0.140801
O O10 0.998970 0.937378 0.429730
O O11 0.812712 0.004025 0.388853
O O12 0.684456 0.168905 0.863130
O O13 0.750000 0.250000 0.000000
O O14 0.942370 0.190723 0.084983
O O15 0.000000 0.601336 0.750000
#
# Coordination Sequence:
#
# PCOD8140087 Si02
#       7
#     8   8   8   8   8   8   4
#     4  11  23  41  63  93 126 168 210 270 317 382
#     4  12  28  43  63  96 135 173 219 273 331 382
#     4  10  22  41  67  99 123 169 202 268 310 382
#     4  11  23  41  67  88 124 174 218 261 312 387
#     4  11  25  41  66  92 128 166 215 255 319 380
#     4  10  21  41  69  95 130 156 216 256 323 372
#     4  10  20  40  66  92 120 164 226 264 320 370
#
# _framework density 20.315304999999999
#
# number of rings (size 3 to 8) (size 9 to 14) (size 15 to 20)
#    0.000    1.231    3.077    3.692    5.385    2.462 
#    0.000    3.846    0.000    0.000    0.000    0.000 
#    0.000    0.000    0.000    0.000    0.000    0.000 
#
# Total GULP energy -322367.282130 kJ/mol
# GULP energy per Si atom -12398.741620 kJ/mol
# Density = 2.026907 g / cm^3
# Si number density = 20.315305 Si / 1000 Ang^3
#
#
#
# Elastic Constant Matrix: (Units=GPa)
#
#
# Indices 1 2 3 4 5 6 
#
# 1 62.2291 21.9185 29.3044 0.0000 -1.7660 0.0000
# 2 21.9185 102.1144 54.0039 0.0000 -10.2290 0.0000
# 3 29.3044 54.0039 167.6451 0.0000 -15.0231 0.0000
# 4 0.0000 0.0000 0.0000 41.1425 0.0000 -5.8971
# 5 -1.7660 -10.2290 -15.0231 0.0000 34.9600 0.0000
# 6 0.0000 0.0000 0.0000 -5.8971 0.0000 23.9832
#
#
#
# Elastic Compliance Matrix: (Units=1/GPa)
#
#
# Indices 1 2 3 4 5 6 
#
# 1 0.018120 -0.002726 -0.002370 0.000000 -0.000901 0.000000
# 2 -0.002726 0.012336 -0.003314 0.000000 0.002048 0.000000
# 3 -0.002370 -0.003314 0.007643 0.000000 0.002195 0.000000
# 4 0.000000 0.000000 0.000000 0.025194 0.000000 0.006195
# 5 -0.000901 0.002048 0.002195 0.000000 0.030101 0.000000
# 6 0.000000 0.000000 0.000000 0.006195 0.000000 0.043219
#
#
# Mechanical properties :
#
#
# Convention : Reuss Voigt Hill
#
# Bulk Modulus (GPa) = 46.99331 60.27135 53.63233
# Shear Modulus (GPa) = 31.14750 35.13460 33.14105
#
# Velocity S-wave (km/s) = 3.91986 4.16319 4.04336
# Velocity P-wave (km/s) = 6.60827 7.26925 6.94663
#
# Compressibility (1/GPa) = 0.02127963
#
# Stress axis : x y z
#
# Youngs Moduli (GPa) = 55.18640 81.06543 130.83172
#
# Poissons Ratio (x) = 0.22101 0.31006
# Poissons Ratio (y) = 0.15046 0.43353
# Poissons Ratio (z) = 0.13079 0.26862
#
# Static dielectric constant tensor:
#      x y z
#    x 3.541740 0.000000 -0.099270 
#    y 0.000000 23.853120 0.000000 
#    z -0.099270 0.000000 3.690150 
# 
# 
# High freq. dielectric constant tensor:
#      x y z
#    x 1.781220 0.000000 -0.007480 
#    y 0.000000 1.798600 0.000000 
#    z -0.007480 0.000000 1.812970 
# 
# From -- ./inp_files/34410.got.cif
#   From: 2010.06.25/outbox.cif.g09.slc.cpg/sg15_18_cif.got.tgz:34410.got - 2010.06.28 07:06:18.
