data_PCOD8140775
_publ_section_title
;
Structure prediction by ZEFSAII (Michael W. Deem and Ramdas Pophale) SiO2 
 PCOD8140775
Probable space group: C 2/C
;
_chemical_formula_sum "Si O2"
_cell_formula_units_Z 56
_cell_length_a 29.334187
_cell_length_b 8.270459
_cell_length_c 11.757076
_cell_angle_alpha 90.000000
_cell_angle_beta 62.340457
_cell_angle_gamma 90.000000
_cell_volume 2526.389148
_symmetry_space_group_name_H-M "C 2/C"
_symmetry_group_IT_number 15
_symmetry_cell_setting 'monoclinic'
loop_
_space_group_symop_operation_xyz
x,y,z
-x,y,1/2-z
-x,-y,-z
x,-y,1/2+z
1/2+x,1/2+y,z
1/2-x,1/2+y,1/2-z
1/2-x,1/2-y,-z
1/2+x,1/2-y,1/2+z
loop_
_atom_site_type_symbol
_atom_site_label
_atom_site_fract_x
_atom_site_fract_y
_atom_site_fract_z
Si Si1 0.831029 0.334680 0.356916
Si Si2 0.308979 0.739469 0.141061
Si Si3 0.717398 0.155445 0.132432
Si Si4 0.639828 0.442023 0.524200
Si Si5 0.442092 0.328631 0.291185
Si Si6 0.386519 0.037574 0.457921
Si Si7 0.109279 0.723983 0.361225
O O1 0.838381 0.247065 0.227164
O O2 0.783685 0.461432 0.393131
O O3 0.823651 0.189537 0.454969
O O4 0.881688 0.430052 0.347681
O O5 0.246919 0.712029 0.215783
O O6 0.323147 0.585354 0.050301
O O7 0.327972 0.896224 0.047061
O O8 0.658460 0.208566 0.219443
O O9 0.750000 0.250000 0.000000
O O10 0.593078 0.511261 0.655103
O O11 0.615392 0.372688 0.438212
O O12 0.500000 0.380069 0.250000
O O13 0.426011 0.185048 0.397410
O O14 0.438360 0.262078 0.166512
O O15 0.402414 0.936679 0.551462
#
# Coordination Sequence:
#
# PCOD8140775 Si02
#       7
#     8   8   8   8   8   8   8
#     4  11  22  44  65  92 137 179 220 272 325 391
#     4  11  22  39  61  96 135 178 224 269 316 386
#     4  12  23  39  66  97 136 177 230 275 317 393
#     4  10  25  43  66  94 133 181 220 272 346 399
#     4  11  23  44  70 100 131 165 225 293 343 406
#     4  10  20  43  67  94 133 182 221 273 336 397
#     4  11  23  43  64  94 137 178 220 276 338 396
#
# _framework density 22.166024
#
# number of rings (size 3 to 8) (size 9 to 14) (size 15 to 20)
#    0.000    1.143    4.286    1.714    2.000    1.714 
#    2.571    2.857    0.000    0.000    0.000    0.000 
#    0.000    0.000    0.000    0.000    0.000    0.000 
#
# Total GULP energy -346867.257002 kJ/mol
# GULP energy per Si atom -12388.116322 kJ/mol
# Density = 2.211557 g / cm^3
# Si number density = 22.166024 Si / 1000 Ang^3
#
#
#
# Elastic Constant Matrix: (Units=GPa)
#
#
# Indices 1 2 3 4 5 6 
#
# 1 96.9012 35.8769 35.8196 0.0000 20.4411 0.0000
# 2 35.8769 102.6563 35.5658 0.0000 19.1613 0.0000
# 3 35.8196 35.5658 84.0153 0.0000 25.2185 0.0000
# 4 0.0000 0.0000 0.0000 26.8775 0.0000 12.3652
# 5 20.4411 19.1613 25.2185 0.0000 29.0045 0.0000
# 6 0.0000 0.0000 0.0000 12.3652 0.0000 23.1938
#
#
#
# Elastic Compliance Matrix: (Units=1/GPa)
#
#
# Indices 1 2 3 4 5 6 
#
# 1 0.013538 -0.002712 -0.003109 0.000000 -0.005046 0.000000
# 2 -0.002712 0.012414 -0.002992 0.000000 -0.003688 0.000000
# 3 -0.003109 -0.002992 0.017921 0.000000 -0.011414 0.000000
# 4 0.000000 0.000000 0.000000 0.049297 0.000000 -0.026281
# 5 -0.005046 -0.003688 -0.011414 0.000000 0.050394 0.000000
# 6 0.000000 0.000000 0.000000 -0.026281 0.000000 0.057126
#
#
# Mechanical properties :
#
#
# Convention : Reuss Voigt Hill
#
# Bulk Modulus (GPa) = 38.10041 55.34416 46.72229
# Shear Modulus (GPa) = 22.02024 27.56920 24.79472
#
# Velocity S-wave (km/s) = 3.15528 3.53052 3.34816
# Velocity P-wave (km/s) = 5.52271 6.45304 6.00592
#
# Compressibility (1/GPa) = 0.02624644
#
# Stress axis : x y z
#
# Youngs Moduli (GPa) = 73.86827 80.55360 55.80164
#
# Poissons Ratio (x) = 0.21848 0.17349
# Poissons Ratio (y) = 0.20035 0.16694
# Poissons Ratio (z) = 0.22966 0.24099
#
# Static dielectric constant tensor:
#      x y z
#    x 3.863400 0.000000 0.370950 
#    y 0.000000 4.384360 0.000000 
#    z 0.370950 0.000000 3.958140 
# 
# 
# High freq. dielectric constant tensor:
#      x y z
#    x 1.846160 0.000000 0.039970 
#    y 0.000000 1.889470 0.000000 
#    z 0.039970 0.000000 1.861400 
# 
# From -- ./inp_files/125537.got.cif
#   From: 2010.06.25/outbox.cif.g09.slc.cpg/sg15_63_cif.got.tgz:125537.got - 2010.06.28 07:06:18.
