data_PCOD8140003
_publ_section_title
;
Structure prediction by ZEFSAII (Michael W. Deem and Ramdas Pophale) SiO2 
 PCOD8140003
Probable space group: C 2/C
;
_chemical_formula_sum "Si O2"
_cell_formula_units_Z 60
_cell_length_a 14.752324
_cell_length_b 14.187949
_cell_length_c 27.188677
_cell_angle_alpha 90.000000
_cell_angle_beta 29.645278
_cell_angle_gamma 90.000000
_cell_volume 2814.800133
_symmetry_space_group_name_H-M "C 2/C"
_symmetry_group_IT_number 15
_symmetry_cell_setting 'monoclinic'
loop_
_space_group_symop_operation_xyz
x,y,z
-x,y,1/2-z
-x,-y,-z
x,-y,1/2+z
1/2+x,1/2+y,z
1/2-x,1/2+y,1/2-z
1/2-x,1/2-y,-z
1/2+x,1/2-y,1/2+z
loop_
_atom_site_type_symbol
_atom_site_label
_atom_site_fract_x
_atom_site_fract_y
_atom_site_fract_z
Si Si1 0.561228 0.303571 0.870859
Si Si2 0.148247 0.541732 0.027010
Si Si3 0.513942 0.127381 0.538459
Si Si4 0.256421 0.597154 0.562277
Si Si5 0.607157 0.295795 0.649248
Si Si6 0.161267 0.154945 0.639051
Si Si7 0.525199 0.835863 0.815482
Si Si8 0.000000 0.492628 0.750000
O O1 0.492737 0.196655 0.911535
O O2 0.504994 0.342769 0.843291
O O3 0.777428 0.290508 0.772964
O O4 0.472380 0.372744 0.955291
O O5 0.223158 0.474695 0.033861
O O6 0.006679 0.482012 0.059443
O O7 0.046626 0.633154 0.097176
O O8 0.320531 0.583274 0.915139
O O9 0.714564 0.143387 0.420340
O O10 0.356324 0.154624 0.574443
O O11 0.145415 0.693139 0.608918
O O12 0.183428 0.552576 0.648343
O O13 0.500000 0.288111 0.750000
O O14 0.000000 0.116118 0.750000
O O15 0.113451 0.261446 0.644322
O O16 0.554175 0.930055 0.770587
#
# Coordination Sequence:
#
# PCOD8140003 Si02
#       8
#     8   8   8   8   8   8   8   4
#     4  11  21  42  68  93 138 169 219 276 348 394
#     4  11  24  42  67  95 136 176 229 279 331 405
#     4  11  22  44  68  95 135 179 220 279 332 407
#     4  10  20  40  64  98 125 167 217 287 329 392
#     4  11  22  39  70  97 130 169 224 276 337 405
#     4  12  25  45  65  96 136 182 223 271 345 412
#     4  11  24  44  67  97 136 183 221 283 344 409
#     4  10  20  40  68  92 136 168 226 276 334 402
#
# _framework density 21.315901
#
# number of rings (size 3 to 8) (size 9 to 14) (size 15 to 20)
#    0.000    1.067    5.333    1.600    1.867    2.133 
#    0.000    1.333    0.000    0.000    0.000    0.000 
#    0.000    0.000    0.000    0.000    0.000    0.000 
#
# Total GULP energy -371717.863924 kJ/mol
# GULP energy per Si atom -12390.595464 kJ/mol
# Density = 2.126738 g / cm^3
# Si number density = 21.315901 Si / 1000 Ang^3
#
#
#
# Elastic Constant Matrix: (Units=GPa)
#
#
# Indices 1 2 3 4 5 6 
#
# 1 83.2202 29.9907 47.4159 -0.0023 -4.4694 0.0005
# 2 29.9907 95.5247 56.9335 -0.0009 9.2914 -0.0003
# 3 47.4159 56.9335 122.7284 -0.0128 13.6140 0.0000
# 4 -0.0023 -0.0009 -0.0128 37.1082 -0.0007 10.6316
# 5 -4.4694 9.2914 13.6140 -0.0007 37.4851 0.0003
# 6 0.0005 -0.0003 0.0000 10.6316 0.0003 27.5522
#
#
#
# Elastic Compliance Matrix: (Units=1/GPa)
#
#
# Indices 1 2 3 4 5 6 
#
# 1 0.016354 -0.002090 -0.005859 -0.000001 0.004596 0.000000
# 2 -0.002090 0.014788 -0.005854 -0.000002 -0.001788 0.000001
# 3 -0.005859 -0.005854 0.013592 0.000005 -0.004184 -0.000002
# 4 -0.000001 -0.000002 0.000005 0.030298 -0.000001 -0.011691
# 5 0.004596 -0.001788 -0.004184 -0.000001 0.029188 0.000000
# 6 0.000000 0.000001 -0.000002 -0.011691 0.000000 0.040806
#
#
# Mechanical properties :
#
#
# Convention : Reuss Voigt Hill
#
# Bulk Modulus (GPa) = 58.38406 63.35039 60.86723
# Shear Modulus (GPa) = 28.03629 31.57133 29.80381
#
# Velocity S-wave (km/s) = 3.63061 3.85270 3.74330
# Velocity P-wave (km/s) = 6.71003 7.04098 6.87749
#
# Compressibility (1/GPa) = 0.01712796
#
# Stress axis : x y z
#
# Youngs Moduli (GPa) = 61.14567 67.62372 73.57523
#
# Poissons Ratio (x) = 0.14131 0.43107
# Poissons Ratio (y) = 0.12777 0.43073
# Poissons Ratio (z) = 0.35825 0.39589
#
# Static dielectric constant tensor:
#      x y z
#    x 3.612350 0.000000 0.283310 
#    y 0.000000 3.990370 0.000010 
#    z 0.283310 0.000010 4.222240 
# 
# 
# High freq. dielectric constant tensor:
#      x y z
#    x 1.813730 0.000000 0.016970 
#    y 0.000000 1.839770 0.000000 
#    z 0.016970 0.000000 1.846330 
# 
# From -- ./inp_files/178536.got.cif
#   From: 2010.06.25/outbox.cif.g09.slc.cpg/sg15_90_cif.got.tgz:178536.got - 2010.06.28 07:06:18.
