data_PCOD8140490
_publ_section_title
;
Structure prediction by ZEFSAII (Michael W. Deem and Ramdas Pophale) SiO2 
 PCOD8140490
Probable space group: C 2/C
;
_chemical_formula_sum "Si O2"
_cell_formula_units_Z 52
_cell_length_a 7.673569
_cell_length_b 29.505309
_cell_length_c 16.431284
_cell_angle_alpha 90.000000
_cell_angle_beta 136.117183
_cell_angle_gamma 90.000000
_cell_volume 2578.805984
_symmetry_space_group_name_H-M "C 2/C"
_symmetry_group_IT_number 15
_symmetry_cell_setting 'monoclinic'
loop_
_space_group_symop_operation_xyz
x,y,z
-x,y,1/2-z
-x,-y,-z
x,-y,1/2+z
1/2+x,1/2+y,z
1/2-x,1/2+y,1/2-z
1/2-x,1/2-y,-z
1/2+x,1/2-y,1/2+z
loop_
_atom_site_type_symbol
_atom_site_label
_atom_site_fract_x
_atom_site_fract_y
_atom_site_fract_z
Si Si1 0.000000 0.791688 0.750000
Si Si2 0.168780 0.938631 0.533294
Si Si3 0.507817 0.173974 0.490833
Si Si4 0.461425 0.741688 0.401110
Si Si5 0.388938 0.968394 0.128156
Si Si6 0.787634 0.659942 0.114826
Si Si7 0.266222 0.916480 0.380263
O O1 0.209214 0.821306 0.869013
O O2 0.135075 0.760895 0.725693
O O3 0.230087 0.892971 0.602857
O O4 0.191753 0.934780 0.443884
O O5 0.892888 0.949875 0.474238
O O6 0.371303 0.976988 0.625158
O O7 0.645900 0.214841 0.586783
O O8 0.651270 0.172139 0.455568
O O9 0.555916 0.127803 0.556567
O O10 0.437130 0.693488 0.437959
O O11 0.750000 0.750000 0.500000
O O12 0.500000 0.949885 0.250000
O O13 0.571563 0.953341 0.115704
O O14 0.000000 0.673826 0.250000
O O15 0.000000 0.904834 0.250000
#
# Coordination Sequence:
#
# PCOD8140490 Si02
#       7
#     4   8   8   8   8   8   8
#     4  10  20  42  60  90 126 158 216 268 298 380
#     4  10  24  41  65  97 122 167 215 260 325 376
#     4  10  23  40  63  93 125 169 214 256 323 376
#     4  10  22  39  60  89 126 165 204 259 316 370
#     4  11  22  42  67  90 130 165 209 266 318 381
#     4  11  21  40  67  89 125 158 212 269 308 375
#     4  11  23  43  63  95 136 167 210 260 319 391
#
# _framework density 20.164372
#
# number of rings (size 3 to 8) (size 9 to 14) (size 15 to 20)
#    0.000    1.538    3.077    1.385    4.308    0.615 
#   12.462    0.000    1.692    0.000    0.000    0.000 
#    0.000    0.000    0.000    0.000    0.000    0.000 
#
# Total GULP energy -322154.489222 kJ/mol
# GULP energy per Si atom -12390.557278 kJ/mol
# Density = 2.011848 g / cm^3
# Si number density = 20.164372 Si / 1000 Ang^3
#
#
#
# Elastic Constant Matrix: (Units=GPa)
#
#
# Indices 1 2 3 4 5 6 
#
# 1 84.1158 53.5421 22.5656 0.0000 2.6673 0.0000
# 2 53.5421 143.5939 35.5067 0.0000 4.5661 0.0000
# 3 22.5656 35.5067 78.6420 0.0000 9.1392 0.0000
# 4 0.0000 0.0000 0.0000 26.7823 0.0000 1.0091
# 5 2.6673 4.5661 9.1392 0.0000 29.2636 0.0000
# 6 0.0000 0.0000 0.0000 1.0091 0.0000 31.6476
#
#
#
# Elastic Compliance Matrix: (Units=1/GPa)
#
#
# Indices 1 2 3 4 5 6 
#
# 1 0.015897 -0.005403 -0.002129 0.000000 0.000059 0.000000
# 2 -0.005403 0.009676 -0.002802 0.000000 -0.000142 0.000000
# 3 -0.002129 -0.002802 0.015065 0.000000 -0.004074 0.000000
# 4 0.000000 0.000000 0.000000 0.037383 0.000000 -0.001192
# 5 0.000059 -0.000142 -0.004074 0.000000 0.035461 0.000000
# 6 0.000000 0.000000 0.000000 -0.001192 0.000000 0.031636
#
#
# Mechanical properties :
#
#
# Convention : Reuss Voigt Hill
#
# Bulk Modulus (GPa) = 50.07352 58.84229 54.45790
# Shear Modulus (GPa) = 28.99523 30.52120 29.75822
#
# Velocity S-wave (km/s) = 3.79614 3.89475 3.84576
# Velocity P-wave (km/s) = 6.64084 7.03350 6.83999
#
# Compressibility (1/GPa) = 0.01997064
#
# Stress axis : x y z
#
# Youngs Moduli (GPa) = 62.90611 103.34833 66.37831
#
# Poissons Ratio (x) = 0.55838 0.14131
# Poissons Ratio (y) = 0.33988 0.18598
# Poissons Ratio (z) = 0.13392 0.28957
#
# Static dielectric constant tensor:
#      x y z
#    x 6.435920 0.000000 -2.056130 
#    y 0.000000 5.026780 0.000000 
#    z -2.056130 0.000000 5.007400 
# 
# 
# High freq. dielectric constant tensor:
#      x y z
#    x 1.800040 0.000000 -0.010940 
#    y 0.000000 1.787940 0.000000 
#    z -0.010940 0.000000 1.785670 
# 
# From -- ./inp_files/193773.got.cif
#   From: 2010.06.25/outbox.cif.g09.slc.cpg/sg15_97_cif.got.tgz:193773.got - 2010.06.28 07:06:18.
