data_PCOD8140985
_publ_section_title
;
Structure prediction by ZEFSAII (Michael W. Deem and Ramdas Pophale) SiO2 
 PCOD8140985
Probable space group: C 2/C
;
_chemical_formula_sum "Si O2"
_cell_formula_units_Z 64
_cell_length_a 26.070049
_cell_length_b 21.874251
_cell_length_c 12.054058
_cell_angle_alpha 90.000000
_cell_angle_beta 28.114006
_cell_angle_gamma 90.000000
_cell_volume 3239.208819
_symmetry_space_group_name_H-M "C 2/C"
_symmetry_group_IT_number 15
_symmetry_cell_setting 'monoclinic'
loop_
_space_group_symop_operation_xyz
x,y,z
-x,y,1/2-z
-x,-y,-z
x,-y,1/2+z
1/2+x,1/2+y,z
1/2-x,1/2+y,1/2-z
1/2-x,1/2-y,-z
1/2+x,1/2-y,1/2+z
loop_
_atom_site_type_symbol
_atom_site_label
_atom_site_fract_x
_atom_site_fract_y
_atom_site_fract_z
Si Si1 0.016955 0.406913 0.390767
Si Si2 0.225203 0.397690 0.735115
Si Si3 0.153384 0.951071 0.185290
Si Si4 0.295658 0.326075 0.012954
Si Si5 0.168677 0.497522 0.491979
Si Si6 0.043764 0.935270 0.784719
Si Si7 0.912810 0.388247 0.998713
Si Si8 0.687244 0.811824 0.990692
O O1 0.069133 0.469208 0.244246
O O2 0.025417 0.406149 0.506793
O O3 0.892624 0.404709 0.594342
O O4 0.075350 0.347870 0.225889
O O5 0.316932 0.401240 0.465311
O O6 0.238579 0.334092 0.775940
O O7 0.243768 0.452477 0.787509
O O8 0.055952 0.922756 0.442200
O O9 0.123588 0.014912 0.184424
O O10 0.259002 0.961705 0.057809
O O11 0.186988 0.342712 0.288656
O O12 0.336951 0.259890 0.972745
O O13 0.391249 0.372885 0.857983
O O14 0.272691 0.326434 0.925519
O O15 0.126102 0.450898 0.481811
O O16 0.000000 0.958923 0.750000
O O17 0.000000 0.355705 0.750000
#
# Coordination Sequence:
#
# PCOD8140985 Si02
#       8
#     8   8   8   8   8   8   8   8
#     4  10  21  34  55  85 113 145 183 223 281 343
#     4  11  20  34  56  85 115 143 181 236 284 322
#     4  11  23  36  54  85 117 144 189 236 276 332
#     4  10  21  40  60  78 106 148 191 224 272 339
#     4  11  20  34  55  81 115 150 177 218 282 343
#     4  11  23  38  57  80 111 155 191 225 278 341
#     4  11  21  34  56  85 112 139 176 227 279 330
#     4   9  20  39  60  80 106 145 187 229 275 334
#
# _framework density 19.757911
#
# number of rings (size 3 to 8) (size 9 to 14) (size 15 to 20)
#    0.000    1.500    0.000    8.250    0.000    3.500 
#    0.000    3.750    0.000    4.500    0.000    0.000 
#    0.000    0.000    0.000    0.000    0.000    0.000 
#
# Total GULP energy -396911.342718 kJ/mol
# GULP energy per Si atom -12403.479460 kJ/mol
# Density = 1.971294 g / cm^3
# Si number density = 19.757911 Si / 1000 Ang^3
#
#
#
# Elastic Constant Matrix: (Units=GPa)
#
#
# Indices 1 2 3 4 5 6 
#
# 1 90.5282 34.7812 43.6884 0.0000 20.4004 0.0000
# 2 34.7812 90.0444 44.7102 0.0000 4.8517 0.0000
# 3 43.6884 44.7102 122.9674 0.0000 19.0321 0.0000
# 4 0.0000 0.0000 0.0000 13.5570 0.0000 3.1005
# 5 20.4004 4.8517 19.0321 0.0000 32.2390 0.0000
# 6 0.0000 0.0000 0.0000 3.1005 0.0000 29.4758
#
#
#
# Elastic Compliance Matrix: (Units=1/GPa)
#
#
# Indices 1 2 3 4 5 6 
#
# 1 0.015798 -0.004260 -0.002879 0.000000 -0.007656 0.000000
# 2 -0.004260 0.014728 -0.004309 0.000000 0.003023 0.000000
# 3 -0.002879 -0.004309 0.011379 0.000000 -0.004248 0.000000
# 4 0.000000 0.000000 0.000000 0.075581 0.000000 -0.007950
# 5 -0.007656 0.003023 -0.004248 0.000000 0.037915 0.000000
# 6 0.000000 0.000000 0.000000 -0.007950 0.000000 0.034762
#
#
# Mechanical properties :
#
#
# Convention : Reuss Voigt Hill
#
# Bulk Modulus (GPa) = 52.60853 61.09994 56.85424
# Shear Modulus (GPa) = 22.78980 27.07837 24.93408
#
# Velocity S-wave (km/s) = 3.39993 3.70605 3.55629
# Velocity P-wave (km/s) = 6.48823 7.02172 6.76024
#
# Compressibility (1/GPa) = 0.01900832
#
# Stress axis : x y z
#
# Youngs Moduli (GPa) = 63.30093 67.89766 87.87909
#
# Poissons Ratio (x) = 0.28926 0.25298
# Poissons Ratio (y) = 0.26967 0.37870
# Poissons Ratio (z) = 0.18223 0.29260
#
# Static dielectric constant tensor:
#      x y z
#    x 3.774010 0.000000 0.225550 
#    y 0.000000 3.438180 0.000000 
#    z 0.225550 0.000000 3.771440 
# 
# 
# High freq. dielectric constant tensor:
#      x y z
#    x 1.787430 0.000000 0.009210 
#    y 0.000000 1.746150 0.000000 
#    z 0.009210 0.000000 1.770600 
# 
# From -- ./inp_files/124234.got.cif
#   From: 2010.06.25/outbox.cif.g09.slc.cpg/sg15_63_cif.got.tgz:124234.got - 2010.06.28 07:06:18.
