data_PCOD8140827
_publ_section_title
;
Structure prediction by ZEFSAII (Michael W. Deem and Ramdas Pophale) SiO2 
 PCOD8140827
Probable space group: C 2/C
;
_chemical_formula_sum "Si O2"
_cell_formula_units_Z 40
_cell_length_a 9.010044
_cell_length_b 21.831236
_cell_length_c 9.239119
_cell_angle_alpha 90.000000
_cell_angle_beta 84.419291
_cell_angle_gamma 90.000000
_cell_volume 1808.724552
_symmetry_space_group_name_H-M "C 2/C"
_symmetry_group_IT_number 15
_symmetry_cell_setting 'monoclinic'
loop_
_space_group_symop_operation_xyz
x,y,z
-x,y,1/2-z
-x,-y,-z
x,-y,1/2+z
1/2+x,1/2+y,z
1/2-x,1/2+y,1/2-z
1/2-x,1/2-y,-z
1/2+x,1/2-y,1/2+z
loop_
_atom_site_type_symbol
_atom_site_label
_atom_site_fract_x
_atom_site_fract_y
_atom_site_fract_z
Si Si1 0.234139 0.525207 0.419217
Si Si2 0.500000 0.409084 0.750000
Si Si3 0.500000 0.902532 0.750000
Si Si4 0.674067 0.300414 0.207344
Si Si5 0.737116 0.325399 0.872456
Si Si6 0.173330 0.579493 0.729760
O O1 0.397226 0.549665 0.362790
O O2 0.213883 0.533708 0.593133
O O3 0.226583 0.453642 0.373618
O O4 0.097018 0.557132 0.350338
O O5 0.601532 0.366914 0.837913
O O6 0.393277 0.860999 0.857184
O O7 0.500000 0.297853 0.250000
O O8 0.748680 0.234174 0.235514
O O9 0.744428 0.355214 0.296038
O O10 0.705150 0.308495 0.037589
O O11 0.000000 0.593920 0.750000
#
# Coordination Sequence:
#
# PCOD8140827 Si02
#       6
#     8   4   4   8   8   8
#     4  11  25  42  67  96 132 173 218 268 322 380
#     4  10  24  42  66  94 130 168 216 268 324 382
#     4  10  20  44  66  90 130 170 220 262 326 380
#     4  11  24  42  65  95 131 169 215 262 327 383
#     4  10  22  43  66  92 127 173 210 269 322 387
#     4  12  26  42  67  98 132 173 218 269 317 388
#
# _framework density 22.115033
#
# number of rings (size 3 to 8) (size 9 to 14) (size 15 to 20)
#    0.000    1.200    2.000    3.000    8.400    0.800 
#    0.000    3.000    0.000    0.000    0.000    0.000 
#    0.000    0.000    0.000    0.000    0.000    0.000 
#
# Total GULP energy -248020.923660 kJ/mol
# GULP energy per Si atom -12401.046183 kJ/mol
# Density = 2.206470 g / cm^3
# Si number density = 22.115033 Si / 1000 Ang^3
#
#
#
# Elastic Constant Matrix: (Units=GPa)
#
#
# Indices 1 2 3 4 5 6 
#
# 1 138.8343 37.0511 16.4205 0.0000 -19.6541 0.0000
# 2 37.0511 100.2656 -0.8333 0.0000 -0.5423 0.0000
# 3 16.4205 -0.8333 61.3716 0.0000 -6.1988 0.0000
# 4 0.0000 0.0000 0.0000 32.5568 0.0000 2.4112
# 5 -19.6541 -0.5423 -6.1988 0.0000 23.2261 0.0000
# 6 0.0000 0.0000 0.0000 2.4112 0.0000 22.1148
#
#
#
# Elastic Compliance Matrix: (Units=1/GPa)
#
#
# Indices 1 2 3 4 5 6 
#
# 1 0.009379 -0.003441 -0.001811 0.000000 0.007373 0.000000
# 2 -0.003441 0.011239 0.000828 0.000000 -0.002428 0.000000
# 3 -0.001811 0.000828 0.017098 0.000000 0.003050 0.000000
# 4 0.000000 0.000000 0.000000 0.030966 0.000000 -0.003376
# 5 0.007373 -0.002428 0.003050 0.000000 0.050051 0.000000
# 6 0.000000 0.000000 0.000000 -0.003376 0.000000 0.045587
#
#
# Mechanical properties :
#
#
# Convention : Reuss Voigt Hill
#
# Bulk Modulus (GPa) = 34.64161 45.08312 39.86236
# Shear Modulus (GPa) = 27.35363 32.10175 29.72769
#
# Velocity S-wave (km/s) = 3.52075 3.81409 3.67035
# Velocity P-wave (km/s) = 5.67678 6.31082 6.00218
#
# Compressibility (1/GPa) = 0.02886702
#
# Stress axis : x y z
#
# Youngs Moduli (GPa) = 106.61947 88.97721 58.48589
#
# Poissons Ratio (x) = 0.30618 0.10595
# Poissons Ratio (y) = 0.36688 -0.04843
# Poissons Ratio (z) = 0.19314 -0.07367
#
# Static dielectric constant tensor:
#      x y z
#    x 3.607080 0.000000 0.096120 
#    y 0.000000 4.594380 0.000000 
#    z 0.096120 0.000000 3.644670 
# 
# 
# High freq. dielectric constant tensor:
#      x y z
#    x 1.882040 0.000000 -0.022250 
#    y 0.000000 1.887150 0.000000 
#    z -0.022250 0.000000 1.862390 
# 
# From -- ./inp_files/23517.got.cif
#   From: 2010.06.25/outbox.cif.g09.slc.cpg/sg15_12_cif.got.tgz:23517.got - 2010.06.28 07:06:18.
