data_PCOD8140011
_publ_section_title
;
Structure prediction by ZEFSAII (Michael W. Deem and Ramdas Pophale) SiO2 
 PCOD8140011
Probable space group: C 2/C
;
_chemical_formula_sum "Si O2"
_cell_formula_units_Z 56
_cell_length_a 21.606025
_cell_length_b 7.677847
_cell_length_c 17.367030
_cell_angle_alpha 90.000000
_cell_angle_beta 127.585768
_cell_angle_gamma 90.000000
_cell_volume 2283.005281
_symmetry_space_group_name_H-M "C 2/C"
_symmetry_group_IT_number 15
_symmetry_cell_setting 'monoclinic'
loop_
_space_group_symop_operation_xyz
x,y,z
-x,y,1/2-z
-x,-y,-z
x,-y,1/2+z
1/2+x,1/2+y,z
1/2-x,1/2+y,1/2-z
1/2-x,1/2-y,-z
1/2+x,1/2-y,1/2+z
loop_
_atom_site_type_symbol
_atom_site_label
_atom_site_fract_x
_atom_site_fract_y
_atom_site_fract_z
Si Si1 0.501127 0.267701 0.971520
Si Si2 0.588989 0.435263 0.314052
Si Si3 0.271080 0.754717 0.833456
Si Si4 0.410728 0.953520 0.683744
Si Si5 0.362851 0.528128 0.314651
Si Si6 0.899384 0.558640 0.351336
Si Si7 0.361747 0.263303 0.546784
O O1 0.441671 0.433805 0.925300
O O2 0.561022 0.278019 0.946593
O O3 0.445046 0.104589 0.917375
O O4 0.548764 0.235707 0.087877
O O5 0.500000 0.502356 0.250000
O O6 0.596523 0.241803 0.356189
O O7 0.617014 0.424032 0.247335
O O8 0.642763 0.568440 0.401939
O O9 0.301908 0.577594 0.819344
O O10 0.179979 0.789584 0.743691
O O11 0.319279 0.921491 0.837947
O O12 0.283635 0.740927 0.935269
O O13 0.500000 0.016932 0.750000
O O14 0.379207 0.955299 0.746619
O O15 0.360970 0.085349 0.594942
#
# Coordination Sequence:
#
# PCOD8140011 Si02
#       7
#     8   8   8   8   8   8   8
#     4  10  21  38  70  98 136 174 225 285 347 402
#     4  11  23  41  71 106 134 177 232 291 349 412
#     4  11  27  45  65  98 138 185 234 277 353 413
#     4  11  21  38  69 103 138 174 224 292 350 401
#     4  12  24  46  68  97 142 189 229 291 342 420
#     4  10  20  40  65 103 131 177 224 282 342 414
#     4  11  23  44  69 104 137 177 229 291 348 417
#
# _framework density 24.529071999999999
#
# number of rings (size 3 to 8) (size 9 to 14) (size 15 to 20)
#    0.000    1.143    4.286    2.143    0.000    5.143 
#    2.571    0.714    0.000    0.000    0.000    0.000 
#    0.000    0.000    0.000    0.000    0.000    0.000 
#
# Total GULP energy -347243.005293 kJ/mol
# GULP energy per Si atom -12401.535903 kJ/mol
# Density = 2.447324 g / cm^3
# Si number density = 24.529072 Si / 1000 Ang^3
#
#
#
# Elastic Constant Matrix: (Units=GPa)
#
#
# Indices 1 2 3 4 5 6 
#
# 1 23.2838 9.2342 37.9967 0.0000 -5.0623 0.0000
# 2 9.2342 76.3139 32.1941 -0.0001 -10.5425 0.0000
# 3 37.9967 32.1941 161.8815 0.0000 -11.6330 0.0000
# 4 0.0000 -0.0001 0.0000 -2.3002 0.0000 -12.8679
# 5 -5.0623 -10.5425 -11.6330 0.0000 41.6464 0.0000
# 6 0.0000 0.0000 0.0000 -12.8679 0.0000 37.8382
#
#
#
# Elastic Compliance Matrix: (Units=1/GPa)
#
#
# Indices 1 2 3 4 5 6 
#
# 1 0.070370 -0.001245 -0.015999 0.000000 0.003770 0.000000
# 2 -0.001245 0.014674 -0.002418 0.000000 0.002888 0.000000
# 3 -0.015999 -0.002418 0.010439 0.000000 0.000359 0.000000
# 4 0.000000 0.000000 0.000000 -0.149783 0.000000 -0.050938
# 5 0.003770 0.002888 0.000359 0.000000 0.025301 0.000000
# 6 0.000000 0.000000 0.000000 -0.050938 0.000000 0.009106
#
#
# Mechanical properties :
#
#
# Convention : Reuss Voigt Hill
#
# Bulk Modulus (GPa) = 17.80668 46.70325 32.25496
# Shear Modulus (GPa) = 131.06011 27.57382 79.31697
#
# Velocity S-wave (km/s) = 7.31755 3.35644 5.69264
# Velocity P-wave (km/s) = 8.86964 5.83971 7.50909
#
# Compressibility (1/GPa) = 0.05615871
#
# Stress axis : x y z
#
# Youngs Moduli (GPa) = 14.21060 68.14957 95.79142
#
# Poissons Ratio (x) = 0.08484 1.53254
# Poissons Ratio (y) = 0.01769 0.23167
# Poissons Ratio (z) = 0.22735 0.16482
#
# Static dielectric constant tensor:
#      x y z
#    x 4.232940 0.000000 0.096330 
#    y 0.000000 4.580020 0.000000 
#    z 0.096330 0.000000 4.609730 
# 
# 
# High freq. dielectric constant tensor:
#      x y z
#    x 1.965470 0.000000 0.002030 
#    y 0.000000 1.994460 0.000000 
#    z 0.002030 0.000000 1.976200 
# 
# From -- ./inp_files/218665.got.cif
#   From: 2010.06.25/outbox.cif.g09.slc.cpg/sg15_110_cif.got.tgz:218665.got - 2010.06.28 07:06:18.
