data_PCOD8140521
_publ_section_title
;
Structure prediction by ZEFSAII (Michael W. Deem and Ramdas Pophale) SiO2 
 PCOD8140521
Probable space group: C 2/C
;
_chemical_formula_sum "Si O2"
_cell_formula_units_Z 48
_cell_length_a 12.651644
_cell_length_b 30.116853
_cell_length_c 12.352810
_cell_angle_alpha 90.000000
_cell_angle_beta 153.891093
_cell_angle_gamma 90.000000
_cell_volume 2071.346384
_symmetry_space_group_name_H-M "C 2/C"
_symmetry_group_IT_number 15
_symmetry_cell_setting 'monoclinic'
loop_
_space_group_symop_operation_xyz
x,y,z
-x,y,1/2-z
-x,-y,-z
x,-y,1/2+z
1/2+x,1/2+y,z
1/2-x,1/2+y,1/2-z
1/2-x,1/2-y,-z
1/2+x,1/2-y,1/2+z
loop_
_atom_site_type_symbol
_atom_site_label
_atom_site_fract_x
_atom_site_fract_y
_atom_site_fract_z
Si Si1 0.280042 0.647484 0.791550
Si Si2 0.951777 0.227273 0.832492
Si Si3 0.831617 0.014016 0.695117
Si Si4 0.998825 0.411149 0.629482
Si Si5 0.439336 0.771284 0.318786
Si Si6 0.446736 0.431352 0.914121
O O1 0.473895 0.680097 0.913442
O O2 0.181548 0.618849 0.602572
O O3 0.080063 0.676123 0.672591
O O4 0.396953 0.611263 0.982680
O O5 0.665479 0.242291 0.582281
O O6 0.000000 0.222357 0.750000
O O7 0.574152 0.036096 0.433042
O O8 0.000000 0.027553 0.750000
O O9 0.829321 0.960122 0.707558
O O10 0.901817 0.034932 0.874355
O O11 0.000000 0.390728 0.750000
O O12 0.255962 0.407416 0.813982
O O13 0.500000 0.763749 0.250000
O O14 0.667292 0.749542 0.593659
#
# Coordination Sequence:
#
# PCOD8140521 Si02
#       6
#     8   8   8   8   8   8
#     4  11  25  38  63  96 129 162 217 277 326 392
#     4  10  23  39  60  89 127 171 210 254 316 387
#     4  10  20  42  63  87 124 168 215 265 324 404
#     4  11  23  38  65  92 126 173 211 266 334 403
#     4  10  23  46  74  98 133 185 228 273 338 404
#     4  10  23  39  62  93 123 167 214 267 330 393
#
# _framework density 23.173333
#
# number of rings (size 3 to 8) (size 9 to 14) (size 15 to 20)
#    0.000    1.667    1.667    1.500    7.000    0.667 
#    3.000    0.000    0.000    0.000    0.000    0.000 
#    0.000    0.000    0.000    0.000    0.000    0.000 
#
# Total GULP energy -297341.980980 kJ/mol
# GULP energy per Si atom -12389.249207 kJ/mol
# Density = 2.312059 g / cm^3
# Si number density = 23.173333 Si / 1000 Ang^3
#
#
#
# Elastic Constant Matrix: (Units=GPa)
#
#
# Indices 1 2 3 4 5 6 
#
# 1 36.7293 20.7605 39.1511 0.0000 14.3290 -0.0001
# 2 20.7605 143.0685 43.3107 -0.0001 0.7258 -0.0001
# 3 39.1511 43.3107 86.9260 0.0005 8.9697 0.0003
# 4 0.0000 -0.0001 0.0005 78.3203 0.0001 21.2398
# 5 14.3290 0.7258 8.9697 0.0001 35.7476 0.0001
# 6 -0.0001 -0.0001 0.0003 21.2398 0.0001 25.4082
#
#
#
# Elastic Compliance Matrix: (Units=1/GPa)
#
#
# Indices 1 2 3 4 5 6 
#
# 1 0.062462 -0.001217 -0.025608 0.000000 -0.018587 0.000001
# 2 -0.001217 0.008282 -0.003707 0.000000 0.001250 0.000000
# 3 -0.025608 -0.003707 0.024451 0.000000 0.004205 0.000000
# 4 0.000000 0.000000 0.000000 0.016511 0.000000 -0.013802
# 5 -0.018587 0.001250 0.004205 0.000000 0.034344 0.000000
# 6 0.000001 0.000000 0.000000 -0.013802 0.000000 0.050895
#
#
# Mechanical properties :
#
#
# Convention : Reuss Voigt Hill
#
# Bulk Modulus (GPa) = 29.29971 52.57426 40.93699
# Shear Modulus (GPa) = 18.56051 38.79532 28.67792
#
# Velocity S-wave (km/s) = 2.83316 4.09606 3.52168
# Velocity P-wave (km/s) = 4.83462 6.71617 5.85152
#
# Compressibility (1/GPa) = 0.03413003
#
# Stress axis : x y z
#
# Youngs Moduli (GPa) = 16.00961 120.73989 40.89768
#
# Poissons Ratio (x) = 0.14696 1.04733
# Poissons Ratio (y) = 0.01949 0.15162
# Poissons Ratio (z) = 0.40998 0.44763
#
# Static dielectric constant tensor:
#      x y z
#    x 4.256900 0.000000 -0.117260 
#    y 0.000000 4.445510 0.000000 
#    z -0.117260 0.000000 4.545380 
# 
# 
# High freq. dielectric constant tensor:
#      x y z
#    x 1.922670 0.000000 -0.002120 
#    y 0.000000 1.913370 0.000000 
#    z -0.002120 0.000000 1.916870 
# 
# From -- ./inp_files/157730.got.cif
#   From: 2010.06.25/outbox.cif.g09.slc.cpg/sg15_79_cif.got.tgz:157730.got - 2010.06.28 07:06:18.
