data_PCOD8140798
_publ_section_title
;
Structure prediction by ZEFSAII (Michael W. Deem and Ramdas Pophale) SiO2 
 PCOD8140798
Probable space group: C 2/C
;
_chemical_formula_sum "Si O2"
_cell_formula_units_Z 44
_cell_length_a 8.189998
_cell_length_b 28.283724
_cell_length_c 10.138271
_cell_angle_alpha 90.000000
_cell_angle_beta 117.323486
_cell_angle_gamma 90.000000
_cell_volume 2086.445686
_symmetry_space_group_name_H-M "C 2/C"
_symmetry_group_IT_number 15
_symmetry_cell_setting 'monoclinic'
loop_
_space_group_symop_operation_xyz
x,y,z
-x,y,1/2-z
-x,-y,-z
x,-y,1/2+z
1/2+x,1/2+y,z
1/2-x,1/2+y,1/2-z
1/2-x,1/2-y,-z
1/2+x,1/2-y,1/2+z
loop_
_atom_site_type_symbol
_atom_site_label
_atom_site_fract_x
_atom_site_fract_y
_atom_site_fract_z
Si Si1 0.642636 0.652375 0.644056
Si Si2 0.867176 0.830407 0.817153
Si Si3 0.000000 0.068011 0.750000
Si Si4 0.000000 0.608654 0.750000
Si Si5 0.610182 0.951789 0.039898
Si Si6 0.500000 0.110503 0.250000
Si Si7 0.802096 0.242696 0.669310
O O1 0.486428 0.672873 0.493994
O O2 0.574874 0.601237 0.663146
O O3 0.688272 0.687763 0.782929
O O4 0.834581 0.642839 0.641219
O O5 0.678644 0.859957 0.766454
O O6 0.820078 0.774925 0.776736
O O7 0.000000 0.850057 0.750000
O O8 0.170048 0.036648 0.868897
O O9 0.051656 0.577578 0.644656
O O10 0.568399 0.922432 0.893554
O O11 0.500000 0.000000 0.000000
O O12 0.750000 0.250000 0.500000
O O13 0.000000 0.266396 0.750000
#
# Coordination Sequence:
#
# PCOD8140798 Si02
#       7
#     8   8   4   4   8   4   8
#     4  11  22  44  64  96 139 187 233 283 356 419
#     4  12  26  42  67 107 143 188 244 292 357 417
#     4  10  20  43  74  92 134 188 218 277 370 432
#     4  10  25  42  74  98 142 188 238 292 361 438
#     4  11  24  47  72 107 136 183 236 297 370 437
#     4  12  25  47  76 102 152 182 238 309 355 432
#     4  12  24  40  67  96 140 186 238 289 342 408
#
# _framework density 21.088494000000001
#
# number of rings (size 3 to 8) (size 9 to 14) (size 15 to 20)
#    0.000    0.727    5.455    1.636    3.818    2.182 
#    4.909    2.727    0.000    0.000    0.000    0.000 
#    0.000    0.000    0.000    0.000    0.000    0.000 
#
# Total GULP energy -272553.362692 kJ/mol
# GULP energy per Si atom -12388.789213 kJ/mol
# Density = 2.104050 g / cm^3
# Si number density = 21.088494 Si / 1000 Ang^3
#
#
#
# Elastic Constant Matrix: (Units=GPa)
#
#
# Indices 1 2 3 4 5 6 
#
# 1 167.2228 59.2946 59.5503 0.0000 24.1033 0.0000
# 2 59.2946 101.8508 39.0039 0.0000 17.9043 0.0000
# 3 59.5503 39.0039 132.7969 0.0000 17.2341 0.0000
# 4 0.0000 0.0000 0.0000 27.0674 0.0000 3.3571
# 5 24.1033 17.9043 17.2341 0.0000 46.3389 0.0000
# 6 0.0000 0.0000 0.0000 3.3571 0.0000 35.9698
#
#
#
# Elastic Compliance Matrix: (Units=1/GPa)
#
#
# Indices 1 2 3 4 5 6 
#
# 1 0.008431 -0.003603 -0.002452 0.000000 -0.002081 0.000000
# 2 -0.003603 0.013080 -0.001905 0.000000 -0.002471 0.000000
# 3 -0.002452 -0.001905 0.009381 0.000000 -0.001477 0.000000
# 4 0.000000 0.000000 0.000000 0.037378 0.000000 -0.003489
# 5 -0.002081 -0.002471 -0.001477 0.000000 0.024167 0.000000
# 6 0.000000 0.000000 0.000000 -0.003489 0.000000 0.028127
#
#
# Mechanical properties :
#
#
# Convention : Reuss Voigt Hill
#
# Bulk Modulus (GPa) = 66.79760 79.72978 73.26369
# Shear Modulus (GPa) = 35.34185 38.14331 36.74258
#
# Velocity S-wave (km/s) = 4.09820 4.25753 4.17862
# Velocity P-wave (km/s) = 7.35780 7.87769 7.62218
#
# Compressibility (1/GPa) = 0.01497060
#
# Stress axis : x y z
#
# Youngs Moduli (GPa) = 118.60989 76.45251 106.59505
#
# Poissons Ratio (x) = 0.27548 0.26140
# Poissons Ratio (y) = 0.42739 0.20309
# Poissons Ratio (z) = 0.29087 0.14566
#
# Static dielectric constant tensor:
#      x y z
#    x 4.426530 0.000000 0.412530 
#    y 0.000000 3.816090 0.000000 
#    z 0.412530 0.000000 3.894830 
# 
# 
# High freq. dielectric constant tensor:
#      x y z
#    x 1.849900 0.000000 0.018170 
#    y 0.000000 1.812850 0.000000 
#    z 0.018170 0.000000 1.832880 
# 
# From -- ./inp_files/25767.got.cif
#   From: 2010.06.25/outbox.cif.g09.slc.cpg/sg15_13_cif.got.tgz:25767.got - 2010.06.28 07:06:18.
