data_PCOD8140704
_publ_section_title
;
Structure prediction by ZEFSAII (Michael W. Deem and Ramdas Pophale) SiO2 
 PCOD8140704
Probable space group: C 2/C
;
_chemical_formula_sum "Si O2"
_cell_formula_units_Z 36
_cell_length_a 13.227158
_cell_length_b 23.346409
_cell_length_c 7.771732
_cell_angle_alpha 90.000000
_cell_angle_beta 42.659146
_cell_angle_gamma 90.000000
_cell_volume 1626.299698
_symmetry_space_group_name_H-M "C 2/C"
_symmetry_group_IT_number 15
_symmetry_cell_setting 'monoclinic'
loop_
_space_group_symop_operation_xyz
x,y,z
-x,y,1/2-z
-x,-y,-z
x,-y,1/2+z
1/2+x,1/2+y,z
1/2-x,1/2+y,1/2-z
1/2-x,1/2-y,-z
1/2+x,1/2-y,1/2+z
loop_
_atom_site_type_symbol
_atom_site_label
_atom_site_fract_x
_atom_site_fract_y
_atom_site_fract_z
Si Si1 0.963113 0.563827 0.099014
Si Si2 0.715558 0.855295 0.240702
Si Si3 0.500000 0.677732 0.250000
Si Si4 0.091543 0.235342 0.470292
Si Si5 0.827456 0.880272 0.474010
O O1 0.000000 0.573760 0.250000
O O2 0.070970 0.608275 0.860357
O O3 0.212591 0.577128 0.217347
O O4 0.000000 0.500000 0.000000
O O5 0.687621 0.787406 0.280785
O O6 0.773194 0.878423 0.348316
O O7 0.850741 0.861800 0.933168
O O8 0.488851 0.714877 0.439432
O O9 0.189197 0.181614 0.414643
O O10 0.000000 0.258059 0.750000
O O11 0.000000 0.901644 0.250000
#
# Coordination Sequence:
#
# PCOD8140704 Si02
#       5
#     8   8   4   8   8
#     4  10  24  45  67  96 130 177 224 273 329 383
#     4  11  23  42  64  95 137 174 223 269 328 399
#     4  12  24  38  60 106 130 174 228 260 328 410
#     4  11  22  40  66  95 139 175 213 271 336 387
#     4  10  20  42  71  91 128 178 218 261 339 396
#
# _framework density 22.136140000000001
#
# number of rings (size 3 to 8) (size 9 to 14) (size 15 to 20)
#    0.000    1.333    4.444    3.333    3.111    1.778 
#    4.000    2.222    0.000    0.000    0.000    0.000 
#    0.000    0.000    0.000    0.000    0.000    0.000 
#
# Total GULP energy -223040.645628 kJ/mol
# GULP energy per Si atom -12391.146979 kJ/mol
# Density = 2.208576 g / cm^3
# Si number density = 22.136140 Si / 1000 Ang^3
#
#
#
# Elastic Constant Matrix: (Units=GPa)
#
#
# Indices 1 2 3 4 5 6 
#
# 1 62.8241 13.6204 36.3921 0.0000 -22.7061 0.0000
# 2 13.6204 116.7635 88.4417 0.0000 -41.3824 0.0000
# 3 36.3921 88.4417 166.3509 0.0000 -49.8704 0.0000
# 4 0.0000 0.0000 0.0000 32.2208 0.0000 -3.6116
# 5 -22.7061 -41.3824 -49.8704 0.0000 50.3044 0.0000
# 6 0.0000 0.0000 0.0000 -3.6116 0.0000 23.1221
#
#
#
# Elastic Compliance Matrix: (Units=1/GPa)
#
#
# Indices 1 2 3 4 5 6 
#
# 1 0.020355 0.003427 -0.003807 0.000000 0.008233 0.000000
# 2 0.003427 0.016328 -0.007029 0.000000 0.008010 0.000000
# 3 -0.003807 -0.007029 0.011856 0.000000 0.004253 0.000000
# 4 0.000000 0.000000 0.000000 0.031589 0.000000 0.004934
# 5 0.008233 0.008010 0.004253 0.000000 0.034401 0.000000
# 6 0.000000 0.000000 0.000000 0.004934 0.000000 0.044019
#
#
# Mechanical properties :
#
#
# Convention : Reuss Voigt Hill
#
# Bulk Modulus (GPa) = 29.65482 69.20518 49.43000
# Shear Modulus (GPa) = 27.08458 34.96176 31.02317
#
# Velocity S-wave (km/s) = 3.50172 3.97847 3.74768
# Velocity P-wave (km/s) = 5.45665 7.24125 6.41134
#
# Compressibility (1/GPa) = 0.03372133
#
# Stress axis : x y z
#
# Youngs Moduli (GPa) = 49.12731 61.24630 84.34310
#
# Poissons Ratio (x) = -0.20988 0.32108
# Poissons Ratio (y) = -0.16835 0.59284
# Poissons Ratio (z) = 0.18702 0.43050
#
# Static dielectric constant tensor:
#      x y z
#    x 4.142850 0.000000 -0.452220 
#    y 0.000000 3.444870 0.000000 
#    z -0.452220 0.000000 4.835850 
# 
# 
# High freq. dielectric constant tensor:
#      x y z
#    x 1.867610 0.000000 -0.011190 
#    y 0.000000 1.834200 0.000000 
#    z -0.011190 0.000000 1.889480 
# 
# From -- ./inp_files/31669.got.cif
#   From: 2010.06.25/outbox.cif.g09.slc.cpg/sg15_16_cif.got.tgz:31669.got - 2010.06.28 07:06:18.
