data_PCOD8140866
_publ_section_title
;
Structure prediction by ZEFSAII (Michael W. Deem and Ramdas Pophale) SiO2 
 PCOD8140866
Probable space group: C 2/C
;
_chemical_formula_sum "Si O2"
_cell_formula_units_Z 56
_cell_length_a 26.509411
_cell_length_b 8.728999
_cell_length_c 10.819390
_cell_angle_alpha 90.000000
_cell_angle_beta 69.724090
_cell_angle_gamma 90.000000
_cell_volume 2348.476462
_symmetry_space_group_name_H-M "C 2/C"
_symmetry_group_IT_number 15
_symmetry_cell_setting 'monoclinic'
loop_
_space_group_symop_operation_xyz
x,y,z
-x,y,1/2-z
-x,-y,-z
x,-y,1/2+z
1/2+x,1/2+y,z
1/2-x,1/2+y,1/2-z
1/2-x,1/2-y,-z
1/2+x,1/2-y,1/2+z
loop_
_atom_site_type_symbol
_atom_site_label
_atom_site_fract_x
_atom_site_fract_y
_atom_site_fract_z
Si Si1 0.802678 0.780922 0.663431
Si Si2 0.433784 0.654215 0.380426
Si Si3 0.089535 0.816581 0.067119
Si Si4 0.333253 0.203456 0.910442
Si Si5 0.704820 0.064200 0.334170
Si Si6 0.530272 0.187190 0.892791
Si Si7 0.896356 0.569136 0.245273
O O1 0.850814 0.845612 0.538838
O O2 0.816980 0.778994 0.796093
O O3 0.750053 0.888801 0.694730
O O4 0.786985 0.611320 0.634631
O O5 0.443856 0.474235 0.393114
O O6 0.370640 0.678520 0.454067
O O7 0.446268 0.692655 0.226765
O O8 0.466648 0.770595 0.444359
O O9 0.092174 0.730272 0.196791
O O10 0.055613 0.711297 0.004438
O O11 0.367034 0.047166 0.863007
O O12 0.285718 0.162021 0.047250
O O13 0.644652 0.094689 0.333898
O O14 0.546528 0.011112 0.844507
#
# Coordination Sequence:
#
# PCOD8140866 Si02
#       7
#     8   8   8   8   8   8   8
#     4  11  24  40  65  93 136 170 228 275 333 395
#     4  10  23  38  70  94 129 177 217 271 340 391
#     4  12  22  42  68 101 137 169 224 284 323 400
#     4  10  20  45  62  89 135 179 213 277 338 391
#     4  11  23  41  63  96 131 180 226 270 333 401
#     4  10  21  48  63  96 139 172 221 270 337 409
#     4  10  21  42  68  91 136 175 217 280 326 397
#
# _framework density 23.845245999999999
#
# number of rings (size 3 to 8) (size 9 to 14) (size 15 to 20)
#    0.000    1.429    5.714    0.857    2.000    2.857 
#    0.000   20.000    0.000    0.000    0.000    0.000 
#    0.000    0.000    0.000    0.000    0.000    0.000 
#
# Total GULP energy -347007.196737 kJ/mol
# GULP energy per Si atom -12393.114169 kJ/mol
# Density = 2.379097 g / cm^3
# Si number density = 23.845246 Si / 1000 Ang^3
#
#
#
# Elastic Constant Matrix: (Units=GPa)
#
#
# Indices 1 2 3 4 5 6 
#
# 1 65.7159 33.7919 7.5790 0.0000 -8.3176 0.0000
# 2 33.7919 83.7598 18.7520 0.0000 2.2349 0.0000
# 3 7.5790 18.7520 32.7328 0.0000 7.7535 0.0000
# 4 0.0000 0.0000 0.0000 24.0134 0.0000 -7.4808
# 5 -8.3176 2.2349 7.7535 0.0000 26.9746 0.0000
# 6 0.0000 0.0000 0.0000 -7.4808 0.0000 33.8547
#
#
#
# Elastic Compliance Matrix: (Units=1/GPa)
#
#
# Indices 1 2 3 4 5 6 
#
# 1 0.020538 -0.008055 -0.001930 0.000000 0.007555 0.000000
# 2 -0.008055 0.016891 -0.007395 0.000000 -0.001758 0.000000
# 3 -0.001930 -0.007395 0.037804 0.000000 -0.010849 0.000000
# 4 0.000000 0.000000 0.000000 0.044722 0.000000 0.009882
# 5 0.007555 -0.001758 -0.010849 0.000000 0.042665 0.000000
# 6 0.000000 0.000000 0.000000 0.009882 0.000000 0.031722
#
#
# Mechanical properties :
#
#
# Convention : Reuss Voigt Hill
#
# Bulk Modulus (GPa) = 24.70882 33.60603 29.15743
# Shear Modulus (GPa) = 20.61058 25.10756 22.85907
#
# Velocity S-wave (km/s) = 2.94317 3.24842 3.09955
# Velocity P-wave (km/s) = 4.68341 5.30977 5.00639
#
# Compressibility (1/GPa) = 0.04047138
#
# Stress axis : x y z
#
# Youngs Moduli (GPa) = 48.69027 59.20232 26.45250
#
# Poissons Ratio (x) = 0.47689 0.05106
# Poissons Ratio (y) = 0.39221 0.19562
# Poissons Ratio (z) = 0.09398 0.43781
#
# Static dielectric constant tensor:
#      x y z
#    x 4.491550 0.000000 -0.201570 
#    y 0.000000 4.219950 0.000000 
#    z -0.201570 0.000000 4.142530 
# 
# 
# High freq. dielectric constant tensor:
#      x y z
#    x 1.943940 0.000000 -0.003850 
#    y 0.000000 1.934720 0.000000 
#    z -0.003850 0.000000 1.939830 
# 
# From -- ./inp_files/125834.got.cif
#   From: 2010.06.25/outbox.cif.g09.slc.cpg/sg15_63_cif.got.tgz:125834.got - 2010.06.28 07:06:18.
