data_PCOD8140665
_publ_section_title
;
Structure prediction by ZEFSAII (Michael W. Deem and Ramdas Pophale) SiO2 
 PCOD8140665
Probable space group: C 2/C
;
_chemical_formula_sum "Si O2"
_cell_formula_units_Z 36
_cell_length_a 15.690433
_cell_length_b 11.460127
_cell_length_c 11.428587
_cell_angle_alpha 90.000000
_cell_angle_beta 118.179675
_cell_angle_gamma 90.000000
_cell_volume 1811.444117
_symmetry_space_group_name_H-M "C 2/C"
_symmetry_group_IT_number 15
_symmetry_cell_setting 'monoclinic'
loop_
_space_group_symop_operation_xyz
x,y,z
-x,y,1/2-z
-x,-y,-z
x,-y,1/2+z
1/2+x,1/2+y,z
1/2-x,1/2+y,1/2-z
1/2-x,1/2-y,-z
1/2+x,1/2-y,1/2+z
loop_
_atom_site_type_symbol
_atom_site_label
_atom_site_fract_x
_atom_site_fract_y
_atom_site_fract_z
Si Si1 0.505927 0.232780 0.383852
Si Si2 0.710217 0.155616 0.563798
Si Si3 0.809154 0.772145 0.361742
Si Si4 0.500000 0.457172 0.250000
Si Si5 0.305901 0.577864 0.084993
O O1 0.500000 0.174659 0.250000
O O2 0.596378 0.176786 0.510699
O O3 0.410223 0.207775 0.397394
O O4 0.516504 0.373701 0.374466
O O5 0.750000 0.250000 0.500000
O O6 0.768050 0.163700 0.721649
O O7 0.729344 0.027510 0.523725
O O8 0.734110 0.675201 0.353970
O O9 0.825031 0.870344 0.469467
O O10 0.406593 0.537111 0.206704
#
# Coordination Sequence:
#
# PCOD8140665 Si02
#       5
#     8   8   8   4   8
#     4  10  21  41  64 103 122 171 229 262 327 389
#     4  12  22  42  71  94 135 176 217 276 329 393
#     4  11  26  44  63 103 138 168 226 272 332 397
#     4  10  20  42  68  98 122 178 226 274 314 390
#     4  11  26  43  65 102 135 175 218 279 335 382
#
# _framework density 19.873646999999998
#
# number of rings (size 3 to 8) (size 9 to 14) (size 15 to 20)
#    0.667    0.444    6.667    0.000    6.222    1.778 
#    0.000    0.000    0.000    0.000    0.000    0.000 
#    0.000    0.000    0.000    0.000    0.000    0.000 
#
# Total GULP energy -223224.908578 kJ/mol
# GULP energy per Si atom -12401.383810 kJ/mol
# Density = 1.982841 g / cm^3
# Si number density = 19.873647 Si / 1000 Ang^3
#
#
#
# Elastic Constant Matrix: (Units=GPa)
#
#
# Indices 1 2 3 4 5 6 
#
# 1 136.7167 28.9797 56.4249 0.0000 18.4830 0.0000
# 2 28.9797 82.0935 27.9651 0.0000 5.1704 0.0000
# 3 56.4249 27.9651 74.9164 0.0000 11.2690 0.0000
# 4 0.0000 0.0000 0.0000 23.9276 0.0000 9.8952
# 5 18.4830 5.1704 11.2690 0.0000 46.7264 0.0000
# 6 0.0000 0.0000 0.0000 9.8952 0.0000 27.4438
#
#
#
# Elastic Compliance Matrix: (Units=1/GPa)
#
#
# Indices 1 2 3 4 5 6 
#
# 1 0.010968 -0.001179 -0.007458 0.000000 -0.002409 0.000000
# 2 -0.001179 0.014087 -0.004364 0.000000 -0.000040 0.000000
# 3 -0.007458 -0.004364 0.020834 0.000000 -0.001591 0.000000
# 4 0.000000 0.000000 0.000000 0.049117 0.000000 -0.017710
# 5 -0.002409 -0.000040 -0.001591 0.000000 0.022742 0.000000
# 6 0.000000 0.000000 0.000000 -0.017710 0.000000 0.042824
#
#
# Mechanical properties :
#
#
# Convention : Reuss Voigt Hill
#
# Bulk Modulus (GPa) = 50.28816 57.82953 54.05884
# Shear Modulus (GPa) = 25.87944 31.64335 28.76140
#
# Velocity S-wave (km/s) = 3.61251 3.99460 3.80835
# Velocity P-wave (km/s) = 6.53905 7.10194 6.82630
#
# Compressibility (1/GPa) = 0.01988540
#
# Stress axis : x y z
#
# Youngs Moduli (GPa) = 91.17206 70.98892 47.99850
#
# Poissons Ratio (x) = 0.08373 0.35799
# Poissons Ratio (y) = 0.10754 0.20947
# Poissons Ratio (z) = 0.67999 0.30980
#
# Static dielectric constant tensor:
#      x y z
#    x 4.568200 0.000000 -0.313350 
#    y 0.000000 3.517690 0.000000 
#    z -0.313350 0.000000 3.755980 
# 
# 
# High freq. dielectric constant tensor:
#      x y z
#    x 1.790150 0.000000 0.006780 
#    y 0.000000 1.763310 0.000000 
#    z 0.006780 0.000000 1.763560 
# 
# From -- ./inp_files/94755.got.cif
#   From: 2010.06.25/outbox.cif.g09.slc.cpg/sg15_48_cif.got.tgz:94755.got - 2010.06.28 07:06:18.
