data_PCOD8140850
_publ_section_title
;
Structure prediction by ZEFSAII (Michael W. Deem and Ramdas Pophale) SiO2 
 PCOD8140850
Probable space group: C 2/C
;
_chemical_formula_sum "Si O2"
_cell_formula_units_Z 60
_cell_length_a 10.571668
_cell_length_b 19.322478
_cell_length_c 14.223606
_cell_angle_alpha 90.000000
_cell_angle_beta 103.459574
_cell_angle_gamma 90.000000
_cell_volume 2825.667251
_symmetry_space_group_name_H-M "C 2/C"
_symmetry_group_IT_number 15
_symmetry_cell_setting 'monoclinic'
loop_
_space_group_symop_operation_xyz
x,y,z
-x,y,1/2-z
-x,-y,-z
x,-y,1/2+z
1/2+x,1/2+y,z
1/2-x,1/2+y,1/2-z
1/2-x,1/2-y,-z
1/2+x,1/2-y,1/2+z
loop_
_atom_site_type_symbol
_atom_site_label
_atom_site_fract_x
_atom_site_fract_y
_atom_site_fract_z
Si Si1 0.771269 0.686680 0.068256
Si Si2 0.868878 0.492531 0.919087
Si Si3 0.543288 0.853786 0.651874
Si Si4 0.311097 0.537150 0.944092
Si Si5 0.545766 0.404501 0.569128
Si Si6 0.500000 0.325680 0.750000
Si Si7 0.147885 0.399346 0.253283
Si Si8 0.748902 0.750751 0.730548
O O1 0.910605 0.651875 0.068124
O O2 0.654999 0.634067 0.026855
O O3 0.766535 0.712830 0.172890
O O4 0.750000 0.750000 0.000000
O O5 0.750432 0.494454 0.971714
O O6 0.847261 0.553350 0.839008
O O7 0.869728 0.417973 0.867619
O O8 0.000000 0.500000 0.000000
O O9 0.500000 0.870213 0.750000
O O10 0.623178 0.781067 0.652703
O O11 0.407290 0.599812 0.991219
O O12 0.404287 0.482565 0.908280
O O13 0.199074 0.559997 0.853301
O O14 0.534128 0.373841 0.669750
O O15 0.379289 0.276651 0.701798
O O16 0.241618 0.332282 0.256982
O O17 0.000000 0.377159 0.250000
#
# Coordination Sequence:
#
# PCOD8140850 Si02
#       8
#     8   8   8   8   8   4   8   8
#     4  10  23  39  67  92 132 172 223 279 335 403
#     4  12  25  42  72 100 135 181 228 284 346 406
#     4  10  23  43  68  97 130 180 231 273 338 416
#     4  11  26  44  65  99 134 171 230 274 345 414
#     4  10  24  44  65  96 129 175 227 275 335 410
#     4  10  20  44  70  88 132 178 218 270 330 406
#     4  12  26  44  67  99 142 174 222 294 342 407
#     4  10  23  42  64  97 132 175 225 271 349 402
#
# _framework density 21.233923000000001
#
# number of rings (size 3 to 8) (size 9 to 14) (size 15 to 20)
#    0.000    1.333    2.000    2.000   13.067    0.000 
#    0.000    1.333    0.000    0.000    0.000    0.000 
#    0.000    0.000    0.000    0.000    0.000    0.000 
#
# Total GULP energy -371918.030607 kJ/mol
# GULP energy per Si atom -12397.267687 kJ/mol
# Density = 2.118559 g / cm^3
# Si number density = 21.233923 Si / 1000 Ang^3
#
#
#
# Elastic Constant Matrix: (Units=GPa)
#
#
# Indices 1 2 3 4 5 6 
#
# 1 118.7535 38.6655 43.4350 0.0000 10.8957 0.0000
# 2 38.6655 121.6467 42.6537 0.0000 -0.4403 0.0000
# 3 43.4350 42.6537 80.0246 0.0000 10.3436 0.0000
# 4 0.0000 0.0000 0.0000 30.0113 0.0000 2.1175
# 5 10.8957 -0.4403 10.3436 0.0000 31.2952 0.0000
# 6 0.0000 0.0000 0.0000 2.1175 0.0000 41.3377
#
#
#
# Elastic Compliance Matrix: (Units=1/GPa)
#
#
# Indices 1 2 3 4 5 6 
#
# 1 0.010936 -0.001854 -0.004651 0.000000 -0.002296 0.000000
# 2 -0.001854 0.010547 -0.004928 0.000000 0.002423 0.000000
# 3 -0.004651 -0.004928 0.018226 0.000000 -0.004474 0.000000
# 4 0.000000 0.000000 0.000000 0.033442 0.000000 -0.001713
# 5 -0.002296 0.002423 -0.004474 0.000000 0.034266 0.000000
# 6 0.000000 0.000000 0.000000 -0.001713 0.000000 0.024279
#
#
# Mechanical properties :
#
#
# Convention : Reuss Voigt Hill
#
# Bulk Modulus (GPa) = 59.37411 63.32592 61.35001
# Shear Modulus (GPa) = 31.21581 33.57356 32.39468
#
# Velocity S-wave (km/s) = 3.83834 3.98065 3.91014
# Velocity P-wave (km/s) = 6.90408 7.14249 7.02430
#
# Compressibility (1/GPa) = 0.01684236
#
# Stress axis : x y z
#
# Youngs Moduli (GPa) = 91.43979 94.81771 54.86724
#
# Poissons Ratio (x) = 0.17575 0.25519
# Poissons Ratio (y) = 0.16949 0.27041
# Poissons Ratio (z) = 0.42529 0.46731
#
# Static dielectric constant tensor:
#      x y z
#    x 4.182960 0.000000 0.114720 
#    y 0.000000 3.715590 0.000000 
#    z 0.114720 0.000000 3.644860 
# 
# 
# High freq. dielectric constant tensor:
#      x y z
#    x 1.849540 0.000000 0.005590 
#    y 0.000000 1.833780 0.000000 
#    z 0.005590 0.000000 1.820760 
# 
# From -- ./inp_files/146104.got.cif
#   From: 2010.06.25/outbox.cif.g09.slc.cpg/sg15_74_cif.got.tgz:146104.got - 2010.06.28 07:06:18.
