data_PCOD8140259
_publ_section_title
;
Structure prediction by ZEFSAII (Michael W. Deem and Ramdas Pophale) SiO2 
 PCOD8140259
Probable space group: C 2/C
;
_chemical_formula_sum "Si O2"
_cell_formula_units_Z 52
_cell_length_a 8.315576
_cell_length_b 11.465328
_cell_length_c 26.357649
_cell_angle_alpha 90.000000
_cell_angle_beta 76.606427
_cell_angle_gamma 90.000000
_cell_volume 2444.611704
_symmetry_space_group_name_H-M "C 2/C"
_symmetry_group_IT_number 15
_symmetry_cell_setting 'monoclinic'
loop_
_space_group_symop_operation_xyz
x,y,z
-x,y,1/2-z
-x,-y,-z
x,-y,1/2+z
1/2+x,1/2+y,z
1/2-x,1/2+y,1/2-z
1/2-x,1/2-y,-z
1/2+x,1/2-y,1/2+z
loop_
_atom_site_type_symbol
_atom_site_label
_atom_site_fract_x
_atom_site_fract_y
_atom_site_fract_z
Si Si1 0.455464 0.219071 0.310581
Si Si2 0.714026 0.932499 0.315460
Si Si3 0.415720 0.030327 0.391725
Si Si4 0.344414 0.580692 0.521930
Si Si5 0.794869 0.814490 0.832492
Si Si6 0.146552 0.335123 0.945915
Si Si7 0.000000 0.659583 0.750000
O O1 0.500000 0.183668 0.250000
O O2 0.336262 0.329915 0.322872
O O3 0.371243 0.109158 0.345571
O O4 0.625627 0.247887 0.326873
O O5 0.649429 0.916012 0.262213
O O6 0.558723 0.938276 0.365587
O O7 0.810615 0.054882 0.308972
O O8 0.483668 0.109097 0.432945
O O9 0.251125 0.964540 0.421068
O O10 0.500000 0.500000 0.500000
O O11 0.218350 0.579304 0.483752
O O12 0.408128 0.711787 0.526346
O O13 0.792726 0.817871 0.893692
O O14 0.947083 0.739680 0.801357
#
# Coordination Sequence:
#
# PCOD8140259 Si02
#       7
#     8   8   8   8   8   8   4
#     4  10  20  41  59  87 124 159 212 250 298 378
#     4  10  23  38  60  83 123 163 196 254 303 355
#     4  10  24  41  63  91 124 166 203 259 315 362
#     4  11  23  41  67  93 121 164 205 261 315 367
#     4  10  24  39  59  91 122 163 202 254 302 366
#     4   9  22  43  59  90 129 151 216 252 303 380
#     4  12  22  34  60  88 118 160 206 240 308 358
#
# _framework density 21.271270999999999
#
# number of rings (size 3 to 8) (size 9 to 14) (size 15 to 20)
#    0.000    2.154    1.538    1.385    5.385    9.231 
#    0.000    0.000    0.000    0.000    0.000    0.000 
#    0.000    0.000    0.000    0.000    0.000    0.000 
#
# Total GULP energy -322359.111104 kJ/mol
# GULP energy per Si atom -12398.427350 kJ/mol
# Density = 2.122286 g / cm^3
# Si number density = 21.271271 Si / 1000 Ang^3
#
#
#
# Elastic Constant Matrix: (Units=GPa)
#
#
# Indices 1 2 3 4 5 6 
#
# 1 61.3241 53.5896 22.1064 0.0000 0.0128 0.0000
# 2 53.5896 117.0897 47.7616 0.0000 4.7519 0.0000
# 3 22.1064 47.7616 96.6530 0.0000 0.6890 0.0000
# 4 0.0000 0.0000 0.0000 36.2330 0.0000 -2.6480
# 5 0.0128 4.7519 0.6890 0.0000 31.5886 0.0000
# 6 0.0000 0.0000 0.0000 -2.6480 0.0000 32.9656
#
#
#
# Elastic Compliance Matrix: (Units=1/GPa)
#
#
# Indices 1 2 3 4 5 6 
#
# 1 0.027287 -0.012541 -0.000057 0.000000 0.001877 0.000000
# 2 -0.012541 0.016532 -0.005284 0.000000 -0.002367 0.000000
# 3 -0.000057 -0.005284 0.012967 0.000000 0.000512 0.000000
# 4 0.000000 0.000000 0.000000 0.027762 0.000000 0.002230
# 5 0.001877 -0.002367 0.000512 0.000000 0.032001 0.000000
# 6 0.000000 0.000000 0.000000 0.002230 0.000000 0.030514
#
#
# Mechanical properties :
#
#
# Convention : Reuss Voigt Hill
#
# Bulk Modulus (GPa) = 47.57256 57.99800 52.78528
# Shear Modulus (GPa) = 26.33882 30.26469 28.30176
#
# Velocity S-wave (km/s) = 3.52267 3.77609 3.65158
# Velocity P-wave (km/s) = 6.24171 6.80712 6.53053
#
# Compressibility (1/GPa) = 0.02102052
#
# Stress axis : x y z
#
# Youngs Moduli (GPa) = 36.64799 60.48926 77.12031
#
# Poissons Ratio (x) = 0.75863 0.00439
# Poissons Ratio (y) = 0.45962 0.40750
# Poissons Ratio (z) = 0.00209 0.31962
#
# Static dielectric constant tensor:
#      x y z
#    x 3.524120 0.000000 0.088130 
#    y 0.000000 3.863030 0.000000 
#    z 0.088130 0.000000 4.090490 
# 
# 
# High freq. dielectric constant tensor:
#      x y z
#    x 1.809930 0.000000 0.007090 
#    y 0.000000 1.839270 0.000000 
#    z 0.007090 0.000000 1.843120 
# 
# From -- ./inp_files/287646.got.cif
#   From: 2010.06.25/outbox.cif.g09.slc.cpg/sg15_144_cif.got.tgz:287646.got - 2010.06.28 07:06:18.
