data_PCOD8140855
_publ_section_title
;
Structure prediction by ZEFSAII (Michael W. Deem and Ramdas Pophale) SiO2 
 PCOD8140855
Probable space group: C 2/C
;
_chemical_formula_sum "Si O2"
_cell_formula_units_Z 48
_cell_length_a 11.390748
_cell_length_b 16.280550
_cell_length_c 14.727031
_cell_angle_alpha 90.000000
_cell_angle_beta 52.894792
_cell_angle_gamma 90.000000
_cell_volume 2178.126273
_symmetry_space_group_name_H-M "C 2/C"
_symmetry_group_IT_number 15
_symmetry_cell_setting 'monoclinic'
loop_
_space_group_symop_operation_xyz
x,y,z
-x,y,1/2-z
-x,-y,-z
x,-y,1/2+z
1/2+x,1/2+y,z
1/2-x,1/2+y,1/2-z
1/2-x,1/2-y,-z
1/2+x,1/2-y,1/2+z
loop_
_atom_site_type_symbol
_atom_site_label
_atom_site_fract_x
_atom_site_fract_y
_atom_site_fract_z
Si Si1 0.691042 0.347723 0.839292
Si Si2 0.609018 0.203144 0.101584
Si Si3 0.876446 0.688481 0.732243
Si Si4 0.601897 0.077956 0.947650
Si Si5 0.947513 0.848946 0.106404
Si Si6 0.119789 0.998162 0.757303
O O1 0.848924 0.330219 0.816486
O O2 0.657523 0.281692 0.778174
O O3 0.704386 0.435598 0.784067
O O4 0.552865 0.345987 0.970965
O O5 0.477993 0.270864 0.159419
O O6 0.750000 0.250000 0.000000
O O7 0.575813 0.126149 0.053171
O O8 0.936953 0.637742 0.617830
O O9 0.724287 0.651567 0.842885
O O10 0.000000 0.684065 0.750000
O O11 0.767946 0.047042 0.859531
O O12 0.500000 0.000000 0.000000
O O13 0.975579 0.934939 0.143035
O O14 0.000000 0.951298 0.750000
#
# Coordination Sequence:
#
# PCOD8140855 Si02
#       6
#     8   8   8   8   8   8
#     4  11  23  41  67  99 129 174 225 265 332 393
#     4  10  20  44  71  94 126 173 226 268 319 392
#     4  11  25  42  63  97 135 173 219 273 338 393
#     4  11  25  44  65  98 135 174 219 275 331 387
#     4  10  23  41  69  93 127 178 222 273 319 389
#     4  11  24  40  65 101 136 171 219 276 329 390
#
# _framework density 22.037291
#
# number of rings (size 3 to 8) (size 9 to 14) (size 15 to 20)
#    0.000    1.333    3.333    3.000    4.667    4.667 
#    0.000    0.000    0.000    0.000    0.000    0.000 
#    0.000    0.000    0.000    0.000    0.000    0.000 
#
# Total GULP energy -297590.844400 kJ/mol
# GULP energy per Si atom -12399.618517 kJ/mol
# Density = 2.198713 g / cm^3
# Si number density = 22.037291 Si / 1000 Ang^3
#
#
#
# Elastic Constant Matrix: (Units=GPa)
#
#
# Indices 1 2 3 4 5 6 
#
# 1 159.6790 47.6139 10.4711 0.0000 24.9157 0.0000
# 2 47.6139 142.6747 14.7539 0.0000 20.5244 0.0000
# 3 10.4711 14.7539 34.7852 0.0001 14.0645 -0.0001
# 4 0.0000 0.0000 0.0001 33.9375 0.0000 -2.8095
# 5 24.9157 20.5244 14.0645 0.0000 28.2930 0.0000
# 6 0.0000 0.0000 -0.0001 -2.8095 0.0000 35.3911
#
#
#
# Elastic Compliance Matrix: (Units=1/GPa)
#
#
# Indices 1 2 3 4 5 6 
#
# 1 0.007658 -0.001799 0.000822 0.000000 -0.005847 0.000000
# 2 -0.001799 0.008294 -0.001482 0.000000 -0.003696 0.000000
# 3 0.000822 -0.001482 0.036279 0.000000 -0.017683 0.000000
# 4 0.000000 0.000000 0.000000 0.029661 0.000000 0.002355
# 5 -0.005847 -0.003696 -0.017683 0.000000 0.051964 0.000000
# 6 0.000000 0.000000 0.000000 0.002355 0.000000 0.028443
#
#
# Mechanical properties :
#
#
# Convention : Reuss Voigt Hill
#
# Bulk Modulus (GPa) = 21.13642 53.64628 37.39135
# Shear Modulus (GPa) = 27.32422 37.14431 32.23426
#
# Velocity S-wave (km/s) = 3.52505 4.10996 3.82869
# Velocity P-wave (km/s) = 5.11664 6.84972 6.04560
#
# Compressibility (1/GPa) = 0.04731170
#
# Stress axis : x y z
#
# Youngs Moduli (GPa) = 130.59054 120.56403 27.56440
#
# Poissons Ratio (x) = 0.21695 -0.02266
# Poissons Ratio (y) = 0.23499 0.04085
# Poissons Ratio (z) = -0.10736 0.17869
#
# Static dielectric constant tensor:
#      x y z
#    x 4.209510 0.000000 -0.419350 
#    y 0.000000 3.442150 0.000000 
#    z -0.419350 0.000000 4.736660 
# 
# 
# High freq. dielectric constant tensor:
#      x y z
#    x 1.868490 0.000000 -0.009850 
#    y 0.000000 1.876720 0.000000 
#    z -0.009850 0.000000 1.869170 
# 
# From -- ./inp_files/144068.got.cif
#   From: 2010.06.25/outbox.cif.g09.slc.cpg/sg15_73_cif.got.tgz:144068.got - 2010.06.28 07:06:18.
