data_PCOD8140964
_publ_section_title
;
Structure prediction by ZEFSAII (Michael W. Deem and Ramdas Pophale) SiO2 
 PCOD8140964
Probable space group: C 2/C
;
_chemical_formula_sum "Si O2"
_cell_formula_units_Z 48
_cell_length_a 18.680334
_cell_length_b 31.158528
_cell_length_c 5.117133
_cell_angle_alpha 90.000000
_cell_angle_beta 72.095630
_cell_angle_gamma 90.000000
_cell_volume 2834.193212
_symmetry_space_group_name_H-M "C 2/C"
_symmetry_group_IT_number 15
_symmetry_cell_setting 'monoclinic'
loop_
_space_group_symop_operation_xyz
x,y,z
-x,y,1/2-z
-x,-y,-z
x,-y,1/2+z
1/2+x,1/2+y,z
1/2-x,1/2+y,1/2-z
1/2-x,1/2-y,-z
1/2+x,1/2-y,1/2+z
loop_
_atom_site_type_symbol
_atom_site_label
_atom_site_fract_x
_atom_site_fract_y
_atom_site_fract_z
Si Si1 0.087326 0.478164 0.611858
Si Si2 0.837237 0.655767 0.976605
Si Si3 0.913238 0.379603 0.889706
Si Si4 0.174186 0.832415 0.568885
Si Si5 0.088175 0.819658 0.178603
Si Si6 0.182114 0.250400 0.780978
O O1 0.124892 0.507654 0.343753
O O2 0.099313 0.428890 0.518009
O O3 0.000000 0.488994 0.750000
O O4 0.883471 0.650857 0.655819
O O5 0.869880 0.626106 0.166601
O O6 0.751449 0.641087 0.013848
O O7 0.841712 0.704023 0.080745
O O8 0.000000 0.368132 0.750000
O O9 0.123952 0.847644 0.377605
O O10 0.200699 0.782320 0.500356
O O11 0.124391 0.838369 0.878385
O O12 0.109735 0.769732 0.206965
O O13 0.000000 0.825345 0.250000
O O14 0.250000 0.250000 0.500000
#
# Coordination Sequence:
#
# PCOD8140964 Si02
#       6
#     8   8   8   8   8   8
#     4   9  17  33  55  70  93 133 170 202 241 298
#     4  12  21  35  52  69 101 135 164 213 270 307
#     4  11  24  36  48  79 107 128 171 220 260 302
#     4  10  21  35  52  67  88 131 172 203 256 317
#     4  10  21  34  51  70  89 113 177 230 244 277
#     4  10  21  34  53  64  92 130 180 205 250 321
#
# _framework density 16.936036999999999
#
# number of rings (size 3 to 8) (size 9 to 14) (size 15 to 20)
#    1.000    0.667    1.667    4.500    2.333    3.333 
#    3.000    0.000    0.000    0.000    0.000    0.000 
#    0.000    0.000    0.000    0.000    0.000  210.000 
#
# Total GULP energy -297408.893269 kJ/mol
# GULP energy per Si atom -12392.037220 kJ/mol
# Density = 1.689749 g / cm^3
# Si number density = 16.936037 Si / 1000 Ang^3
#
#
#
# Elastic Constant Matrix: (Units=GPa)
#
#
# Indices 1 2 3 4 5 6 
#
# 1 123.3786 23.1247 70.1285 0.0000 -2.2249 0.0000
# 2 23.1247 34.1848 26.2568 0.0000 -8.2323 0.0000
# 3 70.1285 26.2568 143.5235 0.0000 1.5184 0.0000
# 4 0.0000 0.0000 0.0000 22.0160 0.0000 -0.7511
# 5 -2.2249 -8.2323 1.5184 0.0000 30.5205 0.0000
# 6 0.0000 0.0000 0.0000 -0.7511 0.0000 3.4152
#
#
#
# Elastic Compliance Matrix: (Units=1/GPa)
#
#
# Indices 1 2 3 4 5 6 
#
# 1 0.011695 -0.004100 -0.004964 0.000000 -0.000006 0.000000
# 2 -0.004100 0.038464 -0.005143 0.000000 0.010332 0.000000
# 3 -0.004964 -0.005143 0.010358 0.000000 -0.002264 0.000000
# 4 0.000000 0.000000 0.000000 0.045765 0.000000 0.010065
# 5 -0.000006 0.010332 -0.002264 0.000000 0.035664 0.000000
# 6 0.000000 0.000000 0.000000 0.010065 0.000000 0.295020
#
#
# Mechanical properties :
#
#
# Convention : Reuss Voigt Hill
#
# Bulk Modulus (GPa) = 31.14930 60.01188 45.58059
# Shear Modulus (GPa) = 10.50239 23.29547 16.89893
#
# Velocity S-wave (km/s) = 2.49292 3.71279 3.16224
# Velocity P-wave (km/s) = 5.16899 7.34106 6.34861
#
# Compressibility (1/GPa) = 0.03210345
#
# Stress axis : x y z
#
# Youngs Moduli (GPa) = 85.50500 25.99803 96.54341
#
# Poissons Ratio (x) = 0.10659 0.47928
# Poissons Ratio (y) = 0.35055 0.49651
# Poissons Ratio (z) = 0.42448 0.13371
#
# Static dielectric constant tensor:
#      x y z
#    x 3.277590 0.000000 0.102090 
#    y 0.000000 2.782560 0.000000 
#    z 0.102090 0.000000 3.483920 
# 
# 
# High freq. dielectric constant tensor:
#      x y z
#    x 1.638310 0.000000 0.012120 
#    y 0.000000 1.600780 0.000000 
#    z 0.012120 0.000000 1.681500 
# 
# From -- ./inp_files/8753.got.cif
#   From: 2010.06.25/outbox.cif.g09.slc.cpg/sg15_5_cif.got.tgz:8753.got - 2010.06.28 07:06:18.
