data_PCOD8140071
_publ_section_title
;
Structure prediction by ZEFSAII (Michael W. Deem and Ramdas Pophale) SiO2 
 PCOD8140071
Probable space group: C 2/C
;
_chemical_formula_sum "Si O2"
_cell_formula_units_Z 40
_cell_length_a 24.143443
_cell_length_b 8.501600
_cell_length_c 14.106060
_cell_angle_alpha 90.000000
_cell_angle_beta 141.964315
_cell_angle_gamma 90.000000
_cell_volume 1783.994711
_symmetry_space_group_name_H-M "C 2/C"
_symmetry_group_IT_number 15
_symmetry_cell_setting 'monoclinic'
loop_
_space_group_symop_operation_xyz
x,y,z
-x,y,1/2-z
-x,-y,-z
x,-y,1/2+z
1/2+x,1/2+y,z
1/2-x,1/2+y,1/2-z
1/2-x,1/2-y,-z
1/2+x,1/2-y,1/2+z
loop_
_atom_site_type_symbol
_atom_site_label
_atom_site_fract_x
_atom_site_fract_y
_atom_site_fract_z
Si Si1 0.297529 0.415020 0.062177
Si Si2 0.422355 0.521794 0.569352
Si Si3 0.383839 0.963824 0.131835
Si Si4 0.454817 0.752633 0.845309
Si Si5 0.537878 0.186549 0.937501
O O1 0.327353 0.456056 0.994796
O O2 0.383411 0.394485 0.248127
O O3 0.250000 0.250000 0.000000
O O4 0.223772 0.543845 0.996902
O O5 0.500000 0.507130 0.750000
O O6 0.446652 0.673530 0.536631
O O7 0.421012 0.360935 0.509206
O O8 0.402915 0.935498 0.045493
O O9 0.434685 0.824001 0.259140
O O10 0.427727 0.129873 0.223234
O O11 0.455763 0.855966 0.942631
#
# Coordination Sequence:
#
# PCOD8140071 Si02
#       5
#     8   8   8   8   8
#     4   9  21  40  64  89 127 172 219 269 330 391
#     4  10  20  40  66  88 129 174 215 271 333 394
#     4  10  22  41  63  94 135 169 216 278 339 387
#     4  10  22  41  67  94 124 181 225 263 331 417
#     4  11  22  40  65  98 130 169 224 274 332 397
#
# _framework density 22.421592
#
# number of rings (size 3 to 8) (size 9 to 14) (size 15 to 20)
#    0.000    2.000    2.000    1.200   14.000    0.800 
#    7.200    2.000    0.000    0.000    0.000    0.000 
#    0.000    0.000    0.000    0.000    0.000    0.000 
#
# Total GULP energy -247767.220022 kJ/mol
# GULP energy per Si atom -12388.361001 kJ/mol
# Density = 2.237056 g / cm^3
# Si number density = 22.421592 Si / 1000 Ang^3
#
#
#
# Elastic Constant Matrix: (Units=GPa)
#
#
# Indices 1 2 3 4 5 6 
#
# 1 174.7491 55.3271 62.1956 0.0000 10.0712 0.0000
# 2 55.3271 99.9639 16.0710 0.0000 0.7547 0.0000
# 3 62.1956 16.0710 50.0357 0.0000 -0.8844 0.0000
# 4 0.0000 0.0000 0.0000 20.2681 0.0000 2.3881
# 5 10.0712 0.7547 -0.8844 0.0000 35.4778 0.0000
# 6 0.0000 0.0000 0.0000 2.3881 0.0000 43.9250
#
#
#
# Elastic Compliance Matrix: (Units=1/GPa)
#
#
# Indices 1 2 3 4 5 6 
#
# 1 0.012349 -0.004564 -0.013951 0.000000 -0.003756 0.000000
# 2 -0.004564 0.012238 0.001761 0.000000 0.001079 0.000000
# 3 -0.013951 0.001761 0.036847 0.000000 0.004841 0.000000
# 4 0.000000 0.000000 0.000000 0.049657 0.000000 -0.002700
# 5 -0.003756 0.001079 0.004841 0.000000 0.029351 0.000000
# 6 0.000000 0.000000 0.000000 -0.002700 0.000000 0.022913
#
#
# Mechanical properties :
#
#
# Convention : Reuss Voigt Hill
#
# Bulk Modulus (GPa) = 35.80729 65.77067 50.78898
# Shear Modulus (GPa) = 24.25173 32.67786 28.46480
#
# Velocity S-wave (km/s) = 3.29237 3.82177 3.56691
# Velocity P-wave (km/s) = 5.51884 6.99084 6.29800
#
# Compressibility (1/GPa) = 0.02792728
#
# Stress axis : x y z
#
# Youngs Moduli (GPa) = 80.97682 81.71120 27.13926
#
# Poissons Ratio (x) = 0.37291 0.37862
# Poissons Ratio (y) = 0.36955 -0.04779
# Poissons Ratio (z) = 1.12970 -0.14390
#
# Static dielectric constant tensor:
#      x y z
#    x 4.967720 0.000000 0.637420 
#    y 0.000000 4.329500 0.000000 
#    z 0.637420 0.000000 4.145670 
# 
# 
# High freq. dielectric constant tensor:
#      x y z
#    x 1.894620 0.000000 0.006560 
#    y 0.000000 1.880760 0.000000 
#    z 0.006560 0.000000 1.838430 
# 
# From -- ./inp_files/159104.got.cif
#   From: 2010.06.25/outbox.cif.g09.slc.cpg/sg15_80_cif.got.tgz:159104.got - 2010.06.28 07:06:18.
