data_PCOD8140094
_publ_section_title
;
Structure prediction by ZEFSAII (Michael W. Deem and Ramdas Pophale) SiO2 
 PCOD8140094
Probable space group: C 2/C
;
_chemical_formula_sum "Si O2"
_cell_formula_units_Z 40
_cell_length_a 16.784264
_cell_length_b 8.291967
_cell_length_c 32.074421
_cell_angle_alpha 90.000000
_cell_angle_beta 154.427697
_cell_angle_gamma 90.000000
_cell_volume 1926.860106
_symmetry_space_group_name_H-M "C 2/C"
_symmetry_group_IT_number 15
_symmetry_cell_setting 'monoclinic'
loop_
_space_group_symop_operation_xyz
x,y,z
-x,y,1/2-z
-x,-y,-z
x,-y,1/2+z
1/2+x,1/2+y,z
1/2-x,1/2+y,1/2-z
1/2-x,1/2-y,-z
1/2+x,1/2-y,1/2+z
loop_
_atom_site_type_symbol
_atom_site_label
_atom_site_fract_x
_atom_site_fract_y
_atom_site_fract_z
Si Si1 0.495613 0.074124 0.543546
Si Si2 0.107265 0.113707 0.763727
Si Si3 0.324685 0.593696 0.557574
Si Si4 0.699710 0.959383 0.844615
Si Si5 0.946695 0.949364 0.532808
O O1 0.698706 0.035287 0.658784
O O2 0.446998 0.262868 0.519778
O O3 0.500000 0.000000 0.500000
O O4 0.346328 0.989095 0.501329
O O5 0.163707 0.278206 0.813362
O O6 0.000000 0.013235 0.750000
O O7 0.982449 0.141143 0.664644
O O8 0.250000 0.750000 0.500000
O O9 0.414614 0.471040 0.566709
O O10 0.500000 0.052371 0.750000
O O11 0.780790 0.961927 0.929799
O O12 0.856629 0.032288 0.887620
#
# Coordination Sequence:
#
# PCOD8140094 Si02
#       5
#     8   8   8   8   8
#     4  11  24  43  67  94 134 176 218 274 330 400
#     4  10  20  40  66  93 131 172 220 266 332 396
#     4  12  25  41  69  99 135 174 223 280 334 386
#     4   9  19  39  68  92 128 170 213 264 329 395
#     4  10  23  41  66  97 134 170 220 275 327 393
#
# _framework density 20.759160999999999
#
# number of rings (size 3 to 8) (size 9 to 14) (size 15 to 20)
#    0.000    1.600    2.000    3.000    5.600    4.800 
#    3.600    0.000    0.000    0.000    0.000    0.000 
#    0.000    0.000    0.000    0.000    0.000    0.000 
#
# Total GULP energy -247831.418043 kJ/mol
# GULP energy per Si atom -12391.570902 kJ/mol
# Density = 2.071191 g / cm^3
# Si number density = 20.759161 Si / 1000 Ang^3
#
#
#
# Elastic Constant Matrix: (Units=GPa)
#
#
# Indices 1 2 3 4 5 6 
#
# 1 165.0126 46.5941 80.8491 0.0001 8.7286 -0.0007
# 2 46.5941 77.3824 48.0930 0.0007 -8.1516 -0.0024
# 3 80.8491 48.0930 199.8013 0.0003 18.9224 -0.0007
# 4 0.0001 0.0007 0.0003 20.7230 -0.0003 -4.1471
# 5 8.7286 -8.1516 18.9224 -0.0003 42.4750 0.0008
# 6 -0.0007 -0.0024 -0.0007 -4.1471 0.0008 32.3123
#
#
#
# Elastic Compliance Matrix: (Units=1/GPa)
#
#
# Indices 1 2 3 4 5 6 
#
# 1 0.008329 -0.003700 -0.002349 0.000000 -0.001375 0.000000
# 2 -0.003700 0.017815 -0.003327 0.000000 0.005661 0.000001
# 3 -0.002349 -0.003327 0.007070 0.000000 -0.003305 0.000000
# 4 0.000000 0.000000 0.000000 0.049528 0.000000 0.006357
# 5 -0.001375 0.005661 -0.003305 0.000000 0.026385 0.000000
# 6 0.000000 0.000001 0.000000 0.006357 0.000000 0.031764
#
#
# Mechanical properties :
#
#
# Convention : Reuss Voigt Hill
#
# Bulk Modulus (GPa) = 69.15425 88.14096 78.64760
# Shear Modulus (GPa) = 30.40221 36.87940 33.64081
#
# Velocity S-wave (km/s) = 3.83106 4.21947 4.02995
# Velocity P-wave (km/s) = 7.27697 8.14184 7.72152
#
# Compressibility (1/GPa) = 0.01446043
#
# Stress axis : x y z
#
# Youngs Moduli (GPa) = 120.06776 56.13345 141.45119
#
# Poissons Ratio (x) = 0.20767 0.33233
# Poissons Ratio (y) = 0.44420 0.47064
# Poissons Ratio (z) = 0.28209 0.18677
#
# Static dielectric constant tensor:
#      x y z
#    x 4.270050 -0.000450 0.790520 
#    y -0.000450 16.815210 0.000170 
#    z 0.790520 0.000170 4.796240 
# 
# 
# High freq. dielectric constant tensor:
#      x y z
#    x 1.827920 0.000000 0.020370 
#    y 0.000000 1.780110 0.000000 
#    z 0.020370 0.000000 1.833620 
# 
# From -- ./inp_files/181274.got.cif
#   From: 2010.06.25/outbox.cif.g09.slc.cpg/sg15_91_cif.got.tgz:181274.got - 2010.06.28 07:06:18.
