data_PCOD8140608
_publ_section_title
;
Structure prediction by ZEFSAII (Michael W. Deem and Ramdas Pophale) SiO2 
 PCOD8140608
Probable space group: C 2/C
;
_chemical_formula_sum "Si O2"
_cell_formula_units_Z 56
_cell_length_a 14.255013
_cell_length_b 13.736151
_cell_length_c 17.308207
_cell_angle_alpha 90.000000
_cell_angle_beta 55.592114
_cell_angle_gamma 90.000000
_cell_volume 2796.130983
_symmetry_space_group_name_H-M "C 2/C"
_symmetry_group_IT_number 15
_symmetry_cell_setting 'monoclinic'
loop_
_space_group_symop_operation_xyz
x,y,z
-x,y,1/2-z
-x,-y,-z
x,-y,1/2+z
1/2+x,1/2+y,z
1/2-x,1/2+y,1/2-z
1/2-x,1/2-y,-z
1/2+x,1/2-y,1/2+z
loop_
_atom_site_type_symbol
_atom_site_label
_atom_site_fract_x
_atom_site_fract_y
_atom_site_fract_z
Si Si1 0.293681 0.659639 0.029925
Si Si2 0.373214 0.041512 0.278484
Si Si3 0.242899 0.633918 0.604249
Si Si4 0.577675 0.294644 0.645629
Si Si5 0.292147 0.475012 0.934485
Si Si6 0.473451 0.275523 0.000662
Si Si7 0.596976 0.935014 0.915750
O O1 0.202758 0.618257 0.135398
O O2 0.406717 0.688328 0.023107
O O3 0.250000 0.750000 0.000000
O O4 0.326754 0.581133 0.948823
O O5 0.500000 0.041886 0.250000
O O6 0.383804 0.065416 0.184242
O O7 0.321083 0.932054 0.303187
O O8 0.197120 0.742315 0.609362
O O9 0.220991 0.577642 0.534577
O O10 0.376292 0.643187 0.563633
O O11 0.500000 0.259382 0.750000
O O12 0.595557 0.411214 0.636067
O O13 0.517439 0.259818 0.595476
O O14 0.214193 0.476432 0.895331
O O15 0.434952 0.175755 0.055585
O O16 0.500000 0.000000 0.000000
#
# Coordination Sequence:
#
# PCOD8140608 Si02
#       7
#     8   8   8   8   8   8   8
#     4  11  25  47  67  94 139 184 219 270 346 410
#     4  11  25  42  67  98 133 175 234 279 329 412
#     4  10  20  42  66  94 130 167 224 285 338 389
#     4  11  22  37  67  98 131 165 223 286 332 390
#     4  10  21  42  60  92 132 163 218 278 328 393
#     4  11  23  42  69  95 134 179 218 278 344 397
#     4  12  23  41  67  95 131 179 232 273 333 405
#
# _framework density 20.027674999999999
#
# number of rings (size 3 to 8) (size 9 to 14) (size 15 to 20)
#    0.000    1.143    2.857    4.714    4.000    5.143 
#    2.571    0.714    0.000    0.000    0.000    0.000 
#    0.000    0.000    0.000    0.000    0.000    0.000 
#
# Total GULP energy -346976.621611 kJ/mol
# GULP energy per Si atom -12392.022200 kJ/mol
# Density = 1.998209 g / cm^3
# Si number density = 20.027675 Si / 1000 Ang^3
#
#
#
# Elastic Constant Matrix: (Units=GPa)
#
#
# Indices 1 2 3 4 5 6 
#
# 1 149.5580 54.8891 72.9770 0.0000 -4.4475 0.0000
# 2 54.8891 119.5661 55.1910 0.0000 9.1833 0.0000
# 3 72.9770 55.1910 121.7065 0.0000 17.7193 0.0000
# 4 0.0000 0.0000 0.0000 -266.9494 0.0000 64.3832
# 5 -4.4475 9.1833 17.7193 0.0000 27.0887 0.0000
# 6 0.0000 0.0000 0.0000 64.3832 0.0000 18.0097
#
#
#
# Elastic Compliance Matrix: (Units=1/GPa)
#
#
# Indices 1 2 3 4 5 6 
#
# 1 0.010968 -0.002612 -0.006392 0.000000 0.006868 0.000000
# 2 -0.002612 0.011206 -0.003205 0.000000 -0.002131 0.000000
# 3 -0.006392 -0.003205 0.014918 0.000000 -0.009721 0.000000
# 4 0.000000 0.000000 0.000000 -0.002012 0.000000 0.007191
# 5 0.006868 -0.002131 -0.009721 0.000000 0.045125 0.000000
# 6 0.000000 0.000000 0.000000 0.007191 0.000000 0.029817
#
#
# Mechanical properties :
#
#
# Convention : Reuss Voigt Hill
#
# Bulk Modulus (GPa) = 78.90371 84.10498 81.50435
# Shear Modulus (GPa) = 36.05808 -30.51863 2.76973
#
# Velocity S-wave (km/s) = 4.24773 -3.90785 1.17727
# Velocity P-wave (km/s) = 7.97123 4.66088 6.52933
#
# Compressibility (1/GPa) = 0.01267367
#
# Stress axis : x y z
#
# Youngs Moduli (GPa) = 91.17203 89.23924 67.03331
#
# Poissons Ratio (x) = 0.23310 0.42848
# Poissons Ratio (y) = 0.23815 0.21484
# Poissons Ratio (z) = 0.58278 0.28601
#
# Static dielectric constant tensor:
#      x y z
#    x 3.572610 0.000000 -0.568390 
#    y 0.000000 -0.267610 0.000000 
#    z -0.568390 0.000000 0.943600 
# 
# 
# High freq. dielectric constant tensor:
#      x y z
#    x 1.787000 0.000000 0.004430 
#    y 0.000000 1.790090 0.000000 
#    z 0.004430 0.000000 1.781100 
# 
# From -- ./inp_files/198214.got.cif
#   From: 2010.06.25/outbox.cif.g09.slc.cpg/sg15_100_cif.got.tgz:198214.got - 2010.06.28 07:06:18.
