data_PCOD8140993
_publ_section_title
;
Structure prediction by ZEFSAII (Michael W. Deem and Ramdas Pophale) SiO2 
 PCOD8140993
Probable space group: C 2/C
;
_chemical_formula_sum "Si O2"
_cell_formula_units_Z 52
_cell_length_a 28.966788
_cell_length_b 16.457890
_cell_length_c 9.062559
_cell_angle_alpha 90.000000
_cell_angle_beta 141.851815
_cell_angle_gamma 90.000000
_cell_volume 2668.708617
_symmetry_space_group_name_H-M "C 2/C"
_symmetry_group_IT_number 15
_symmetry_cell_setting 'monoclinic'
loop_
_space_group_symop_operation_xyz
x,y,z
-x,y,1/2-z
-x,-y,-z
x,-y,1/2+z
1/2+x,1/2+y,z
1/2-x,1/2+y,1/2-z
1/2-x,1/2-y,-z
1/2+x,1/2-y,1/2+z
loop_
_atom_site_type_symbol
_atom_site_label
_atom_site_fract_x
_atom_site_fract_y
_atom_site_fract_z
Si Si1 0.500000 0.374526 0.750000
Si Si2 0.602917 0.502775 0.860724
Si Si3 0.694990 0.428719 0.837029
Si Si4 0.967892 0.829992 0.368125
Si Si5 0.552353 0.030123 0.762694
Si Si6 0.137894 0.584813 0.707960
Si Si7 0.880782 0.229115 0.399838
O O1 0.567321 0.427555 0.856104
O O2 0.466154 0.315536 0.539145
O O3 0.633340 0.471148 0.782962
O O4 0.540087 0.572620 0.680123
O O5 0.675580 0.537874 0.126600
O O6 0.686297 0.330435 0.817597
O O7 0.779058 0.452036 0.093641
O O8 0.045603 0.798155 0.501436
O O9 0.899255 0.781668 0.120864
O O10 0.500000 0.080314 0.750000
O O11 0.613399 0.079006 0.820606
O O12 0.500000 0.000000 0.500000
O O13 0.587975 0.959073 0.956372
O O14 0.141244 0.679330 0.682869
#
# Coordination Sequence:
#
# PCOD8140993 Si02
#       7
#     4   8   8   8   8   8   8
#     4  12  18  34  54  86 122 150 206 240 280 332
#     4  11  20  34  57  87 124 158 201 247 275 356
#     4  11  21  36  58  87 122 164 193 231 298 358
#     4  10  21  34  56  86 117 163 198 237 296 334
#     4   9  21  40  64  87 103 142 199 254 296 331
#     4  11  22  41  63  86 118 152 197 248 302 360
#     4  10  22  37  57  85 121 158 196 238 297 353
#
# _framework density 19.48508
#
# number of rings (size 3 to 8) (size 9 to 14) (size 15 to 20)
#    0.000    1.538    3.077    3.692    6.462    0.000 
#    1.385    0.000    0.000    0.923    0.000    0.000 
#    0.000    0.000    0.000    0.000    0.000    0.000 
#
# Total GULP energy -322114.529281 kJ/mol
# GULP energy per Si atom -12389.020357 kJ/mol
# Density = 1.944073 g / cm^3
# Si number density = 19.485080 Si / 1000 Ang^3
#
#
#
# Elastic Constant Matrix: (Units=GPa)
#
#
# Indices 1 2 3 4 5 6 
#
# 1 86.8875 10.2281 34.6950 0.0000 -17.5744 0.0000
# 2 10.2281 52.1354 9.0667 0.0000 -12.4630 0.0000
# 3 34.6950 9.0667 95.5237 0.0000 -10.7751 0.0000
# 4 0.0000 0.0000 0.0000 19.9305 0.0000 -3.7722
# 5 -17.5744 -12.4630 -10.7751 0.0000 39.2345 0.0000
# 6 0.0000 0.0000 0.0000 -3.7722 0.0000 12.5753
#
#
#
# Elastic Compliance Matrix: (Units=1/GPa)
#
#
# Indices 1 2 3 4 5 6 
#
# 1 0.014449 -0.000853 -0.004610 0.000000 0.004935 0.000000
# 2 -0.000853 0.020957 -0.001003 0.000000 0.006000 0.000000
# 3 -0.004610 -0.001003 0.012352 0.000000 0.001009 0.000000
# 4 0.000000 0.000000 0.000000 0.053195 0.000000 0.015957
# 5 0.004935 0.006000 0.001009 0.000000 0.029881 0.000000
# 6 0.000000 0.000000 0.000000 0.015957 0.000000 0.084307
#
#
# Mechanical properties :
#
#
# Convention : Reuss Voigt Hill
#
# Bulk Modulus (GPa) = 28.71448 38.05847 33.38647
# Shear Modulus (GPa) = 20.86110 26.38518 23.62314
#
# Velocity S-wave (km/s) = 3.27558 3.68383 3.48569
# Velocity P-wave (km/s) = 5.39208 6.13748 5.77682
#
# Compressibility (1/GPa) = 0.03482564
#
# Stress axis : x y z
#
# Youngs Moduli (GPa) = 69.21079 47.71731 80.95847
#
# Poissons Ratio (x) = 0.04071 0.37324
# Poissons Ratio (y) = 0.05905 0.08116
# Poissons Ratio (z) = 0.31908 0.04784
#
# Static dielectric constant tensor:
#      x y z
#    x 3.978660 0.000000 -0.369490 
#    y 0.000000 3.302270 0.000000 
#    z -0.369490 0.000000 3.817330 
# 
# 
# High freq. dielectric constant tensor:
#      x y z
#    x 1.756350 0.000000 -0.013130 
#    y 0.000000 1.728190 0.000000 
#    z -0.013130 0.000000 1.773840 
# 
# From -- ./inp_files/48559.got.cif
#   From: 2010.06.25/outbox.cif.g09.slc.cpg/sg15_25_cif.got.tgz:48559.got - 2010.06.28 07:06:18.
