data_PCOD8140428
_publ_section_title
;
Structure prediction by ZEFSAII (Michael W. Deem and Ramdas Pophale) SiO2 
 PCOD8140428
Probable space group: C 2/C
;
_chemical_formula_sum "Si O2"
_cell_formula_units_Z 52
_cell_length_a 29.138512
_cell_length_b 15.730277
_cell_length_c 16.726837
_cell_angle_alpha 90.000000
_cell_angle_beta 160.423001
_cell_angle_gamma 90.000000
_cell_volume 2568.960734
_symmetry_space_group_name_H-M "C 2/C"
_symmetry_group_IT_number 15
_symmetry_cell_setting 'monoclinic'
loop_
_space_group_symop_operation_xyz
x,y,z
-x,y,1/2-z
-x,-y,-z
x,-y,1/2+z
1/2+x,1/2+y,z
1/2-x,1/2+y,1/2-z
1/2-x,1/2-y,-z
1/2+x,1/2-y,1/2+z
loop_
_atom_site_type_symbol
_atom_site_label
_atom_site_fract_x
_atom_site_fract_y
_atom_site_fract_z
Si Si1 0.766366 0.023273 0.436657
Si Si2 0.159205 0.976355 0.269073
Si Si3 0.431338 0.101771 0.959463
Si Si4 0.567129 0.949544 0.275707
Si Si5 0.399812 0.832302 0.897879
Si Si6 0.302663 0.657477 0.805217
Si Si7 0.000000 0.086727 0.250000
O O1 0.811775 0.062723 0.595983
O O2 0.720744 0.098219 0.303003
O O3 0.647870 0.950146 0.241294
O O4 0.893062 0.977924 0.607587
O O5 0.206268 0.912880 0.277585
O O6 0.266153 0.056360 0.440419
O O7 0.000000 0.000000 0.000000
O O8 0.331692 0.150174 0.858668
O O9 0.524063 0.171433 0.064246
O O10 0.532083 0.035230 0.167913
O O11 0.500000 0.963207 0.250000
O O12 0.510068 0.861691 0.145207
O O13 0.320893 0.746991 0.791449
O O14 0.439085 0.646318 0.081359
#
# Coordination Sequence:
#
# PCOD8140428 Si02
#       7
#     8   8   8   8   8   8   4
#     4  10  20  41  68  88 124 172 219 259 312 393
#     4  12  22  40  65  99 126 172 220 259 322 392
#     4  10  20  43  67  88 128 178 213 261 332 380
#     4  11  21  41  71  93 123 173 228 259 306 406
#     4  11  23  42  66  97 125 169 217 271 326 375
#     4  11  25  40  63  99 135 165 210 276 332 373
#     4  10  22  44  58  88 136 172 200 262 328 384
#
# _framework density 20.241648000000001
#
# number of rings (size 3 to 8) (size 9 to 14) (size 15 to 20)
#    0.000    1.231    6.154    0.923    1.077    0.615 
#    5.538    3.846    0.000    0.000    0.000    0.000 
#    0.000    0.000    0.000    0.000    0.000    0.000 
#
# Total GULP energy -322138.976948 kJ/mol
# GULP energy per Si atom -12389.960652 kJ/mol
# Density = 2.019558 g / cm^3
# Si number density = 20.241648 Si / 1000 Ang^3
#
#
#
# Elastic Constant Matrix: (Units=GPa)
#
#
# Indices 1 2 3 4 5 6 
#
# 1 106.8862 38.8968 30.9660 0.0000 1.7343 0.0000
# 2 38.8968 91.8487 30.2111 0.0000 6.9828 0.0000
# 3 30.9660 30.2111 113.9269 0.0000 11.0273 0.0000
# 4 0.0000 0.0000 0.0000 21.8723 0.0000 3.5465
# 5 1.7343 6.9828 11.0273 0.0000 40.1917 0.0000
# 6 0.0000 0.0000 0.0000 3.5465 0.0000 38.7956
#
#
#
# Elastic Compliance Matrix: (Units=1/GPa)
#
#
# Indices 1 2 3 4 5 6 
#
# 1 0.011488 -0.004244 -0.002076 0.000000 0.000811 0.000000
# 2 -0.004244 0.013556 -0.002292 0.000000 -0.001543 0.000000
# 3 -0.002076 -0.002292 0.010172 0.000000 -0.002303 0.000000
# 4 0.000000 0.000000 0.000000 0.046408 0.000000 -0.004242
# 5 0.000811 -0.001543 -0.002303 0.000000 0.025746 0.000000
# 6 0.000000 0.000000 0.000000 -0.004242 0.000000 0.026164
#
#
# Mechanical properties :
#
#
# Convention : Reuss Voigt Hill
#
# Bulk Modulus (GPa) = 55.57546 56.97886 56.27716
# Shear Modulus (GPa) = 31.89685 34.34445 33.12065
#
# Velocity S-wave (km/s) = 3.97395 4.12360 4.04946
# Velocity P-wave (km/s) = 6.96936 7.13320 7.05175
#
# Compressibility (1/GPa) = 0.01799355
#
# Stress axis : x y z
#
# Youngs Moduli (GPa) = 87.04436 73.76830 98.30500
#
# Poissons Ratio (x) = 0.31308 0.20405
# Poissons Ratio (y) = 0.36943 0.22530
# Poissons Ratio (z) = 0.18068 0.16906
#
# Static dielectric constant tensor:
#      x y z
#    x 4.011390 0.000000 -0.234370 
#    y 0.000000 3.228250 0.000000 
#    z -0.234370 0.000000 3.999880 
# 
# 
# High freq. dielectric constant tensor:
#      x y z
#    x 1.816600 0.000000 0.001850 
#    y 0.000000 1.742890 0.000000 
#    z 0.001850 0.000000 1.807660 
# 
# From -- ./inp_files/225522.got.cif
#   From: 2010.06.25/outbox.cif.g09.slc.cpg/sg15_113_cif.got.tgz:225522.got - 2010.06.28 07:06:18.
