data_PCOD8140210
_publ_section_title
;
Structure prediction by ZEFSAII (Michael W. Deem and Ramdas Pophale) SiO2 
 PCOD8140210
Probable space group: C 2/C
;
_chemical_formula_sum "Si O2"
_cell_formula_units_Z 44
_cell_length_a 15.007563
_cell_length_b 14.136840
_cell_length_c 8.538805
_cell_angle_alpha 90.000000
_cell_angle_beta 73.477118
_cell_angle_gamma 90.000000
_cell_volume 1736.781419
_symmetry_space_group_name_H-M "C 2/C"
_symmetry_group_IT_number 15
_symmetry_cell_setting 'monoclinic'
loop_
_space_group_symop_operation_xyz
x,y,z
-x,y,1/2-z
-x,-y,-z
x,-y,1/2+z
1/2+x,1/2+y,z
1/2-x,1/2+y,1/2-z
1/2-x,1/2-y,-z
1/2+x,1/2-y,1/2+z
loop_
_atom_site_type_symbol
_atom_site_label
_atom_site_fract_x
_atom_site_fract_y
_atom_site_fract_z
Si Si1 0.231379 0.419612 0.265265
Si Si2 0.363335 0.727433 0.226064
Si Si3 0.934666 0.441956 0.643221
Si Si4 0.000000 0.882007 0.250000
Si Si5 0.167256 0.944406 0.976311
Si Si6 0.059874 0.246721 0.985393
O O1 0.212366 0.311005 0.232778
O O2 0.148058 0.490256 0.258366
O O3 0.251585 0.426616 0.439195
O O4 0.319359 0.455143 0.117616
O O5 0.322233 0.635724 0.162092
O O6 0.387456 0.700396 0.393192
O O7 0.452253 0.764105 0.084876
O O8 0.894768 0.348721 0.576148
O O9 0.000000 0.405243 0.750000
O O10 0.000000 0.500000 0.500000
O O11 0.066590 0.818811 0.327817
O O12 0.934114 0.946699 0.391495
#
# Coordination Sequence:
#
# PCOD8140210 Si02
#       6
#     8   8   8   4   8   8
#     4  12  25  43  69 109 147 184 237 295 368 424
#     4  10  22  43  71 103 146 181 239 297 358 427
#     4  12  22  37  66 107 149 187 223 289 370 444
#     4  10  24  48  72  96 138 196 248 292 344 418
#     4  11  27  46  70 102 142 192 243 300 351 424
#     4  10  20  40  70 104 137 191 239 288 360 431
#
# _framework density 25.334218
#
# number of rings (size 3 to 8) (size 9 to 14) (size 15 to 20)
#    0.000    1.091    2.727    3.818    0.000    3.636 
#    0.000    4.545    0.000    0.000    0.000    0.000 
#    0.000    0.000    0.000    0.000    0.000    0.000 
#
# Total GULP energy -272937.819512 kJ/mol
# GULP energy per Si atom -12406.264523 kJ/mol
# Density = 2.527656 g / cm^3
# Si number density = 25.334218 Si / 1000 Ang^3
#
#
#
# Elastic Constant Matrix: (Units=GPa)
#
#
# Indices 1 2 3 4 5 6 
#
# 1 78.0941 43.9203 42.9974 0.0000 22.4585 0.0000
# 2 43.9203 97.9544 63.9373 0.0000 -6.4378 0.0000
# 3 42.9974 63.9373 146.3860 0.0000 18.7203 0.0000
# 4 0.0000 0.0000 0.0000 42.8881 0.0000 2.0003
# 5 22.4585 -6.4378 18.7203 0.0000 56.4075 0.0000
# 6 0.0000 0.0000 0.0000 2.0003 0.0000 29.5892
#
#
#
# Elastic Compliance Matrix: (Units=1/GPa)
#
#
# Indices 1 2 3 4 5 6 
#
# 1 0.021384 -0.009622 -0.000887 0.000000 -0.009318 0.000000
# 2 -0.009622 0.019464 -0.006735 0.000000 0.008287 0.000000
# 3 -0.000887 -0.006735 0.010534 0.000000 -0.003911 0.000000
# 4 0.000000 0.000000 0.000000 0.023390 0.000000 -0.001581
# 5 -0.009318 0.008287 -0.003911 0.000000 0.023682 0.000000
# 6 0.000000 0.000000 0.000000 -0.001581 0.000000 0.033903
#
#
# Mechanical properties :
#
#
# Convention : Reuss Voigt Hill
#
# Bulk Modulus (GPa) = 59.19099 69.34940 64.27020
# Shear Modulus (GPa) = 28.98967 37.21558 33.10262
#
# Velocity S-wave (km/s) = 3.38640 3.83689 3.61866
# Velocity P-wave (km/s) = 6.22134 6.86019 6.54856
#
# Compressibility (1/GPa) = 0.01689446
#
# Stress axis : x y z
#
# Youngs Moduli (GPa) = 46.76319 51.37806 94.93427
#
# Poissons Ratio (x) = 0.49434 0.08422
# Poissons Ratio (y) = 0.44993 0.63937
# Poissons Ratio (z) = 0.04148 0.34602
#
# Static dielectric constant tensor:
#      x y z
#    x 4.382480 0.000000 -0.069250 
#    y 0.000000 4.489290 0.000000 
#    z -0.069250 0.000000 4.646940 
# 
# 
# High freq. dielectric constant tensor:
#      x y z
#    x 2.008950 0.000000 0.008980 
#    y 0.000000 2.005770 0.000000 
#    z 0.008980 0.000000 2.026150 
# 
# From -- ./inp_files/47000.got.cif
#   From: 2010.06.25/outbox.cif.g09.slc.cpg/sg15_24_cif.got.tgz:47000.got - 2010.06.28 07:06:18.
