data_PCOD8140375
_publ_section_title
;
Structure prediction by ZEFSAII (Michael W. Deem and Ramdas Pophale) SiO2 
 PCOD8140375
Probable space group: C 2/C
;
_chemical_formula_sum "Si O2"
_cell_formula_units_Z 36
_cell_length_a 20.925742
_cell_length_b 7.422727
_cell_length_c 16.308475
_cell_angle_alpha 90.000000
_cell_angle_beta 141.194146
_cell_angle_gamma 90.000000
_cell_volume 1587.471442
_symmetry_space_group_name_H-M "C 2/C"
_symmetry_group_IT_number 15
_symmetry_cell_setting 'monoclinic'
loop_
_space_group_symop_operation_xyz
x,y,z
-x,y,1/2-z
-x,-y,-z
x,-y,1/2+z
1/2+x,1/2+y,z
1/2-x,1/2+y,1/2-z
1/2-x,1/2-y,-z
1/2+x,1/2-y,1/2+z
loop_
_atom_site_type_symbol
_atom_site_label
_atom_site_fract_x
_atom_site_fract_y
_atom_site_fract_z
Si Si1 0.435203 0.028396 0.542430
Si Si2 0.564770 0.528415 0.171983
Si Si3 0.635128 0.646222 0.075312
Si Si4 0.500000 0.750015 0.250000
Si Si5 0.135118 0.646231 0.194908
O O1 0.373713 0.841592 0.476112
O O2 0.556871 0.994085 0.656393
O O3 0.424297 0.126992 0.618793
O O4 0.394295 0.162843 0.430819
O O5 0.605651 0.662861 0.142142
O O6 0.575696 0.627021 0.270171
O O7 0.626262 0.341613 0.228624
O O8 0.443098 0.494102 0.042654
O O9 0.750009 0.574175 0.179018
#
# Coordination Sequence:
#
# PCOD8140375 Si02
#       5
#     8   8   8   4   8
#     4  10  22  38  63  89 120 159 195 245 303 351
#     4  10  22  38  63  89 120 159 195 245 303 351
#     4  10  20  41  66  90 114 154 207 247 288 357
#     4  12  24  42  54  84 132 158 192 248 302 354
#     4  10  20  41  66  90 114 154 207 247 288 357
#
# _framework density 22.677572999999999
#
# number of rings (size 3 to 8) (size 9 to 14) (size 15 to 20)
#    0.000    1.778    0.000    6.667    0.000    3.556 
#    0.000   14.444    0.000    0.000    0.000    0.000 
#    0.000    0.000    0.000    0.000    0.000    0.000 
#
# Total GULP energy -223110.597847 kJ/mol
# GULP energy per Si atom -12395.033214 kJ/mol
# Density = 2.262596 g / cm^3
# Si number density = 22.677573 Si / 1000 Ang^3
#
#
#
# Elastic Constant Matrix: (Units=GPa)
#
#
# Indices 1 2 3 4 5 6 
#
# 1 86.3548 25.5024 81.4999 0.0000 4.0950 0.0000
# 2 25.5024 71.3356 25.2683 0.0000 -0.8124 0.0000
# 3 81.4999 25.2683 94.2824 0.0000 21.8049 0.0000
# 4 0.0000 0.0000 0.0000 28.7496 0.0000 -10.8876
# 5 4.0950 -0.8124 21.8049 0.0000 62.0714 0.0000
# 6 0.0000 0.0000 0.0000 -10.8876 0.0000 31.9901
#
#
#
# Elastic Compliance Matrix: (Units=1/GPa)
#
#
# Indices 1 2 3 4 5 6 
#
# 1 0.083135 -0.002526 -0.076093 0.000000 0.021213 0.000000
# 2 -0.002526 0.015754 -0.002313 0.000000 0.001185 0.000000
# 3 -0.076093 -0.002313 0.082556 0.000000 -0.024011 0.000000
# 4 0.000000 0.000000 0.000000 0.039930 0.000000 0.013590
# 5 0.021213 0.001185 -0.024011 0.000000 0.023161 0.000000
# 6 0.000000 0.000000 0.000000 0.013590 0.000000 0.035885
#
#
# Mechanical properties :
#
#
# Convention : Reuss Voigt Hill
#
# Bulk Modulus (GPa) = 51.06813 57.39045 54.22929
# Shear Modulus (GPa) = 11.14052 32.54236 21.84144
#
# Velocity S-wave (km/s) = 2.21884 3.79225 3.10680
# Velocity P-wave (km/s) = 5.39745 6.67360 6.06916
#
# Compressibility (1/GPa) = 0.01958168
#
# Stress axis : x y z
#
# Youngs Moduli (GPa) = 12.02859 63.47592 12.11296
#
# Poissons Ratio (x) = 0.16032 0.92171
# Poissons Ratio (y) = 0.03038 0.02802
# Poissons Ratio (z) = 0.91529 0.14682
#
# Static dielectric constant tensor:
#      x y z
#    x 3.895730 0.000000 0.007060 
#    y 0.000000 3.999660 0.000000 
#    z 0.007060 0.000000 3.898340 
# 
# 
# High freq. dielectric constant tensor:
#      x y z
#    x 1.869650 0.000000 0.005640 
#    y 0.000000 1.912230 0.000000 
#    z 0.005640 0.000000 1.871390 
# 
# From -- ./inp_files/218075.got.cif
#   From: 2010.06.25/outbox.cif.g09.slc.cpg/sg15_110_cif.got.tgz:218075.got - 2010.06.28 07:06:18.
