data_PCOD8140693
_publ_section_title
;
Structure prediction by ZEFSAII (Michael W. Deem and Ramdas Pophale) SiO2 
 PCOD8140693
Probable space group: C 2/C
;
_chemical_formula_sum "Si O2"
_cell_formula_units_Z 36
_cell_length_a 16.909146
_cell_length_b 7.099389
_cell_length_c 14.915091
_cell_angle_alpha 90.000000
_cell_angle_beta 65.055099
_cell_angle_gamma 90.000000
_cell_volume 1623.449456
_symmetry_space_group_name_H-M "C 2/C"
_symmetry_group_IT_number 15
_symmetry_cell_setting 'monoclinic'
loop_
_space_group_symop_operation_xyz
x,y,z
-x,y,1/2-z
-x,-y,-z
x,-y,1/2+z
1/2+x,1/2+y,z
1/2-x,1/2+y,1/2-z
1/2-x,1/2-y,-z
1/2+x,1/2-y,1/2+z
loop_
_atom_site_type_symbol
_atom_site_label
_atom_site_fract_x
_atom_site_fract_y
_atom_site_fract_z
Si Si1 0.877892 0.437582 0.663254
Si Si2 0.409079 0.546121 0.326000
Si Si3 0.691979 0.657379 0.297533
Si Si4 0.000000 0.317188 0.750000
Si Si5 0.090795 0.893338 0.472538
O O1 0.796397 0.328469 0.747782
O O2 0.850078 0.647234 0.649096
O O3 0.957736 0.449729 0.695073
O O4 0.913209 0.321440 0.560745
O O5 0.500000 0.641384 0.250000
O O6 0.335193 0.603040 0.290770
O O7 0.423615 0.319661 0.325668
O O8 0.382546 0.619901 0.436537
O O9 0.665001 0.499251 0.381175
O O10 0.000000 0.000000 0.500000
#
# Coordination Sequence:
#
# PCOD8140693 Si02
#       5
#     8   8   8   4   8
#     4  12  25  45  73 100 144 184 234 288 353 412
#     4  10  21  44  73  95 143 179 226 290 344 407
#     4  12  25  47  70 104 144 185 230 296 349 409
#     4  10  20  42  70  94 134 186 224 276 352 402
#     4  12  22  46  74 102 140 188 232 289 349 420
#
# _framework density 22.175006
#
# number of rings (size 3 to 8) (size 9 to 14) (size 15 to 20)
#    0.667    0.000    8.889    0.000    1.556    1.778 
#    4.000    2.222    0.000    0.000    0.000    0.000 
#    0.000    0.000    0.000    0.000    0.000    0.000 
#
# Total GULP energy -223171.443648 kJ/mol
# GULP energy per Si atom -12398.413536 kJ/mol
# Density = 2.212453 g / cm^3
# Si number density = 22.175006 Si / 1000 Ang^3
#
#
#
# Elastic Constant Matrix: (Units=GPa)
#
#
# Indices 1 2 3 4 5 6 
#
# 1 79.4331 14.1156 32.5507 0.0002 11.7206 0.0001
# 2 14.1156 89.4222 18.1187 0.0001 13.6799 0.0001
# 3 32.5507 18.1187 140.9433 -0.0001 33.4328 -0.0001
# 4 0.0002 0.0001 -0.0001 19.9200 0.0001 1.2477
# 5 11.7206 13.6799 33.4328 0.0001 30.7623 0.0001
# 6 0.0001 0.0001 -0.0001 1.2477 0.0001 33.8768
#
#
#
# Elastic Compliance Matrix: (Units=1/GPa)
#
#
# Indices 1 2 3 4 5 6 
#
# 1 0.014207 -0.001414 -0.002647 0.000000 -0.001907 0.000000
# 2 -0.001414 0.012155 -0.000110 0.000000 -0.004747 0.000000
# 3 -0.002647 -0.000110 0.010064 0.000000 -0.009881 0.000000
# 4 0.000000 0.000000 0.000000 0.050317 0.000000 -0.001853
# 5 -0.001907 -0.004747 -0.009881 0.000000 0.046083 0.000000
# 6 0.000000 0.000000 0.000000 -0.001853 0.000000 0.029587
#
#
# Mechanical properties :
#
#
# Convention : Reuss Voigt Hill
#
# Bulk Modulus (GPa) = 35.60851 48.81874 42.21362
# Shear Modulus (GPa) = 27.75992 33.24605 30.50299
#
# Velocity S-wave (km/s) = 3.54200 3.87623 3.71287
# Velocity P-wave (km/s) = 5.72891 6.48818 6.12033
#
# Compressibility (1/GPa) = 0.02808318
#
# Stress axis : x y z
#
# Youngs Moduli (GPa) = 70.38983 82.27326 99.36216
#
# Poissons Ratio (x) = 0.11638 0.26299
# Poissons Ratio (y) = 0.09957 0.01092
# Poissons Ratio (z) = 0.18630 0.00904
#
# Static dielectric constant tensor:
#      x y z
#    x 3.935570 0.000000 0.028070 
#    y 0.000000 3.920230 0.000000 
#    z 0.028070 0.000000 3.932000 
# 
# 
# High freq. dielectric constant tensor:
#      x y z
#    x 1.871310 0.000000 0.003960 
#    y 0.000000 1.874190 0.000000 
#    z 0.003960 0.000000 1.854990 
# 
# From -- ./inp_files/158722.got.cif
#   From: 2010.06.25/outbox.cif.g09.slc.cpg/sg15_80_cif.got.tgz:158722.got - 2010.06.28 07:06:18.
