data_PCOD8140602
_publ_section_title
;
Structure prediction by ZEFSAII (Michael W. Deem and Ramdas Pophale) SiO2 
 PCOD8140602
Probable space group: C 2/C
;
_chemical_formula_sum "Si O2"
_cell_formula_units_Z 36
_cell_length_a 21.387764
_cell_length_b 9.878472
_cell_length_c 13.931005
_cell_angle_alpha 90.000000
_cell_angle_beta 144.114360
_cell_angle_gamma 90.000000
_cell_volume 1725.284367
_symmetry_space_group_name_H-M "C 2/C"
_symmetry_group_IT_number 15
_symmetry_cell_setting 'monoclinic'
loop_
_space_group_symop_operation_xyz
x,y,z
-x,y,1/2-z
-x,-y,-z
x,-y,1/2+z
1/2+x,1/2+y,z
1/2-x,1/2+y,1/2-z
1/2-x,1/2-y,-z
1/2+x,1/2-y,1/2+z
loop_
_atom_site_type_symbol
_atom_site_label
_atom_site_fract_x
_atom_site_fract_y
_atom_site_fract_z
Si Si1 0.399486 0.901515 0.875610
Si Si2 0.000000 0.062490 0.250000
Si Si3 0.272239 0.538401 0.965272
Si Si4 0.022374 0.146445 0.067426
Si Si5 0.761373 0.331300 0.877248
O O1 0.338133 0.909444 0.899857
O O2 0.315745 0.939368 0.688337
O O3 0.442567 0.749371 0.914423
O O4 0.500000 0.000000 0.000000
O O5 0.108533 0.970404 0.387278
O O6 0.010059 0.157411 0.167712
O O7 0.295853 0.676530 0.936202
O O8 0.231695 0.576006 0.020031
O O9 0.142645 0.181319 0.187465
O O10 0.000000 0.000000 0.000000
#
# Coordination Sequence:
#
# PCOD8140602 Si02
#       5
#     8   4   8   8   8
#     4  12  24  40  68 103 132 171 232 284 333 399
#     4  10  20  42  66  92 132 182 224 258 344 412
#     4  10  21  40  66 100 129 180 225 278 327 407
#     4  11  23  40  65  94 134 180 217 279 342 405
#     4  10  22  39  65  95 135 172 229 273 339 403
#
# _framework density 20.866125
#
# number of rings (size 3 to 8) (size 9 to 14) (size 15 to 20)
#    0.000    1.333    4.444    1.333    0.000    0.889 
#    0.000    6.667    0.000    0.000    0.000    0.000 
#    0.000    0.000    0.000    0.000    0.000    0.000 
#
# Total GULP energy -223110.494751 kJ/mol
# GULP energy per Si atom -12395.027486 kJ/mol
# Density = 2.081863 g / cm^3
# Si number density = 20.866125 Si / 1000 Ang^3
#
#
#
# Elastic Constant Matrix: (Units=GPa)
#
#
# Indices 1 2 3 4 5 6 
#
# 1 121.0711 54.3980 61.5663 0.0000 21.5673 0.0000
# 2 54.3980 103.7782 71.4985 0.0000 3.0964 0.0000
# 3 61.5663 71.4985 173.7049 0.0000 23.6853 0.0000
# 4 0.0000 0.0000 0.0000 48.6206 0.0000 3.9268
# 5 21.5673 3.0964 23.6853 0.0000 35.4510 0.0000
# 6 0.0000 0.0000 0.0000 3.9268 0.0000 25.9888
#
#
#
# Elastic Compliance Matrix: (Units=1/GPa)
#
#
# Indices 1 2 3 4 5 6 
#
# 1 0.012496 -0.005441 -0.001339 0.000000 -0.006232 0.000000
# 2 -0.005441 0.016073 -0.005443 0.000000 0.005543 0.000000
# 3 -0.001339 -0.005443 0.009128 0.000000 -0.004808 0.000000
# 4 0.000000 0.000000 0.000000 0.020822 0.000000 -0.003146
# 5 -0.006232 0.005543 -0.004808 0.000000 0.034727 0.000000
# 6 0.000000 0.000000 0.000000 -0.003146 0.000000 0.038954
#
#
# Mechanical properties :
#
#
# Convention : Reuss Voigt Hill
#
# Bulk Modulus (GPa) = 75.47888 85.94220 80.71054
# Shear Modulus (GPa) = 31.04407 36.08482 33.56444
#
# Velocity S-wave (km/s) = 3.86135 4.16306 4.01504
# Velocity P-wave (km/s) = 7.49210 8.02402 7.76262
#
# Compressibility (1/GPa) = 0.01324874
#
# Stress axis : x y z
#
# Youngs Moduli (GPa) = 80.02822 62.21779 109.55810
#
# Poissons Ratio (x) = 0.33853 0.14675
# Poissons Ratio (y) = 0.43544 0.59632
# Poissons Ratio (z) = 0.10720 0.33865
#
# Static dielectric constant tensor:
#      x y z
#    x 3.912630 0.000000 0.172730 
#    y 0.000000 3.569150 0.000000 
#    z 0.172730 0.000000 3.557810 
# 
# 
# High freq. dielectric constant tensor:
#      x y z
#    x 1.828960 0.000000 0.022510 
#    y 0.000000 1.777210 0.000000 
#    z 0.022510 0.000000 1.835470 
# 
# From -- ./inp_files/159046.got.cif
#   From: 2010.06.25/outbox.cif.g09.slc.cpg/sg15_80_cif.got.tgz:159046.got - 2010.06.28 07:06:18.
