data_PCOD8140696
_publ_section_title
;
Structure prediction by ZEFSAII (Michael W. Deem and Ramdas Pophale) SiO2 
 PCOD8140696
Probable space group: C 2/C
;
_chemical_formula_sum "Si O2"
_cell_formula_units_Z 36
_cell_length_a 27.437550
_cell_length_b 8.886309
_cell_length_c 16.938494
_cell_angle_alpha 90.000000
_cell_angle_beta 153.492034
_cell_angle_gamma 90.000000
_cell_volume 1843.274677
_symmetry_space_group_name_H-M "C 2/C"
_symmetry_group_IT_number 15
_symmetry_cell_setting 'monoclinic'
loop_
_space_group_symop_operation_xyz
x,y,z
-x,y,1/2-z
-x,-y,-z
x,-y,1/2+z
1/2+x,1/2+y,z
1/2-x,1/2+y,1/2-z
1/2-x,1/2-y,-z
1/2+x,1/2-y,1/2+z
loop_
_atom_site_type_symbol
_atom_site_label
_atom_site_fract_x
_atom_site_fract_y
_atom_site_fract_z
Si Si1 0.000000 0.305986 0.250000
Si Si2 0.805804 0.159202 0.650056
Si Si3 0.020951 0.667553 0.503454
Si Si4 0.138251 0.826755 0.814949
Si Si5 0.402993 0.097006 0.055986
O O1 0.054931 0.198184 0.265751
O O2 0.085371 0.414629 0.420742
O O3 0.750000 0.250000 0.500000
O O4 0.717555 0.139193 0.590997
O O5 0.847871 0.003103 0.676136
O O6 0.905880 0.249352 0.831367
O O7 0.097223 0.753752 0.674839
O O8 0.084261 0.662623 0.512635
O O9 0.000000 0.500000 0.500000
O O10 0.250000 0.750000 0.000000
O O11 0.500000 0.170742 0.250000
#
# Coordination Sequence:
#
# PCOD8140696 Si02
#       5
#     4   8   8   8   8
#     4  10  20  42  70  96 134 176 222 270 340 394
#     4  12  24  43  69 102 135 177 222 277 333 397
#     4  12  24  43  69 102 135 177 222 277 333 397
#     4  12  24  43  69 102 135 177 222 277 333 397
#     4  10  20  42  70  96 134 176 222 270 340 394
#
# _framework density 19.530456999999998
#
# number of rings (size 3 to 8) (size 9 to 14) (size 15 to 20)
#    0.667    0.000    6.667    2.000    0.000    5.333 
#    0.000    0.000    0.000    0.000    0.000    0.000 
#    0.000    0.000    0.000    0.000    0.000    0.000 
#
# Total GULP energy -223216.578214 kJ/mol
# GULP energy per Si atom -12400.921012 kJ/mol
# Density = 1.948600 g / cm^3
# Si number density = 19.530457 Si / 1000 Ang^3
#
#
#
# Elastic Constant Matrix: (Units=GPa)
#
#
# Indices 1 2 3 4 5 6 
#
# 1 211.6079 71.7926 73.2606 0.0000 4.0583 0.0000
# 2 71.7926 158.1035 80.3067 0.0000 4.5355 0.0000
# 3 73.2606 80.3067 156.8022 0.0000 -5.8068 0.0000
# 4 0.0000 0.0000 0.0000 39.7696 0.0000 4.7443
# 5 4.0583 4.5355 -5.8068 0.0000 36.2088 0.0000
# 6 0.0000 0.0000 0.0000 4.7443 0.0000 34.7288
#
#
#
# Elastic Compliance Matrix: (Units=1/GPa)
#
#
# Indices 1 2 3 4 5 6 
#
# 1 0.005997 -0.001707 -0.001956 0.000000 -0.000772 0.000000
# 2 -0.001707 0.009151 -0.003948 0.000000 -0.001588 0.000000
# 3 -0.001956 -0.003948 0.009395 0.000000 0.002220 0.000000
# 4 0.000000 0.000000 0.000000 0.025561 0.000000 -0.003492
# 5 -0.000772 -0.001588 0.002220 0.000000 0.028259 0.000000
# 6 0.000000 0.000000 0.000000 -0.003492 0.000000 0.029272
#
#
# Mechanical properties :
#
#
# Convention : Reuss Voigt Hill
#
# Bulk Modulus (GPa) = 107.28482 108.58149 107.93316
# Shear Modulus (GPa) = 39.69349 42.21836 40.95592
#
# Velocity S-wave (km/s) = 4.51309 4.65442 4.58430
# Velocity P-wave (km/s) = 9.06690 9.19791 9.13264
#
# Compressibility (1/GPa) = 0.00932098
#
# Stress axis : x y z
#
# Youngs Moduli (GPa) = 166.74961 109.27631 106.43459
#
# Poissons Ratio (x) = 0.18659 0.20819
# Poissons Ratio (y) = 0.28472 0.42018
# Poissons Ratio (z) = 0.32616 0.43140
#
# Static dielectric constant tensor:
#      x y z
#    x 3.061070 0.000000 -0.155020 
#    y 0.000000 5.644010 0.000000 
#    z -0.155020 0.000000 5.635370 
# 
# 
# High freq. dielectric constant tensor:
#      x y z
#    x 1.777430 0.000000 0.000850 
#    y 0.000000 1.763300 0.000000 
#    z 0.000850 0.000000 1.763350 
# 
# From -- ./inp_files/177069.got.cif
#   From: 2010.06.25/outbox.cif.g09.slc.cpg/sg15_89_cif.got.tgz:177069.got - 2010.06.28 07:06:18.
