data_PCOD8140469
_publ_section_title
;
Structure prediction by ZEFSAII (Michael W. Deem and Ramdas Pophale) SiO2 
 PCOD8140469
Probable space group: C 2/C
;
_chemical_formula_sum "Si O2"
_cell_formula_units_Z 56
_cell_length_a 8.793112
_cell_length_b 15.452231
_cell_length_c 24.211750
_cell_angle_alpha 90.000000
_cell_angle_beta 54.367973
_cell_angle_gamma 90.000000
_cell_volume 2673.809385
_symmetry_space_group_name_H-M "C 2/C"
_symmetry_group_IT_number 15
_symmetry_cell_setting 'monoclinic'
loop_
_space_group_symop_operation_xyz
x,y,z
-x,y,1/2-z
-x,-y,-z
x,-y,1/2+z
1/2+x,1/2+y,z
1/2-x,1/2+y,1/2-z
1/2-x,1/2-y,-z
1/2+x,1/2-y,1/2+z
loop_
_atom_site_type_symbol
_atom_site_label
_atom_site_fract_x
_atom_site_fract_y
_atom_site_fract_z
Si Si1 0.418629 0.409779 0.532601
Si Si2 0.799966 0.916906 0.265397
Si Si3 0.602315 0.881470 0.515563
Si Si4 0.308588 0.264889 0.049432
Si Si5 0.912405 0.933077 0.661693
Si Si6 0.556977 0.748983 0.299736
Si Si7 0.198793 0.514341 0.898776
O O1 0.500000 0.500000 0.500000
O O2 0.243642 0.369494 0.536454
O O3 0.594447 0.355933 0.475182
O O4 0.362656 0.415382 0.608615
O O5 0.707937 0.826076 0.268881
O O6 0.682796 0.962230 0.338061
O O7 0.000000 0.897062 0.250000
O O8 0.809251 0.983058 0.210845
O O9 0.458905 0.802792 0.541676
O O10 0.714273 0.899019 0.434034
O O11 0.497700 0.970276 0.549323
O O12 0.124031 0.270655 0.125516
O O13 0.250000 0.250000 0.000000
O O14 0.851491 0.843081 0.703085
O O15 0.134394 0.947649 0.622232
O O16 0.500000 0.735936 0.250000
#
# Coordination Sequence:
#
# PCOD8140469 Si02
#       7
#     8   8   8   8   8   8   8
#     4  12  26  43  69 106 144 174 232 292 345 419
#     4  10  25  44  71  97 135 179 232 286 349 415
#     4  11  23  39  69 104 135 180 224 283 343 404
#     4  12  25  46  71 100 138 184 232 281 352 418
#     4  11  23  48  67 100 139 185 227 287 353 418
#     4  12  26  45  72  98 137 184 236 285 350 422
#     4  10  20  41  70  97 135 175 226 273 346 410
#
# _framework density 20.943901
#
# number of rings (size 3 to 8) (size 9 to 14) (size 15 to 20)
#    0.000    0.857    4.286    2.571    6.000    0.000 
#    2.571    0.714    0.000    0.000    0.000    0.000 
#    0.000    0.000    0.000    0.000    0.000    0.000 
#
# Total GULP energy -346976.479298 kJ/mol
# GULP energy per Si atom -12392.017118 kJ/mol
# Density = 2.089623 g / cm^3
# Si number density = 20.943901 Si / 1000 Ang^3
#
#
#
# Elastic Constant Matrix: (Units=GPa)
#
#
# Indices 1 2 3 4 5 6 
#
# 1 85.5651 47.9112 29.4325 -0.0001 14.7636 0.0005
# 2 47.9112 147.9390 46.4723 -0.0001 -5.6183 0.0002
# 3 29.4325 46.4723 125.6494 0.0000 15.7992 0.0000
# 4 -0.0001 -0.0001 0.0000 37.3956 0.0001 -3.2866
# 5 14.7636 -5.6183 15.7992 0.0001 35.5663 -0.0002
# 6 0.0005 0.0002 0.0000 -3.2866 -0.0002 33.7564
#
#
#
# Elastic Compliance Matrix: (Units=1/GPa)
#
#
# Indices 1 2 3 4 5 6 
#
# 1 0.016155 -0.005197 -0.000970 0.000000 -0.007096 0.000000
# 2 -0.005197 0.009556 -0.002942 0.000000 0.004974 0.000000
# 3 -0.000970 -0.002942 0.009831 0.000000 -0.004429 0.000000
# 4 0.000000 0.000000 0.000000 0.026972 0.000000 0.002626
# 5 -0.007096 0.004974 -0.004429 0.000000 0.033815 0.000000
# 6 0.000000 0.000000 0.000000 0.002626 0.000000 0.029880
#
#
# Mechanical properties :
#
#
# Convention : Reuss Voigt Hill
#
# Bulk Modulus (GPa) = 57.72435 67.42063 62.57249
# Shear Modulus (GPa) = 33.28878 37.03281 35.16079
#
# Velocity S-wave (km/s) = 3.99109 4.20955 4.10177
# Velocity P-wave (km/s) = 6.98996 7.47583 7.23697
#
# Compressibility (1/GPa) = 0.01732371
#
# Stress axis : x y z
#
# Youngs Moduli (GPa) = 61.90122 104.64970 101.71872
#
# Poissons Ratio (x) = 0.54383 0.09866
# Poissons Ratio (y) = 0.32168 0.29929
# Poissons Ratio (z) = 0.06004 0.30792
#
# Static dielectric constant tensor:
#      x y z
#    x 4.483310 0.000000 0.061400 
#    y 0.000000 3.903030 0.000000 
#    z 0.061400 0.000000 4.470180 
# 
# 
# High freq. dielectric constant tensor:
#      x y z
#    x 1.816110 0.000000 0.009450 
#    y 0.000000 1.831470 0.000000 
#    z 0.009450 0.000000 1.834390 
# 
# From -- ./inp_files/264605.got.cif
#   From: 2010.06.25/outbox.cif.g09.slc.cpg/sg15_133_cif.got.tgz:264605.got - 2010.06.28 07:06:18.
