data_PCOD8140717
_publ_section_title
;
Structure prediction by ZEFSAII (Michael W. Deem and Ramdas Pophale) SiO2 
 PCOD8140717
Probable space group: C 2/C
;
_chemical_formula_sum "Si O2"
_cell_formula_units_Z 56
_cell_length_a 8.629293
_cell_length_b 20.734438
_cell_length_c 14.815741
_cell_angle_alpha 90.000000
_cell_angle_beta 88.198119
_cell_angle_gamma 90.000000
_cell_volume 2649.574051
_symmetry_space_group_name_H-M "C 2/C"
_symmetry_group_IT_number 15
_symmetry_cell_setting 'monoclinic'
loop_
_space_group_symop_operation_xyz
x,y,z
-x,y,1/2-z
-x,-y,-z
x,-y,1/2+z
1/2+x,1/2+y,z
1/2-x,1/2+y,1/2-z
1/2-x,1/2-y,-z
1/2+x,1/2-y,1/2+z
loop_
_atom_site_type_symbol
_atom_site_label
_atom_site_fract_x
_atom_site_fract_y
_atom_site_fract_z
Si Si1 0.000000 0.065254 0.750000
Si Si2 0.730826 0.028656 0.872649
Si Si3 0.348817 0.891879 0.550067
Si Si4 0.186223 0.647028 0.984499
Si Si5 0.277720 0.647838 0.635658
Si Si6 0.500000 0.094036 0.750000
Si Si7 0.217904 0.785608 0.671484
Si Si8 0.367561 0.727567 0.125888
O O1 0.874396 0.019025 0.800838
O O2 0.920471 0.110106 0.676451
O O3 0.776659 0.086829 0.939118
O O4 0.575569 0.047660 0.822411
O O5 0.690895 0.965383 0.928421
O O6 0.529376 0.880825 0.529710
O O7 0.245894 0.875275 0.465398
O O8 0.305117 0.849305 0.637378
O O9 0.150971 0.698950 0.906878
O O10 0.297363 0.677099 0.056947
O O11 0.313214 0.724092 0.631947
O O12 0.123976 0.640122 0.699654
O O13 0.222181 0.782893 0.779259
O O14 0.047208 0.787505 0.632984
#
# Coordination Sequence:
#
# PCOD8140717 Si02
#       8
#     4   8   8   8   8   4   8   8
#     4  10  26  42  70  94 128 176 234 272 330 400
#     4  11  24  45  64  99 132 176 221 273 330 400
#     4  12  26  40  67  97 138 172 216 271 340 398
#     4  11  23  42  70 101 126 173 223 278 327 392
#     4  11  22  42  68  97 125 177 221 278 328 399
#     4  10  20  42  72  90 128 172 222 268 332 394
#     4  11  23  43  63  96 135 173 212 272 335 393
#     4  10  23  42  69  95 133 169 220 276 331 386
#
# _framework density 21.135473000000001
#
# number of rings (size 3 to 8) (size 9 to 14) (size 15 to 20)
#    0.000    1.143    2.857    3.429    2.000    5.714 
#    2.571    0.000    0.000    0.000    0.000    0.000 
#    0.000    0.000    0.000    0.000    0.000    0.000 
#
# Total GULP energy -347359.405455 kJ/mol
# GULP energy per Si atom -12405.693052 kJ/mol
# Density = 2.108737 g / cm^3
# Si number density = 21.135473 Si / 1000 Ang^3
#
#
#
# Elastic Constant Matrix: (Units=GPa)
#
#
# Indices 1 2 3 4 5 6 
#
# 1 52.2624 10.0381 20.8595 0.0000 -5.9855 0.0000
# 2 10.0381 124.1351 58.6129 0.0000 -10.5848 0.0000
# 3 20.8595 58.6129 103.7680 0.0000 -4.0727 0.0000
# 4 0.0000 0.0000 0.0000 25.3538 0.0000 -14.1922
# 5 -5.9855 -10.5848 -4.0727 0.0000 31.0285 0.0000
# 6 0.0000 0.0000 0.0000 -14.1922 0.0000 21.3494
#
#
#
# Elastic Compliance Matrix: (Units=1/GPa)
#
#
# Indices 1 2 3 4 5 6 
#
# 1 0.021234 0.000749 -0.004544 0.000000 0.003755 0.000000
# 2 0.000749 0.011287 -0.006402 0.000000 0.003154 0.000000
# 3 -0.004544 -0.006402 0.014119 0.000000 -0.001207 0.000000
# 4 0.000000 0.000000 0.000000 0.062817 0.000000 0.041758
# 5 0.003755 0.003154 -0.001207 0.000000 0.033870 0.000000
# 6 0.000000 0.000000 0.000000 0.041758 0.000000 0.074599
#
#
# Mechanical properties :
#
#
# Convention : Reuss Voigt Hill
#
# Bulk Modulus (GPa) = 38.10193 51.02074 44.56133
# Shear Modulus (GPa) = 20.23723 28.25668 24.24695
#
# Velocity S-wave (km/s) = 3.09771 3.66037 3.39073
# Velocity P-wave (km/s) = 5.55527 6.48511 6.03812
#
# Compressibility (1/GPa) = 0.02624539
#
# Stress axis : x y z
#
# Youngs Moduli (GPa) = 47.09400 88.59693 70.82583
#
# Poissons Ratio (x) = -0.06633 0.32183
# Poissons Ratio (y) = -0.03526 0.45344
# Poissons Ratio (z) = 0.21399 0.56721
#
# Static dielectric constant tensor:
#      x y z
#    x 3.818550 0.000000 0.009630 
#    y 0.000000 3.722110 0.000000 
#    z 0.009630 0.000000 4.012600 
# 
# 
# High freq. dielectric constant tensor:
#      x y z
#    x 1.828170 0.000000 -0.000550 
#    y 0.000000 1.824030 0.000000 
#    z -0.000550 0.000000 1.844810 
# 
# From -- ./inp_files/136488.got.cif
#   From: 2010.06.25/outbox.cif.g09.slc.cpg/sg15_69_cif.got.tgz:136488.got - 2010.06.28 07:06:18.
