data_PCOD8140751
_publ_section_title
;
Structure prediction by ZEFSAII (Michael W. Deem and Ramdas Pophale) SiO2 
 PCOD8140751
Probable space group: C 2/C
;
_chemical_formula_sum "Si O2"
_cell_formula_units_Z 56
_cell_length_a 19.948760
_cell_length_b 8.866086
_cell_length_c 29.472631
_cell_angle_alpha 90.000000
_cell_angle_beta 148.326224
_cell_angle_gamma 90.000000
_cell_volume 2737.121239
_symmetry_space_group_name_H-M "C 2/C"
_symmetry_group_IT_number 15
_symmetry_cell_setting 'monoclinic'
loop_
_space_group_symop_operation_xyz
x,y,z
-x,y,1/2-z
-x,-y,-z
x,-y,1/2+z
1/2+x,1/2+y,z
1/2-x,1/2+y,1/2-z
1/2-x,1/2-y,-z
1/2+x,1/2-y,1/2+z
loop_
_atom_site_type_symbol
_atom_site_label
_atom_site_fract_x
_atom_site_fract_y
_atom_site_fract_z
Si Si1 0.141273 0.101393 0.544951
Si Si2 0.416198 0.139719 0.063395
Si Si3 0.120528 0.873219 0.295306
Si Si4 0.624452 0.049727 0.043336
Si Si5 0.864170 0.951268 0.861431
Si Si6 0.837902 0.790061 0.277791
Si Si7 0.295578 0.128117 0.087858
O O1 0.151968 0.274548 0.564619
O O2 0.014400 0.075822 0.441778
O O3 0.151914 0.001462 0.596183
O O4 0.257671 0.040751 0.581546
O O5 0.564270 0.179511 0.140119
O O6 0.390363 0.100709 0.100718
O O7 0.331291 0.281235 0.999196
O O8 0.390472 0.992790 0.018044
O O9 0.085288 0.842226 0.222857
O O10 0.135969 0.718138 0.332302
O O11 0.000000 0.959180 0.250000
O O12 0.249124 0.969154 0.365861
O O13 0.500000 0.000000 0.000000
O O14 0.792390 0.793251 0.811398
O O15 0.806589 0.070965 0.792786
#
# Coordination Sequence:
#
# PCOD8140751 Si02
#       7
#     8   8   8   8   8   8   8
#     4  11  23  45  62  92 133 181 214 268 332 408
#     4  10  22  39  67  93 122 167 223 264 323 401
#     4  11  23  43  66  95 130 174 218 274 331 391
#     4  11  25  41  67  96 137 178 216 264 340 412
#     4  11  26  38  64  94 133 169 213 272 336 388
#     4  12  23  40  63  98 129 162 219 280 327 389
#     4  10  20  43  65  89 122 175 224 261 323 402
#
# _framework density 20.459453
#
# number of rings (size 3 to 8) (size 9 to 14) (size 15 to 20)
#    0.000    1.143    4.286    1.714   10.000    0.571 
#    0.000    2.143    0.000    0.000    0.000    0.000 
#    0.000    0.000    0.000    0.000    0.000    0.000 
#
# Total GULP energy -347178.148275 kJ/mol
# GULP energy per Si atom -12399.219581 kJ/mol
# Density = 2.041289 g / cm^3
# Si number density = 20.459453 Si / 1000 Ang^3
#
#
#
# Elastic Constant Matrix: (Units=GPa)
#
#
# Indices 1 2 3 4 5 6 
#
# 1 81.7999 26.8798 24.7358 0.0000 8.4189 0.0000
# 2 26.8798 89.1811 19.1343 0.0000 7.0177 0.0001
# 3 24.7358 19.1343 83.0358 0.0000 2.3406 0.0000
# 4 0.0000 0.0000 0.0000 33.6539 0.0000 1.9015
# 5 8.4189 7.0177 2.3406 0.0000 36.1815 0.0000
# 6 0.0000 0.0001 0.0000 1.9015 0.0000 31.3208
#
#
#
# Elastic Compliance Matrix: (Units=1/GPa)
#
#
# Indices 1 2 3 4 5 6 
#
# 1 0.014686 -0.003477 -0.003503 0.000000 -0.002516 0.000000
# 2 -0.003477 0.012783 -0.001866 0.000000 -0.001550 0.000000
# 3 -0.003503 -0.001866 0.013508 0.000000 0.000303 0.000000
# 4 0.000000 0.000000 0.000000 0.029816 0.000000 -0.001810
# 5 -0.002516 -0.001550 0.000303 0.000000 0.028505 0.000000
# 6 0.000000 0.000000 0.000000 -0.001810 0.000000 0.032038
#
#
# Mechanical properties :
#
#
# Convention : Reuss Voigt Hill
#
# Bulk Modulus (GPa) = 42.94544 43.94632 43.44588
# Shear Modulus (GPa) = 31.88992 32.44903 32.16948
#
# Velocity S-wave (km/s) = 3.95231 3.98680 3.96959
# Velocity P-wave (km/s) = 6.47022 6.53599 6.50319
#
# Compressibility (1/GPa) = 0.02328536
#
# Stress axis : x y z
#
# Youngs Moduli (GPa) = 68.09393 78.22608 74.03057
#
# Poissons Ratio (x) = 0.27198 0.25930
# Poissons Ratio (y) = 0.23675 0.13817
# Poissons Ratio (z) = 0.23851 0.14600
#
# Static dielectric constant tensor:
#      x y z
#    x 3.759130 0.000000 -0.017160 
#    y 0.000000 3.504190 0.000000 
#    z -0.017160 0.000000 3.793470 
# 
# 
# High freq. dielectric constant tensor:
#      x y z
#    x 1.804590 0.000000 -0.005640 
#    y 0.000000 1.777620 0.000000 
#    z -0.005640 0.000000 1.812270 
# 
# From -- ./inp_files/317561.got.cif
#   From: 2010.06.25/outbox.cif.g09.slc.cpg/sg15_159_cif.got.tgz:317561.got - 2010.06.28 07:06:18.
