data_PCOD8140809
_publ_section_title
;
Structure prediction by ZEFSAII (Michael W. Deem and Ramdas Pophale) SiO2 
 PCOD8140809
Probable space group: C 2/C
;
_chemical_formula_sum "Si O2"
_cell_formula_units_Z 60
_cell_length_a 21.115007
_cell_length_b 8.033639
_cell_length_c 15.521452
_cell_angle_alpha 90.000000
_cell_angle_beta 75.941620
_cell_angle_gamma 90.000000
_cell_volume 2554.050243
_symmetry_space_group_name_H-M "C 2/C"
_symmetry_group_IT_number 15
_symmetry_cell_setting 'monoclinic'
loop_
_space_group_symop_operation_xyz
x,y,z
-x,y,1/2-z
-x,-y,-z
x,-y,1/2+z
1/2+x,1/2+y,z
1/2-x,1/2+y,1/2-z
1/2-x,1/2-y,-z
1/2+x,1/2-y,1/2+z
loop_
_atom_site_type_symbol
_atom_site_label
_atom_site_fract_x
_atom_site_fract_y
_atom_site_fract_z
Si Si1 0.332242 0.411549 0.249389
Si Si2 0.969798 0.943315 0.138167
Si Si3 0.398553 0.074472 0.493413
Si Si4 0.519879 0.743488 0.031948
Si Si5 0.744055 0.401919 0.393482
Si Si6 0.865313 0.420848 0.816463
Si Si7 0.238553 0.473035 0.927397
Si Si8 0.000000 0.328204 0.750000
O O1 0.407223 0.471569 0.220837
O O2 0.300767 0.466022 0.169240
O O3 0.328724 0.213678 0.268164
O O4 0.294753 0.492898 0.340984
O O5 0.947671 0.871785 0.052646
O O6 0.013624 0.795172 0.164685
O O7 0.008732 0.118260 0.116724
O O8 0.431627 0.893800 0.461777
O O9 0.331285 0.059590 0.570971
O O10 0.448227 0.190020 0.528710
O O11 0.377779 0.150377 0.408492
O O12 0.819852 0.415337 0.335192
O O13 0.737612 0.516490 0.482231
O O14 0.722755 0.220747 0.427780
O O15 0.937969 0.449150 0.752753
#
# Coordination Sequence:
#
# PCOD8140809 Si02
#       8
#     8   8   8   8   8   8   8   4
#     4  11  23  41  66  97 132 172 221 277 339 400
#     4  10  22  41  65  95 131 173 217 283 332 403
#     4  10  21  41  65  96 132 173 221 278 342 407
#     4  10  21  40  68  96 128 176 226 272 338 411
#     4  10  22  42  64  94 129 176 221 270 341 392
#     4  10  22  41  65  90 133 172 216 274 334 403
#     4  10  23  42  63  95 131 169 220 282 329 402
#     4  10  20  44  62  94 136 176 218 272 346 398
#
# _framework density 23.492099
#
# number of rings (size 3 to 8) (size 9 to 14) (size 15 to 20)
#    0.000    1.867    1.333    1.600    0.000    6.400 
#   19.200    0.000    0.000    0.000    0.000    0.000 
#    0.000    0.000    0.000    0.000    0.000    0.000 
#
# Total GULP energy -371681.579128 kJ/mol
# GULP energy per Si atom -12389.385971 kJ/mol
# Density = 2.343863 g / cm^3
# Si number density = 23.492099 Si / 1000 Ang^3
#
#
#
# Elastic Constant Matrix: (Units=GPa)
#
#
# Indices 1 2 3 4 5 6 
#
# 1 80.8556 7.5771 39.3702 0.0000 -9.8576 0.0000
# 2 7.5771 33.8015 19.1437 0.0000 -11.1127 0.0000
# 3 39.3702 19.1437 112.2147 0.0000 -12.4291 0.0000
# 4 0.0000 0.0000 0.0000 36.8487 0.0000 -7.8931
# 5 -9.8576 -11.1127 -12.4291 0.0000 41.2363 0.0000
# 6 0.0000 0.0000 0.0000 -7.8931 0.0000 29.7332
#
#
#
# Elastic Compliance Matrix: (Units=1/GPa)
#
#
# Indices 1 2 3 4 5 6 
#
# 1 0.015088 0.000201 -0.005092 0.000000 0.002126 0.000000
# 2 0.000201 0.035082 -0.005176 0.000000 0.007942 0.000000
# 3 -0.005092 -0.005176 0.011682 0.000000 0.000909 0.000000
# 4 0.000000 0.000000 0.000000 0.028774 0.000000 0.007639
# 5 0.002126 0.007942 0.000909 0.000000 0.027173 0.000000
# 6 0.000000 0.000000 0.000000 0.007639 0.000000 0.035660
#
#
# Mechanical properties :
#
#
# Convention : Reuss Voigt Hill
#
# Bulk Modulus (GPa) = 23.97101 39.89486 31.93294
# Shear Modulus (GPa) = 26.66688 32.28235 29.47462
#
# Velocity S-wave (km/s) = 3.37284 3.71101 3.54596
# Velocity P-wave (km/s) = 5.03926 5.94822 5.51250
#
# Compressibility (1/GPa) = 0.04171705
#
# Stress axis : x y z
#
# Youngs Moduli (GPa) = 66.27958 28.50474 85.60377
#
# Poissons Ratio (x) = -0.00573 0.43591
# Poissons Ratio (y) = -0.01331 0.44306
# Poissons Ratio (z) = 0.33751 0.14753
#
# Static dielectric constant tensor:
#      x y z
#    x 4.259190 0.000000 0.033920 
#    y 0.000000 3.987310 0.000000 
#    z 0.033920 0.000000 4.480600 
# 
# 
# High freq. dielectric constant tensor:
#      x y z
#    x 1.932350 0.000000 -0.006730 
#    y 0.000000 1.898200 0.000000 
#    z -0.006730 0.000000 1.935190 
# 
# From -- ./inp_files/218232.got.cif
#   From: 2010.06.25/outbox.cif.g09.slc.cpg/sg15_110_cif.got.tgz:218232.got - 2010.06.28 07:06:18.
