data_PCOD8140605
_publ_section_title
;
Structure prediction by ZEFSAII (Michael W. Deem and Ramdas Pophale) SiO2 
 PCOD8140605
Probable space group: C 2/C
;
_chemical_formula_sum "Si O2"
_cell_formula_units_Z 48
_cell_length_a 8.441467
_cell_length_b 20.866738
_cell_length_c 13.185698
_cell_angle_alpha 90.000000
_cell_angle_beta 86.861551
_cell_angle_gamma 90.000000
_cell_volume 2319.122832
_symmetry_space_group_name_H-M "C 2/C"
_symmetry_group_IT_number 15
_symmetry_cell_setting 'monoclinic'
loop_
_space_group_symop_operation_xyz
x,y,z
-x,y,1/2-z
-x,-y,-z
x,-y,1/2+z
1/2+x,1/2+y,z
1/2-x,1/2+y,1/2-z
1/2-x,1/2-y,-z
1/2+x,1/2-y,1/2+z
loop_
_atom_site_type_symbol
_atom_site_label
_atom_site_fract_x
_atom_site_fract_y
_atom_site_fract_z
Si Si1 0.381034 0.297962 0.534931
Si Si2 0.902151 0.149981 0.651751
Si Si3 0.677234 0.912569 0.624181
Si Si4 0.832479 0.968549 0.027191
Si Si5 0.185959 0.757792 0.614508
Si Si6 0.679785 0.892920 0.851804
O O1 0.250000 0.250000 0.500000
O O2 0.485211 0.320470 0.437194
O O3 0.303726 0.359329 0.589222
O O4 0.493772 0.262814 0.614877
O O5 0.839716 0.080797 0.620060
O O6 0.749390 0.196484 0.675890
O O7 0.000000 0.141626 0.750000
O O8 0.693398 0.927668 0.743003
O O9 0.501304 0.888233 0.603699
O O10 0.705758 0.977345 0.560564
O O11 0.782873 0.932487 0.927124
O O12 0.000000 0.000000 0.000000
O O13 0.250000 0.750000 0.500000
O O14 0.255855 0.821280 0.663363
#
# Coordination Sequence:
#
# PCOD8140605 Si02
#       6
#     8   8   8   8   8   8
#     4  11  23  42  67  99 130 170 224 273 332 392
#     4  11  25  43  65  97 135 175 214 274 336 389
#     4  11  25  41  71  96 130 177 219 273 329 402
#     4  12  24  44  65  94 135 173 220 272 327 394
#     4  10  20  42  66  93 129 168 214 274 332 374
#     4  11  24  44  68  97 129 173 226 270 330 394
#
# _framework density 20.697481
#
# number of rings (size 3 to 8) (size 9 to 14) (size 15 to 20)
#    0.000    1.000    5.000    2.500    7.000    2.000 
#    0.000    0.000    0.000    0.000    0.000    0.000 
#    0.000    0.000    0.000    0.000    0.000    0.000 
#
# Total GULP energy -297663.544119 kJ/mol
# GULP energy per Si atom -12402.647672 kJ/mol
# Density = 2.065037 g / cm^3
# Si number density = 20.697481 Si / 1000 Ang^3
#
#
#
# Elastic Constant Matrix: (Units=GPa)
#
#
# Indices 1 2 3 4 5 6 
#
# 1 142.2912 66.0502 29.5839 0.0000 21.0498 0.0000
# 2 66.0502 138.4564 29.5652 0.0000 13.2124 0.0000
# 3 29.5839 29.5652 70.4184 0.0000 21.7226 0.0000
# 4 0.0000 0.0000 0.0000 20.5752 0.0000 7.4711
# 5 21.0498 13.2124 21.7226 0.0000 38.2251 0.0000
# 6 0.0000 0.0000 0.0000 7.4711 0.0000 41.6755
#
#
#
# Elastic Compliance Matrix: (Units=1/GPa)
#
#
# Indices 1 2 3 4 5 6 
#
# 1 0.009639 -0.004000 -0.001406 0.000000 -0.003127 0.000000
# 2 -0.004000 0.009627 -0.002443 0.000000 0.000263 0.000000
# 3 -0.001406 -0.002443 0.018574 0.000000 -0.008937 0.000000
# 4 0.000000 0.000000 0.000000 0.051986 0.000000 -0.009319
# 5 -0.003127 0.000263 -0.008937 0.000000 0.032870 0.000000
# 6 0.000000 0.000000 0.000000 -0.009319 0.000000 0.025666
#
#
# Mechanical properties :
#
#
# Convention : Reuss Voigt Hill
#
# Bulk Modulus (GPa) = 45.15990 66.84049 56.00020
# Shear Modulus (GPa) = 29.16466 35.15959 32.16212
#
# Velocity S-wave (km/s) = 3.75786 4.12605 3.94625
# Velocity P-wave (km/s) = 6.37927 7.42045 6.91947
#
# Compressibility (1/GPa) = 0.02214354
#
# Stress axis : x y z
#
# Youngs Moduli (GPa) = 103.74104 103.87334 53.83937
#
# Poissons Ratio (x) = 0.41548 0.07568
# Poissons Ratio (y) = 0.41495 0.13151
# Poissons Ratio (z) = 0.14583 0.25373
#
# Static dielectric constant tensor:
#      x y z
#    x 4.378890 0.000000 0.189500 
#    y 0.000000 4.503760 0.000000 
#    z 0.189500 0.000000 3.710580 
# 
# 
# High freq. dielectric constant tensor:
#      x y z
#    x 1.824220 0.000000 0.012200 
#    y 0.000000 1.816080 0.000000 
#    z 0.012200 0.000000 1.803850 
# 
# From -- ./inp_files/134860.got.cif
#   From: 2010.06.25/outbox.cif.g09.slc.cpg/sg15_68_cif.got.tgz:134860.got - 2010.06.28 07:06:18.
