data_PCOD8140008
_publ_section_title
;
Structure prediction by ZEFSAII (Michael W. Deem and Ramdas Pophale) SiO2 
 PCOD8140008
Probable space group: C 2/C
;
_chemical_formula_sum "Si O2"
_cell_formula_units_Z 60
_cell_length_a 8.556599
_cell_length_b 18.159954
_cell_length_c 21.404065
_cell_angle_alpha 90.000000
_cell_angle_beta 59.204671
_cell_angle_gamma 90.000000
_cell_volume 2856.973268
_symmetry_space_group_name_H-M "C 2/C"
_symmetry_group_IT_number 15
_symmetry_cell_setting 'monoclinic'
loop_
_space_group_symop_operation_xyz
x,y,z
-x,y,1/2-z
-x,-y,-z
x,-y,1/2+z
1/2+x,1/2+y,z
1/2-x,1/2+y,1/2-z
1/2-x,1/2-y,-z
1/2+x,1/2-y,1/2+z
loop_
_atom_site_type_symbol
_atom_site_label
_atom_site_fract_x
_atom_site_fract_y
_atom_site_fract_z
Si Si1 0.649160 0.103032 0.131885
Si Si2 0.745199 0.034035 0.929466
Si Si3 0.399171 0.544157 0.711416
Si Si4 0.263121 0.889571 0.743431
Si Si5 0.839216 0.171775 0.985973
Si Si6 0.752816 0.150715 0.639914
Si Si7 0.402302 0.042555 0.924865
Si Si8 0.500000 0.270702 0.750000
O O1 0.683743 0.108612 0.196531
O O2 0.438785 0.129007 0.163761
O O3 0.668031 0.018792 0.108039
O O4 0.804026 0.149196 0.064842
O O5 0.729580 0.113409 0.966077
O O6 0.618671 0.038801 0.893569
O O7 0.950758 0.016542 0.868748
O O8 0.689985 0.967977 0.987908
O O9 0.500000 0.584765 0.750000
O O10 0.303325 0.472062 0.760043
O O11 0.265176 0.599264 0.700304
O O12 0.116663 0.825220 0.768862
O O13 0.048704 0.175336 0.923555
O O14 0.750000 0.250000 0.000000
O O15 0.653221 0.116484 0.599731
O O16 0.634133 0.221666 0.680883
#
# Coordination Sequence:
#
# PCOD8140008 Si02
#       8
#     8   8   8   8   8   8   8   4
#     4  10  22  39  70  89 125 173 223 268 325 406
#     4   9  22  37  65  99 129 168 220 293 311 397
#     4  11  22  40  68  94 128 174 228 264 335 400
#     4  11  23  41  63  98 129 174 214 277 335 396
#     4  10  22  44  63  89 130 178 222 263 339 403
#     4  11  26  42  69  96 135 180 217 285 332 400
#     4  10  20  40  65 100 128 162 230 278 331 375
#     4  12  28  44  58 102 146 164 222 280 346 402
#
# _framework density 21.001246999999999
#
# number of rings (size 3 to 8) (size 9 to 14) (size 15 to 20)
#    0.000    1.600    2.000    1.600    5.600    2.667 
#    7.200    1.333    0.000    0.000    0.000    0.000 
#    0.000    0.000    0.000    0.000    0.000    0.000 
#
# Total GULP energy -371824.882753 kJ/mol
# GULP energy per Si atom -12394.162758 kJ/mol
# Density = 2.095345 g / cm^3
# Si number density = 21.001247 Si / 1000 Ang^3
#
#
#
# Elastic Constant Matrix: (Units=GPa)
#
#
# Indices 1 2 3 4 5 6 
#
# 1 85.7837 25.9227 27.3608 0.0000 5.8372 0.0000
# 2 25.9227 82.8511 28.3760 0.0000 2.0776 0.0000
# 3 27.3608 28.3760 86.3435 0.0000 -6.8590 0.0000
# 4 0.0000 0.0000 0.0000 50.5243 0.0000 6.0549
# 5 5.8372 2.0776 -6.8590 0.0000 35.7310 0.0000
# 6 0.0000 0.0000 0.0000 6.0549 0.0000 32.9153
#
#
#
# Elastic Compliance Matrix: (Units=1/GPa)
#
#
# Indices 1 2 3 4 5 6 
#
# 1 0.013926 -0.003042 -0.003635 0.000000 -0.002796 0.000000
# 2 -0.003042 0.014365 -0.003842 0.000000 -0.001076 0.000000
# 3 -0.003635 -0.003842 0.014279 0.000000 0.003558 0.000000
# 4 0.000000 0.000000 0.000000 0.020239 0.000000 -0.003723
# 5 -0.002796 -0.001076 0.003558 0.000000 0.029189 0.000000
# 6 0.000000 0.000000 0.000000 -0.003723 0.000000 0.031066
#
#
# Mechanical properties :
#
#
# Convention : Reuss Voigt Hill
#
# Bulk Modulus (GPa) = 46.44584 46.47748 46.46166
# Shear Modulus (GPa) = 33.05131 35.38870 34.22001
#
# Velocity S-wave (km/s) = 3.97139 4.10942 4.04100
# Velocity P-wave (km/s) = 6.57214 6.68546 6.62904
#
# Compressibility (1/GPa) = 0.02153045
#
# Stress axis : x y z
#
# Youngs Moduli (GPa) = 71.80682 69.61559 70.03277
#
# Poissons Ratio (x) = 0.21178 0.25459
# Poissons Ratio (y) = 0.21844 0.26908
# Poissons Ratio (z) = 0.26104 0.26748
#
# Static dielectric constant tensor:
#      x y z
#    x 4.028590 0.000000 -0.174000 
#    y 0.000000 5.372790 0.000000 
#    z -0.174000 0.000000 4.234340 
# 
# 
# High freq. dielectric constant tensor:
#      x y z
#    x 1.828990 0.000000 -0.006870 
#    y 0.000000 1.800850 0.000000 
#    z -0.006870 0.000000 1.838210 
# 
# From -- ./inp_files/233058.got.cif
#   From: 2010.06.25/outbox.cif.g09.slc.cpg/sg15_117_cif.got.tgz:233058.got - 2010.06.28 07:06:18.
