data_PCOD8140288
_publ_section_title
;
Structure prediction by ZEFSAII (Michael W. Deem and Ramdas Pophale) SiO2 
 PCOD8140288
Probable space group: C 2/C
;
_chemical_formula_sum "Si O2"
_cell_formula_units_Z 60
_cell_length_a 30.028629
_cell_length_b 19.170294
_cell_length_c 17.137353
_cell_angle_alpha 90.000000
_cell_angle_beta 162.511756
_cell_angle_gamma 90.000000
_cell_volume 2964.606836
_symmetry_space_group_name_H-M "C 2/C"
_symmetry_group_IT_number 15
_symmetry_cell_setting 'monoclinic'
loop_
_space_group_symop_operation_xyz
x,y,z
-x,y,1/2-z
-x,-y,-z
x,-y,1/2+z
1/2+x,1/2+y,z
1/2-x,1/2+y,1/2-z
1/2-x,1/2-y,-z
1/2+x,1/2-y,1/2+z
loop_
_atom_site_type_symbol
_atom_site_label
_atom_site_fract_x
_atom_site_fract_y
_atom_site_fract_z
Si Si1 0.110516 0.731769 0.503654
Si Si2 0.598799 0.249424 0.201677
Si Si3 0.168220 0.654055 0.177308
Si Si4 0.789855 0.031923 0.191242
Si Si5 0.659000 0.475997 0.544563
Si Si6 0.370245 0.372422 0.482595
Si Si7 0.549191 0.602698 0.548972
Si Si8 0.000000 0.397894 0.250000
O O1 0.183357 0.803158 0.595825
O O2 0.237788 0.675773 0.733132
O O3 0.000000 0.705078 0.250000
O O4 0.032850 0.741977 0.456884
O O5 0.750000 0.250000 0.500000
O O6 0.585604 0.189450 0.113020
O O7 0.600541 0.322520 0.161818
O O8 0.216489 0.575717 0.283791
O O9 0.067618 0.651417 0.930803
O O10 0.845078 0.036960 0.370948
O O11 0.882938 0.089196 0.299936
O O12 0.829113 0.955724 0.220175
O O13 0.616361 0.051238 0.900092
O O14 0.693237 0.557379 0.580786
O O15 0.500000 0.451721 0.250000
O O16 0.461172 0.399870 0.560863
O O17 0.500000 0.334425 0.750000
#
# Coordination Sequence:
#
# PCOD8140288 Si02
#       8
#     8   8   8   8   8   8   8   4
#     4  12  24  44  66  93 133 173 213 278 335 391
#     4  12  24  40  63  95 125 170 221 266 325 397
#     4  11  23  40  62  95 131 168 220 264 328 393
#     4   9  20  38  66  89 126 167 214 264 322 387
#     4   9  19  38  63  89 122 167 211 259 314 382
#     4  10  22  42  65  92 125 167 218 265 328 385
#     4  10  20  41  62  93 120 170 219 262 319 401
#     4  10  22  42  62 100 136 172 210 274 334 374
#
# _framework density 20.238769999999999
#
# number of rings (size 3 to 8) (size 9 to 14) (size 15 to 20)
#    0.000    1.600    2.667    2.000    2.800    1.067 
#   18.000    2.667    0.000    0.000    0.000    0.000 
#    0.000    0.000    0.000    0.000    0.000    0.000 
#
# Total GULP energy -371787.167778 kJ/mol
# GULP energy per Si atom -12392.905593 kJ/mol
# Density = 2.019271 g / cm^3
# Si number density = 20.238770 Si / 1000 Ang^3
#
#
#
# Elastic Constant Matrix: (Units=GPa)
#
#
# Indices 1 2 3 4 5 6 
#
# 1 75.0287 25.3573 21.8447 0.0000 14.6963 0.0000
# 2 25.3573 108.5578 45.8820 0.0000 -1.1187 0.0000
# 3 21.8447 45.8820 125.4273 0.0000 -7.0432 0.0000
# 4 0.0000 0.0000 0.0000 21.8212 0.0000 2.5348
# 5 14.6963 -1.1187 -7.0432 0.0000 37.2168 0.0000
# 6 0.0000 0.0000 0.0000 2.5348 0.0000 26.1299
#
#
#
# Elastic Compliance Matrix: (Units=1/GPa)
#
#
# Indices 1 2 3 4 5 6 
#
# 1 0.016317 -0.002978 -0.002142 0.000000 -0.006938 0.000000
# 2 -0.002978 0.011447 -0.003622 0.000000 0.000834 0.000000
# 3 -0.002142 -0.003622 0.009816 0.000000 0.002595 0.000000
# 4 0.000000 0.000000 0.000000 0.046349 0.000000 -0.004496
# 5 -0.006938 0.000834 0.002595 0.000000 0.030126 0.000000
# 6 0.000000 0.000000 0.000000 -0.004496 0.000000 0.038706
#
#
# Mechanical properties :
#
#
# Convention : Reuss Voigt Hill
#
# Bulk Modulus (GPa) = 49.75836 55.02020 52.38928
# Shear Modulus (GPa) = 28.25757 31.42891 29.84324
#
# Velocity S-wave (km/s) = 3.74064 3.94497 3.84416
# Velocity P-wave (km/s) = 6.57994 6.92784 6.75613
#
# Compressibility (1/GPa) = 0.02009712
#
# Stress axis : x y z
#
# Youngs Moduli (GPa) = 61.28456 87.36277 101.87016
#
# Poissons Ratio (x) = 0.26012 0.21823
# Poissons Ratio (y) = 0.18248 0.36895
# Poissons Ratio (z) = 0.13129 0.31641
#
# Static dielectric constant tensor:
#      x y z
#    x 4.642810 0.000000 -0.752530 
#    y 0.000000 6.815370 0.000000 
#    z -0.752530 0.000000 4.647330 
# 
# 
# High freq. dielectric constant tensor:
#      x y z
#    x 1.790380 0.000000 -0.005920 
#    y 0.000000 1.796640 0.000000 
#    z -0.005920 0.000000 1.783030 
# 
# From -- ./inp_files/179137.got.cif
#   From: 2010.06.25/outbox.cif.g09.slc.cpg/sg15_90_cif.got.tgz:179137.got - 2010.06.28 07:06:18.
