data_PCOD8140805
_publ_section_title
;
Structure prediction by ZEFSAII (Michael W. Deem and Ramdas Pophale) SiO2 
 PCOD8140805
Probable space group: C 2/C
;
_chemical_formula_sum "Si O2"
_cell_formula_units_Z 56
_cell_length_a 8.623914
_cell_length_b 30.993210
_cell_length_c 13.810884
_cell_angle_alpha 90.000000
_cell_angle_beta 47.240422
_cell_angle_gamma 90.000000
_cell_volume 2710.267594
_symmetry_space_group_name_H-M "C 2/C"
_symmetry_group_IT_number 15
_symmetry_cell_setting 'monoclinic'
loop_
_space_group_symop_operation_xyz
x,y,z
-x,y,1/2-z
-x,-y,-z
x,-y,1/2+z
1/2+x,1/2+y,z
1/2-x,1/2+y,1/2-z
1/2-x,1/2-y,-z
1/2+x,1/2-y,1/2+z
loop_
_atom_site_type_symbol
_atom_site_label
_atom_site_fract_x
_atom_site_fract_y
_atom_site_fract_z
Si Si1 0.080683 0.148187 0.416880
Si Si2 0.737441 0.540378 0.675790
Si Si3 0.000000 0.392740 0.750000
Si Si4 0.611241 0.946313 0.882338
Si Si5 0.000000 0.892333 0.750000
Si Si6 0.941777 0.757455 0.492411
Si Si7 0.272046 0.882169 0.303311
Si Si8 0.160094 0.711723 0.771946
O O1 0.307846 0.137007 0.367675
O O2 0.065392 0.139866 0.308678
O O3 0.049025 0.197843 0.454362
O O4 0.899799 0.118628 0.539328
O O5 0.500000 0.528499 0.750000
O O6 0.847387 0.496095 0.661601
O O7 0.718114 0.575974 0.765540
O O8 0.884316 0.559927 0.529081
O O9 0.895929 0.422666 0.715241
O O10 0.801701 0.923645 0.862131
O O11 0.750000 0.750000 0.500000
O O12 0.941365 0.722879 0.580430
O O13 0.150212 0.755251 0.336038
O O14 0.500000 0.889075 0.250000
O O15 0.257820 0.837426 0.248921
O O16 0.000000 0.713227 0.750000
#
# Coordination Sequence:
#
# PCOD8140805 Si02
#       8
#     8   8   4   8   4   8   8   8
#     4  10  23  40  65  93 123 167 208 258 317 377
#     4  11  22  38  61  88 123 160 209 252 320 365
#     4  10  22  40  58  88 126 156 214 246 314 370
#     4  10  22  39  59  90 121 163 203 262 306 377
#     4  10  20  44  62  88 128 156 212 258 310 382
#     4  11  24  41  65  97 132 167 213 269 325 386
#     4  10  22  41  62  92 120 161 212 256 314 376
#     4  10  23  43  64  93 130 167 220 261 322 390
#
# _framework density 20.662167
#
# number of rings (size 3 to 8) (size 9 to 14) (size 15 to 20)
#    0.000    1.714    0.714    2.571    4.000    3.429 
#    2.571    2.143    0.000    0.000    0.000    0.000 
#    0.000    0.000    0.000    0.000    0.000    0.000 
#
# Total GULP energy -347094.433223 kJ/mol
# GULP energy per Si atom -12396.229758 kJ/mol
# Density = 2.061514 g / cm^3
# Si number density = 20.662167 Si / 1000 Ang^3
#
#
#
# Elastic Constant Matrix: (Units=GPa)
#
#
# Indices 1 2 3 4 5 6 
#
# 1 87.0446 16.9641 25.0953 0.0000 -7.9992 0.0000
# 2 16.9641 66.9415 18.3981 0.0000 13.2847 0.0000
# 3 25.0953 18.3981 87.1923 0.0000 -14.9372 0.0000
# 4 0.0000 0.0000 0.0000 47.7029 0.0000 -17.9990
# 5 -7.9992 13.2847 -14.9372 0.0000 43.2500 0.0000
# 6 0.0000 0.0000 0.0000 -17.9990 0.0000 64.4927
#
#
#
# Elastic Compliance Matrix: (Units=1/GPa)
#
#
# Indices 1 2 3 4 5 6 
#
# 1 0.013087 -0.003053 -0.002707 0.000000 0.002423 0.000000
# 2 -0.003053 0.018437 -0.004335 0.000000 -0.007725 0.000000
# 3 -0.002707 -0.004335 0.014142 0.000000 0.005715 0.000000
# 4 0.000000 0.000000 0.000000 0.023430 0.000000 0.006539
# 5 0.002423 -0.007725 0.005715 0.000000 0.027916 0.000000
# 6 0.000000 0.000000 0.000000 0.006539 0.000000 0.017331
#
#
# Mechanical properties :
#
#
# Convention : Reuss Voigt Hill
#
# Bulk Modulus (GPa) = 39.25490 40.23260 39.74375
# Shear Modulus (GPa) = 34.95921 43.13719 39.04820
#
# Velocity S-wave (km/s) = 4.11779 4.57413 4.35195
# Velocity P-wave (km/s) = 6.45352 6.88555 6.67303
#
# Compressibility (1/GPa) = 0.02547452
#
# Stress axis : x y z
#
# Youngs Moduli (GPa) = 76.41411 54.24008 70.71256
#
# Poissons Ratio (x) = 0.16561 0.19143
# Poissons Ratio (y) = 0.23331 0.30653
# Poissons Ratio (z) = 0.20686 0.23512
#
# Static dielectric constant tensor:
#      x y z
#    x 3.797620 0.000000 -0.393660 
#    y 0.000000 3.837300 0.000000 
#    z -0.393660 0.000000 4.136800 
# 
# 
# High freq. dielectric constant tensor:
#      x y z
#    x 1.808120 0.000000 -0.017940 
#    y 0.000000 1.814410 0.000000 
#    z -0.017940 0.000000 1.815950 
# 
# From -- ./inp_files/139486.got.cif
#   From: 2010.06.25/outbox.cif.g09.slc.cpg/sg15_70_cif.got.tgz:139486.got - 2010.06.28 07:06:18.
