data_PCOD8140977
_publ_section_title
;
Structure prediction by ZEFSAII (Michael W. Deem and Ramdas Pophale) SiO2 
 PCOD8140977
Probable space group: C 2/C
;
_chemical_formula_sum "Si O2"
_cell_formula_units_Z 56
_cell_length_a 8.959836
_cell_length_b 26.821834
_cell_length_c 16.073206
_cell_angle_alpha 90.000000
_cell_angle_beta 49.741427
_cell_angle_gamma 90.000000
_cell_volume 2947.765012
_symmetry_space_group_name_H-M "C 2/C"
_symmetry_group_IT_number 15
_symmetry_cell_setting 'monoclinic'
loop_
_space_group_symop_operation_xyz
x,y,z
-x,y,1/2-z
-x,-y,-z
x,-y,1/2+z
1/2+x,1/2+y,z
1/2-x,1/2+y,1/2-z
1/2-x,1/2-y,-z
1/2+x,1/2-y,1/2+z
loop_
_atom_site_type_symbol
_atom_site_label
_atom_site_fract_x
_atom_site_fract_y
_atom_site_fract_z
Si Si1 0.709714 0.309785 0.713021
Si Si2 0.299422 0.094356 0.273272
Si Si3 0.479702 0.632179 0.854568
Si Si4 0.153816 0.697381 0.766527
Si Si5 0.497124 0.951941 0.943866
Si Si6 0.895967 0.950069 0.510343
Si Si7 0.556250 0.844555 0.477208
O O1 0.500000 0.323409 0.750000
O O2 0.754407 0.348802 0.768452
O O3 0.700994 0.255633 0.757727
O O4 0.888399 0.312846 0.583125
O O5 0.500000 0.093541 0.250000
O O6 0.317706 0.058409 0.184612
O O7 0.121347 0.078413 0.395736
O O8 0.500000 0.616958 0.750000
O O9 0.643090 0.670413 0.825748
O O10 0.270079 0.659655 0.944495
O O11 0.509791 0.582926 0.900554
O O12 0.057556 0.676611 0.884485
O O13 0.000000 0.686144 0.750000
O O14 0.314984 0.961621 0.950097
O O15 0.484974 0.903901 0.008368
O O16 0.500000 0.000000 0.000000
O O17 0.000000 0.000000 0.500000
#
# Coordination Sequence:
#
# PCOD8140977 Si02
#       7
#     8   8   8   8   8   8   8
#     4  10  22  37  56  83 112 144 181 226 280 328
#     4   9  20  37  54  78 108 140 186 229 265 325
#     4   9  20  39  57  78 112 149 184 221 270 332
#     4  10  22  36  56  85 111 141 184 231 274 322
#     4   9  19  37  57  76 106 145 180 223 275 325
#     4  10  21  34  54  83 108 137 181 229 270 318
#     4   9  20  39  56  78 112 147 184 221 269 333
#
# _framework density 18.997444000000002
#
# number of rings (size 3 to 8) (size 9 to 14) (size 15 to 20)
#    0.000    2.571    0.000    0.857    0.000   13.714 
#    0.000    1.429    0.000    0.000    0.000    0.000 
#    0.000    0.000    0.000    0.000    0.000    0.000 
#
# Total GULP energy -346989.205083 kJ/mol
# GULP energy per Si atom -12392.471610 kJ/mol
# Density = 1.895421 g / cm^3
# Si number density = 18.997444 Si / 1000 Ang^3
#
#
#
# Elastic Constant Matrix: (Units=GPa)
#
#
# Indices 1 2 3 4 5 6 
#
# 1 69.6827 60.9760 56.7097 0.0000 9.6239 0.0000
# 2 60.9760 126.1677 72.3035 0.0000 21.3862 0.0000
# 3 56.7097 72.3035 132.1064 0.0000 6.2545 0.0000
# 4 0.0000 0.0000 0.0000 24.2105 0.0000 5.1754
# 5 9.6239 21.3862 6.2545 0.0000 28.2075 0.0000
# 6 0.0000 0.0000 0.0000 5.1754 0.0000 37.1636
#
#
#
# Elastic Compliance Matrix: (Units=1/GPa)
#
#
# Indices 1 2 3 4 5 6 
#
# 1 0.028599 -0.009709 -0.006922 0.000000 -0.000862 0.000000
# 2 -0.009709 0.016623 -0.004538 0.000000 -0.008285 0.000000
# 3 -0.006922 -0.004538 0.012886 0.000000 0.002945 0.000000
# 4 0.000000 0.000000 0.000000 0.042572 0.000000 -0.005929
# 5 -0.000862 -0.008285 0.002945 0.000000 0.041374 0.000000
# 6 0.000000 0.000000 0.000000 -0.005929 0.000000 0.027734
#
#
# Mechanical properties :
#
#
# Convention : Reuss Voigt Hill
#
# Bulk Modulus (GPa) = 63.41393 78.65947 71.03670
# Shear Modulus (GPa) = 23.00111 27.11416 25.05763
#
# Velocity S-wave (km/s) = 3.48335 3.78200 3.63574
# Velocity P-wave (km/s) = 7.04493 7.78245 7.42286
#
# Compressibility (1/GPa) = 0.01576941
#
# Stress axis : x y z
#
# Youngs Moduli (GPa) = 34.96644 60.15755 77.60647
#
# Poissons Ratio (x) = 0.58405 0.53721
# Poissons Ratio (y) = 0.33948 0.35219
# Poissons Ratio (z) = 0.24205 0.27300
#
# Static dielectric constant tensor:
#      x y z
#    x 3.448220 0.000000 0.067490 
#    y 0.000000 3.436170 0.000000 
#    z 0.067490 0.000000 3.912770 
# 
# 
# High freq. dielectric constant tensor:
#      x y z
#    x 1.734100 0.000000 0.001210 
#    y 0.000000 1.736300 0.000000 
#    z 0.001210 0.000000 1.749670 
# 
# From -- ./inp_files/193186.got.cif
#   From: 2010.06.25/outbox.cif.g09.slc.cpg/sg15_97_cif.got.tgz:193186.got - 2010.06.28 07:06:18.
