data_PCOD8140688
_publ_section_title
;
Structure prediction by ZEFSAII (Michael W. Deem and Ramdas Pophale) SiO2 
 PCOD8140688
Probable space group: C 2/C
;
_chemical_formula_sum "Si O2"
_cell_formula_units_Z 56
_cell_length_a 17.322471
_cell_length_b 26.784918
_cell_length_c 7.873256
_cell_angle_alpha 90.000000
_cell_angle_beta 44.424158
_cell_angle_gamma 90.000000
_cell_volume 2556.999056
_symmetry_space_group_name_H-M "C 2/C"
_symmetry_group_IT_number 15
_symmetry_cell_setting 'monoclinic'
loop_
_space_group_symop_operation_xyz
x,y,z
-x,y,1/2-z
-x,-y,-z
x,-y,1/2+z
1/2+x,1/2+y,z
1/2-x,1/2+y,1/2-z
1/2-x,1/2-y,-z
1/2+x,1/2-y,1/2+z
loop_
_atom_site_type_symbol
_atom_site_label
_atom_site_fract_x
_atom_site_fract_y
_atom_site_fract_z
Si Si1 0.910587 0.457313 0.175361
Si Si2 0.790161 0.686811 0.097627
Si Si3 0.347542 0.664542 0.870628
Si Si4 0.500000 0.254604 0.250000
Si Si5 0.215116 0.294054 0.274298
Si Si6 0.390483 0.446729 0.327607
Si Si7 0.000000 0.372887 0.250000
Si Si8 0.749225 0.999788 0.803885
O O1 0.832679 0.468831 0.454181
O O2 0.825267 0.454159 0.151822
O O3 0.968416 0.405430 0.132617
O O4 0.000000 0.500000 0.000000
O O5 0.698120 0.662735 0.364299
O O6 0.792701 0.745555 0.134732
O O7 0.771207 0.676203 0.925504
O O8 0.905032 0.662676 0.969601
O O9 0.436589 0.709180 0.716127
O O10 0.255430 0.673202 0.870669
O O11 0.403410 0.610941 0.754171
O O12 0.412927 0.220783 0.491394
O O13 0.500000 0.465488 0.250000
O O14 0.283417 0.458540 0.610727
O O15 0.363415 0.478919 0.201814
#
# Coordination Sequence:
#
# PCOD8140688 Si02
#       8
#     8   8   8   4   8   8   4   8
#     4  11  21  41  60  95 132 172 207 262 328 386
#     4  10  24  42  63  95 137 170 221 273 319 397
#     4  11  23  43  67  98 132 170 222 275 324 398
#     4  10  20  42  70  91 130 173 216 266 340 384
#     4  10  24  44  66  96 132 178 214 271 340 389
#     4  11  23  44  68  95 126 174 222 275 330 391
#     4  12  24  36  66  95 130 171 220 258 326 396
#     4  10  23  40  67  87 133 169 211 271 327 387
#
# _framework density 21.900672
#
# number of rings (size 3 to 8) (size 9 to 14) (size 15 to 20)
#    0.000    1.429    2.143    3.000    8.000    0.000 
#    0.000    0.000    0.000    0.000    0.000    0.000 
#    0.000    0.000    0.000    0.000    0.000    0.000 
#
# Total GULP energy -346986.171637 kJ/mol
# GULP energy per Si atom -12392.363273 kJ/mol
# Density = 2.185082 g / cm^3
# Si number density = 21.900672 Si / 1000 Ang^3
#
#
#
# Elastic Constant Matrix: (Units=GPa)
#
#
# Indices 1 2 3 4 5 6 
#
# 1 142.5214 34.2495 35.8873 0.0000 -8.7992 0.0000
# 2 34.2495 59.9354 21.9346 0.0000 -5.4597 0.0000
# 3 35.8873 21.9346 63.2467 0.0000 -9.3423 0.0000
# 4 0.0000 0.0000 0.0000 20.2146 0.0000 -4.1812
# 5 -8.7992 -5.4597 -9.3423 0.0000 35.2692 0.0000
# 6 0.0000 0.0000 0.0000 -4.1812 0.0000 36.8565
#
#
#
# Elastic Compliance Matrix: (Units=1/GPa)
#
#
# Indices 1 2 3 4 5 6 
#
# 1 0.008859 -0.003663 -0.003657 0.000000 0.000675 0.000000
# 2 -0.003663 0.020678 -0.004949 0.000000 0.000976 0.000000
# 3 -0.003657 -0.004949 0.020143 0.000000 0.003657 0.000000
# 4 0.000000 0.000000 0.000000 0.050658 0.000000 0.005747
# 5 0.000675 0.000976 0.003657 0.000000 0.029641 0.000000
# 6 0.000000 0.000000 0.000000 0.005747 0.000000 0.027784
#
#
# Mechanical properties :
#
#
# Convention : Reuss Voigt Hill
#
# Bulk Modulus (GPa) = 39.77307 49.98293 44.87800
# Shear Modulus (GPa) = 26.22188 30.04353 28.13271
#
# Velocity S-wave (km/s) = 3.46397 3.70781 3.58796
# Velocity P-wave (km/s) = 5.84798 6.41892 6.14009
#
# Compressibility (1/GPa) = 0.02514264
#
# Stress axis : x y z
#
# Youngs Moduli (GPa) = 112.87755 48.36139 49.64611
#
# Poissons Ratio (x) = 0.17713 0.18155
# Poissons Ratio (y) = 0.41344 0.24569
# Poissons Ratio (z) = 0.41279 0.23933
#
# Static dielectric constant tensor:
#      x y z
#    x 4.276840 0.000000 0.017650 
#    y 0.000000 3.763340 0.000000 
#    z 0.017650 0.000000 3.877800 
# 
# 
# High freq. dielectric constant tensor:
#      x y z
#    x 1.869690 0.000000 -0.003690 
#    y 0.000000 1.846870 0.000000 
#    z -0.003690 0.000000 1.856780 
# 
# From -- ./inp_files/52331.got.cif
#   From: 2010.06.25/outbox.cif.g09.slc.cpg/sg15_27_cif.got.tgz:52331.got - 2010.06.28 07:06:18.
