data_PCOD8140955
_publ_section_title
;
Structure prediction by ZEFSAII (Michael W. Deem and Ramdas Pophale) SiO2 
 PCOD8140955
Probable space group: C 2/C
;
_chemical_formula_sum "Si O2"
_cell_formula_units_Z 48
_cell_length_a 5.284573
_cell_length_b 21.263487
_cell_length_c 22.602981
_cell_angle_alpha 90.000000
_cell_angle_beta 117.875006
_cell_angle_gamma 90.000000
_cell_volume 2245.160907
_symmetry_space_group_name_H-M "C 2/C"
_symmetry_group_IT_number 15
_symmetry_cell_setting 'monoclinic'
loop_
_space_group_symop_operation_xyz
x,y,z
-x,y,1/2-z
-x,-y,-z
x,-y,1/2+z
1/2+x,1/2+y,z
1/2-x,1/2+y,1/2-z
1/2-x,1/2-y,-z
1/2+x,1/2-y,1/2+z
loop_
_atom_site_type_symbol
_atom_site_label
_atom_site_fract_x
_atom_site_fract_y
_atom_site_fract_z
Si Si1 0.000000 0.289159 0.250000
Si Si2 0.069250 0.889204 0.189578
Si Si3 0.317980 0.000006 0.158986
Si Si4 0.772471 0.067622 0.073883
Si Si5 0.023033 0.432382 0.073900
Si Si6 0.500000 0.210869 0.250000
Si Si7 0.810904 0.389171 0.810430
O O1 0.214151 0.335061 0.310263
O O2 0.202787 0.250012 0.226393
O O3 0.000000 0.874777 0.250000
O O4 0.786229 0.886087 0.117878
O O5 0.208133 0.959834 0.203373
O O6 0.605273 0.040206 0.203345
O O7 0.111300 0.055515 0.112471
O O8 0.338710 0.944428 0.112544
O O9 0.685508 0.113966 0.117888
O O10 0.632528 0.000035 0.066419
O O11 0.669627 0.097165 0.999990
O O12 0.473125 0.164969 0.189733
O O13 0.500000 0.374767 0.750000
#
# Coordination Sequence:
#
# PCOD8140955 Si02
#       7
#     4   8   8   8   8   4   8
#     4  12  26  45  66  89 124 166 220 272 324 372
#     4  11  23  39  61  95 127 166 208 267 317 381
#     4  10  21  33  60  96 135 165 210 252 327 377
#     4   9  19  35  56  89 133 172 206 249 314 386
#     4   9  19  35  56  89 133 172 206 249 314 386
#     4  12  26  45  66  89 124 166 220 272 324 372
#     4  11  23  39  61  95 127 166 208 267 317 381
#
# _framework density 21.379314000000001
#
# number of rings (size 3 to 8) (size 9 to 14) (size 15 to 20)
#    0.000    1.667    1.667    2.500    0.000   17.333 
#    0.000    0.000    0.000    2.000    0.000    0.000 
#    0.000    0.000    0.000    0.000    0.000    0.000 
#
# Total GULP energy -297341.016801 kJ/mol
# GULP energy per Si atom -12389.209033 kJ/mol
# Density = 2.133065 g / cm^3
# Si number density = 21.379314 Si / 1000 Ang^3
#
#
#
# Elastic Constant Matrix: (Units=GPa)
#
#
# Indices 1 2 3 4 5 6 
#
# 1 123.5546 55.1225 41.1709 0.0000 0.0264 0.0000
# 2 55.1225 94.7443 56.1576 0.0000 -0.0016 0.0000
# 3 41.1709 56.1576 103.1591 0.0000 0.0204 0.0000
# 4 0.0000 0.0000 0.0000 0.3742 0.0000 0.0056
# 5 0.0264 -0.0016 0.0204 0.0000 18.4119 0.0000
# 6 0.0000 0.0000 0.0000 0.0056 0.0000 53.3318
#
#
#
# Elastic Compliance Matrix: (Units=1/GPa)
#
#
# Indices 1 2 3 4 5 6 
#
# 1 0.011056 -0.005635 -0.001345 0.000000 -0.000015 0.000000
# 2 -0.005635 0.018455 -0.007798 0.000000 0.000018 0.000000
# 3 -0.001345 -0.007798 0.014475 0.000000 -0.000015 0.000000
# 4 0.000000 0.000000 0.000000 2.672687 0.000000 -0.000280
# 5 -0.000015 0.000018 -0.000015 0.000000 0.054313 0.000000
# 6 0.000000 0.000000 0.000000 -0.000280 0.000000 0.018751
#
#
# Mechanical properties :
#
#
# Convention : Reuss Voigt Hill
#
# Bulk Modulus (GPa) = 69.29418 69.59557 69.44487
# Shear Modulus (GPa) = 1.77047 25.69070 13.73059
#
# Velocity S-wave (km/s) = 0.91100 3.47026 2.53699
# Velocity P-wave (km/s) = 5.79558 6.97713 6.41362
#
# Compressibility (1/GPa) = 0.01443123
#
# Stress axis : x y z
#
# Youngs Moduli (GPa) = 90.45054 54.18538 69.08348
#
# Poissons Ratio (x) = 0.30535 0.09289
# Poissons Ratio (y) = 0.50971 0.53868
# Poissons Ratio (z) = 0.12162 0.42251
#
# Static dielectric constant tensor:
#      x y z
#    x 4.403080 0.000000 -0.002070 
#    y 0.000000 3.740480 0.000000 
#    z -0.002070 0.000000 4.151270 
# 
# 
# High freq. dielectric constant tensor:
#      x y z
#    x 1.863430 0.000000 -0.000010 
#    y 0.000000 1.798320 0.000000 
#    z -0.000010 0.000000 1.814360 
# 
# From -- ./inp_files/261270.got.cif
#   From: 2010.06.25/outbox.cif.g09.slc.cpg/sg15_131_cif.got.tgz:261270.got - 2010.06.28 07:06:18.
