data_PCOD8140098
_publ_section_title
;
Structure prediction by ZEFSAII (Michael W. Deem and Ramdas Pophale) SiO2 
 PCOD8140098
Probable space group: C 2/C
;
_chemical_formula_sum "Si O2"
_cell_formula_units_Z 36
_cell_length_a 8.685188
_cell_length_b 14.469527
_cell_length_c 19.348560
_cell_angle_alpha 90.000000
_cell_angle_beta 138.216544
_cell_angle_gamma 90.000000
_cell_volume 1620.179837
_symmetry_space_group_name_H-M "C 2/C"
_symmetry_group_IT_number 15
_symmetry_cell_setting 'monoclinic'
loop_
_space_group_symop_operation_xyz
x,y,z
-x,y,1/2-z
-x,-y,-z
x,-y,1/2+z
1/2+x,1/2+y,z
1/2-x,1/2+y,1/2-z
1/2-x,1/2-y,-z
1/2+x,1/2-y,1/2+z
loop_
_atom_site_type_symbol
_atom_site_label
_atom_site_fract_x
_atom_site_fract_y
_atom_site_fract_z
Si Si1 0.371628 0.981874 0.103431
Si Si2 0.771363 0.660100 0.461000
Si Si3 0.294425 0.401648 0.313313
Si Si4 0.500000 0.731176 0.250000
Si Si5 0.295034 0.148454 0.988901
O O1 0.633166 0.942348 0.198638
O O2 0.233340 0.967269 0.128489
O O3 0.382943 0.088758 0.084439
O O4 0.234545 0.928182 0.997097
O O5 0.750000 0.750000 0.500000
O O6 0.569770 0.663959 0.336213
O O7 0.022636 0.649976 0.511346
O O8 0.217674 0.296610 0.305574
O O9 0.560105 0.396908 0.379646
O O10 0.250000 0.250000 0.000000
#
# Coordination Sequence:
#
# PCOD8140098 Si02
#       5
#     8   8   8   4   8
#     4  10  23  43  68  98 141 183 218 290 347 402
#     4  12  22  42  68  96 139 180 220 286 352 402
#     4  10  21  44  69  96 138 179 232 273 347 410
#     4  10  20  40  66  94 136 178 214 276 358 400
#     4  12  24  41  67 101 132 178 239 281 335 420
#
# _framework density 22.219753999999998
#
# number of rings (size 3 to 8) (size 9 to 14) (size 15 to 20)
#    0.000    1.333    6.667    1.333    0.000    2.667 
#    0.000    6.667    0.000    0.000    0.000    0.000 
#    0.000    0.000    0.000    0.000    0.000    0.000 
#
# Total GULP energy -223200.672477 kJ/mol
# GULP energy per Si atom -12400.037360 kJ/mol
# Density = 2.216918 g / cm^3
# Si number density = 22.219754 Si / 1000 Ang^3
#
#
#
# Elastic Constant Matrix: (Units=GPa)
#
#
# Indices 1 2 3 4 5 6 
#
# 1 105.3411 20.7122 29.0759 0.0001 9.5688 0.0000
# 2 20.7122 123.5977 51.7283 0.0000 -17.5290 0.0000
# 3 29.0759 51.7283 149.3800 0.0002 -10.3863 0.0002
# 4 0.0001 0.0000 0.0002 36.9903 0.0002 -11.9916
# 5 9.5688 -17.5290 -10.3863 0.0002 36.2651 0.0001
# 6 0.0000 0.0000 0.0002 -11.9916 0.0001 25.1240
#
#
#
# Elastic Compliance Matrix: (Units=1/GPa)
#
#
# Indices 1 2 3 4 5 6 
#
# 1 0.010684 -0.001619 -0.001805 0.000000 -0.004119 0.000000
# 2 -0.001619 0.010223 -0.002910 0.000000 0.004535 0.000000
# 3 -0.001805 -0.002910 0.008151 0.000000 0.001404 0.000000
# 4 0.000000 0.000000 0.000000 0.031983 0.000000 0.015265
# 5 -0.004119 0.004535 0.001404 0.000000 0.031256 0.000000
# 6 0.000000 0.000000 0.000000 0.015265 0.000000 0.047088
#
#
# Mechanical properties :
#
#
# Convention : Reuss Voigt Hill
#
# Bulk Modulus (GPa) = 61.01287 64.59462 62.80375
# Shear Modulus (GPa) = 31.74288 38.12939 34.93614
#
# Velocity S-wave (km/s) = 3.78377 4.14697 3.96953
# Velocity P-wave (km/s) = 6.82698 7.21552 7.02394
#
# Compressibility (1/GPa) = 0.01638998
#
# Stress axis : x y z
#
# Youngs Moduli (GPa) = 93.60077 97.81857 122.68531
#
# Poissons Ratio (x) = 0.15836 0.22148
# Poissons Ratio (y) = 0.15153 0.35697
# Poissons Ratio (z) = 0.16897 0.28462
#
# Static dielectric constant tensor:
#      x y z
#    x 3.918510 0.000000 0.149240 
#    y 0.000000 4.017700 0.000000 
#    z 0.149240 0.000000 4.178460 
# 
# 
# High freq. dielectric constant tensor:
#      x y z
#    x 1.860910 0.000000 0.008070 
#    y 0.000000 1.875460 0.000000 
#    z 0.008070 0.000000 1.881600 
# 
# From -- ./inp_files/189103.got.cif
#   From: 2010.06.25/outbox.cif.g09.slc.cpg/sg15_95_cif.got.tgz:189103.got - 2010.06.28 07:06:18.
