data_PCOD8140603
_publ_section_title
;
Structure prediction by ZEFSAII (Michael W. Deem and Ramdas Pophale) SiO2 
 PCOD8140603
Probable space group: C 2/C
;
_chemical_formula_sum "Si O2"
_cell_formula_units_Z 56
_cell_length_a 12.905361
_cell_length_b 13.017837
_cell_length_c 18.982304
_cell_angle_alpha 90.000000
_cell_angle_beta 61.739480
_cell_angle_gamma 90.000000
_cell_volume 2808.905313
_symmetry_space_group_name_H-M "C 2/C"
_symmetry_group_IT_number 15
_symmetry_cell_setting 'monoclinic'
loop_
_space_group_symop_operation_xyz
x,y,z
-x,y,1/2-z
-x,-y,-z
x,-y,1/2+z
1/2+x,1/2+y,z
1/2-x,1/2+y,1/2-z
1/2-x,1/2-y,-z
1/2+x,1/2-y,1/2+z
loop_
_atom_site_type_symbol
_atom_site_label
_atom_site_fract_x
_atom_site_fract_y
_atom_site_fract_z
Si Si1 0.089943 0.209999 0.972748
Si Si2 0.328301 0.707610 0.036174
Si Si3 0.812262 0.647248 0.671906
Si Si4 0.801606 0.985055 0.003267
Si Si5 0.373650 0.513762 0.318166
Si Si6 0.423419 0.861204 0.401122
Si Si7 0.310130 0.744039 0.317987
O O1 0.090744 0.257382 0.050043
O O2 0.965739 0.222572 0.973830
O O3 0.121215 0.091318 0.974262
O O4 0.185480 0.269179 0.896124
O O5 0.295278 0.768332 0.116859
O O6 0.301007 0.587267 0.050489
O O7 0.250000 0.750000 0.000000
O O8 0.724757 0.552492 0.690172
O O9 0.783888 0.710081 0.750673
O O10 0.943475 0.598393 0.633356
O O11 0.666178 0.947349 0.041191
O O12 0.857427 0.999937 0.907628
O O13 0.500000 0.472715 0.250000
O O14 0.366707 0.631733 0.295755
O O15 0.395175 0.824836 0.330863
#
# Coordination Sequence:
#
# PCOD8140603 Si02
#       7
#     8   8   8   8   8   8   8
#     4  10  21  39  68  93 120 166 213 257 309 371
#     4  11  24  40  60  91 130 167 208 253 313 378
#     4  11  26  40  62  93 128 167 201 260 326 371
#     4  11  21  41  67  94 121 165 215 262 302 375
#     4  12  25  40  64  94 129 165 209 261 320 373
#     4  10  20  42  66  93 119 160 218 258 304 370
#     4  11  22  42  66  94 125 161 209 267 315 368
#
# _framework density 19.936592999999998
#
# number of rings (size 3 to 8) (size 9 to 14) (size 15 to 20)
#    0.000    1.143    4.286    2.571    4.000    4.000 
#    0.000    0.000    0.000    0.000    0.000    0.000 
#    0.000    0.000    0.000    0.000    0.000    0.000 
#
# Total GULP energy -347226.207043 kJ/mol
# GULP energy per Si atom -12400.935966 kJ/mol
# Density = 1.989122 g / cm^3
# Si number density = 19.936593 Si / 1000 Ang^3
#
#
#
# Elastic Constant Matrix: (Units=GPa)
#
#
# Indices 1 2 3 4 5 6 
#
# 1 147.9698 39.6741 57.5786 0.0000 -12.0115 0.0000
# 2 39.6741 71.1234 31.3571 0.0000 -12.7701 0.0000
# 3 57.5786 31.3571 89.8598 0.0000 0.2157 0.0000
# 4 0.0000 0.0000 0.0000 23.7059 0.0000 3.2084
# 5 -12.0115 -12.7701 0.2157 0.0000 36.4190 0.0000
# 6 0.0000 0.0000 0.0000 3.2084 0.0000 31.1399
#
#
#
# Elastic Compliance Matrix: (Units=1/GPa)
#
#
# Indices 1 2 3 4 5 6 
#
# 1 0.009726 -0.002673 -0.005305 0.000000 0.002302 0.000000
# 2 -0.002673 0.018704 -0.004828 0.000000 0.005705 0.000000
# 3 -0.005305 -0.004828 0.016221 0.000000 -0.003538 0.000000
# 4 0.000000 0.000000 0.000000 0.042780 0.000000 -0.004408
# 5 0.002302 0.005705 -0.003538 0.000000 0.030239 0.000000
# 6 0.000000 0.000000 0.000000 -0.004408 0.000000 0.032567
#
#
# Mechanical properties :
#
#
# Convention : Reuss Voigt Hill
#
# Bulk Modulus (GPa) = 52.52263 62.90805 57.71534
# Shear Modulus (GPa) = 27.44318 30.27584 28.85951
#
# Velocity S-wave (km/s) = 3.71418 3.90116 3.80882
# Velocity P-wave (km/s) = 6.69295 7.20518 6.95378
#
# Compressibility (1/GPa) = 0.01903941
#
# Stress axis : x y z
#
# Youngs Moduli (GPa) = 102.81799 53.46416 61.65001
#
# Poissons Ratio (x) = 0.14293 0.32703
# Poissons Ratio (y) = 0.27486 0.29763
# Poissons Ratio (z) = 0.54541 0.25811
#
# Static dielectric constant tensor:
#      x y z
#    x 3.791880 0.000000 -0.175570 
#    y 0.000000 3.314950 0.000000 
#    z -0.175570 0.000000 3.531510 
# 
# 
# High freq. dielectric constant tensor:
#      x y z
#    x 1.789990 0.000000 -0.004980 
#    y 0.000000 1.772550 0.000000 
#    z -0.004980 0.000000 1.777740 
# 
# From -- ./inp_files/198230.got.cif
#   From: 2010.06.25/outbox.cif.g09.slc.cpg/sg15_100_cif.got.tgz:198230.got - 2010.06.28 07:06:18.
