data_PCOD8140064
_publ_section_title
;
Structure prediction by ZEFSAII (Michael W. Deem and Ramdas Pophale) SiO2 
 PCOD8140064
Probable space group: C 2/C
;
_chemical_formula_sum "Si O2"
_cell_formula_units_Z 48
_cell_length_a 22.191909
_cell_length_b 20.978170
_cell_length_c 15.993220
_cell_angle_alpha 90.000000
_cell_angle_beta 161.590580
_cell_angle_gamma 90.000000
_cell_volume 2351.349723
_symmetry_space_group_name_H-M "C 2/C"
_symmetry_group_IT_number 15
_symmetry_cell_setting 'monoclinic'
loop_
_space_group_symop_operation_xyz
x,y,z
-x,y,1/2-z
-x,-y,-z
x,-y,1/2+z
1/2+x,1/2+y,z
1/2-x,1/2+y,1/2-z
1/2-x,1/2-y,-z
1/2+x,1/2-y,1/2+z
loop_
_atom_site_type_symbol
_atom_site_label
_atom_site_fract_x
_atom_site_fract_y
_atom_site_fract_z
Si Si1 0.678664 0.983139 0.927473
Si Si2 0.498099 0.564329 0.547871
Si Si3 0.206614 0.902075 0.564854
Si Si4 0.701474 0.620044 0.470797
Si Si5 0.152496 0.816233 0.737963
Si Si6 0.956516 0.316000 0.996554
O O1 0.500000 0.998909 0.750000
O O2 0.652619 0.947147 0.804565
O O3 0.801582 0.932147 0.141093
O O4 0.783305 0.049723 0.048204
O O5 0.500000 0.500000 0.500000
O O6 0.328806 0.561796 0.393650
O O7 0.480909 0.625025 0.465504
O O8 0.324768 0.838709 0.745012
O O9 0.000000 0.886402 0.250000
O O10 0.500000 0.626786 0.250000
O O11 0.716395 0.672758 0.417438
O O12 0.869253 0.634686 0.758057
O O13 0.031543 0.752567 0.568602
O O14 0.339566 0.810867 0.928135
#
# Coordination Sequence:
#
# PCOD8140064 Si02
#       6
#     8   8   8   8   8   8
#     4  11  23  39  62  95 127 163 211 266 319 371
#     4  10  20  40  66  87 122 166 210 258 315 369
#     4   9  22  44  64  92 126 166 212 264 317 373
#     4  12  24  39  63  92 131 169 210 259 315 382
#     4  11  23  41  63  92 129 168 210 258 313 379
#     4  11  24  42  64  93 126 171 209 257 319 381
#
# _framework density 20.413806999999998
#
# number of rings (size 3 to 8) (size 9 to 14) (size 15 to 20)
#    0.000    1.333    1.667    4.500    2.333    3.333 
#    0.000    8.333    0.000    0.000    0.000    0.000 
#    0.000    0.000    0.000    0.000    0.000    0.000 
#
# Total GULP energy -297527.598890 kJ/mol
# GULP energy per Si atom -12396.983287 kJ/mol
# Density = 2.036734 g / cm^3
# Si number density = 20.413807 Si / 1000 Ang^3
#
#
#
# Elastic Constant Matrix: (Units=GPa)
#
#
# Indices 1 2 3 4 5 6 
#
# 1 117.4519 43.7718 43.4676 0.0001 12.5346 0.0000
# 2 43.7718 112.1665 57.1826 0.0000 1.7073 0.0000
# 3 43.4676 57.1826 96.5954 0.0003 5.2724 0.0000
# 4 0.0001 0.0000 0.0003 25.3121 0.0002 -6.4846
# 5 12.5346 1.7073 5.2724 0.0002 33.5905 0.0000
# 6 0.0000 0.0000 0.0000 -6.4846 0.0000 26.2230
#
#
#
# Elastic Compliance Matrix: (Units=1/GPa)
#
#
# Indices 1 2 3 4 5 6 
#
# 1 0.011058 -0.002610 -0.003241 0.000000 -0.003485 0.000000
# 2 -0.002610 0.013395 -0.006829 0.000000 0.001365 0.000000
# 3 -0.003241 -0.006829 0.015905 0.000000 -0.000940 0.000000
# 4 0.000000 0.000000 0.000000 0.042179 0.000000 0.010430
# 5 -0.003485 0.001365 -0.000940 0.000000 0.031149 0.000000
# 6 0.000000 0.000000 0.000000 0.010430 0.000000 0.040714
#
#
# Mechanical properties :
#
#
# Convention : Reuss Voigt Hill
#
# Bulk Modulus (GPa) = 66.67867 68.33977 67.50922
# Shear Modulus (GPa) = 27.06227 29.14458 28.10342
#
# Velocity S-wave (km/s) = 3.64494 3.78258 3.71440
# Velocity P-wave (km/s) = 7.10272 7.25445 7.17899
#
# Compressibility (1/GPa) = 0.01499730
#
# Stress axis : x y z
#
# Youngs Moduli (GPa) = 90.43085 74.65612 62.87349
#
# Poissons Ratio (x) = 0.19486 0.20376
# Poissons Ratio (y) = 0.23604 0.42939
# Poissons Ratio (z) = 0.29306 0.50986
#
# Static dielectric constant tensor:
#      x y z
#    x 4.402630 0.000000 -0.271100 
#    y 0.000000 3.693970 0.000000 
#    z -0.271100 0.000000 3.917700 
# 
# 
# High freq. dielectric constant tensor:
#      x y z
#    x 1.813840 0.000000 -0.000720 
#    y 0.000000 1.792990 0.000000 
#    z -0.000720 0.000000 1.794010 
# 
# From -- ./inp_files/169720.got.cif
#   From: 2010.06.25/outbox.cif.g09.slc.cpg/sg15_85_cif.got.tgz:169720.got - 2010.06.28 07:06:18.
