data_PCOD8140586
_publ_section_title
;
Structure prediction by ZEFSAII (Michael W. Deem and Ramdas Pophale) SiO2 
 PCOD8140586
Probable space group: C 2/C
;
_chemical_formula_sum "Si O2"
_cell_formula_units_Z 56
_cell_length_a 8.997094
_cell_length_b 23.061726
_cell_length_c 15.909220
_cell_angle_alpha 90.000000
_cell_angle_beta 117.431993
_cell_angle_gamma 90.000000
_cell_volume 2929.812534
_symmetry_space_group_name_H-M "C 2/C"
_symmetry_group_IT_number 15
_symmetry_cell_setting 'monoclinic'
loop_
_space_group_symop_operation_xyz
x,y,z
-x,y,1/2-z
-x,-y,-z
x,-y,1/2+z
1/2+x,1/2+y,z
1/2-x,1/2+y,1/2-z
1/2-x,1/2-y,-z
1/2+x,1/2-y,1/2+z
loop_
_atom_site_type_symbol
_atom_site_label
_atom_site_fract_x
_atom_site_fract_y
_atom_site_fract_z
Si Si1 0.811168 0.053882 0.174905
Si Si2 0.192167 0.381627 0.796341
Si Si3 0.038095 0.789725 0.665259
Si Si4 0.463236 0.154673 0.836309
Si Si5 0.694654 0.370171 0.985647
Si Si6 0.416155 0.563018 0.492944
Si Si7 0.175039 0.076461 0.838638
O O1 0.692606 0.087603 0.206749
O O2 0.787193 0.076947 0.074844
O O3 0.000000 0.065934 0.250000
O O4 0.763284 0.986897 0.172061
O O5 0.298872 0.322829 0.826132
O O6 0.000000 0.363353 0.750000
O O7 0.266143 0.425446 0.886654
O O8 0.076767 0.722340 0.666660
O O9 0.000000 0.808087 0.750000
O O10 0.873767 0.810216 0.571607
O O11 0.500000 0.135799 0.750000
O O12 0.309497 0.121805 0.839178
O O13 0.626084 0.141080 0.930989
O O14 0.564467 0.390242 0.022824
O O15 0.500000 0.500000 0.500000
O O16 0.339924 0.574431 0.564622
O O17 0.000000 0.092854 0.750000
#
# Coordination Sequence:
#
# PCOD8140586 Si02
#       7
#     8   8   8   8   8   8   8
#     4  11  19  40  65  88 117 165 201 255 302 367
#     4  11  23  37  63  97 120 151 212 265 307 353
#     4  10  20  42  66  85 120 163 211 254 306 365
#     4  11  26  41  60  91 125 167 206 252 305 379
#     4  11  20  39  67  89 117 157 220 248 303 364
#     4  11  21  39  62  91 126 163 196 253 316 364
#     4  11  24  40  61  89 130 167 201 246 321 378
#
# _framework density 19.113849999999999
#
# number of rings (size 3 to 8) (size 9 to 14) (size 15 to 20)
#    0.000    1.143    5.714    2.143    2.000    2.857 
#    0.000    2.857    0.000    0.000    0.000    0.000 
#    0.000    0.000    0.000    0.000    0.000    0.000 
#
# Total GULP energy -347154.718566 kJ/mol
# GULP energy per Si atom -12398.382806 kJ/mol
# Density = 1.907035 g / cm^3
# Si number density = 19.113850 Si / 1000 Ang^3
#
#
#
# Elastic Constant Matrix: (Units=GPa)
#
#
# Indices 1 2 3 4 5 6 
#
# 1 119.5154 67.4068 66.6946 0.0000 3.7559 0.0000
# 2 67.4068 96.7560 44.8937 0.0000 -6.5643 0.0000
# 3 66.6946 44.8937 110.3779 0.0000 2.6471 0.0000
# 4 0.0000 0.0000 0.0000 17.0901 0.0000 2.9450
# 5 3.7559 -6.5643 2.6471 0.0000 26.7787 0.0000
# 6 0.0000 0.0000 0.0000 2.9450 0.0000 30.3702
#
#
#
# Elastic Compliance Matrix: (Units=1/GPa)
#
#
# Indices 1 2 3 4 5 6 
#
# 1 0.017506 -0.009382 -0.006664 0.000000 -0.004096 0.000000
# 2 -0.009382 0.018132 -0.001849 0.000000 0.005943 0.000000
# 3 -0.006664 -0.001849 0.013859 0.000000 -0.000889 0.000000
# 4 0.000000 0.000000 0.000000 0.059508 0.000000 -0.005771
# 5 -0.004096 0.005943 -0.000889 0.000000 0.039462 0.000000
# 6 0.000000 0.000000 0.000000 -0.005771 0.000000 0.033487
#
#
# Mechanical properties :
#
#
# Convention : Reuss Voigt Hill
#
# Bulk Modulus (GPa) = 72.94240 76.07106 74.50673
# Shear Modulus (GPa) = 22.49094 24.69141 23.59118
#
# Velocity S-wave (km/s) = 3.43400 3.59807 3.51699
# Velocity P-wave (km/s) = 7.34630 7.55955 7.45369
#
# Compressibility (1/GPa) = 0.01370945
#
# Stress axis : x y z
#
# Youngs Moduli (GPa) = 57.12407 55.15048 72.15347
#
# Poissons Ratio (x) = 0.51741 0.48080
# Poissons Ratio (y) = 0.53593 0.13338
# Poissons Ratio (z) = 0.38065 0.10195
#
# Static dielectric constant tensor:
#      x y z
#    x 3.497690 0.000000 -0.138600 
#    y 0.000000 3.691780 0.000000 
#    z -0.138600 0.000000 3.630930 
# 
# 
# High freq. dielectric constant tensor:
#      x y z
#    x 1.741890 0.000000 -0.005000 
#    y 0.000000 1.746260 0.000000 
#    z -0.005000 0.000000 1.753460 
# 
# From -- ./inp_files/137983.got.cif
#   From: 2010.06.25/outbox.cif.g09.slc.cpg/sg15_69_cif.got.tgz:137983.got - 2010.06.28 07:06:18.
