data_PCOD8140880
_publ_section_title
;
Structure prediction by ZEFSAII (Michael W. Deem and Ramdas Pophale) SiO2 
 PCOD8140880
Probable space group: C 2/C
;
_chemical_formula_sum "Si O2"
_cell_formula_units_Z 56
_cell_length_a 9.092367
_cell_length_b 24.199306
_cell_length_c 11.259617
_cell_angle_alpha 90.000000
_cell_angle_beta 68.471550
_cell_angle_gamma 90.000000
_cell_volume 2304.604369
_symmetry_space_group_name_H-M "C 2/C"
_symmetry_group_IT_number 15
_symmetry_cell_setting 'monoclinic'
loop_
_space_group_symop_operation_xyz
x,y,z
-x,y,1/2-z
-x,-y,-z
x,-y,1/2+z
1/2+x,1/2+y,z
1/2-x,1/2+y,1/2-z
1/2-x,1/2-y,-z
1/2+x,1/2-y,1/2+z
loop_
_atom_site_type_symbol
_atom_site_label
_atom_site_fract_x
_atom_site_fract_y
_atom_site_fract_z
Si Si1 0.636758 0.498007 0.615487
Si Si2 0.324698 0.334654 0.756788
Si Si3 0.546556 0.411742 0.962027
Si Si4 0.394916 0.950274 0.173651
Si Si5 0.413127 0.153537 0.960869
Si Si6 0.207046 0.728837 0.883775
Si Si7 0.310828 0.357202 0.182600
O O1 0.500000 0.512209 0.750000
O O2 0.601049 0.437640 0.570212
O O3 0.636969 0.542151 0.509230
O O4 0.816225 0.500808 0.616667
O O5 0.500000 0.324972 0.750000
O O6 0.324114 0.385703 0.664183
O O7 0.268211 0.279199 0.712037
O O8 0.207468 0.350079 0.895992
O O9 0.478259 0.362557 0.065474
O O10 0.500000 0.975740 0.250000
O O11 0.496820 0.905277 0.070983
O O12 0.238486 0.919517 0.268807
O O13 0.530485 0.204795 0.943898
O O14 0.324279 0.167230 0.863954
O O15 0.323005 0.681099 0.796179
O O16 0.250000 0.750000 0.000000
#
# Coordination Sequence:
#
# PCOD8140880 Si02
#       7
#     8   8   8   8   8   8   8
#     4  11  23  43  74 107 147 191 259 308 372 452
#     4  12  25  43  72 100 145 194 240 304 368 443
#     4  11  25  41  73 109 143 195 251 308 376 438
#     4   9  20  43  74 102 140 199 238 303 379 438
#     4  10  23  45  68 104 149 189 245 298 372 456
#     4  11  27  44  67 106 142 186 249 299 376 445
#     4  10  20  45  73 100 142 192 236 300 367 453
#
# _framework density 24.299181999999998
#
# number of rings (size 3 to 8) (size 9 to 14) (size 15 to 20)
#    0.000    1.429    2.857    2.571    6.000    1.714 
#    0.000    2.857    0.000    0.000    0.000    0.000 
#    0.000    0.000    0.000    0.000    0.000    0.000 
#
# Total GULP energy -347173.365571 kJ/mol
# GULP energy per Si atom -12399.048770 kJ/mol
# Density = 2.424388 g / cm^3
# Si number density = 24.299182 Si / 1000 Ang^3
#
#
#
# Elastic Constant Matrix: (Units=GPa)
#
#
# Indices 1 2 3 4 5 6 
#
# 1 92.0061 29.1362 33.1679 0.0000 9.9511 0.0000
# 2 29.1362 79.4504 31.4199 0.0000 10.9112 0.0000
# 3 33.1679 31.4199 128.6813 0.0000 1.4252 0.0000
# 4 0.0000 0.0000 0.0000 29.1635 0.0000 9.4412
# 5 9.9511 10.9112 1.4252 0.0000 28.9375 0.0000
# 6 0.0000 0.0000 0.0000 9.4412 0.0000 37.6179
#
#
#
# Elastic Compliance Matrix: (Units=1/GPa)
#
#
# Indices 1 2 3 4 5 6 
#
# 1 0.013201 -0.003408 -0.002536 0.000000 -0.003129 0.000000
# 2 -0.003408 0.015603 -0.002881 0.000000 -0.004569 0.000000
# 3 -0.002536 -0.002881 0.009111 0.000000 0.001509 0.000000
# 4 0.000000 0.000000 0.000000 0.037322 0.000000 -0.009367
# 5 -0.003129 -0.004569 0.001509 0.000000 0.037282 0.000000
# 6 0.000000 0.000000 0.000000 -0.009367 0.000000 0.028934
#
#
# Mechanical properties :
#
#
# Convention : Reuss Voigt Hill
#
# Bulk Modulus (GPa) = 49.34430 54.17620 51.76025
# Shear Modulus (GPa) = 30.14630 32.90469 31.52550
#
# Velocity S-wave (km/s) = 3.52608 3.68387 3.60584
# Velocity P-wave (km/s) = 6.07690 6.35912 6.21961
#
# Compressibility (1/GPa) = 0.02026576
#
# Stress axis : x y z
#
# Youngs Moduli (GPa) = 75.75308 64.08965 109.75325
#
# Poissons Ratio (x) = 0.21845 0.27829
# Poissons Ratio (y) = 0.25820 0.31616
# Poissons Ratio (z) = 0.19208 0.18462
#
# Static dielectric constant tensor:
#      x y z
#    x 4.452610 0.000000 0.240170 
#    y 0.000000 4.286180 0.000000 
#    z 0.240170 0.000000 4.730830 
# 
# 
# High freq. dielectric constant tensor:
#      x y z
#    x 1.951120 0.000000 0.005690 
#    y 0.000000 1.956290 0.000000 
#    z 0.005690 0.000000 1.981670 
# 
# From -- ./inp_files/81237.got.cif
#   From: 2010.06.25/outbox.cif.g09.slc.cpg/sg15_41_cif.got.tgz:81237.got - 2010.06.28 07:06:18.
