data_PCOD8140508
_publ_section_title
;
Structure prediction by ZEFSAII (Michael W. Deem and Ramdas Pophale) SiO2 
 PCOD8140508
Probable space group: C 2/C
;
_chemical_formula_sum "Si O2"
_cell_formula_units_Z 48
_cell_length_a 17.462973
_cell_length_b 10.462067
_cell_length_c 20.260497
_cell_angle_alpha 90.000000
_cell_angle_beta 140.403831
_cell_angle_gamma 90.000000
_cell_volume 2359.277764
_symmetry_space_group_name_H-M "C 2/C"
_symmetry_group_IT_number 15
_symmetry_cell_setting 'monoclinic'
loop_
_space_group_symop_operation_xyz
x,y,z
-x,y,1/2-z
-x,-y,-z
x,-y,1/2+z
1/2+x,1/2+y,z
1/2-x,1/2+y,1/2-z
1/2-x,1/2-y,-z
1/2+x,1/2-y,1/2+z
loop_
_atom_site_type_symbol
_atom_site_label
_atom_site_fract_x
_atom_site_fract_y
_atom_site_fract_z
Si Si1 0.929867 0.643811 0.636953
Si Si2 0.998177 0.988354 0.600397
Si Si3 0.069322 0.807044 0.053899
Si Si4 0.817428 0.922927 0.572957
Si Si5 0.737457 0.415905 0.813413
Si Si6 0.567621 0.094738 0.593620
O O1 0.890233 0.790968 0.609754
O O2 0.805775 0.565966 0.549990
O O3 0.000000 0.607653 0.750000
O O4 0.013144 0.604520 0.630606
O O5 0.109751 0.894735 0.693527
O O6 0.913864 0.916974 0.490359
O O7 0.912642 0.023331 0.605782
O O8 0.047661 0.124867 0.609129
O O9 0.186561 0.715894 0.136701
O O10 0.948302 0.730657 0.953159
O O11 0.788170 0.954454 0.628522
O O12 0.798229 0.536646 0.815590
O O13 0.500000 0.000000 0.500000
#
# Coordination Sequence:
#
# PCOD8140508 Si02
#       6
#     8   8   8   8   8   8
#     4  11  21  36  66  87 120 160 220 259 303 363
#     4  11  23  36  62  93 129 155 207 262 314 367
#     4  10  22  40  58  93 123 160 209 260 307 369
#     4  11  21  37  57  94 124 156 204 273 307 357
#     4  11  23  39  68  86 125 173 206 249 323 378
#     4  10  20  42  62  87 124 165 205 257 306 370
#
# _framework density 20.345209000000001
#
# number of rings (size 3 to 8) (size 9 to 14) (size 15 to 20)
#    0.000    1.333    5.000    2.500    2.333    2.667 
#    0.000    0.833    0.000    0.000    0.000    0.000 
#    0.000    0.000    0.000    0.000    0.000    0.000 
#
# Total GULP energy -297346.768239 kJ/mol
# GULP energy per Si atom -12389.448677 kJ/mol
# Density = 2.029890 g / cm^3
# Si number density = 20.345209 Si / 1000 Ang^3
#
#
#
# Elastic Constant Matrix: (Units=GPa)
#
#
# Indices 1 2 3 4 5 6 
#
# 1 183.6492 58.8052 64.8995 0.0000 1.1687 0.0000
# 2 58.8052 61.0628 29.8813 0.0000 -2.3774 0.0000
# 3 64.8995 29.8813 123.7597 0.0000 1.1339 0.0000
# 4 0.0000 0.0000 0.0000 21.4380 0.0000 -6.1352
# 5 1.1687 -2.3774 1.1339 0.0000 32.9080 0.0000
# 6 0.0000 0.0000 0.0000 -6.1352 0.0000 27.8159
#
#
#
# Elastic Compliance Matrix: (Units=1/GPa)
#
#
# Indices 1 2 3 4 5 6 
#
# 1 0.008708 -0.007011 -0.002867 0.000000 -0.000717 0.000000
# 2 -0.007011 0.024289 -0.002207 0.000000 0.002080 0.000000
# 3 -0.002867 -0.002207 0.010120 0.000000 -0.000406 0.000000
# 4 0.000000 0.000000 0.000000 0.049789 0.000000 0.010982
# 5 -0.000717 0.002080 -0.000406 0.000000 0.030577 0.000000
# 6 0.000000 0.000000 0.000000 0.010982 0.000000 0.038373
#
#
# Mechanical properties :
#
#
# Convention : Reuss Voigt Hill
#
# Bulk Modulus (GPa) = 52.77787 75.07152 63.92469
# Shear Modulus (GPa) = 25.99536 30.75810 28.37673
#
# Velocity S-wave (km/s) = 3.57839 3.89242 3.73870
# Velocity P-wave (km/s) = 6.56282 7.56176 7.07993
#
# Compressibility (1/GPa) = 0.01894733
#
# Stress axis : x y z
#
# Youngs Moduli (GPa) = 114.83965 41.17058 98.81137
#
# Poissons Ratio (x) = 0.28864 0.28330
# Poissons Ratio (y) = 0.80511 0.21809
# Poissons Ratio (z) = 0.32925 0.09087
#
# Static dielectric constant tensor:
#      x y z
#    x 4.200990 0.000000 0.280440 
#    y 0.000000 4.205040 0.000000 
#    z 0.280440 0.000000 3.965840 
# 
# 
# High freq. dielectric constant tensor:
#      x y z
#    x 1.802990 0.000000 0.002380 
#    y 0.000000 1.756200 0.000000 
#    z 0.002380 0.000000 1.806890 
# 
# From -- ./inp_files/248457.got.cif
#   From: 2010.06.25/outbox.cif.g09.slc.cpg/sg15_125_cif.got.tgz:248457.got - 2010.06.28 07:06:18.
