data_PCOD8140145
_publ_section_title
;
Structure prediction by ZEFSAII (Michael W. Deem and Ramdas Pophale) SiO2 
 PCOD8140145
Probable space group: C 2/C
;
_chemical_formula_sum "Si O2"
_cell_formula_units_Z 56
_cell_length_a 14.923222
_cell_length_b 10.132634
_cell_length_c 29.002915
_cell_angle_alpha 90.000000
_cell_angle_beta 29.918880
_cell_angle_gamma 90.000000
_cell_volume 2187.408342
_symmetry_space_group_name_H-M "C 2/C"
_symmetry_group_IT_number 15
_symmetry_cell_setting 'monoclinic'
loop_
_space_group_symop_operation_xyz
x,y,z
-x,y,1/2-z
-x,-y,-z
x,-y,1/2+z
1/2+x,1/2+y,z
1/2-x,1/2+y,1/2-z
1/2-x,1/2-y,-z
1/2+x,1/2-y,1/2+z
loop_
_atom_site_type_symbol
_atom_site_label
_atom_site_fract_x
_atom_site_fract_y
_atom_site_fract_z
Si Si1 0.409407 0.028807 0.242620
Si Si2 0.470971 0.538181 0.565244
Si Si3 0.631300 0.790842 0.933858
Si Si4 0.137913 0.013749 0.224347
Si Si5 0.971772 0.612868 0.591507
Si Si6 0.175972 0.605770 0.046036
Si Si7 0.539030 0.240590 0.653172
O O1 0.500000 0.070818 0.250000
O O2 0.514590 0.110975 0.156073
O O3 0.192301 0.051281 0.340815
O O4 0.418207 0.871746 0.230472
O O5 0.500000 0.500000 0.500000
O O6 0.428262 0.694702 0.580927
O O7 0.653802 0.519629 0.512470
O O8 0.714049 0.917398 0.873397
O O9 0.770085 0.723145 0.907558
O O10 0.470770 0.832534 0.039884
O O11 0.040047 0.114381 0.302206
O O12 0.000000 0.944769 0.250000
O O13 0.258877 0.910119 0.199264
O O14 0.050605 0.717019 0.593147
O O15 0.091948 0.476878 0.540799
O O16 0.250000 0.750000 0.000000
#
# Coordination Sequence:
#
# PCOD8140145 Si02
#       7
#     8   8   8   8   8   8   8
#     4  11  19  43  73 101 134 188 247 285 345 437
#     4  12  22  41  75 103 135 190 246 293 351 442
#     4  11  21  41  70  95 130 182 233 278 350 428
#     4  10  21  42  68  89 127 181 223 273 344 430
#     4  11  24  44  64 101 138 173 229 299 354 424
#     4  11  26  45  67 108 153 185 233 311 375 423
#     4  10  20  40  67  96 129 173 233 285 341 417
#
# _framework density 25.601074000000001
#
# number of rings (size 3 to 8) (size 9 to 14) (size 15 to 20)
#    0.000    1.143    4.286    3.000    0.000    0.000 
#   15.429    1.429    0.000    0.000    0.000    0.000 
#    0.000    0.000    0.000    0.000    0.000    0.000 
#
# Total GULP energy -346972.476804 kJ/mol
# GULP energy per Si atom -12391.874172 kJ/mol
# Density = 2.554280 g / cm^3
# Si number density = 25.601074 Si / 1000 Ang^3
#
#
#
# Elastic Constant Matrix: (Units=GPa)
#
#
# Indices 1 2 3 4 5 6 
#
# 1 80.4560 16.4749 19.4400 0.0000 -21.0333 0.0014
# 2 16.4749 40.7136 31.3442 0.0001 -3.8797 0.0008
# 3 19.4400 31.3442 128.5170 -0.0005 -10.5177 0.0012
# 4 0.0000 0.0001 -0.0005 36.5851 0.0000 4.6952
# 5 -21.0333 -3.8797 -10.5177 0.0000 53.1337 0.0002
# 6 0.0014 0.0008 0.0012 4.6952 0.0002 28.8202
#
#
#
# Elastic Compliance Matrix: (Units=1/GPa)
#
#
# Indices 1 2 3 4 5 6 
#
# 1 0.015047 -0.005122 -0.000579 0.000000 0.005468 -0.000001
# 2 -0.005122 0.032013 -0.007123 0.000000 -0.001100 0.000000
# 3 -0.000579 -0.007123 0.009702 0.000000 0.001171 0.000000
# 4 0.000000 0.000000 0.000000 0.027917 0.000000 -0.004548
# 5 0.005468 -0.001100 0.001171 0.000000 0.021136 0.000000
# 6 -0.000001 0.000000 0.000000 -0.004548 0.000000 0.035439
#
#
# Mechanical properties :
#
#
# Convention : Reuss Voigt Hill
#
# Bulk Modulus (GPa) = 32.13997 42.68942 37.41470
# Shear Modulus (GPa) = 28.20474 35.86963 32.03718
#
# Velocity S-wave (km/s) = 3.32279 3.74719 3.54135
# Velocity P-wave (km/s) = 5.22519 5.95256 5.60070
#
# Compressibility (1/GPa) = 0.03111390
#
# Stress axis : x y z
#
# Youngs Moduli (GPa) = 66.45661 31.23690 103.07353
#
# Poissons Ratio (x) = 0.15999 0.05973
# Poissons Ratio (y) = 0.34038 0.73420
# Poissons Ratio (z) = 0.03851 0.22250
#
# Static dielectric constant tensor:
#      x y z
#    x 5.405820 0.000000 -0.467550 
#    y 0.000000 5.067260 0.000000 
#    z -0.467550 0.000000 4.782270 
# 
# 
# High freq. dielectric constant tensor:
#      x y z
#    x 2.029390 0.000000 -0.009550 
#    y 0.000000 1.996910 0.000000 
#    z -0.009550 0.000000 2.027660 
# 
# From -- ./inp_files/313722.got.cif
#   From: 2010.06.25/outbox.cif.g09.slc.cpg/sg15_157_cif.got.tgz:313722.got - 2010.06.28 07:06:18.
