data_PCOD8140412
_publ_section_title
;
Structure prediction by ZEFSAII (Michael W. Deem and Ramdas Pophale) SiO2 
 PCOD8140412
Probable space group: C 2/C
;
_chemical_formula_sum "Si O2"
_cell_formula_units_Z 56
_cell_length_a 17.036194
_cell_length_b 11.393319
_cell_length_c 16.153392
_cell_angle_alpha 90.000000
_cell_angle_beta 127.233404
_cell_angle_gamma 90.000000
_cell_volume 2496.297578
_symmetry_space_group_name_H-M "C 2/C"
_symmetry_group_IT_number 15
_symmetry_cell_setting 'monoclinic'
loop_
_space_group_symop_operation_xyz
x,y,z
-x,y,1/2-z
-x,-y,-z
x,-y,1/2+z
1/2+x,1/2+y,z
1/2-x,1/2+y,1/2-z
1/2-x,1/2-y,-z
1/2+x,1/2-y,1/2+z
loop_
_atom_site_type_symbol
_atom_site_label
_atom_site_fract_x
_atom_site_fract_y
_atom_site_fract_z
Si Si1 0.951028 0.922435 0.041100
Si Si2 0.326388 0.240027 0.400117
Si Si3 0.874216 0.157802 0.753956
Si Si4 0.796916 0.505896 0.915388
Si Si5 0.754379 0.458402 0.070309
Si Si6 0.417546 0.092440 0.257124
Si Si7 0.023573 0.335300 0.988662
O O1 0.925274 0.787899 0.000641
O O2 0.025673 0.916742 0.167091
O O3 0.849700 0.978008 0.004308
O O4 0.000000 0.000000 0.000000
O O5 0.331702 0.310679 0.317878
O O6 0.268956 0.320792 0.429360
O O7 0.438294 0.199146 0.501978
O O8 0.269994 0.116349 0.352438
O O9 0.798337 0.084753 0.652803
O O10 0.891377 0.275019 0.710885
O O11 0.814919 0.478329 0.024092
O O12 0.892101 0.570790 0.934152
O O13 0.820266 0.510403 0.187761
O O14 0.500000 0.038156 0.250000
O O15 0.458338 0.102960 0.375561
#
# Coordination Sequence:
#
# PCOD8140412 Si02
#       7
#     8   8   8   8   8   8   8
#     4  10  20  41  67  94 127 173 217 269 336 392
#     4  10  24  45  60  93 136 175 218 271 322 406
#     4  10  25  39  67  91 129 166 224 271 320 392
#     4  12  25  40  67 101 126 176 223 269 333 398
#     4  12  23  41  71  92 137 173 211 281 343 386
#     4  10  21  40  64  96 129 163 217 279 330 388
#     4  10  22  41  66  95 128 173 222 272 322 400
#
# _framework density 22.433223999999999
#
# number of rings (size 3 to 8) (size 9 to 14) (size 15 to 20)
#    0.000    1.714    4.286    1.714    8.000    2.286 
#    0.000    0.000    0.000    0.000    0.000    0.000 
#    0.000    0.000    0.000    0.000    0.000    0.000 
#
# Total GULP energy -346905.998897 kJ/mol
# GULP energy per Si atom -12389.499961 kJ/mol
# Density = 2.238217 g / cm^3
# Si number density = 22.433224 Si / 1000 Ang^3
#
#
#
# Elastic Constant Matrix: (Units=GPa)
#
#
# Indices 1 2 3 4 5 6 
#
# 1 76.3544 32.6056 14.5819 0.0000 18.6809 0.0000
# 2 32.6056 140.4795 47.9541 0.0000 20.9375 0.0000
# 3 14.5819 47.9541 69.5868 0.0000 25.4421 0.0000
# 4 0.0000 0.0000 0.0000 24.6747 0.0000 0.4498
# 5 18.6809 20.9375 25.4421 0.0000 30.2921 0.0000
# 6 0.0000 0.0000 0.0000 0.4498 0.0000 27.7009
#
#
#
# Elastic Compliance Matrix: (Units=1/GPa)
#
#
# Indices 1 2 3 4 5 6 
#
# 1 0.016415 -0.003132 0.002350 0.000000 -0.009932 0.000000
# 2 -0.003132 0.009954 -0.006341 0.000000 0.000377 0.000000
# 3 0.002350 -0.006341 0.024787 0.000000 -0.017884 0.000000
# 4 0.000000 0.000000 0.000000 0.040539 0.000000 -0.000658
# 5 -0.009932 0.000377 -0.017884 0.000000 0.053897 0.000000
# 6 0.000000 0.000000 0.000000 -0.000658 0.000000 0.036111
#
#
# Mechanical properties :
#
#
# Convention : Reuss Voigt Hill
#
# Bulk Modulus (GPa) = 27.09325 52.96712 40.03019
# Shear Modulus (GPa) = 24.00931 29.28548 26.64740
#
# Velocity S-wave (km/s) = 3.27503 3.61702 3.45026
# Velocity P-wave (km/s) = 5.13854 6.41140 5.80993
#
# Compressibility (1/GPa) = 0.03690956
#
# Stress axis : x y z
#
# Youngs Moduli (GPa) = 60.91815 100.46482 40.34412
#
# Poissons Ratio (x) = 0.31464 -0.09480
# Poissons Ratio (y) = 0.19079 0.25582
# Poissons Ratio (z) = -0.14314 0.63705
#
# Static dielectric constant tensor:
#      x y z
#    x 4.177040 0.000000 0.203330 
#    y 0.000000 4.461970 0.000000 
#    z 0.203330 0.000000 3.712560 
# 
# 
# High freq. dielectric constant tensor:
#      x y z
#    x 1.886380 0.000000 0.015350 
#    y 0.000000 1.896710 0.000000 
#    z 0.015350 0.000000 1.850420 
# 
# From -- ./inp_files/210682.got.cif
#   From: 2010.06.25/outbox.cif.g09.slc.cpg/sg15_106_cif.got.tgz:210682.got - 2010.06.28 07:06:18.
