data_PCOD8140531
_publ_section_title
;
Structure prediction by ZEFSAII (Michael W. Deem and Ramdas Pophale) SiO2 
 PCOD8140531
Probable space group: C 2/C
;
_chemical_formula_sum "Si O2"
_cell_formula_units_Z 60
_cell_length_a 8.881126
_cell_length_b 11.864462
_cell_length_c 26.161000
_cell_angle_alpha 90.000000
_cell_angle_beta 96.163076
_cell_angle_gamma 90.000000
_cell_volume 2740.646824
_symmetry_space_group_name_H-M "C 2/C"
_symmetry_group_IT_number 15
_symmetry_cell_setting 'monoclinic'
loop_
_space_group_symop_operation_xyz
x,y,z
-x,y,1/2-z
-x,-y,-z
x,-y,1/2+z
1/2+x,1/2+y,z
1/2-x,1/2+y,1/2-z
1/2-x,1/2-y,-z
1/2+x,1/2-y,1/2+z
loop_
_atom_site_type_symbol
_atom_site_label
_atom_site_fract_x
_atom_site_fract_y
_atom_site_fract_z
Si Si1 0.319536 0.454815 0.429360
Si Si2 0.500060 0.246546 0.414121
Si Si3 0.652905 0.745154 0.174581
Si Si4 0.851848 0.205145 0.438060
Si Si5 0.500000 0.886890 0.250000
Si Si6 0.520304 0.695079 0.806423
Si Si7 0.220586 0.993498 0.187000
Si Si8 0.070881 0.379030 0.497728
O O1 0.464650 0.377009 0.425060
O O2 0.376405 0.573844 0.454521
O O3 0.236062 0.478597 0.371722
O O4 0.212319 0.386109 0.464876
O O5 0.674052 0.229044 0.435313
O O6 0.467775 0.224748 0.352161
O O7 0.390378 0.162446 0.442821
O O8 0.584079 0.728918 0.115964
O O9 0.527217 0.806201 0.202996
O O10 0.801204 0.825706 0.178638
O O11 0.690984 0.623172 0.199241
O O12 0.946879 0.285686 0.477863
O O13 0.357557 0.961444 0.229123
O O14 0.500000 0.754168 0.750000
O O15 0.428037 0.578310 0.803713
O O16 0.000000 0.500000 0.500000
#
# Coordination Sequence:
#
# PCOD8140531 Si02
#       8
#     8   8   8   8   4   8   8   8
#     4  10  22  43  63  87 126 165 205 263 306 370
#     4  10  22  40  66  92 119 166 213 243 313 375
#     4  10  23  39  62  88 122 163 204 254 309 366
#     4  10  22  44  61  88 129 165 203 255 317 368
#     4  12  22  34  60  94 116 156 212 250 304 374
#     4  10  20  42  64  85 125 164 198 256 304 358
#     4  10  23  39  61  88 122 162 207 252 313 365
#     4  12  23  40  66  94 129 164 202 264 313 370
#
# _framework density 21.892641999999999
#
# number of rings (size 3 to 8) (size 9 to 14) (size 15 to 20)
#    0.000    1.600    2.667    1.600    1.867    0.533 
#    2.400    0.000    5.867    0.000    0.000    0.000 
#    0.000    0.000    0.000    0.000    0.000    0.000 
#
# Total GULP energy -371831.990970 kJ/mol
# GULP energy per Si atom -12394.399699 kJ/mol
# Density = 2.184281 g / cm^3
# Si number density = 21.892642 Si / 1000 Ang^3
#
#
#
# Elastic Constant Matrix: (Units=GPa)
#
#
# Indices 1 2 3 4 5 6 
#
# 1 38.1340 29.6647 16.4669 0.0000 -6.2813 0.0000
# 2 29.6647 122.1012 42.2183 0.0000 3.4851 0.0000
# 3 16.4669 42.2183 123.2632 0.0000 -17.9581 0.0000
# 4 0.0000 0.0000 0.0000 28.1719 0.0000 3.3406
# 5 -6.2813 3.4851 -17.9581 0.0000 19.2191 0.0000
# 6 0.0000 0.0000 0.0000 3.3406 0.0000 23.5546
#
#
#
# Elastic Compliance Matrix: (Units=1/GPa)
#
#
# Indices 1 2 3 4 5 6 
#
# 1 0.035386 -0.009112 0.000370 0.000000 0.013563 0.000000
# 2 -0.009112 0.012146 -0.004280 0.000000 -0.009180 0.000000
# 3 0.000370 -0.004280 0.011182 0.000000 0.011345 0.000000
# 4 0.000000 0.000000 0.000000 0.036104 0.000000 -0.005120
# 5 0.013563 -0.009180 0.011345 0.000000 0.068730 0.000000
# 6 0.000000 0.000000 0.000000 -0.005120 0.000000 0.043181
#
#
# Mechanical properties :
#
#
# Convention : Reuss Voigt Hill
#
# Bulk Modulus (GPa) = 30.61015 51.13312 40.87164
# Shear Modulus (GPa) = 20.52020 27.19902 23.85961
#
# Velocity S-wave (km/s) = 3.06487 3.52857 3.30486
# Velocity P-wave (km/s) = 5.15140 6.32519 5.76823
#
# Compressibility (1/GPa) = 0.03266890
#
# Stress axis : x y z
#
# Youngs Moduli (GPa) = 28.25978 82.33439 89.42799
#
# Poissons Ratio (x) = 0.75023 -0.03305
# Poissons Ratio (y) = 0.25750 0.38275
# Poissons Ratio (z) = -0.01044 0.35239
#
# Static dielectric constant tensor:
#      x y z
#    x 3.742880 0.000000 -0.299560 
#    y 0.000000 3.904210 0.000000 
#    z -0.299560 0.000000 4.559880 
# 
# 
# High freq. dielectric constant tensor:
#      x y z
#    x 1.839800 0.000000 -0.017680 
#    y 0.000000 1.854710 0.000000 
#    z -0.017680 0.000000 1.883420 
# 
# From -- ./inp_files/288024.got.cif
#   From: 2010.06.25/outbox.cif.g09.slc.cpg/sg15_145_cif.got.tgz:288024.got - 2010.06.28 07:06:18.
