data_PCOD8140470
_publ_section_title
;
Structure prediction by ZEFSAII (Michael W. Deem and Ramdas Pophale) SiO2 
 PCOD8140470
Probable space group: C 2/C
;
_chemical_formula_sum "Si O2"
_cell_formula_units_Z 56
_cell_length_a 8.641699
_cell_length_b 17.368932
_cell_length_c 28.608359
_cell_angle_alpha 90.000000
_cell_angle_beta 39.336005
_cell_angle_gamma 90.000000
_cell_volume 2721.844827
_symmetry_space_group_name_H-M "C 2/C"
_symmetry_group_IT_number 15
_symmetry_cell_setting 'monoclinic'
loop_
_space_group_symop_operation_xyz
x,y,z
-x,y,1/2-z
-x,-y,-z
x,-y,1/2+z
1/2+x,1/2+y,z
1/2-x,1/2+y,1/2-z
1/2-x,1/2-y,-z
1/2+x,1/2-y,1/2+z
loop_
_atom_site_type_symbol
_atom_site_label
_atom_site_fract_x
_atom_site_fract_y
_atom_site_fract_z
Si Si1 0.243009 0.788871 0.815644
Si Si2 0.885799 0.840948 0.349241
Si Si3 0.749077 0.777489 0.790498
Si Si4 0.938256 0.926584 0.590464
Si Si5 0.043666 0.559292 0.351381
Si Si6 0.243933 0.469876 0.217974
Si Si7 0.482897 0.042063 0.955046
O O1 0.500000 0.836049 0.750000
O O2 0.303373 0.703880 0.821831
O O3 0.148238 0.780450 0.786155
O O4 0.067609 0.838701 0.889409
O O5 0.641210 0.880507 0.425726
O O6 0.013106 0.777586 0.353547
O O7 0.096929 0.904548 0.293832
O O8 0.667956 0.858274 0.831989
O O9 0.000000 0.742421 0.750000
O O10 0.744227 0.935534 0.593707
O O11 0.205501 0.937781 0.506615
O O12 0.900334 0.985953 0.641983
O O13 0.087414 0.508720 0.387711
O O14 0.180560 0.526712 0.274538
O O15 0.000000 0.436408 0.250000
O O16 0.500000 0.000000 0.000000
#
# Coordination Sequence:
#
# PCOD8140470 Si02
#       7
#     8   8   8   8   8   8   8
#     4  10  20  41  70  99 134 166 223 287 337 400
#     4  11  24  44  66 103 134 171 225 281 340 400
#     4  11  24  41  69 103 137 170 223 289 349 397
#     4  11  20  47  68  97 140 179 224 275 344 408
#     4  11  24  42  71 104 128 186 225 284 340 404
#     4  10  21  39  74 102 131 171 228 287 339 387
#     4  12  28  43  67  99 144 183 233 276 327 415
#
# _framework density 20.574280000000002
#
# number of rings (size 3 to 8) (size 9 to 14) (size 15 to 20)
#    0.000    1.143    5.714    1.286   10.000    0.571 
#    0.000    0.714    0.000    0.000    0.000    0.000 
#    0.000    0.000    0.000    0.000    0.000    0.000 
#
# Total GULP energy -346900.295883 kJ/mol
# GULP energy per Si atom -12389.296282 kJ/mol
# Density = 2.052745 g / cm^3
# Si number density = 20.574280 Si / 1000 Ang^3
#
#
#
# Elastic Constant Matrix: (Units=GPa)
#
#
# Indices 1 2 3 4 5 6 
#
# 1 96.3414 31.4318 30.9265 -0.0078 -1.9873 -0.0238
# 2 31.4318 111.4762 35.7757 0.0075 -6.3805 -0.0245
# 3 30.9265 35.7757 77.2994 -0.0270 -11.6744 -0.0674
# 4 -0.0078 0.0075 -0.0270 26.5088 0.0223 -9.7090
# 5 -1.9873 -6.3805 -11.6744 0.0223 36.6739 0.0361
# 6 -0.0238 -0.0245 -0.0674 -9.7090 0.0361 22.3079
#
#
#
# Elastic Compliance Matrix: (Units=1/GPa)
#
#
# Indices 1 2 3 4 5 6 
#
# 1 0.012400 -0.002247 -0.004075 0.000001 -0.001016 0.000001
# 2 -0.002247 0.010945 -0.004095 -0.000011 0.000479 -0.000009
# 3 -0.004075 -0.004095 0.017145 0.000032 0.004525 0.000049
# 4 0.000001 -0.000011 0.000032 0.044877 -0.000038 0.019532
# 5 -0.001016 0.000479 0.004525 -0.000038 0.028736 -0.000050
# 6 0.000001 -0.000009 0.000049 0.019532 -0.000050 0.053328
#
#
# Mechanical properties :
#
#
# Convention : Reuss Voigt Hill
#
# Bulk Modulus (GPa) = 50.86772 53.48723 52.17747
# Shear Modulus (GPa) = 25.66517 29.56367 27.61442
#
# Velocity S-wave (km/s) = 3.53574 3.79479 3.66755
# Velocity P-wave (km/s) = 6.43788 6.72712 6.58409
#
# Compressibility (1/GPa) = 0.01965883
#
# Stress axis : x y z
#
# Youngs Moduli (GPa) = 80.64653 91.36186 58.32485
#
# Poissons Ratio (x) = 0.20527 0.23765
# Poissons Ratio (y) = 0.18119 0.23881
# Poissons Ratio (z) = 0.32860 0.37409
#
# Static dielectric constant tensor:
#      x y z
#    x 4.312940 -0.000020 0.366450 
#    y -0.000020 3.820600 0.000070 
#    z 0.366450 0.000070 4.543820 
# 
# 
# High freq. dielectric constant tensor:
#      x y z
#    x 1.819880 0.000000 -0.011700 
#    y 0.000000 1.807710 0.000000 
#    z -0.011700 0.000000 1.778770 
# 
# From -- ./inp_files/191070.got.cif
#   From: 2010.06.25/outbox.cif.g09.slc.cpg/sg15_96_cif.got.tgz:191070.got - 2010.06.28 07:06:18.
