data_PCOD8140785
_publ_section_title
;
Structure prediction by ZEFSAII (Michael W. Deem and Ramdas Pophale) SiO2 
 PCOD8140785
Probable space group: C 2/C
;
_chemical_formula_sum "Si O2"
_cell_formula_units_Z 48
_cell_length_a 10.197085
_cell_length_b 21.199573
_cell_length_c 13.888514
_cell_angle_alpha 90.000000
_cell_angle_beta 136.457827
_cell_angle_gamma 90.000000
_cell_volume 2068.272449
_symmetry_space_group_name_H-M "C 2/C"
_symmetry_group_IT_number 15
_symmetry_cell_setting 'monoclinic'
loop_
_space_group_symop_operation_xyz
x,y,z
-x,y,1/2-z
-x,-y,-z
x,-y,1/2+z
1/2+x,1/2+y,z
1/2-x,1/2+y,1/2-z
1/2-x,1/2-y,-z
1/2+x,1/2-y,1/2+z
loop_
_atom_site_type_symbol
_atom_site_label
_atom_site_fract_x
_atom_site_fract_y
_atom_site_fract_z
Si Si1 0.317900 0.898280 0.712596
Si Si2 0.548627 0.655578 0.557110
Si Si3 0.218470 0.024352 0.343068
Si Si4 0.532383 0.202125 0.067158
Si Si5 0.812940 0.146878 0.083529
Si Si6 0.214492 0.113417 0.829514
O O1 0.500000 0.922569 0.750000
O O2 0.252000 0.951608 0.752241
O O3 0.359748 0.831524 0.787064
O O4 0.144439 0.885758 0.546471
O O5 0.498630 0.724854 0.571771
O O6 0.638656 0.660165 0.499741
O O7 0.705519 0.623145 0.709132
O O8 0.289679 0.077939 0.456268
O O9 0.000000 0.010743 0.250000
O O10 0.314407 0.954923 0.405961
O O11 0.663600 0.198744 0.040941
O O12 0.332842 0.167611 0.944406
O O13 0.000000 0.146991 0.250000
O O14 0.000000 0.120336 0.750000
#
# Coordination Sequence:
#
# PCOD8140785 Si02
#       6
#     8   8   8   8   8   8
#     4  11  23  41  67  97 126 184 222 267 336 399
#     4  12  23  42  68  97 131 179 221 268 336 401
#     4   9  19  45  66  89 133 172 220 277 326 385
#     4  11  24  42  65  95 140 173 219 277 331 397
#     4  10  20  43  69  93 123 183 223 274 325 387
#     4  11  26  42  63 103 133 172 216 281 332 388
#
# _framework density 23.207773
#
# number of rings (size 3 to 8) (size 9 to 14) (size 15 to 20)
#    0.000    1.333    5.000    2.500    0.000    8.000 
#    6.000    0.000    0.000    0.000    0.000    0.000 
#    0.000    0.000    0.000    0.000    0.000    0.000 
#
# Total GULP energy -297562.440282 kJ/mol
# GULP energy per Si atom -12398.435012 kJ/mol
# Density = 2.315495 g / cm^3
# Si number density = 23.207773 Si / 1000 Ang^3
#
#
#
# Elastic Constant Matrix: (Units=GPa)
#
#
# Indices 1 2 3 4 5 6 
#
# 1 95.7571 20.5843 -11.4628 0.0000 -1.6350 0.0000
# 2 20.5843 122.8318 17.3639 0.0000 1.6853 0.0000
# 3 -11.4628 17.3639 50.8029 0.0000 -6.9890 0.0000
# 4 0.0000 0.0000 0.0000 2.2152 0.0000 -4.1725
# 5 -1.6350 1.6853 -6.9890 0.0000 30.9209 0.0000
# 6 0.0000 0.0000 0.0000 -4.1725 0.0000 11.9131
#
#
#
# Elastic Compliance Matrix: (Units=1/GPa)
#
#
# Indices 1 2 3 4 5 6 
#
# 1 0.011431 -0.002450 0.003631 0.000000 0.001559 0.000000
# 2 -0.002450 0.009121 -0.003877 0.000000 -0.001503 0.000000
# 3 0.003631 -0.003877 0.022586 0.000001 0.005508 0.000000
# 4 0.000000 0.000000 0.000001 1.326583 0.000001 0.464635
# 5 0.001559 -0.001503 0.005508 0.000001 0.033750 0.000000
# 6 0.000000 0.000000 0.000000 0.464635 0.000000 0.246680
#
#
# Mechanical properties :
#
#
# Convention : Reuss Voigt Hill
#
# Bulk Modulus (GPa) = 26.49317 35.81805 31.15561
# Shear Modulus (GPa) = 2.99738 25.20362 14.10050
#
# Velocity S-wave (km/s) = 1.13769 3.29902 2.46758
# Velocity P-wave (km/s) = 3.62853 5.47527 4.64461
#
# Compressibility (1/GPa) = 0.03774558
#
# Stress axis : x y z
#
# Youngs Moduli (GPa) = 87.48050 109.64290 44.27497
#
# Poissons Ratio (x) = 0.26866 -0.16077
# Poissons Ratio (y) = 0.21436 0.17165
# Poissons Ratio (z) = -0.31766 0.42508
#
# Static dielectric constant tensor:
#      x y z
#    x 4.330070 0.000000 -0.047690 
#    y 0.000000 4.270140 0.000000 
#    z -0.047690 0.000000 4.207060 
# 
# 
# High freq. dielectric constant tensor:
#      x y z
#    x 1.931370 0.000000 0.003180 
#    y 0.000000 1.917710 0.000000 
#    z 0.003180 0.000000 1.896370 
# 
# From -- ./inp_files/147463.got.cif
#   From: 2010.06.25/outbox.cif.g09.slc.cpg/sg15_74_cif.got.tgz:147463.got - 2010.06.28 07:06:18.
