data_PCOD8140491
_publ_section_title
;
Structure prediction by ZEFSAII (Michael W. Deem and Ramdas Pophale) SiO2 
 PCOD8140491
Probable space group: C 2/C
;
_chemical_formula_sum "Si O2"
_cell_formula_units_Z 60
_cell_length_a 10.927413
_cell_length_b 16.209870
_cell_length_c 16.755062
_cell_angle_alpha 90.000000
_cell_angle_beta 80.019980
_cell_angle_gamma 90.000000
_cell_volume 2922.947833
_symmetry_space_group_name_H-M "C 2/C"
_symmetry_group_IT_number 15
_symmetry_cell_setting 'monoclinic'
loop_
_space_group_symop_operation_xyz
x,y,z
-x,y,1/2-z
-x,-y,-z
x,-y,1/2+z
1/2+x,1/2+y,z
1/2-x,1/2+y,1/2-z
1/2-x,1/2-y,-z
1/2+x,1/2-y,1/2+z
loop_
_atom_site_type_symbol
_atom_site_label
_atom_site_fract_x
_atom_site_fract_y
_atom_site_fract_z
Si Si1 0.624963 0.775189 0.781062
Si Si2 0.457057 0.921473 0.164113
Si Si3 0.208066 0.506255 0.603762
Si Si4 0.500000 0.512227 0.750000
Si Si5 0.735522 0.946020 0.774454
Si Si6 0.160023 0.135224 0.492994
Si Si7 0.703471 0.219388 0.877398
Si Si8 0.924625 0.122707 0.611795
O O1 0.500000 0.802302 0.750000
O O2 0.689423 0.856863 0.809214
O O3 0.716627 0.725949 0.712023
O O4 0.592938 0.717267 0.859597
O O5 0.500000 0.905540 0.250000
O O6 0.568972 0.962479 0.100922
O O7 0.417870 0.835447 0.127792
O O8 0.338810 0.981792 0.172185
O O9 0.209346 0.451790 0.683455
O O10 0.259255 0.447508 0.528162
O O11 0.291863 0.587468 0.601673
O O12 0.381073 0.454165 0.777690
O O13 0.482695 0.570272 0.676523
O O14 0.211074 0.180334 0.564696
O O15 0.161523 0.190983 0.413075
O O16 0.015876 0.115099 0.525765
#
# Coordination Sequence:
#
# PCOD8140491 Si02
#       8
#     8   8   8   4   8   8   8   8
#     4  12  20  37  62  90 118 154 213 255 301 359
#     4  10  21  41  62  91 123 159 207 256 311 360
#     4  10  21  39  58  86 123 162 199 250 314 366
#     4  10  20  42  60  92 122 160 216 252 308 366
#     4  10  21  35  63  90 119 157 203 259 307 359
#     4  11  22  39  60  90 123 159 210 249 309 372
#     4  11  23  38  62  91 121 160 203 262 304 363
#     4  11  21  38  63  87 119 168 207 254 304 373
#
# _framework density 20.527221999999998
#
# number of rings (size 3 to 8) (size 9 to 14) (size 15 to 20)
#    0.000    1.333    3.333    4.800    0.000    0.533 
#    3.600    2.000    0.000    0.000    0.000    0.000 
#    0.000    0.000    0.000    0.000    0.000    0.000 
#
# Total GULP energy -372144.344583 kJ/mol
# GULP energy per Si atom -12404.811486 kJ/mol
# Density = 2.048050 g / cm^3
# Si number density = 20.527222 Si / 1000 Ang^3
#
#
#
# Elastic Constant Matrix: (Units=GPa)
#
#
# Indices 1 2 3 4 5 6 
#
# 1 137.1960 60.7483 24.7438 0.0000 -26.3468 0.0000
# 2 60.7483 113.5464 15.2912 0.0000 -3.5671 0.0000
# 3 24.7438 15.2912 46.5245 0.0000 -22.0323 0.0000
# 4 0.0000 0.0000 0.0000 1.3468 0.0000 6.9533
# 5 -26.3468 -3.5671 -22.0323 0.0000 28.4484 0.0000
# 6 0.0000 0.0000 0.0000 6.9533 0.0000 28.3672
#
#
#
# Elastic Compliance Matrix: (Units=1/GPa)
#
#
# Indices 1 2 3 4 5 6 
#
# 1 0.011980 -0.006181 0.000864 0.000000 0.010989 0.000000
# 2 -0.006181 0.012467 -0.004392 0.000000 -0.007562 0.000000
# 3 0.000864 -0.004392 0.035683 0.000000 0.027885 0.000000
# 4 0.000000 0.000000 0.000000 -2.796503 0.000000 0.685468
# 5 0.010989 -0.007562 0.027885 0.000000 0.065976 0.000000
# 6 0.000000 0.000000 0.000000 0.685468 0.000000 -0.132767
#
#
# Mechanical properties :
#
#
# Convention : Reuss Voigt Hill
#
# Bulk Modulus (GPa) = 24.56142 55.42592 39.99367
# Shear Modulus (GPa) = -1.80494 24.73138 11.46322
#
# Velocity S-wave (km/s) = -0.93872 3.47480 2.36570
# Velocity P-wave (km/s) = 3.28882 6.56954 5.19496
#
# Compressibility (1/GPa) = 0.04071425
#
# Stress axis : x y z
#
# Youngs Moduli (GPa) = 83.47258 80.20882 28.02434
#
# Poissons Ratio (x) = 0.49573 -0.02421
# Poissons Ratio (y) = 0.51590 0.12307
# Poissons Ratio (z) = -0.07211 0.35224
#
# Static dielectric constant tensor:
#      x y z
#    x 3.804930 0.000000 -0.272750 
#    y 0.000000 3.711030 0.000000 
#    z -0.272750 0.000000 3.588320 
# 
# 
# High freq. dielectric constant tensor:
#      x y z
#    x 1.805600 0.000000 -0.023730 
#    y 0.000000 1.806960 0.000000 
#    z -0.023730 0.000000 1.779870 
# 
# From -- ./inp_files/197841.got.cif
#   From: 2010.06.25/outbox.cif.g09.slc.cpg/sg15_99_cif.got.tgz:197841.got - 2010.06.28 07:06:18.
