data_PCOD8140917
_publ_section_title
;
Structure prediction by ZEFSAII (Michael W. Deem and Ramdas Pophale) SiO2 
 PCOD8140917
Probable space group: C 2/C
;
_chemical_formula_sum "Si O2"
_cell_formula_units_Z 64
_cell_length_a 11.559995
_cell_length_b 15.151803
_cell_length_c 20.860754
_cell_angle_alpha 90.000000
_cell_angle_beta 114.475316
_cell_angle_gamma 90.000000
_cell_volume 3325.524027
_symmetry_space_group_name_H-M "C 2/C"
_symmetry_group_IT_number 15
_symmetry_cell_setting 'monoclinic'
loop_
_space_group_symop_operation_xyz
x,y,z
-x,y,1/2-z
-x,-y,-z
x,-y,1/2+z
1/2+x,1/2+y,z
1/2-x,1/2+y,1/2-z
1/2-x,1/2-y,-z
1/2+x,1/2-y,1/2+z
loop_
_atom_site_type_symbol
_atom_site_label
_atom_site_fract_x
_atom_site_fract_y
_atom_site_fract_z
Si Si1 0.305375 0.074659 0.782528
Si Si2 0.521890 0.405552 0.603394
Si Si3 0.328349 0.187171 0.353687
Si Si4 0.007508 0.426311 0.824718
Si Si5 0.331797 0.309025 0.471568
Si Si6 0.890050 0.242530 0.278639
Si Si7 0.624137 0.533579 0.319742
Si Si8 0.744711 0.527831 0.623829
O O1 0.379150 0.165694 0.815268
O O2 0.260493 0.067073 0.698586
O O3 0.409944 0.002353 0.819277
O O4 0.186552 0.055414 0.803952
O O5 0.456027 0.344151 0.535838
O O6 0.590400 0.340303 0.670012
O O7 0.423751 0.471763 0.617730
O O8 0.617807 0.470140 0.589598
O O9 0.464618 0.156000 0.358035
O O10 0.371348 0.245317 0.423248
O O11 0.251523 0.242825 0.283568
O O12 0.228463 0.110117 0.346521
O O13 0.000000 0.395605 0.750000
O O14 0.146796 0.460255 0.873380
O O15 0.250000 0.250000 0.500000
O O16 0.253679 0.392048 0.426106
O O17 0.000000 0.248681 0.250000
O O18 0.500000 0.561919 0.250000
#
# Coordination Sequence:
#
# PCOD8140917 Si02
#       8
#     8   8   8   8   8   8   8   8
#     4  10  21  32  62  98 120 148 209 268 305 352
#     4  12  23  39  64  89 128 165 205 251 312 374
#     4  11  20  38  62  94 120 158 207 263 300 362
#     4   9  20  37  62  90 125 155 202 259 322 363
#     4  12  25  40  63  93 122 163 218 254 301 365
#     4  12  19  35  64  92 121 157 210 262 301 358
#     4  11  18  37  60  91 123 156 201 254 313 361
#     4  11  22  42  59  88 125 169 202 248 313 375
#
# _framework density 19.245087000000002
#
# number of rings (size 3 to 8) (size 9 to 14) (size 15 to 20)
#    0.000    1.000    6.250    3.000    1.750    0.000 
#    0.000    6.875    0.000    0.000    0.000    0.000 
#    0.000    0.000    0.000    0.000    0.000    0.000 
#
# Total GULP energy -396548.475323 kJ/mol
# GULP energy per Si atom -12392.139854 kJ/mol
# Density = 1.920128 g / cm^3
# Si number density = 19.245087 Si / 1000 Ang^3
#
#
#
# Elastic Constant Matrix: (Units=GPa)
#
#
# Indices 1 2 3 4 5 6 
#
# 1 127.9218 57.7533 46.6841 0.0000 -8.8375 0.0000
# 2 57.7533 93.9589 36.4712 0.0000 -14.9730 0.0000
# 3 46.6841 36.4712 50.2237 0.0000 -15.3452 0.0000
# 4 0.0000 0.0000 0.0000 0.6724 0.0000 -62.6494
# 5 -8.8375 -14.9730 -15.3452 0.0000 16.0284 0.0000
# 6 0.0000 0.0000 0.0000 -62.6494 0.0000 -54.1240
#
#
#
# Elastic Compliance Matrix: (Units=1/GPa)
#
#
# Indices 1 2 3 4 5 6 
#
# 1 0.013896 -0.005393 -0.011588 0.000000 -0.008471 0.000000
# 2 -0.005393 0.017203 -0.004916 0.000000 0.008390 0.000000
# 3 -0.011588 -0.004916 0.043672 0.000000 0.030828 0.000000
# 4 0.000000 0.000000 0.000000 0.013663 0.000000 -0.015815
# 5 -0.008471 0.008390 0.030828 0.000000 0.095071 0.000000
# 6 0.000000 0.000000 0.000000 -0.015815 0.000000 -0.000170
#
#
# Mechanical properties :
#
#
# Convention : Reuss Voigt Hill
#
# Bulk Modulus (GPa) = 32.28313 61.54687 46.91500
# Shear Modulus (GPa) = 21.05660 1.26176 11.15918
#
# Velocity S-wave (km/s) = 3.31135 0.81059 2.41061
# Velocity P-wave (km/s) = 5.60635 5.73812 5.67262
#
# Compressibility (1/GPa) = 0.03097593
#
# Stress axis : x y z
#
# Youngs Moduli (GPa) = 71.96300 58.12896 22.89814
#
# Poissons Ratio (x) = 0.31349 0.26535
# Poissons Ratio (y) = 0.38810 0.11257
# Poissons Ratio (z) = 0.83394 0.28576
#
# Static dielectric constant tensor:
#      x y z
#    x 2.740050 0.000000 0.024310 
#    y 0.000000 3.726160 0.000000 
#    z 0.024310 0.000000 3.469570 
# 
# 
# High freq. dielectric constant tensor:
#      x y z
#    x 1.748260 0.000000 -0.000780 
#    y 0.000000 1.749810 0.000000 
#    z -0.000780 0.000000 1.727330 
# 
# From -- ./inp_files/238769.got.cif
#   From: 2010.06.25/outbox.cif.g09.slc.cpg/sg15_120_cif.got.tgz:238769.got - 2010.06.28 07:06:18.
