data_PCOD8140427
_publ_section_title
;
Structure prediction by ZEFSAII (Michael W. Deem and Ramdas Pophale) SiO2 
 PCOD8140427
Probable space group: C 2/C
;
_chemical_formula_sum "Si O2"
_cell_formula_units_Z 60
_cell_length_a 11.558263
_cell_length_b 15.585206
_cell_length_c 16.930032
_cell_angle_alpha 90.000000
_cell_angle_beta 109.080520
_cell_angle_gamma 90.000000
_cell_volume 2882.188162
_symmetry_space_group_name_H-M "C 2/C"
_symmetry_group_IT_number 15
_symmetry_cell_setting 'monoclinic'
loop_
_space_group_symop_operation_xyz
x,y,z
-x,y,1/2-z
-x,-y,-z
x,-y,1/2+z
1/2+x,1/2+y,z
1/2-x,1/2+y,1/2-z
1/2-x,1/2-y,-z
1/2+x,1/2-y,1/2+z
loop_
_atom_site_type_symbol
_atom_site_label
_atom_site_fract_x
_atom_site_fract_y
_atom_site_fract_z
Si Si1 0.749017 0.409274 0.434521
Si Si2 0.352988 0.321461 0.801067
Si Si3 0.779619 0.441793 0.830186
Si Si4 0.877972 0.243104 0.676216
Si Si5 0.039907 0.388696 0.910342
Si Si6 0.159641 0.476744 0.321159
Si Si7 0.000000 0.678845 0.750000
Si Si8 0.885905 0.050608 0.443040
O O1 0.723811 0.498918 0.386035
O O2 0.706723 0.336432 0.365308
O O3 0.892750 0.404319 0.490478
O O4 0.673298 0.398522 0.497774
O O5 0.333261 0.379274 0.718202
O O6 0.211281 0.302254 0.791439
O O7 0.435241 0.238542 0.801400
O O8 0.417293 0.377665 0.884146
O O9 0.828708 0.497747 0.767662
O O10 0.894862 0.390713 0.892738
O O11 0.921271 0.294182 0.608936
O O12 0.000000 0.213695 0.750000
O O13 0.074479 0.457076 0.849826
O O14 0.294336 0.477743 0.389242
O O15 0.101644 0.381535 0.314330
O O16 0.000000 0.000000 0.500000
#
# Coordination Sequence:
#
# PCOD8140427 Si02
#       8
#     8   8   8   8   8   8   4   8
#     4  11  25  36  66  99 125 161 222 265 328 386
#     4  11  25  41  66  94 132 168 218 274 322 382
#     4  11  20  41  66  95 123 170 220 265 319 399
#     4  12  22  42  65  96 129 170 217 276 326 382
#     4  11  19  41  64  93 129 165 207 276 327 383
#     4  10  20  41  68  88 123 175 220 251 329 388
#     4  12  24  40  66  98 124 168 232 268 302 398
#     4  10  24  46  64  87 135 179 204 269 342 390
#
# _framework density 20.817518
#
# number of rings (size 3 to 8) (size 9 to 14) (size 15 to 20)
#    0.000    1.067    6.667    1.600    1.867    3.200 
#    0.000    0.667    0.000    0.000    0.000    0.000 
#    0.000    0.000    0.000    0.000    0.000    0.000 
#
# Total GULP energy -371958.730346 kJ/mol
# GULP energy per Si atom -12398.624345 kJ/mol
# Density = 2.077014 g / cm^3
# Si number density = 20.817518 Si / 1000 Ang^3
#
#
#
# Elastic Constant Matrix: (Units=GPa)
#
#
# Indices 1 2 3 4 5 6 
#
# 1 53.7298 31.5555 21.4325 0.0000 20.1599 0.0000
# 2 31.5555 103.5091 32.1522 0.0000 9.2755 0.0000
# 3 21.4325 32.1522 95.1876 0.0000 20.7159 0.0000
# 4 0.0000 0.0000 0.0000 33.6589 0.0000 3.8527
# 5 20.1599 9.2755 20.7159 0.0000 29.7460 0.0000
# 6 0.0000 0.0000 0.0000 3.8527 0.0000 36.9202
#
#
#
# Elastic Compliance Matrix: (Units=1/GPa)
#
#
# Indices 1 2 3 4 5 6 
#
# 1 0.029666 -0.007354 -0.000376 0.000000 -0.017551 0.000000
# 2 -0.007354 0.012641 -0.003348 0.000000 0.003374 0.000000
# 3 -0.000376 -0.003348 0.013482 0.000000 -0.008090 0.000000
# 4 0.000000 0.000000 0.000000 0.030069 0.000000 -0.003138
# 5 -0.017551 0.003374 -0.008090 0.000000 0.050095 0.000000
# 6 0.000000 0.000000 0.000000 -0.003138 0.000000 0.027413
#
#
# Mechanical properties :
#
#
# Convention : Reuss Voigt Hill
#
# Bulk Modulus (GPa) = 29.73401 46.96746 38.35073
# Shear Modulus (GPa) = 25.41520 31.21743 28.31631
#
# Velocity S-wave (km/s) = 3.49787 3.87664 3.69211
# Velocity P-wave (km/s) = 5.53422 6.53056 6.05293
#
# Compressibility (1/GPa) = 0.03363152
#
# Stress axis : x y z
#
# Youngs Moduli (GPa) = 33.70868 79.10972 74.17362
#
# Poissons Ratio (x) = 0.58181 0.02788
# Poissons Ratio (y) = 0.24791 0.24835
# Poissons Ratio (z) = 0.01267 0.26488
#
# Static dielectric constant tensor:
#      x y z
#    x 3.882380 0.000000 0.304590 
#    y 0.000000 3.704360 0.000000 
#    z 0.304590 0.000000 3.893450 
# 
# 
# High freq. dielectric constant tensor:
#      x y z
#    x 1.804760 0.000000 0.013710 
#    y 0.000000 1.806040 0.000000 
#    z 0.013710 0.000000 1.817750 
# 
# From -- ./inp_files/198386.got.cif
#   From: 2010.06.25/outbox.cif.g09.slc.cpg/sg15_100_cif.got.tgz:198386.got - 2010.06.28 07:06:18.
