data_PCOD8140055
_publ_section_title
;
Structure prediction by ZEFSAII (Michael W. Deem and Ramdas Pophale) SiO2 
 PCOD8140055
Probable space group: C 2/C
;
_chemical_formula_sum "Si O2"
_cell_formula_units_Z 60
_cell_length_a 18.006614
_cell_length_b 11.515301
_cell_length_c 22.347760
_cell_angle_alpha 90.000000
_cell_angle_beta 140.991237
_cell_angle_gamma 90.000000
_cell_volume 2916.722850
_symmetry_space_group_name_H-M "C 2/C"
_symmetry_group_IT_number 15
_symmetry_cell_setting 'monoclinic'
loop_
_space_group_symop_operation_xyz
x,y,z
-x,y,1/2-z
-x,-y,-z
x,-y,1/2+z
1/2+x,1/2+y,z
1/2-x,1/2+y,1/2-z
1/2-x,1/2-y,-z
1/2+x,1/2-y,1/2+z
loop_
_atom_site_type_symbol
_atom_site_label
_atom_site_fract_x
_atom_site_fract_y
_atom_site_fract_z
Si Si1 0.199071 0.120898 0.310856
Si Si2 0.470346 0.132390 0.486602
Si Si3 0.197580 0.422328 0.932908
Si Si4 0.536946 0.420385 0.209113
Si Si5 0.588109 0.259653 0.453275
Si Si6 0.159410 0.112595 0.420130
Si Si7 0.500000 0.956524 0.250000
Si Si8 0.508028 0.211799 0.643006
O O1 0.334822 0.146356 0.381483
O O2 0.178145 0.159778 0.365554
O O3 0.117701 0.198941 0.216827
O O4 0.166615 0.981236 0.286286
O O5 0.547124 0.215569 0.491988
O O6 0.506937 0.160005 0.576807
O O7 0.500000 0.000000 0.500000
O O8 0.134227 0.348486 0.944376
O O9 0.110882 0.456357 0.825155
O O10 0.307465 0.353719 0.973158
O O11 0.228817 0.545989 0.983148
O O12 0.500000 0.363215 0.250000
O O13 0.521614 0.321442 0.149368
O O14 0.449497 0.526098 0.144943
O O15 0.120390 0.225678 0.432992
O O16 0.478691 0.883661 0.296807
#
# Coordination Sequence:
#
# PCOD8140055 Si02
#       8
#     8   8   8   8   8   8   4   8
#     4  10  20  40  65  96 126 168 211 265 315 378
#     4  12  27  44  59  89 135 174 211 255 329 391
#     4  10  23  40  69  93 125 164 217 273 312 373
#     4   8  17  35  68  96 119 158 220 256 306 377
#     4  10  22  46  62  92 129 175 210 258 326 379
#     4   9  17  39  66  94 125 163 209 260 316 378
#     4  12  22  38  64 106 122 148 232 278 300 376
#     4  11  23  40  67  97 126 169 214 261 327 371
#
# _framework density 20.571031999999999
#
# number of rings (size 3 to 8) (size 9 to 14) (size 15 to 20)
#    0.000    1.867    1.333    3.200    2.800    3.200 
#    4.800    6.000    0.000    0.000    0.000    0.000 
#    0.000    0.000    0.000    0.000    0.000    0.000 
#
# Total GULP energy -371875.475643 kJ/mol
# GULP energy per Si atom -12395.849188 kJ/mol
# Density = 2.052421 g / cm^3
# Si number density = 20.571032 Si / 1000 Ang^3
#
#
#
# Elastic Constant Matrix: (Units=GPa)
#
#
# Indices 1 2 3 4 5 6 
#
# 1 114.7586 59.8032 59.0573 0.0000 -17.2291 0.0000
# 2 59.8032 109.0854 63.4727 0.0000 -12.0396 0.0000
# 3 59.0573 63.4727 133.4981 0.0000 -5.4366 0.0000
# 4 0.0000 0.0000 0.0000 44.2021 0.0000 -3.2322
# 5 -17.2291 -12.0396 -5.4366 0.0000 34.2755 0.0000
# 6 0.0000 0.0000 0.0000 -3.2322 0.0000 26.5639
#
#
#
# Elastic Compliance Matrix: (Units=1/GPa)
#
#
# Indices 1 2 3 4 5 6 
#
# 1 0.013853 -0.005014 -0.003556 0.000000 0.004638 0.000000
# 2 -0.005014 0.014924 -0.004798 0.000000 0.001961 0.000000
# 3 -0.003556 -0.004798 0.011276 0.000000 -0.001684 0.000000
# 4 0.000000 0.000000 0.000000 0.022826 0.000000 0.002777
# 5 0.004638 0.001961 -0.001684 0.000000 0.031929 0.000000
# 6 0.000000 0.000000 0.000000 0.002777 0.000000 0.037983
#
#
# Mechanical properties :
#
#
# Convention : Reuss Voigt Hill
#
# Bulk Modulus (GPa) = 75.08207 80.22317 77.65262
# Shear Modulus (GPa) = 30.49439 32.67558 31.58498
#
# Velocity S-wave (km/s) = 3.85436 3.98983 3.92268
# Velocity P-wave (km/s) = 7.50908 7.76581 7.63852
#
# Compressibility (1/GPa) = 0.01331876
#
# Stress axis : x y z
#
# Youngs Moduli (GPa) = 72.18751 67.00686 88.68191
#
# Poissons Ratio (x) = 0.33595 0.31532
# Poissons Ratio (y) = 0.36192 0.42548
# Poissons Ratio (z) = 0.25667 0.32149
#
# Static dielectric constant tensor:
#      x y z
#    x 3.662630 0.000000 0.242440 
#    y 0.000000 3.885680 0.000000 
#    z 0.242440 0.000000 4.252020 
# 
# 
# High freq. dielectric constant tensor:
#      x y z
#    x 1.778190 0.000000 0.009130 
#    y 0.000000 1.815000 0.000000 
#    z 0.009130 0.000000 1.816660 
# 
# From -- ./inp_files/248789.got.cif
#   From: 2010.06.25/outbox.cif.g09.slc.cpg/sg15_125_cif.got.tgz:248789.got - 2010.06.28 07:06:18.
