data_PCOD8140357
_publ_section_title
;
Structure prediction by ZEFSAII (Michael W. Deem and Ramdas Pophale) SiO2 
 PCOD8140357
Probable space group: C 2/C
;
_chemical_formula_sum "Si O2"
_cell_formula_units_Z 40
_cell_length_a 9.160721
_cell_length_b 27.948512
_cell_length_c 15.383223
_cell_angle_alpha 90.000000
_cell_angle_beta 29.845976
_cell_angle_gamma 90.000000
_cell_volume 1960.095597
_symmetry_space_group_name_H-M "C 2/C"
_symmetry_group_IT_number 15
_symmetry_cell_setting 'monoclinic'
loop_
_space_group_symop_operation_xyz
x,y,z
-x,y,1/2-z
-x,-y,-z
x,-y,1/2+z
1/2+x,1/2+y,z
1/2-x,1/2+y,1/2-z
1/2-x,1/2-y,-z
1/2+x,1/2-y,1/2+z
loop_
_atom_site_type_symbol
_atom_site_label
_atom_site_fract_x
_atom_site_fract_y
_atom_site_fract_z
Si Si1 0.795732 0.197519 0.939834
Si Si2 0.708102 0.637076 0.219105
Si Si3 0.633975 0.527798 0.509273
Si Si4 0.674009 0.973262 0.837602
Si Si5 0.651431 0.369637 0.939903
O O1 0.000000 0.198153 0.750000
O O2 0.750000 0.250000 0.000000
O O3 0.493917 0.170702 0.072120
O O4 0.953880 0.171121 0.939114
O O5 0.500000 0.656740 0.250000
O O6 0.787203 0.582087 0.157118
O O7 0.534314 0.639174 0.401887
O O8 0.500000 0.500000 0.500000
O O9 0.477375 0.502352 0.672585
O O10 0.533314 0.582082 0.545061
O O11 0.984975 0.524988 0.344563
O O12 0.500000 0.000000 0.000000
O O13 0.000000 0.371437 0.750000
#
# Coordination Sequence:
#
# PCOD8140357 Si02
#       5
#     8   8   8   8   8
#     4  11  24  46  76 102 126 172 220 277 344 403
#     4  11  23  44  65  97 138 176 218 281 332 387
#     4  12  21  39  59  89 130 182 223 265 331 382
#     4  12  25  37  59  93 134 179 228 274 323 390
#     4  10  20  41  65  91 133 173 220 274 326 394
#
# _framework density 20.407167999999999
#
# number of rings (size 3 to 8) (size 9 to 14) (size 15 to 20)
#    0.000    0.800    6.000    4.200    2.800    0.000 
#    0.000    5.000    0.000    0.000    0.000    0.000 
#    0.000    0.000    0.000    0.000    0.000    0.000 
#
# Total GULP energy -247839.635901 kJ/mol
# GULP energy per Si atom -12391.981795 kJ/mol
# Density = 2.036072 g / cm^3
# Si number density = 20.407168 Si / 1000 Ang^3
#
#
#
# Elastic Constant Matrix: (Units=GPa)
#
#
# Indices 1 2 3 4 5 6 
#
# 1 127.6756 42.3748 24.8641 0.0000 4.1539 0.0000
# 2 42.3748 171.5307 55.1750 0.0000 17.2824 0.0000
# 3 24.8641 55.1750 83.6037 0.0000 13.5279 0.0000
# 4 0.0000 0.0000 0.0000 36.5695 0.0000 5.4791
# 5 4.1539 17.2824 13.5279 0.0000 37.7552 0.0000
# 6 0.0000 0.0000 0.0000 5.4791 0.0000 30.5736
#
#
#
# Elastic Compliance Matrix: (Units=1/GPa)
#
#
# Indices 1 2 3 4 5 6 
#
# 1 0.008678 -0.001690 -0.001525 0.000000 0.000365 0.000000
# 2 -0.001690 0.007839 -0.004374 0.000000 -0.001835 0.000000
# 3 -0.001525 -0.004374 0.015870 0.000000 -0.003516 0.000000
# 4 0.000000 0.000000 0.000000 0.028100 0.000000 -0.005036
# 5 0.000365 -0.001835 -0.003516 0.000000 0.028546 0.000000
# 6 0.000000 0.000000 0.000000 -0.005036 0.000000 0.033610
#
#
# Mechanical properties :
#
#
# Convention : Reuss Voigt Hill
#
# Bulk Modulus (GPa) = 58.10470 69.73750 63.92110
# Shear Modulus (GPa) = 34.82902 38.33942 36.58422
#
# Velocity S-wave (km/s) = 4.13571 4.33913 4.23864
# Velocity P-wave (km/s) = 7.16519 7.70398 7.43946
#
# Compressibility (1/GPa) = 0.01721031
#
# Stress axis : x y z
#
# Youngs Moduli (GPa) = 115.22907 127.56296 63.01113
#
# Poissons Ratio (x) = 0.21562 0.09606
# Poissons Ratio (y) = 0.19477 0.27561
# Poissons Ratio (z) = 0.17567 0.55795
#
# Static dielectric constant tensor:
#      x y z
#    x 4.699380 0.000000 0.332510 
#    y 0.000000 4.027900 0.000000 
#    z 0.332510 0.000000 3.616150 
# 
# 
# High freq. dielectric constant tensor:
#      x y z
#    x 1.817240 0.000000 0.023790 
#    y 0.000000 1.796820 0.000000 
#    z 0.023790 0.000000 1.781500 
# 
# From -- ./inp_files/25367.got.cif
#   From: 2010.06.25/outbox.cif.g09.slc.cpg/sg15_13_cif.got.tgz:25367.got - 2010.06.28 07:06:18.
