data_PCOD8140651
_publ_section_title
;
Structure prediction by ZEFSAII (Michael W. Deem and Ramdas Pophale) SiO2 
 PCOD8140651
Probable space group: C 2/C
;
_chemical_formula_sum "Si O2"
_cell_formula_units_Z 60
_cell_length_a 19.328671
_cell_length_b 8.587505
_cell_length_c 22.738163
_cell_angle_alpha 90.000000
_cell_angle_beta 129.782269
_cell_angle_gamma 90.000000
_cell_volume 2900.399578
_symmetry_space_group_name_H-M "C 2/C"
_symmetry_group_IT_number 15
_symmetry_cell_setting 'monoclinic'
loop_
_space_group_symop_operation_xyz
x,y,z
-x,y,1/2-z
-x,-y,-z
x,-y,1/2+z
1/2+x,1/2+y,z
1/2-x,1/2+y,1/2-z
1/2-x,1/2-y,-z
1/2+x,1/2-y,1/2+z
loop_
_atom_site_type_symbol
_atom_site_label
_atom_site_fract_x
_atom_site_fract_y
_atom_site_fract_z
Si Si1 0.082172 0.273020 0.708216
Si Si2 0.068012 0.703049 0.069989
Si Si3 0.500000 0.473165 0.250000
Si Si4 0.358027 0.306932 0.614327
Si Si5 0.319111 0.643789 0.961184
Si Si6 0.623727 0.913769 0.033195
Si Si7 0.413809 0.024920 0.115088
Si Si8 0.723501 0.167921 0.378118
O O1 0.103847 0.233341 0.652106
O O2 0.034476 0.128307 0.714135
O O3 0.174464 0.325466 0.788633
O O4 0.016596 0.422300 0.673827
O O5 0.096603 0.816805 0.033520
O O6 0.110373 0.531587 0.080456
O O7 0.959680 0.706196 0.011624
O O8 0.585811 0.575631 0.315176
O O9 0.351370 0.378749 0.545508
O O10 0.257178 0.279836 0.584971
O O11 0.406958 0.139694 0.643765
O O12 0.284948 0.482097 0.916652
O O13 0.718161 0.824543 0.086026
O O14 0.620171 0.006989 0.969634
O O15 0.352443 0.159558 0.112039
#
# Coordination Sequence:
#
# PCOD8140651 Si02
#       8
#     8   8   4   8   8   8   8   8
#     4  11  25  42  63  95 134 170 212 264 326 389
#     4  10  23  44  61  91 130 171 216 259 326 385
#     4  12  26  42  66 100 128 166 222 268 326 384
#     4  10  24  41  68  98 126 171 209 273 320 381
#     4  10  23  43  65  97 131 164 221 260 322 386
#     4  10  22  40  67  92 121 174 213 267 311 384
#     4  10  20  42  68  91 130 166 215 264 323 381
#     4  11  23  37  66  97 127 170 214 266 319 373
#
# _framework density 20.686803999999999
#
# number of rings (size 3 to 8) (size 9 to 14) (size 15 to 20)
#    0.000    1.600    2.667    0.400    9.333    1.600 
#    0.000    0.000    0.000    0.000    0.000    0.000 
#    0.000    0.000    0.000    0.000    0.000    0.000 
#
# Total GULP energy -372031.088008 kJ/mol
# GULP energy per Si atom -12401.036267 kJ/mol
# Density = 2.063972 g / cm^3
# Si number density = 20.686804 Si / 1000 Ang^3
#
#
#
# Elastic Constant Matrix: (Units=GPa)
#
#
# Indices 1 2 3 4 5 6 
#
# 1 74.1504 8.4002 22.3786 0.0000 -21.6549 0.0000
# 2 8.4002 62.0078 31.7131 0.0000 -3.3310 0.0000
# 3 22.3786 31.7131 108.7413 0.0000 -7.4256 0.0000
# 4 0.0000 0.0000 0.0000 29.6549 0.0000 2.5689
# 5 -21.6549 -3.3310 -7.4256 0.0000 29.0878 0.0000
# 6 0.0000 0.0000 0.0000 2.5689 0.0000 29.7168
#
#
#
# Elastic Compliance Matrix: (Units=1/GPa)
#
#
# Indices 1 2 3 4 5 6 
#
# 1 0.018067 -0.000361 -0.002745 0.000000 0.012708 0.000000
# 2 -0.000361 0.018978 -0.005425 0.000000 0.000520 0.000000
# 3 -0.002745 -0.005425 0.011359 0.000000 0.000235 0.000000
# 4 0.000000 0.000000 0.000000 0.033976 0.000000 -0.002937
# 5 0.012708 0.000520 0.000235 0.000000 0.043959 0.000000
# 6 0.000000 0.000000 0.000000 -0.002937 0.000000 0.033905
#
#
# Mechanical properties :
#
#
# Convention : Reuss Voigt Hill
#
# Bulk Modulus (GPa) = 31.90577 41.09814 36.50196
# Shear Modulus (GPa) = 26.63072 29.85240 28.24156
#
# Velocity S-wave (km/s) = 3.59183 3.80289 3.69887
# Velocity P-wave (km/s) = 5.71475 6.26040 5.99379
#
# Compressibility (1/GPa) = 0.03134229
#
# Stress axis : x y z
#
# Youngs Moduli (GPa) = 55.35054 52.69155 88.03395
#
# Poissons Ratio (x) = 0.01902 0.24166
# Poissons Ratio (y) = 0.01998 0.47759
# Poissons Ratio (z) = 0.15194 0.28585
#
# Static dielectric constant tensor:
#      x y z
#    x 3.849580 0.000000 0.004390 
#    y 0.000000 3.588460 0.000000 
#    z 0.004390 0.000000 3.758210 
# 
# 
# High freq. dielectric constant tensor:
#      x y z
#    x 1.811000 0.000000 0.004330 
#    y 0.000000 1.803670 0.000000 
#    z 0.004330 0.000000 1.807720 
# 
# From -- ./inp_files/279712.got.cif
#   From: 2010.06.25/outbox.cif.g09.slc.cpg/sg15_140_cif.got.tgz:279712.got - 2010.06.28 07:06:18.
