data_PCOD8140193
_publ_section_title
;
Structure prediction by ZEFSAII (Michael W. Deem and Ramdas Pophale) SiO2 
 PCOD8140193
Probable space group: C 2/C
;
_chemical_formula_sum "Si O2"
_cell_formula_units_Z 56
_cell_length_a 21.728775
_cell_length_b 8.918992
_cell_length_c 15.845788
_cell_angle_alpha 90.000000
_cell_angle_beta 126.427570
_cell_angle_gamma 90.000000
_cell_volume 2470.866552
_symmetry_space_group_name_H-M "C 2/C"
_symmetry_group_IT_number 15
_symmetry_cell_setting 'monoclinic'
loop_
_space_group_symop_operation_xyz
x,y,z
-x,y,1/2-z
-x,-y,-z
x,-y,1/2+z
1/2+x,1/2+y,z
1/2-x,1/2+y,1/2-z
1/2-x,1/2-y,-z
1/2+x,1/2-y,1/2+z
loop_
_atom_site_type_symbol
_atom_site_label
_atom_site_fract_x
_atom_site_fract_y
_atom_site_fract_z
Si Si1 0.817758 0.240335 0.330019
Si Si2 0.820976 0.410009 0.872884
Si Si3 0.873005 0.421633 0.103897
Si Si4 0.262467 0.858064 0.587367
Si Si5 0.047763 0.067087 0.116331
Si Si6 0.000000 0.192359 0.250000
Si Si7 0.895093 0.766999 0.300268
Si Si8 0.500000 0.149847 0.250000
O O1 0.808300 0.416624 0.340106
O O2 0.755359 0.185837 0.210122
O O3 0.811507 0.138614 0.411610
O O4 0.904738 0.216153 0.368768
O O5 0.894127 0.343200 0.880844
O O6 0.842834 0.382076 0.987395
O O7 0.797573 0.477058 0.095228
O O8 0.919920 0.285740 0.185036
O O9 0.931655 0.558894 0.151082
O O10 0.250000 0.750000 0.500000
O O11 0.318522 0.762311 0.689447
O O12 0.999103 0.096431 0.162610
O O13 0.111241 0.940844 0.183278
O O14 0.000000 0.000000 0.000000
O O15 0.970098 0.746457 0.303912
#
# Coordination Sequence:
#
# PCOD8140193 Si02
#       8
#     8   8   8   8   8   4   8   4
#     4  11  25  41  69 101 138 184 237 297 350 426
#     4  11  23  43  69 101 139 178 235 288 358 422
#     4  10  22  41  69 105 130 180 231 290 353 416
#     4  10  20  40  68  99 134 175 239 285 352 420
#     4  12  28  47  68 101 146 189 236 293 365 419
#     4  11  27  48  70 106 152 180 246 296 350 432
#     4  10  23  41  65  96 135 180 231 286 343 426
#     4   9  21  38  68  92 128 174 238 276 342 416
#
# _framework density 22.664114999999999
#
# number of rings (size 3 to 8) (size 9 to 14) (size 15 to 20)
#    0.000    1.429    1.429    3.000   10.000    1.714 
#    0.000    2.143    0.000    0.000    0.000    0.000 
#    0.000    0.000    0.000    0.000    0.000    0.000 
#
# Total GULP energy -346896.837431 kJ/mol
# GULP energy per Si atom -12389.172765 kJ/mol
# Density = 2.261253 g / cm^3
# Si number density = 22.664115 Si / 1000 Ang^3
#
#
#
# Elastic Constant Matrix: (Units=GPa)
#
#
# Indices 1 2 3 4 5 6 
#
# 1 91.9352 21.1330 6.5194 0.0000 -22.6766 0.0000
# 2 21.1330 100.0768 27.6535 0.0000 -6.7331 0.0000
# 3 6.5194 27.6535 112.7922 0.0000 -22.8868 0.0000
# 4 0.0000 0.0000 0.0000 28.2988 0.0000 -1.4709
# 5 -22.6766 -6.7331 -22.8868 0.0000 27.1301 0.0000
# 6 0.0000 0.0000 0.0000 -1.4709 0.0000 33.1606
#
#
#
# Elastic Compliance Matrix: (Units=1/GPa)
#
#
# Indices 1 2 3 4 5 6 
#
# 1 0.014788 -0.002929 0.002683 0.000000 0.013897 0.000000
# 2 -0.002929 0.011305 -0.003052 0.000000 -0.002218 0.000000
# 3 0.002683 -0.003052 0.011776 0.000000 0.011420 0.000000
# 4 0.000000 0.000000 0.000000 0.035419 0.000000 0.001571
# 5 0.013897 -0.002218 0.011420 0.000000 0.057559 0.000000
# 6 0.000000 0.000000 0.000000 0.001571 0.000000 0.030226
#
#
# Mechanical properties :
#
#
# Convention : Reuss Voigt Hill
#
# Bulk Modulus (GPa) = 31.97645 46.15733 39.06689
# Shear Modulus (GPa) = 28.07506 34.35113 31.21309
#
# Velocity S-wave (km/s) = 3.52340 3.89737 3.71510
# Velocity P-wave (km/s) = 5.54003 6.37673 5.97305
#
# Compressibility (1/GPa) = 0.03127301
#
# Stress axis : x y z
#
# Youngs Moduli (GPa) = 67.62165 88.45545 84.91611
#
# Poissons Ratio (x) = 0.25911 -0.22786
# Poissons Ratio (y) = 0.19808 0.25920
# Poissons Ratio (z) = -0.18145 0.27000
#
# Static dielectric constant tensor:
#      x y z
#    x 4.022720 0.000000 0.020350 
#    y 0.000000 4.110970 0.000000 
#    z 0.020350 0.000000 4.160320 
# 
# 
# High freq. dielectric constant tensor:
#      x y z
#    x 1.896610 0.000000 -0.011740 
#    y 0.000000 1.888580 0.000000 
#    z -0.011740 0.000000 1.900340 
# 
# From -- ./inp_files/172509.got.cif
#   From: 2010.06.25/outbox.cif.g09.slc.cpg/sg15_87_cif.got.tgz:172509.got - 2010.06.28 07:06:18.
