data_PCOD8140251
_publ_section_title
;
Structure prediction by ZEFSAII (Michael W. Deem and Ramdas Pophale) SiO2 
 PCOD8140251
Probable space group: C 2/C
;
_chemical_formula_sum "Si O2"
_cell_formula_units_Z 60
_cell_length_a 21.641252
_cell_length_b 11.042827
_cell_length_c 15.534001
_cell_angle_alpha 90.000000
_cell_angle_beta 51.054170
_cell_angle_gamma 90.000000
_cell_volume 2887.225809
_symmetry_space_group_name_H-M "C 2/C"
_symmetry_group_IT_number 15
_symmetry_cell_setting 'monoclinic'
loop_
_space_group_symop_operation_xyz
x,y,z
-x,y,1/2-z
-x,-y,-z
x,-y,1/2+z
1/2+x,1/2+y,z
1/2-x,1/2+y,1/2-z
1/2-x,1/2-y,-z
1/2+x,1/2-y,1/2+z
loop_
_atom_site_type_symbol
_atom_site_label
_atom_site_fract_x
_atom_site_fract_y
_atom_site_fract_z
Si Si1 0.163063 0.717886 0.874567
Si Si2 0.761418 0.259144 0.628594
Si Si3 0.876465 0.541285 0.019347
Si Si4 0.028851 0.326379 0.376638
Si Si5 0.252194 0.861861 0.936670
Si Si6 0.669090 0.402341 0.569585
Si Si7 0.500000 0.649772 0.250000
Si Si8 0.411112 0.014873 0.302537
O O1 0.224421 0.692823 0.743463
O O2 0.146156 0.596767 0.942805
O O3 0.077632 0.748963 0.906186
O O4 0.196794 0.828180 0.902931
O O5 0.810053 0.374618 0.619623
O O6 0.695091 0.309572 0.621523
O O7 0.819746 0.163241 0.532061
O O8 0.878181 0.557300 0.914296
O O9 0.960671 0.591157 0.981563
O O10 0.993830 0.232942 0.339545
O O11 0.087291 0.420426 0.276986
O O12 0.345405 0.885282 0.831397
O O13 0.250000 0.750000 0.000000
O O14 0.217347 0.973234 0.022124
O O15 0.577816 0.434135 0.673270
O O16 0.500000 0.067101 0.250000
#
# Coordination Sequence:
#
# PCOD8140251 Si02
#       8
#     8   8   8   8   8   8   4   8
#     4  12  26  38  65 101 141 172 227 285 338 404
#     4  11  22  38  68  98 125 173 227 278 339 395
#     4  11  21  42  66 100 131 174 226 286 338 397
#     4  11  21  41  70 101 131 170 231 293 332 398
#     4  12  25  47  65  95 143 186 220 277 350 422
#     4  11  23  42  70  93 132 176 228 275 339 415
#     4  12  20  42  68 102 126 178 226 286 338 408
#     4  10  20  40  74  97 126 177 232 279 337 403
#
# _framework density 20.781192999999998
#
# number of rings (size 3 to 8) (size 9 to 14) (size 15 to 20)
#    0.000    0.800    7.333    1.200    3.733    0.000 
#    1.200    0.667    2.933    0.000    0.000    0.000 
#    0.000    0.000    0.000    0.000    0.000    0.000 
#
# Total GULP energy -371782.940243 kJ/mol
# GULP energy per Si atom -12392.764675 kJ/mol
# Density = 2.073389 g / cm^3
# Si number density = 20.781193 Si / 1000 Ang^3
#
#
#
# Elastic Constant Matrix: (Units=GPa)
#
#
# Indices 1 2 3 4 5 6 
#
# 1 121.1587 27.4139 29.2525 0.0000 -15.4482 0.0000
# 2 27.4139 67.1672 18.1946 0.0000 -12.8957 0.0000
# 3 29.2525 18.1946 83.7353 0.0000 -21.1165 0.0000
# 4 0.0000 0.0000 0.0000 26.9049 0.0000 -9.5197
# 5 -15.4482 -12.8957 -21.1165 0.0000 34.5198 0.0000
# 6 0.0000 0.0000 0.0000 -9.5197 0.0000 39.2948
#
#
#
# Elastic Compliance Matrix: (Units=1/GPa)
#
#
# Indices 1 2 3 4 5 6 
#
# 1 0.009716 -0.002996 -0.002281 0.000000 0.001834 0.000000
# 2 -0.002996 0.017357 -0.001688 0.000000 0.004111 0.000000
# 3 -0.002281 -0.001688 0.015004 0.000000 0.007527 0.000000
# 4 0.000000 0.000000 0.000000 0.040653 0.000000 0.009849
# 5 0.001834 0.004111 0.007527 0.000000 0.035930 0.000000
# 6 0.000000 0.000000 0.000000 0.009849 0.000000 0.027835
#
#
# Mechanical properties :
#
#
# Convention : Reuss Voigt Hill
#
# Bulk Modulus (GPa) = 35.52652 46.86480 41.19566
# Shear Modulus (GPa) = 29.44520 33.29059 31.36789
#
# Velocity S-wave (km/s) = 3.76828 4.00679 3.88936
# Velocity P-wave (km/s) = 6.00549 6.63372 6.32741
#
# Compressibility (1/GPa) = 0.02814798
#
# Stress axis : x y z
#
# Youngs Moduli (GPa) = 102.92378 57.61206 66.64786
#
# Poissons Ratio (x) = 0.17258 0.15202
# Poissons Ratio (y) = 0.30832 0.11253
# Poissons Ratio (z) = 0.23476 0.09727
#
# Static dielectric constant tensor:
#      x y z
#    x 3.934010 0.000000 -0.374450 
#    y 0.000000 3.678400 0.000000 
#    z -0.374450 0.000000 3.461120 
# 
# 
# High freq. dielectric constant tensor:
#      x y z
#    x 1.822880 0.000000 -0.011240 
#    y 0.000000 1.783730 0.000000 
#    z -0.011240 0.000000 1.813090 
# 
# From -- ./inp_files/173153.got.cif
#   From: 2010.06.25/outbox.cif.g09.slc.cpg/sg15_87_cif.got.tgz:173153.got - 2010.06.28 07:06:18.
